# generated using pymatgen
data_K2Te3
_symmetry_space_group_name_H-M   'P 1'
_cell_length_a   4.61694594
_cell_length_b   10.41162119
_cell_length_c   16.04268144
_cell_angle_alpha   90.00000000
_cell_angle_beta   90.00000000
_cell_angle_gamma   90.00000000
_symmetry_Int_Tables_number   1
_chemical_formula_structural   K2Te3
_chemical_formula_sum   'K8 Te12'
_cell_volume   771.16996713
_cell_formula_units_Z   4
loop_
 _symmetry_equiv_pos_site_id
 _symmetry_equiv_pos_as_xyz
  1  'x, y, z'
loop_
 _atom_site_type_symbol
 _atom_site_label
 _atom_site_symmetry_multiplicity
 _atom_site_fract_x
 _atom_site_fract_y
 _atom_site_fract_z
 _atom_site_occupancy
  K  K0  1  0.72408716  0.97191874  0.62344421  1
  K  K1  1  0.22408716  0.02808126  0.87655579  1
  K  K2  1  0.27591284  0.47191874  0.37655579  1
  K  K3  1  0.77591284  0.52808126  0.12344421  1
  K  K4  1  0.27591284  0.02808126  0.37655579  1
  K  K5  1  0.77591284  0.97191874  0.12344421  1
  K  K6  1  0.72408716  0.52808126  0.62344421  1
  K  K7  1  0.22408716  0.47191874  0.87655579  1
  Te  Te8  1  0.19602954  0.75000000  0.51724026  1
  Te  Te9  1  0.69602954  0.25000000  0.98275974  1
  Te  Te10  1  0.80397046  0.25000000  0.48275974  1
  Te  Te11  1  0.30397046  0.75000000  0.01724026  1
  Te  Te12  1  0.29482362  0.75000000  0.73854006  1
  Te  Te13  1  0.79482362  0.25000000  0.76145994  1
  Te  Te14  1  0.70517638  0.25000000  0.26145994  1
  Te  Te15  1  0.20517638  0.75000000  0.23854006  1
  Te  Te16  1  0.69658363  0.75000000  0.87681030  1
  Te  Te17  1  0.19658363  0.25000000  0.62318970  1
  Te  Te18  1  0.30341637  0.25000000  0.12318970  1
  Te  Te19  1  0.80341637  0.75000000  0.37681030  1
