# generated using pymatgen
data_CsPrHgSe3
_symmetry_space_group_name_H-M   'P 1'
_cell_length_a   4.43388834
_cell_length_b   8.48733290
_cell_length_c   11.47397320
_cell_angle_alpha   90.00000000
_cell_angle_beta   90.00000000
_cell_angle_gamma   105.14164719
_symmetry_Int_Tables_number   1
_chemical_formula_structural   CsPrHgSe3
_chemical_formula_sum   'Cs2 Pr2 Hg2 Se6'
_cell_volume   416.79690612
_cell_formula_units_Z   2
loop_
 _symmetry_equiv_pos_site_id
 _symmetry_equiv_pos_as_xyz
  1  'x, y, z'
loop_
 _atom_site_type_symbol
 _atom_site_label
 _atom_site_symmetry_multiplicity
 _atom_site_fract_x
 _atom_site_fract_y
 _atom_site_fract_z
 _atom_site_occupancy
  Se  Se0  1  0.93714438  0.87428876  0.25000000  1
  Se  Se1  1  0.06285562  0.12571124  0.75000000  1
  Se  Se2  1  0.37862768  0.75725536  0.54963146  1
  Se  Se3  1  0.37862768  0.75725536  0.95036854  1
  Se  Se4  1  0.62137232  0.24274464  0.04963146  1
  Se  Se5  1  0.62137232  0.24274464  0.45036854  1
  Cs  Cs6  1  0.74484525  0.48969051  0.75000000  1
  Cs  Cs7  1  0.25515475  0.51030949  0.25000000  1
  Pr  Pr8  1  0.00000000  0.00000000  0.50000000  1
  Pr  Pr9  1  0.00000000  0.00000000  0.00000000  1
  Hg  Hg10  1  0.54146937  0.08293875  0.25000000  1
  Hg  Hg11  1  0.45853063  0.91706125  0.75000000  1
