# generated using pymatgen
data_K2Mn2Be3F12
_symmetry_space_group_name_H-M   'P 1'
_cell_length_a   10.26593798
_cell_length_b   10.23496717
_cell_length_c   20.42782547
_cell_angle_alpha   89.95157887
_cell_angle_beta   90.00000000
_cell_angle_gamma   90.00000000
_symmetry_Int_Tables_number   1
_chemical_formula_structural   K2Mn2Be3F12
_chemical_formula_sum   'K16 Mn16 Be24 F96'
_cell_volume   2146.38227835
_cell_formula_units_Z   8
loop_
 _symmetry_equiv_pos_site_id
 _symmetry_equiv_pos_as_xyz
  1  'x, y, z'
loop_
 _atom_site_type_symbol
 _atom_site_label
 _atom_site_symmetry_multiplicity
 _atom_site_fract_x
 _atom_site_fract_y
 _atom_site_fract_z
 _atom_site_occupancy
  K  K0  1  0.56388011  0.19797765  0.96911154  1
  K  K1  1  0.30259309  0.03951499  0.65637506  1
  K  K2  1  0.78527581  0.93495358  0.85137745  1
  K  K3  1  0.93520974  0.31475759  0.71697081  1
  K  K4  1  0.28527581  0.06504642  0.14862255  1
  K  K5  1  0.69989690  0.53982985  0.09944275  1
  K  K6  1  0.68713102  0.54532708  0.60372451  1
  K  K7  1  0.06388011  0.80202235  0.03088846  1
  K  K8  1  0.55385057  0.17140537  0.47671207  1
  K  K9  1  0.43520974  0.68524241  0.28302919  1
  K  K10  1  0.92776740  0.32254376  0.22058774  1
  K  K11  1  0.42776740  0.67745624  0.77941226  1
  K  K12  1  0.19989690  0.46017015  0.90055725  1
  K  K13  1  0.05385057  0.82859463  0.52328793  1
  K  K14  1  0.80259309  0.96048501  0.34362494  1
  K  K15  1  0.18713102  0.45467292  0.39627549  1
  Mn  Mn16  1  0.15601916  0.09950573  0.33326637  1
  Mn  Mn17  1  0.84896150  0.58599016  0.92376618  1
  Mn  Mn18  1  0.08394234  0.68393189  0.70067501  1
  Mn  Mn19  1  0.42546375  0.84481716  0.95016780  1
  Mn  Mn20  1  0.89621954  0.19165552  0.54096330  1
  Mn  Mn21  1  0.57551391  0.32546816  0.78881255  1
  Mn  Mn22  1  0.63318129  0.89988612  0.16802889  1
  Mn  Mn23  1  0.58394234  0.31606811  0.29932499  1
  Mn  Mn24  1  0.92546375  0.15518284  0.04983220  1
  Mn  Mn25  1  0.34896150  0.41400984  0.07623382  1
  Mn  Mn26  1  0.33829412  0.38857606  0.58472583  1
  Mn  Mn27  1  0.65601916  0.90049427  0.66673363  1
  Mn  Mn28  1  0.83829412  0.61142394  0.41527417  1
  Mn  Mn29  1  0.39621954  0.80834448  0.45903670  1
  Mn  Mn30  1  0.07551391  0.67453184  0.21118745  1
  Mn  Mn31  1  0.13318129  0.10011388  0.83197111  1
  Be  Be32  1  0.24709135  0.38103873  0.73903462  1
  Be  Be33  1  0.62268067  0.21584670  0.13339651  1
  Be  Be34  1  0.45530703  0.01242319  0.80586530  1
  Be  Be35  1  0.73190925  0.86974276  0.01471740  1
  Be  Be36  1  0.95530703  0.98757681  0.19413470  1
  Be  Be37  1  0.95906212  0.99282518  0.68643298  1
  Be  Be38  1  0.86264483  0.27012025  0.88868163  1
  Be  Be39  1  0.12209220  0.78586355  0.36149393  1
  Be  Be40  1  0.03440933  0.48199812  0.06545929  1
  Be  Be41  1  0.53440933  0.51800188  0.93454071  1
  Be  Be42  1  0.62209220  0.21413645  0.63850607  1
  Be  Be43  1  0.87258902  0.28924449  0.38303320  1
  Be  Be44  1  0.54166622  0.50356446  0.44772410  1
  Be  Be45  1  0.23190925  0.13025724  0.98528260  1
  Be  Be46  1  0.04166622  0.49643554  0.55227590  1
  Be  Be47  1  0.36264483  0.72987975  0.11131837  1
  Be  Be48  1  0.76346078  0.61630704  0.75794380  1
  Be  Be49  1  0.12268067  0.78415330  0.86660349  1
  Be  Be50  1  0.72817672  0.88314825  0.50959434  1
  Be  Be51  1  0.26346078  0.38369296  0.24205620  1
  Be  Be52  1  0.22817672  0.11685175  0.49040566  1
  Be  Be53  1  0.37258902  0.71075551  0.61696680  1
  Be  Be54  1  0.74709135  0.61896127  0.26096538  1
  Be  Be55  1  0.45906212  0.00717482  0.31356702  1
  F  F56  1  0.30510803  0.01586411  0.79405735  1
  F  F57  1  0.18116925  0.51869728  0.74706535  1
  F  F58  1  0.50130274  0.14799006  0.83180831  1
  F  F59  1  0.67598897  0.49158902  0.96081422  1
  F  F60  1  0.72301466  0.27248758  0.58923571  1
  F  F61  1  0.59122624  0.07064878  0.61740808  1
  F  F62  1  0.56067254  0.40154258  0.39204704  1
  F  F63  1  0.68753780  0.80005388  0.07871223  1
  F  F64  1  0.93318410  0.40618885  0.88990675  1
  F  F65  1  0.58149665  0.88759864  0.48839673  1
  F  F66  1  0.80001382  0.77306774  0.96562826  1
  F  F67  1  0.89740053  0.59703663  0.72259368  1
  F  F68  1  0.46225794  0.62246805  0.42168553  1
  F  F69  1  0.11999536  0.76822321  0.79169184  1
  F  F70  1  0.49594204  0.90234713  0.85494388  1
  F  F71  1  0.61999536  0.23177679  0.20830816  1
  F  F72  1  0.67327032  0.22410601  0.71054049  1
  F  F73  1  0.28521351  0.97418166  0.49414275  1
  F  F74  1  0.43242668  0.44883989  0.98056614  1
  F  F75  1  0.80510803  0.98413589  0.20594265  1
  F  F76  1  0.51375073  0.66681346  0.93084902  1
  F  F77  1  0.78521351  0.02581834  0.50585725  1
  F  F78  1  0.49518904  0.79684822  0.62680903  1
  F  F79  1  0.31772343  0.72905038  0.54678575  1
  F  F80  1  0.49508176  0.29503901  0.63315390  1
  F  F81  1  0.11360411  0.06489754  0.02094501  1
  F  F82  1  0.89381410  0.60494414  0.24503356  1
  F  F83  1  0.39381410  0.39505586  0.75496644  1
  F  F84  1  0.07201914  0.92487962  0.88342801  1
  F  F85  1  0.09122624  0.92935122  0.38259192  1
  F  F86  1  0.67890868  0.72234619  0.72222294  1
  F  F87  1  0.68116925  0.48130272  0.25293465  1
  F  F88  1  0.68701850  0.48508129  0.74809045  1
  F  F89  1  0.51082766  0.45942366  0.86529621  1
  F  F90  1  0.06067254  0.59845742  0.60795296  1
  F  F91  1  0.82611955  0.95860230  0.72064563  1
  F  F92  1  0.72415761  0.67423564  0.33139300  1
  F  F93  1  0.52027884  0.13313676  0.34383729  1
  F  F94  1  0.17741311  0.28994158  0.79013764  1
  F  F95  1  0.76363170  0.24144351  0.10603675  1
  F  F96  1  0.18701850  0.51491871  0.25190955  1
  F  F97  1  0.27269194  0.75711182  0.67052190  1
  F  F98  1  0.01082766  0.54057634  0.13470379  1
  F  F99  1  0.27926929  0.34365527  0.16872790  1
  F  F100  1  0.32611955  0.04139770  0.27935437  1
  F  F101  1  0.25066530  0.17553600  0.42033605  1
  F  F102  1  0.93365040  0.09815844  0.63223920  1
  F  F103  1  0.17890868  0.27765381  0.27777706  1
  F  F104  1  0.31112547  0.19650580  0.54154342  1
  F  F105  1  0.05688725  0.05616584  0.73558136  1
  F  F106  1  0.96225794  0.37753195  0.57831447  1
  F  F107  1  0.39740053  0.40296337  0.27740632  1
  F  F108  1  0.00130274  0.85200994  0.16819169  1
  F  F109  1  0.17758263  0.44835015  0.52680028  1
  F  F110  1  0.33912404  0.02817589  0.96620710  1
  F  F111  1  0.77926929  0.65634473  0.83127210  1
  F  F112  1  0.03441501  0.67891136  0.90186812  1
  F  F113  1  0.75066530  0.82446400  0.57966395  1
  F  F114  1  0.22301466  0.72751242  0.41076429  1
  F  F115  1  0.02027884  0.86686324  0.65616271  1
  F  F116  1  0.93880556  0.16959774  0.84540841  1
  F  F117  1  0.61360411  0.93510246  0.97905499  1
  F  F118  1  0.81112547  0.80349420  0.45845658  1
  F  F119  1  0.93242668  0.55116011  0.01943386  1
  F  F120  1  0.83912404  0.97182411  0.03379290  1
  F  F121  1  0.01375073  0.33318654  0.06915098  1
  F  F122  1  0.17598897  0.50841098  0.03918578  1
  F  F123  1  0.22658511  0.71711094  0.14384157  1
  F  F124  1  0.01993431  0.02662207  0.26062425  1
  F  F125  1  0.26363170  0.75855649  0.89396325  1
  F  F126  1  0.99594204  0.09765287  0.14505612  1
  F  F127  1  0.67758263  0.55164985  0.47319972  1
  F  F128  1  0.43318410  0.59381115  0.11009325  1
  F  F129  1  0.99508176  0.70496099  0.36684610  1
  F  F130  1  0.99518904  0.20315178  0.37319097  1
  F  F131  1  0.53441501  0.32108864  0.09813188  1
  F  F132  1  0.22415761  0.32576436  0.66860700  1
  F  F133  1  0.55688725  0.94383416  0.26441864  1
  F  F134  1  0.57201914  0.07512038  0.11657199  1
  F  F135  1  0.84119464  0.21201954  0.95891438  1
  F  F136  1  0.43880556  0.83040226  0.15459159  1
  F  F137  1  0.51993431  0.97337793  0.73937575  1
  F  F138  1  0.72658511  0.28288906  0.85615843  1
  F  F139  1  0.77269194  0.24288818  0.32947810  1
  F  F140  1  0.47030808  0.43136684  0.50515989  1
  F  F141  1  0.17327032  0.77589399  0.28945951  1
  F  F142  1  0.67741311  0.71005842  0.20986236  1
  F  F143  1  0.90961211  0.43546265  0.37085840  1
  F  F144  1  0.30001382  0.22693226  0.03437174  1
  F  F145  1  0.97030808  0.56863316  0.49484011  1
  F  F146  1  0.08149665  0.11240136  0.51160327  1
  F  F147  1  0.18753780  0.19994612  0.92128777  1
  F  F148  1  0.43365040  0.90184156  0.36776080  1
  F  F149  1  0.40961211  0.56453735  0.62914160  1
  F  F150  1  0.34119464  0.78798046  0.04108562  1
  F  F151  1  0.81772343  0.27094962  0.45321425  1
