# generated using pymatgen
data_USe2
_symmetry_space_group_name_H-M   'P 1'
_cell_length_a   6.57376982
_cell_length_b   10.68094547
_cell_length_c   10.67842975
_cell_angle_alpha   90.01781527
_cell_angle_beta   89.98979298
_cell_angle_gamma   89.96116027
_symmetry_Int_Tables_number   1
_chemical_formula_structural   USe2
_chemical_formula_sum   'U10 Se20'
_cell_volume   749.77586813
_cell_formula_units_Z   10
loop_
 _symmetry_equiv_pos_site_id
 _symmetry_equiv_pos_as_xyz
  1  'x, y, z'
loop_
 _atom_site_type_symbol
 _atom_site_label
 _atom_site_symmetry_multiplicity
 _atom_site_fract_x
 _atom_site_fract_y
 _atom_site_fract_z
 _atom_site_occupancy
  U  U0  1  0.75004241  0.40918759  0.59666034  1
  U  U1  1  0.75164837  0.59505548  0.09166418  1
  U  U2  1  0.75140730  0.90466744  0.40806846  1
  U  U3  1  0.74992913  0.09046034  0.90430997  1
  U  U4  1  0.14199280  0.75006869  0.74965598  1
  U  U5  1  0.24997350  0.90887031  0.09425334  1
  U  U6  1  0.24750068  0.09593869  0.59024347  1
  U  U7  1  0.24943984  0.40424200  0.90969600  1
  U  U8  1  0.25021179  0.59135639  0.40516706  1
  U  U9  1  0.85814984  0.24999086  0.25037171  1
  Se  Se10  1  0.38138259  0.54015886  0.66379755  1
  Se  Se11  1  0.38204763  0.66271376  0.95980320  1
  Se  Se12  1  0.38148614  0.83735738  0.53941524  1
  Se  Se13  1  0.38051696  0.96008973  0.83588373  1
  Se  Se14  1  0.88533325  0.54172676  0.83756312  1
  Se  Se15  1  0.88479471  0.66266365  0.54100382  1
  Se  Se16  1  0.88428642  0.83713156  0.95869181  1
  Se  Se17  1  0.88362602  0.95833959  0.66226708  1
  Se  Se18  1  0.00219375  0.74986512  0.24963126  1
  Se  Se19  1  0.99865085  0.25000351  0.75091820  1
  Se  Se20  1  0.11656391  0.04163343  0.33613821  1
  Se  Se21  1  0.11419496  0.16235472  0.04056541  1
  Se  Se22  1  0.11400015  0.33792218  0.46000963  1
  Se  Se23  1  0.11725729  0.45793613  0.16379477  1
  Se  Se24  1  0.50078185  0.75013203  0.24952746  1
  Se  Se25  1  0.49849214  0.24961812  0.75018779  1
  Se  Se26  1  0.61698519  0.04129521  0.16308469  1
  Se  Se27  1  0.61908213  0.16288513  0.46055523  1
  Se  Se28  1  0.62017991  0.33726313  0.03943048  1
  Se  Se29  1  0.61784649  0.45907218  0.33763580  1
