# generated using pymatgen
data_SrFe3P4HO16
_symmetry_space_group_name_H-M   'P 1'
_cell_length_a   8.60538341
_cell_length_b   7.39179288
_cell_length_c   19.80375511
_cell_angle_alpha   89.98706574
_cell_angle_beta   94.86827895
_cell_angle_gamma   89.99956879
_symmetry_Int_Tables_number   1
_chemical_formula_structural   SrFe3P4HO16
_chemical_formula_sum   'Sr4 Fe12 P16 H4 O64'
_cell_volume   1255.15676452
_cell_formula_units_Z   4
loop_
 _symmetry_equiv_pos_site_id
 _symmetry_equiv_pos_as_xyz
  1  'x, y, z'
loop_
 _atom_site_type_symbol
 _atom_site_label
 _atom_site_symmetry_multiplicity
 _atom_site_fract_x
 _atom_site_fract_y
 _atom_site_fract_z
 _atom_site_occupancy
  Sr  Sr0  1  0.20174713  0.43797076  0.06242584  1
  Sr  Sr1  1  0.79822992  0.93785517  0.43758901  1
  Sr  Sr2  1  0.79826663  0.56207548  0.93757854  1
  Sr  Sr3  1  0.20176837  0.06209860  0.56243531  1
  Fe  Fe4  1  0.78258215  0.06507592  0.91837458  1
  Fe  Fe5  1  0.21738598  0.56537086  0.58159569  1
  Fe  Fe6  1  0.21750506  0.93462926  0.08184090  1
  Fe  Fe7  1  0.78255506  0.43471083  0.41830567  1
  Fe  Fe8  1  0.72934787  0.50697524  0.71422852  1
  Fe  Fe9  1  0.27066457  0.00671412  0.78589518  1
  Fe  Fe10  1  0.27065037  0.49331840  0.28570786  1
  Fe  Fe11  1  0.72938669  0.99311393  0.21416782  1
  Fe  Fe12  1  0.26420246  0.60212957  0.80921322  1
  Fe  Fe13  1  0.73573501  0.10282394  0.69079415  1
  Fe  Fe14  1  0.73566804  0.39688095  0.19091774  1
  Fe  Fe15  1  0.26433418  0.89738889  0.30924524  1
  P  P16  1  0.44678383  0.29349181  0.89989391  1
  P  P17  1  0.55344237  0.79373754  0.60021723  1
  P  P18  1  0.55351319  0.70632613  0.10029580  1
  P  P19  1  0.44645955  0.20634675  0.39969932  1
  P  P20  1  0.61532551  0.81766446  0.81043137  1
  P  P21  1  0.38507306  0.31710295  0.68934915  1
  P  P22  1  0.38485235  0.18254941  0.18955233  1
  P  P23  1  0.61502316  0.68263880  0.31043888  1
  P  P24  1  0.98395406  0.29370458  0.81790537  1
  P  P25  1  0.01552367  0.79410176  0.68200768  1
  P  P26  1  0.01565823  0.70602636  0.18216619  1
  P  P27  1  0.98442518  0.20605534  0.31788942  1
  P  P28  1  0.88560740  0.18122581  0.06823319  1
  P  P29  1  0.11448073  0.68120339  0.43173414  1
  P  P30  1  0.11443550  0.81906325  0.93189958  1
  P  P31  1  0.88553598  0.31874650  0.56820510  1
  H  H32  1  0.28338123  0.14128343  0.96220693  1
  H  H33  1  0.71656187  0.64138777  0.53783985  1
  H  H34  1  0.71657421  0.85861936  0.03784640  1
  H  H35  1  0.28341987  0.35857481  0.46215713  1
  O  O36  1  0.94738273  0.88142769  0.90573545  1
  O  O37  1  0.05254001  0.38147257  0.59436784  1
  O  O38  1  0.05251614  0.11853286  0.09447324  1
  O  O39  1  0.94746228  0.61849164  0.40557902  1
  O  O40  1  0.80955164  0.03656686  0.01672601  1
  O  O41  1  0.19046748  0.53650699  0.48329088  1
  O  O42  1  0.19014882  0.96374803  0.98347941  1
  O  O43  1  0.80948213  0.46345112  0.51666497  1
  O  O44  1  0.90252783  0.26628479  0.88480508  1
  O  O45  1  0.09722014  0.76644490  0.61514898  1
  O  O46  1  0.09736536  0.73348981  0.11529235  1
  O  O47  1  0.90265729  0.23344937  0.38476696  1
  O  O48  1  0.63943730  0.86781986  0.88754516  1
  O  O49  1  0.36067991  0.36766429  0.61226425  1
  O  O50  1  0.36068996  0.13218509  0.11243722  1
  O  O51  1  0.63932986  0.63218934  0.38755182  1
  O  O52  1  0.61793940  0.27041091  0.92833642  1
  O  O53  1  0.38211024  0.77072521  0.57176354  1
  O  O54  1  0.38219966  0.72927258  0.07184137  1
  O  O55  1  0.61786296  0.22907572  0.42817465  1
  O  O56  1  0.85346083  0.30066463  0.75835213  1
  O  O57  1  0.14626192  0.80112643  0.74161032  1
  O  O58  1  0.14636638  0.69932233  0.24166060  1
  O  O59  1  0.85359896  0.19916178  0.25835698  1
  O  O60  1  0.77807106  0.31067754  0.62736232  1
  O  O61  1  0.22208374  0.81141254  0.87264156  1
  O  O62  1  0.22195662  0.68923854  0.37261130  1
  O  O63  1  0.77802097  0.18925420  0.12739358  1
  O  O64  1  0.56197670  0.30379241  0.71284920  1
  O  O65  1  0.43818123  0.80423565  0.78695738  1
  O  O66  1  0.43806497  0.69613863  0.28704442  1
  O  O67  1  0.56196000  0.19609615  0.21295060  1
  O  O68  1  0.59209841  0.65473440  0.65609320  1
  O  O69  1  0.40794735  0.15492940  0.84391078  1
  O  O70  1  0.40787538  0.34525470  0.34381784  1
  O  O71  1  0.59212579  0.84520503  0.15614213  1
  O  O72  1  0.91093012  0.63342070  0.69315087  1
  O  O73  1  0.08889049  0.13322310  0.80676665  1
  O  O74  1  0.08905709  0.36670515  0.30672354  1
  O  O75  1  0.91098619  0.86669711  0.19326183  1
  O  O76  1  0.69295377  0.62924860  0.80243486  1
  O  O77  1  0.30719600  0.12889814  0.69743600  1
  O  O78  1  0.30714134  0.37092372  0.19753899  1
  O  O79  1  0.69282977  0.87089410  0.30239738  1
  O  O80  1  0.30724195  0.46545880  0.72903614  1
  O  O81  1  0.69339067  0.96566590  0.77095525  1
  O  O82  1  0.69303591  0.53437542  0.27091347  1
  O  O83  1  0.30703382  0.03449812  0.22908462  1
  O  O84  1  0.41856413  0.49016036  0.87667699  1
  O  O85  1  0.58164299  0.98999340  0.62349342  1
  O  O86  1  0.58173997  0.50995563  0.12360980  1
  O  O87  1  0.41821188  0.01011696  0.37644444  1
  O  O88  1  0.07061147  0.47552012  0.82508900  1
  O  O89  1  0.92877763  0.97544112  0.67471150  1
  O  O90  1  0.92882553  0.52453422  0.17492661  1
  O  O91  1  0.07113760  0.02469688  0.32508438  1
  O  O92  1  0.33428092  0.26471431  0.95980849  1
  O  O93  1  0.66573215  0.76483360  0.54021111  1
  O  O94  1  0.66578546  0.73513979  0.04027066  1
  O  O95  1  0.33418365  0.23513111  0.45972241  1
  O  O96  1  0.90277063  0.36368626  0.03340795  1
  O  O97  1  0.09724327  0.86362679  0.46659111  1
  O  O98  1  0.09734166  0.63661739  0.96662060  1
  O  O99  1  0.90278213  0.13638710  0.53334872  1
