# generated using pymatgen
data_Li4MnCo2O7
_symmetry_space_group_name_H-M   'P 1'
_cell_length_a   2.92830216
_cell_length_b   7.78503562
_cell_length_c   11.42985734
_cell_angle_alpha   84.16298951
_cell_angle_beta   97.35974239
_cell_angle_gamma   79.15968401
_symmetry_Int_Tables_number   1
_chemical_formula_structural   Li4MnCo2O7
_chemical_formula_sum   'Li8 Mn2 Co4 O14'
_cell_volume   251.68229512
_cell_formula_units_Z   2
loop_
 _symmetry_equiv_pos_site_id
 _symmetry_equiv_pos_as_xyz
  1  'x, y, z'
loop_
 _atom_site_type_symbol
 _atom_site_label
 _atom_site_symmetry_multiplicity
 _atom_site_fract_x
 _atom_site_fract_y
 _atom_site_fract_z
 _atom_site_occupancy
  Li  Li0  1  0.56958318  0.07332045  0.21248581  1
  Li  Li1  1  0.71987999  0.21130425  0.65106323  1
  Li  Li2  1  0.85154901  0.36012475  0.06322277  1
  Li  Li3  1  0.28571400  0.78571400  0.35714300  1
  Li  Li4  1  0.42539064  0.93834394  0.78912622  1
  Li  Li5  1  0.00184582  0.49810855  0.50180019  1
  Li  Li6  1  0.14603736  0.63308406  0.92515878  1
  Li  Li7  1  0.28571400  0.28571400  0.85714300  1
  Mn  Mn8  1  0.99218748  0.00922766  0.99360262  1
  Mn  Mn9  1  0.57924152  0.56220134  0.72068338  1
  Co  Co10  1  0.14330728  0.14228186  0.42889642  1
  Co  Co11  1  0.42812072  0.42914614  0.28538858  1
  Co  Co12  1  0.71312949  0.71575171  0.14200969  1
  Co  Co13  1  0.85829951  0.85567729  0.57227631  1
  O  O14  1  0.43734158  0.15854909  0.03323124  1
  O  O15  1  0.57470569  0.31012088  0.45953225  1
  O  O16  1  0.70096179  0.47621548  0.87813907  1
  O  O17  1  0.13972552  0.88701682  0.16646887  1
  O  O18  1  0.28907329  0.02514431  0.60328990  1
  O  O19  1  0.85810721  0.59988202  0.31609644  1
  O  O20  1  0.00675895  0.72914421  0.74266312  1
  O  O21  1  0.71332079  0.97154598  0.39818856  1
  O  O22  1  0.87046721  0.09521352  0.83614693  1
  O  O23  1  0.99672331  0.26130812  0.25475375  1
  O  O24  1  0.43170248  0.68441118  0.54781613  1
  O  O25  1  0.56466905  0.84228379  0.97162288  1
  O  O26  1  0.13408742  0.41287991  0.68105476  1
  O  O27  1  0.28235571  0.54628469  0.11099610  1
