# generated using pymatgen
data_Li3MnCoO5
_symmetry_space_group_name_H-M   'P 1'
_cell_length_a   2.90705818
_cell_length_b   12.17615042
_cell_length_c   5.14333775
_cell_angle_alpha   85.46296612
_cell_angle_beta   90.38867187
_cell_angle_gamma   83.80079863
_symmetry_Int_Tables_number   1
_chemical_formula_structural   Li3MnCoO5
_chemical_formula_sum   'Li6 Mn2 Co2 O10'
_cell_volume   180.40426328
_cell_formula_units_Z   2
loop_
 _symmetry_equiv_pos_site_id
 _symmetry_equiv_pos_as_xyz
  1  'x, y, z'
loop_
 _atom_site_type_symbol
 _atom_site_label
 _atom_site_symmetry_multiplicity
 _atom_site_fract_x
 _atom_site_fract_y
 _atom_site_fract_z
 _atom_site_occupancy
  Li  Li0  1  0.89440194  0.20228745  0.30851860  1
  Li  Li1  1  0.32499864  0.38950834  0.09298275  1
  Li  Li2  1  0.70720552  0.59520695  0.90779690  1
  Li  Li3  1  0.09189075  0.80546909  0.69828924  1
  Li  Li4  1  0.48553360  0.00743491  0.49882852  1
  Li  Li5  1  0.40893854  0.19841499  0.79132310  1
  Mn  Mn6  1  0.99050659  0.00634780  0.98474730  1
  Mn  Mn7  1  0.19957961  0.59918665  0.41103338  1
  Co  Co8  1  0.81497201  0.38479325  0.61778800  1
  Co  Co9  1  0.59540649  0.80255109  0.19997096  1
  O  O10  1  0.45514543  0.08768905  0.12766057  1
  O  O11  1  0.85780371  0.30955978  0.92800325  1
  O  O12  1  0.25037405  0.50345815  0.72051489  1
  O  O13  1  0.65672133  0.69192137  0.53999079  1
  O  O14  1  0.03522555  0.89894061  0.32320363  1
  O  O15  1  0.35355113  0.30863298  0.44643165  1
  O  O16  1  0.73836560  0.51343975  0.27982756  1
  O  O17  1  0.15430271  0.69823902  0.08333335  1
  O  O18  1  0.53434665  0.90626024  0.86637819  1
  O  O19  1  0.95073014  0.09065854  0.67337739  1
