# generated using pymatgen
data_Na2CaPb3(CO3)5
_symmetry_space_group_name_H-M   'P 1'
_cell_length_a   10.69937702
_cell_length_b   10.72723661
_cell_length_c   13.51791328
_cell_angle_alpha   89.99999998
_cell_angle_beta   89.15259591
_cell_angle_gamma   120.08617065
_symmetry_Int_Tables_number   1
_chemical_formula_structural   Na2CaPb3(CO3)5
_chemical_formula_sum   'Na8 Ca4 Pb12 C20 O60'
_cell_volume   1342.28714986
_cell_formula_units_Z   4
loop_
 _symmetry_equiv_pos_site_id
 _symmetry_equiv_pos_as_xyz
  1  'x, y, z'
loop_
 _atom_site_type_symbol
 _atom_site_label
 _atom_site_symmetry_multiplicity
 _atom_site_fract_x
 _atom_site_fract_y
 _atom_site_fract_z
 _atom_site_occupancy
  Na  Na0  1  0.04938989  0.52642380  0.40463699  1
  Na  Na1  1  0.04938989  0.52296609  0.90463699  1
  Na  Na2  1  0.47606296  0.94971337  0.90481148  1
  Na  Na3  1  0.47606296  0.52634958  0.40481148  1
  Na  Na4  1  0.52523482  0.47339399  0.15676194  1
  Na  Na5  1  0.52633234  0.47877999  0.65229273  1
  Na  Na6  1  0.52633234  0.04755235  0.15229273  1
  Na  Na7  1  0.52523482  0.05184082  0.65676194  1
  Ca  Ca8  1  0.47601317  0.95358310  0.41052872  1
  Ca  Ca9  1  0.47601317  0.52243008  0.91052872  1
  Ca  Ca10  1  0.95359882  0.47343417  0.16133843  1
  Ca  Ca11  1  0.95359882  0.48016465  0.66133843  1
  Pb  Pb12  1  0.15982791  0.85020826  0.24704876  1
  Pb  Pb13  1  0.16830391  0.85417023  0.74900082  1
  Pb  Pb14  1  0.16830391  0.31413368  0.24900082  1
  Pb  Pb15  1  0.15982791  0.30961965  0.74704876  1
  Pb  Pb16  1  0.31510137  0.16783787  0.49940834  1
  Pb  Pb17  1  0.31510137  0.14726350  0.99940834  1
  Pb  Pb18  1  0.68435178  0.83609364  0.24104834  1
  Pb  Pb19  1  0.68435178  0.84825814  0.74104834  1
  Pb  Pb20  1  0.84976308  0.68836232  0.99586928  1
  Pb  Pb21  1  0.83760475  0.68651068  0.49159900  1
  Pb  Pb22  1  0.84976308  0.16140076  0.49586928  1
  Pb  Pb23  1  0.83760475  0.15109406  0.99159900  1
  C  C24  1  0.00024600  0.00088393  0.92522165  1
  C  C25  1  0.20190910  0.79256025  0.02772596  1
  C  C26  1  0.20415452  0.79504818  0.52698613  1
  C  C27  1  0.99921461  0.99837862  0.67516185  1
  C  C28  1  0.33017250  0.66608136  0.24970939  1
  C  C29  1  0.20415452  0.40910634  0.02698613  1
  C  C30  1  0.33017250  0.66409214  0.74970939  1
  C  C31  1  0.20190910  0.40934885  0.52772596  1
  C  C32  1  0.59138367  0.79824642  0.52514517  1
  C  C33  1  0.59138367  0.79313725  0.02514517  1
  C  C34  1  0.40928548  0.20205420  0.27797283  1
  C  C35  1  0.40928548  0.20723128  0.77797283  1
  C  C36  1  0.79731007  0.59147956  0.27497402  1
  C  C37  1  0.79435708  0.59057342  0.77710052  1
  C  C38  1  0.00024600  0.99936207  0.42522165  1
  C  C39  1  0.66644381  0.33585602  0.99960076  1
  C  C40  1  0.66644381  0.33058679  0.49960076  1
  C  C41  1  0.79435708  0.20378365  0.27710052  1
  C  C42  1  0.79731007  0.20583051  0.77497402  1
  C  C43  1  0.99921461  0.00083599  0.17516185  1
  O  O44  1  0.07008549  0.92944346  0.42587243  1
  O  O45  1  0.07071512  0.93077242  0.92789017  1
  O  O46  1  0.08165705  0.69976218  0.07555444  1
  O  O47  1  0.08460839  0.70344464  0.57357100  1
  O  O48  1  0.29137658  0.91141276  0.07424515  1
  O  O49  1  0.29710062  0.91403587  0.57106985  1
  O  O50  1  0.23182938  0.77027880  0.43891347  1
  O  O51  1  0.22825548  0.76825170  0.94022085  1
  O  O52  1  0.08460839  0.38116375  0.07357100  1
  O  O53  1  0.08165705  0.38189487  0.57555444  1
  O  O54  1  0.18950969  0.59303284  0.74358355  1
  O  O55  1  0.18950969  0.59647684  0.24358355  1
  O  O56  1  0.22825548  0.46000378  0.44022085  1
  O  O57  1  0.40027422  0.80697438  0.25669320  1
  O  O58  1  0.07071512  0.13994269  0.42789017  1
  O  O59  1  0.23182938  0.46155059  0.93891347  1
  O  O60  1  0.40027934  0.80380785  0.74843692  1
  O  O61  1  0.07008549  0.14064203  0.92587243  1
  O  O62  1  0.14018247  0.07107235  0.17843124  1
  O  O63  1  0.14018247  0.06911012  0.67843124  1
  O  O64  1  0.40027422  0.59329983  0.75669320  1
  O  O65  1  0.40027934  0.59647149  0.24843692  1
  O  O66  1  0.29710062  0.38306475  0.07106985  1
  O  O67  1  0.29137658  0.37996383  0.57424515  1
  O  O68  1  0.53678282  0.76511266  0.93861741  1
  O  O69  1  0.53678282  0.77167016  0.43861741  1
  O  O70  1  0.62117455  0.91204372  0.07040962  1
  O  O71  1  0.61768846  0.91792410  0.56971705  1
  O  O72  1  0.37859928  0.29101398  0.32520836  1
  O  O73  1  0.38282749  0.29986906  0.82509088  1
  O  O74  1  0.61768846  0.69976436  0.06971705  1
  O  O75  1  0.62117455  0.70913083  0.57040962  1
  O  O76  1  0.37859928  0.08758530  0.82520836  1
  O  O77  1  0.38282749  0.08295843  0.32509088  1
  O  O78  1  0.46036278  0.22820290  0.19018168  1
  O  O79  1  0.46036278  0.23215988  0.69018168  1
  O  O80  1  0.70888194  0.62300427  0.32136471  1
  O  O81  1  0.70330665  0.61903026  0.82327085  1
  O  O82  1  0.59694334  0.40687788  0.99380237  1
  O  O83  1  0.59646225  0.40029202  0.49739449  1
  O  O84  1  0.85979295  0.92989301  0.42624073  1
  O  O85  1  0.85979295  0.92989994  0.92624073  1
  O  O86  1  0.93008568  0.86034533  0.17531641  1
  O  O87  1  0.59646225  0.19617023  0.99739449  1
  O  O88  1  0.77053299  0.53768725  0.18775616  1
  O  O89  1  0.92912476  0.85907506  0.67612948  1
  O  O90  1  0.59694334  0.19006546  0.49380237  1
  O  O91  1  0.76901659  0.53784472  0.68949353  1
  O  O92  1  0.80741153  0.40668883  0.00720571  1
  O  O93  1  0.80741153  0.40072271  0.50720571  1
  O  O94  1  0.91584192  0.61510272  0.31868967  1
  O  O95  1  0.91322856  0.61612481  0.82088556  1
  O  O96  1  0.76901659  0.23117188  0.18949353  1
  O  O97  1  0.77053299  0.23284574  0.68775616  1
  O  O98  1  0.70888194  0.08587767  0.82136471  1
  O  O99  1  0.70330665  0.08427639  0.32327085  1
  O  O100  1  0.91322856  0.29710375  0.32088556  1
  O  O101  1  0.91584192  0.30073920  0.81868967  1
  O  O102  1  0.92912476  0.07004970  0.17612948  1
  O  O103  1  0.93008568  0.06974035  0.67531641  1
