# generated using pymatgen
data_K3ZrH2S(OF)5
_symmetry_space_group_name_H-M   'P 1'
_cell_length_a   6.86724629
_cell_length_b   16.97985860
_cell_length_c   8.91032689
_cell_angle_alpha   90.00000000
_cell_angle_beta   91.33587969
_cell_angle_gamma   90.00000000
_symmetry_Int_Tables_number   1
_chemical_formula_structural   K3ZrH2S(OF)5
_chemical_formula_sum   'K12 Zr4 H8 S4 O20 F20'
_cell_volume   1038.70512687
_cell_formula_units_Z   4
loop_
 _symmetry_equiv_pos_site_id
 _symmetry_equiv_pos_as_xyz
  1  'x, y, z'
loop_
 _atom_site_type_symbol
 _atom_site_label
 _atom_site_symmetry_multiplicity
 _atom_site_fract_x
 _atom_site_fract_y
 _atom_site_fract_z
 _atom_site_occupancy
  K  K0  1  0.39408750  0.16734734  0.67714853  1
  K  K1  1  0.89408750  0.33265266  0.17714853  1
  K  K2  1  0.60591250  0.83265266  0.32285147  1
  K  K3  1  0.10591250  0.66734734  0.82285147  1
  K  K4  1  0.37435517  0.38496262  0.95720240  1
  K  K5  1  0.87435517  0.11503738  0.45720240  1
  K  K6  1  0.62564483  0.61503738  0.04279760  1
  K  K7  1  0.12564483  0.88496262  0.54279760  1
  K  K8  1  0.38761068  0.38220544  0.46868033  1
  K  K9  1  0.88761068  0.11779456  0.96868033  1
  K  K10  1  0.61238932  0.61779456  0.53131967  1
  K  K11  1  0.11238932  0.88220544  0.03131967  1
  Zr  Zr12  1  0.07881111  0.69256717  0.30164851  1
  Zr  Zr13  1  0.57881111  0.80743283  0.80164851  1
  Zr  Zr14  1  0.92118889  0.30743283  0.69835149  1
  Zr  Zr15  1  0.42118889  0.19256717  0.19835149  1
  H  H16  1  0.30321117  0.99682968  0.79940874  1
  H  H17  1  0.80321117  0.50317032  0.29940874  1
  H  H18  1  0.69678883  0.00317032  0.20059126  1
  H  H19  1  0.19678883  0.49682968  0.70059126  1
  H  H20  1  0.30729817  0.05965347  0.92391471  1
  H  H21  1  0.80729817  0.44034653  0.42391471  1
  H  H22  1  0.69270183  0.94034653  0.07608529  1
  H  H23  1  0.19270183  0.55965347  0.57608529  1
  S  S24  1  0.30763634  0.03899148  0.32689352  1
  S  S25  1  0.80763634  0.46100852  0.82689352  1
  S  S26  1  0.69236366  0.96100852  0.67310648  1
  S  S27  1  0.19236366  0.53899148  0.17310648  1
  O  O28  1  0.49255907  0.92043894  0.67776730  1
  O  O29  1  0.99255907  0.57956106  0.17776730  1
  O  O30  1  0.50744093  0.07956106  0.32223270  1
  O  O31  1  0.00744093  0.42043894  0.82223270  1
  O  O32  1  0.31164395  0.59195136  0.27830790  1
  O  O33  1  0.81164395  0.90804864  0.77830790  1
  O  O34  1  0.68835605  0.40804864  0.72169210  1
  O  O35  1  0.18835605  0.09195136  0.22169210  1
  O  O36  1  0.26910794  0.54234971  0.02066856  1
  O  O37  1  0.76910794  0.95765029  0.52066856  1
  O  O38  1  0.73089206  0.45765029  0.97933144  1
  O  O39  1  0.23089206  0.04234971  0.47933144  1
  O  O40  1  0.32114071  0.95818973  0.27082083  1
  O  O41  1  0.82114071  0.54181027  0.77082083  1
  O  O42  1  0.67885929  0.04181027  0.72917917  1
  O  O43  1  0.17885929  0.45818973  0.22917917  1
  O  O44  1  0.28351557  0.52828242  0.63836131  1
  O  O45  1  0.78351557  0.97171758  0.13836131  1
  O  O46  1  0.71648443  0.47171758  0.36163869  1
  O  O47  1  0.21648443  0.02828242  0.86163869  1
  F  F48  1  0.27577913  0.81028644  0.78209938  1
  F  F49  1  0.77577913  0.68971356  0.28209938  1
  F  F50  1  0.72422087  0.18971356  0.21790062  1
  F  F51  1  0.22422087  0.31028644  0.71790062  1
  F  F52  1  0.50216477  0.69019178  0.80459909  1
  F  F53  1  0.00216477  0.80980822  0.30459909  1
  F  F54  1  0.49783523  0.30980822  0.19540091  1
  F  F55  1  0.99783523  0.19019178  0.69540091  1
  F  F56  1  0.31466320  0.73887050  0.41768580  1
  F  F57  1  0.81466320  0.76112950  0.91768580  1
  F  F58  1  0.68533680  0.26112950  0.58231420  1
  F  F59  1  0.18533680  0.23887050  0.08231420  1
  F  F60  1  0.46851089  0.14099082  0.99094868  1
  F  F61  1  0.96851089  0.35900918  0.49094868  1
  F  F62  1  0.53148911  0.85900918  0.00905132  1
  F  F63  1  0.03148911  0.64099082  0.50905132  1
  F  F64  1  0.30724383  0.22276207  0.40027752  1
  F  F65  1  0.80724383  0.27723793  0.90027752  1
  F  F66  1  0.69275617  0.77723793  0.59972248  1
  F  F67  1  0.19275617  0.72276207  0.09972248  1
