# generated using pymatgen
data_Sm3Ir
_symmetry_space_group_name_H-M   'P 1'
_cell_length_a   6.48669446
_cell_length_b   7.32171530
_cell_length_c   9.70591695
_cell_angle_alpha   90.00000000
_cell_angle_beta   90.00000000
_cell_angle_gamma   90.00000000
_symmetry_Int_Tables_number   1
_chemical_formula_structural   Sm3Ir
_chemical_formula_sum   'Sm12 Ir4'
_cell_volume   460.97019975
_cell_formula_units_Z   4
loop_
 _symmetry_equiv_pos_site_id
 _symmetry_equiv_pos_as_xyz
  1  'x, y, z'
loop_
 _atom_site_type_symbol
 _atom_site_label
 _atom_site_symmetry_multiplicity
 _atom_site_fract_x
 _atom_site_fract_y
 _atom_site_fract_z
 _atom_site_occupancy
  Sm  Sm0  1  0.14081813  0.03586489  0.25000000  1
  Sm  Sm1  1  0.64081813  0.46413511  0.75000000  1
  Sm  Sm2  1  0.35918187  0.53586489  0.25000000  1
  Sm  Sm3  1  0.85918187  0.96413511  0.75000000  1
  Sm  Sm4  1  0.67219875  0.17597878  0.06496427  1
  Sm  Sm5  1  0.17219875  0.32402122  0.93503573  1
  Sm  Sm6  1  0.82780125  0.67597878  0.43503573  1
  Sm  Sm7  1  0.32780125  0.82402122  0.56496427  1
  Sm  Sm8  1  0.32780125  0.82402122  0.93503573  1
  Sm  Sm9  1  0.82780125  0.67597878  0.06496427  1
  Sm  Sm10  1  0.17219875  0.32402122  0.56496427  1
  Sm  Sm11  1  0.67219875  0.17597878  0.43503573  1
  Ir  Ir12  1  0.94303193  0.38134519  0.25000000  1
  Ir  Ir13  1  0.44303193  0.11865481  0.75000000  1
  Ir  Ir14  1  0.55696807  0.88134519  0.25000000  1
  Ir  Ir15  1  0.05696807  0.61865481  0.75000000  1
