# generated using pymatgen
data_Ti3Zn3C
_symmetry_space_group_name_H-M   'P 1'
_cell_length_a   8.18659110
_cell_length_b   8.18899908
_cell_length_c   8.18648394
_cell_angle_alpha   59.98076709
_cell_angle_beta   60.02140942
_cell_angle_gamma   59.98759671
_symmetry_Int_Tables_number   1
_chemical_formula_structural   Ti3Zn3C
_chemical_formula_sum   'Ti12 Zn12 C4'
_cell_volume   388.04549302
_cell_formula_units_Z   4
loop_
 _symmetry_equiv_pos_site_id
 _symmetry_equiv_pos_as_xyz
  1  'x, y, z'
loop_
 _atom_site_type_symbol
 _atom_site_label
 _atom_site_symmetry_multiplicity
 _atom_site_fract_x
 _atom_site_fract_y
 _atom_site_fract_z
 _atom_site_occupancy
  Ti  Ti0  1  0.56691296  0.93292535  0.93295775  1
  Ti  Ti1  1  0.56720485  0.56694323  0.93314616  1
  Ti  Ti2  1  0.56729755  0.93310679  0.56689302  1
  Ti  Ti3  1  0.93312098  0.56702709  0.56688185  1
  Ti  Ti4  1  0.93278301  0.93304039  0.56674294  1
  Ti  Ti5  1  0.93272467  0.56685803  0.93301305  1
  Ti  Ti6  1  0.68284127  0.31695915  0.31707415  1
  Ti  Ti7  1  0.68309198  0.68288696  0.31714289  1
  Ti  Ti8  1  0.68301987  0.31724103  0.68265240  1
  Ti  Ti9  1  0.31717126  0.68297914  0.68281929  1
  Ti  Ti10  1  0.31699882  0.31700418  0.68267313  1
  Ti  Ti11  1  0.31706666  0.68262793  0.31718831  1
  Zn  Zn12  1  0.99476161  0.33506582  0.33507378  1
  Zn  Zn13  1  0.33503823  0.33496038  0.99494391  1
  Zn  Zn14  1  0.33506745  0.99491470  0.33499750  1
  Zn  Zn15  1  0.33513973  0.33506195  0.33513284  1
  Zn  Zn16  1  0.25518073  0.91501013  0.91496237  1
  Zn  Zn17  1  0.91487946  0.91497944  0.25525535  1
  Zn  Zn18  1  0.91493932  0.25517986  0.91499312  1
  Zn  Zn19  1  0.91489225  0.91500473  0.91501597  1
  Zn  Zn20  1  0.62500353  0.12506190  0.12521502  1
  Zn  Zn21  1  0.12502527  0.12520146  0.62499359  1
  Zn  Zn22  1  0.12495195  0.62499176  0.12527707  1
  Zn  Zn23  1  0.12486009  0.12502931  0.12510196  1
  C  C24  1  0.12493499  0.62490616  0.62487285  1
  C  C25  1  0.62491277  0.62478977  0.12526320  1
  C  C26  1  0.62493351  0.12512657  0.62476431  1
  C  C27  1  0.62524524  0.62511681  0.62495221  1
