# generated using pymatgen
data_K4NbFe3(PO4)6
_symmetry_space_group_name_H-M   'P 1'
_cell_length_a   10.06015618
_cell_length_b   10.06192911
_cell_length_c   10.06044797
_cell_angle_alpha   90.00000000
_cell_angle_beta   90.00000000
_cell_angle_gamma   89.60980457
_symmetry_Int_Tables_number   1
_chemical_formula_structural   K4NbFe3(PO4)6
_chemical_formula_sum   'K8 Nb2 Fe6 P12 O48'
_cell_volume   1018.34098877
_cell_formula_units_Z   2
loop_
 _symmetry_equiv_pos_site_id
 _symmetry_equiv_pos_as_xyz
  1  'x, y, z'
loop_
 _atom_site_type_symbol
 _atom_site_label
 _atom_site_symmetry_multiplicity
 _atom_site_fract_x
 _atom_site_fract_y
 _atom_site_fract_z
 _atom_site_occupancy
  K  K0  1  0.06391100  0.06996042  0.06600752  1
  K  K1  1  0.20646594  0.70323627  0.79431016  1
  K  K2  1  0.29353406  0.29676373  0.29431016  1
  K  K3  1  0.43608900  0.93003958  0.56600752  1
  K  K4  1  0.57051474  0.43616045  0.93238643  1
  K  K5  1  0.70523020  0.79120107  0.20601355  1
  K  K6  1  0.79476980  0.20879893  0.70601355  1
  K  K7  1  0.92948526  0.56383955  0.43238643  1
  Nb  Nb8  1  0.08322927  0.91164566  0.41304222  1
  Nb  Nb9  1  0.41677073  0.08835434  0.91304222  1
  Fe  Fe10  1  0.14239871  0.35941517  0.64461447  1
  Fe  Fe11  1  0.35760129  0.64058483  0.14461447  1
  Fe  Fe12  1  0.58877408  0.58369797  0.58501510  1
  Fe  Fe13  1  0.64512875  0.14811986  0.35558735  1
  Fe  Fe14  1  0.85487125  0.85188014  0.85558735  1
  Fe  Fe15  1  0.91122592  0.41630203  0.08501510  1
  P  P16  1  0.04251243  0.72561035  0.12134167  1
  P  P17  1  0.12227386  0.04305801  0.73017700  1
  P  P18  1  0.22536421  0.37774997  0.95806382  1
  P  P19  1  0.27463579  0.62225003  0.45806382  1
  P  P20  1  0.37772614  0.95694199  0.23017700  1
  P  P21  1  0.45748757  0.27438965  0.62134167  1
  P  P22  1  0.54233883  0.76689502  0.87452777  1
  P  P23  1  0.62604815  0.45863043  0.27173256  1
  P  P24  1  0.73385099  0.12473649  0.04294388  1
  P  P25  1  0.76614901  0.87526351  0.54294388  1
  P  P26  1  0.87395185  0.54136957  0.77173256  1
  P  P27  1  0.95766117  0.23310498  0.37452777  1
  O  O28  1  0.00189936  0.08159270  0.35460517  1
  O  O29  1  0.02476860  0.95022851  0.79781214  1
  O  O30  1  0.02435639  0.80729851  0.25750167  1
  O  O31  1  0.04925364  0.29578065  0.47803674  1
  O  O32  1  0.07778787  0.18824745  0.73538160  1
  O  O33  1  0.08365126  0.34742076  0.00268432  1
  O  O34  1  0.14870493  0.99784316  0.58299763  1
  O  O35  1  0.18866874  0.73617423  0.07828686  1
  O  O36  1  0.19291584  0.75849519  0.47586068  1
  O  O37  1  0.20077715  0.52496110  0.54834369  1
  O  O38  1  0.23626303  0.42127722  0.81203092  1
  O  O39  1  0.24127101  0.97767196  0.30431726  1
  O  O40  1  0.25872899  0.02232804  0.80431726  1
  O  O41  1  0.26373697  0.57872278  0.31203092  1
  O  O42  1  0.29922285  0.47503890  0.04834369  1
  O  O43  1  0.30708416  0.24150481  0.97586068  1
  O  O44  1  0.31133126  0.26382577  0.57828686  1
  O  O45  1  0.35129507  0.00215684  0.08299763  1
  O  O46  1  0.41634874  0.65257924  0.50268432  1
  O  O47  1  0.42221213  0.81175255  0.23538160  1
  O  O48  1  0.45074636  0.70421935  0.97803674  1
  O  O49  1  0.47564361  0.19270149  0.75750167  1
  O  O50  1  0.47523140  0.04977149  0.29781214  1
  O  O51  1  0.49810064  0.91840730  0.85460517  1
  O  O52  1  0.50163864  0.41593813  0.65277270  1
  O  O53  1  0.52152652  0.54768494  0.20180177  1
  O  O54  1  0.51932371  0.69760920  0.74092959  1
  O  O55  1  0.54865033  0.19954478  0.52483735  1
  O  O56  1  0.57801226  0.31210291  0.26511801  1
  O  O57  1  0.58207220  0.14568987  0.99928284  1
  O  O58  1  0.64941321  0.50132675  0.41706899  1
  O  O59  1  0.68718242  0.76595383  0.92253737  1
  O  O60  1  0.69721586  0.74203853  0.51922864  1
  O  O61  1  0.70323657  0.97847013  0.45054103  1
  O  O62  1  0.73423388  0.07689059  0.18790286  1
  O  O63  1  0.74263248  0.52058599  0.69435667  1
  O  O64  1  0.75736752  0.47941401  0.19435667  1
  O  O65  1  0.76576612  0.92310941  0.68790286  1
  O  O66  1  0.79676343  0.02152987  0.95054103  1
  O  O67  1  0.80278414  0.25796147  0.01922864  1
  O  O68  1  0.81281758  0.23404617  0.42253737  1
  O  O69  1  0.85058679  0.49867325  0.91706899  1
  O  O70  1  0.91792780  0.85431013  0.49928284  1
  O  O71  1  0.92198774  0.68789709  0.76511801  1
  O  O72  1  0.95134967  0.80045522  0.02483735  1
  O  O73  1  0.98067629  0.30239080  0.24092959  1
  O  O74  1  0.97847348  0.45231506  0.70180177  1
  O  O75  1  0.99836136  0.58406187  0.15277270  1
