# generated using pymatgen
data_Sm5Co2
_symmetry_space_group_name_H-M   'P 1'
_cell_length_a   6.43197443
_cell_length_b   7.01453831
_cell_length_c   8.83270531
_cell_angle_alpha   96.04278194
_cell_angle_beta   111.35220013
_cell_angle_gamma   90.00000003
_symmetry_Int_Tables_number   1
_chemical_formula_structural   Sm5Co2
_chemical_formula_sum   'Sm10 Co4'
_cell_volume   368.77596422
_cell_formula_units_Z   2
loop_
 _symmetry_equiv_pos_site_id
 _symmetry_equiv_pos_as_xyz
  1  'x, y, z'
loop_
 _atom_site_type_symbol
 _atom_site_label
 _atom_site_symmetry_multiplicity
 _atom_site_fract_x
 _atom_site_fract_y
 _atom_site_fract_z
 _atom_site_occupancy
  Co  Co0  1  0.59783055  0.42657556  0.77767996  1
  Co  Co1  1  0.82015058  0.07342444  0.22232004  1
  Co  Co2  1  0.40216945  0.57342444  0.22232004  1
  Co  Co3  1  0.17984942  0.92657556  0.77767996  1
  Sm  Sm4  1  0.35511728  0.68333711  0.57161777  1
  Sm  Sm5  1  0.78349950  0.81666289  0.42838223  1
  Sm  Sm6  1  0.64488272  0.31666289  0.42838223  1
  Sm  Sm7  1  0.21650050  0.18333711  0.57161777  1
  Sm  Sm8  1  0.56869124  0.75000000  0.00000000  1
  Sm  Sm9  1  0.43130876  0.25000000  0.00000000  1
  Sm  Sm10  1  0.79993472  0.08657175  0.81003291  1
  Sm  Sm11  1  0.98990181  0.41342825  0.18996709  1
  Sm  Sm12  1  0.20006528  0.91342825  0.18996709  1
  Sm  Sm13  1  0.01009819  0.58657175  0.81003291  1
