# generated using pymatgen
data_KB5(H2O3)4
_symmetry_space_group_name_H-M   'P 1'
_cell_length_a   11.17699414
_cell_length_b   7.21114692
_cell_length_c   7.21114692
_cell_angle_alpha   101.88430899
_cell_angle_beta   90.00000000
_cell_angle_gamma   90.00000000
_symmetry_Int_Tables_number   1
_chemical_formula_structural   KB5(H2O3)4
_chemical_formula_sum   'K2 B10 H16 O24'
_cell_volume   568.75283713
_cell_formula_units_Z   2
loop_
 _symmetry_equiv_pos_site_id
 _symmetry_equiv_pos_as_xyz
  1  'x, y, z'
loop_
 _atom_site_type_symbol
 _atom_site_label
 _atom_site_symmetry_multiplicity
 _atom_site_fract_x
 _atom_site_fract_y
 _atom_site_fract_z
 _atom_site_occupancy
  K  K0  1  0.50000000  0.49277093  0.49277093  1
  K  K1  1  0.00000000  0.99277093  0.99277093  1
  B  B2  1  0.50000000  0.89481371  0.89481371  1
  B  B3  1  0.00000000  0.39481371  0.39481371  1
  B  B4  1  0.68825105  0.70462629  0.89567076  1
  B  B5  1  0.31174895  0.89567076  0.70462629  1
  B  B6  1  0.81174895  0.20462629  0.39567076  1
  B  B7  1  0.18825105  0.39567076  0.20462629  1
  B  B8  1  0.70471385  0.04112926  0.93031754  1
  B  B9  1  0.29528615  0.93031754  0.04112926  1
  B  B10  1  0.79528615  0.54112926  0.43031754  1
  B  B11  1  0.20471385  0.43031754  0.54112926  1
  H  H12  1  0.48900714  0.00878542  0.52743768  1
  H  H13  1  0.51099286  0.52743768  0.00878542  1
  H  H14  1  0.01099286  0.50878542  0.02743768  1
  H  H15  1  0.98900714  0.02743768  0.50878542  1
  H  H16  1  0.48002069  0.01337525  0.30809282  1
  H  H17  1  0.51997931  0.30809282  0.01337525  1
  H  H18  1  0.01997931  0.51337525  0.80809282  1
  H  H19  1  0.98002069  0.80809282  0.51337525  1
  H  H20  1  0.66609315  0.04958821  0.39800968  1
  H  H21  1  0.33390685  0.39800968  0.04958821  1
  H  H22  1  0.83390685  0.54958821  0.89800968  1
  H  H23  1  0.16609315  0.89800968  0.54958821  1
  H  H24  1  0.74626810  0.31417194  0.93918777  1
  H  H25  1  0.25373190  0.93918777  0.31417194  1
  H  H26  1  0.75373190  0.81417194  0.43918777  1
  H  H27  1  0.24626810  0.43918777  0.81417194  1
  O  O28  1  0.56600707  0.71268146  0.88460976  1
  O  O29  1  0.43399293  0.88460976  0.71268146  1
  O  O30  1  0.93399293  0.21268146  0.38460976  1
  O  O31  1  0.06600707  0.38460976  0.21268146  1
  O  O32  1  0.58284449  0.05815762  0.92242554  1
  O  O33  1  0.41715551  0.92242554  0.05815762  1
  O  O34  1  0.91715551  0.55815762  0.42242554  1
  O  O35  1  0.08284449  0.42242554  0.55815762  1
  O  O36  1  0.75944022  0.86595739  0.91810852  1
  O  O37  1  0.24055978  0.91810852  0.86595739  1
  O  O38  1  0.74055978  0.36595739  0.41810852  1
  O  O39  1  0.25944022  0.41810852  0.36595739  1
  O  O40  1  0.74409110  0.53367590  0.88633442  1
  O  O41  1  0.25590890  0.88633442  0.53367590  1
  O  O42  1  0.75590890  0.03367590  0.38633442  1
  O  O43  1  0.24409110  0.38633442  0.03367590  1
  O  O44  1  0.78138940  0.19169253  0.95367597  1
  O  O45  1  0.21861060  0.95367597  0.19169253  1
  O  O46  1  0.71861060  0.69169253  0.45367597  1
  O  O47  1  0.28138940  0.45367597  0.69169253  1
  O  O48  1  0.52023997  0.07179016  0.42791347  1
  O  O49  1  0.47976003  0.42791347  0.07179016  1
  O  O50  1  0.97976003  0.57179016  0.92791347  1
  O  O51  1  0.02023997  0.92791347  0.57179016  1
