# generated using pymatgen
data_NaMn2V3(PbO6)2
_symmetry_space_group_name_H-M   'P 1'
_cell_length_a   11.32152001
_cell_length_b   11.32152006
_cell_length_c   11.32151989
_cell_angle_alpha   109.14120908
_cell_angle_beta   109.14120917
_cell_angle_gamma   110.13327875
_symmetry_Int_Tables_number   1
_chemical_formula_structural   NaMn2V3(PbO6)2
_chemical_formula_sum   'Na4 Mn8 V12 Pb8 O48'
_cell_volume   1116.98868350
_cell_formula_units_Z   4
loop_
 _symmetry_equiv_pos_site_id
 _symmetry_equiv_pos_as_xyz
  1  'x, y, z'
loop_
 _atom_site_type_symbol
 _atom_site_label
 _atom_site_symmetry_multiplicity
 _atom_site_fract_x
 _atom_site_fract_y
 _atom_site_fract_z
 _atom_site_occupancy
  Na  Na0  1  0.12500000  0.37500000  0.75000000  1
  Na  Na1  1  0.62500000  0.87500000  0.75000000  1
  Na  Na2  1  0.37500000  0.12500000  0.25000000  1
  Na  Na3  1  0.87500000  0.62500000  0.25000000  1
  Mn  Mn4  1  0.00000000  0.50000000  0.50000000  1
  Mn  Mn5  1  0.00000000  0.50000000  0.00000000  1
  Mn  Mn6  1  0.50000000  0.00000000  0.50000000  1
  Mn  Mn7  1  0.00000000  0.00000000  0.00000000  1
  Mn  Mn8  1  0.50000000  0.50000000  0.50000000  1
  Mn  Mn9  1  0.50000000  0.50000000  0.00000000  1
  Mn  Mn10  1  0.00000000  0.00000000  0.50000000  1
  Mn  Mn11  1  0.50000000  0.00000000  0.00000000  1
  V  V12  1  0.12475761  0.75000000  0.87475761  1
  V  V13  1  0.12500000  0.87500000  0.25000000  1
  V  V14  1  0.25000000  0.62475761  0.37475761  1
  V  V15  1  0.25000000  0.12475761  0.87475761  1
  V  V16  1  0.37500000  0.62500000  0.75000000  1
  V  V17  1  0.37524239  0.25000000  0.62524239  1
  V  V18  1  0.62475761  0.75000000  0.37475761  1
  V  V19  1  0.75000000  0.37524239  0.62524239  1
  V  V20  1  0.62500000  0.37500000  0.25000000  1
  V  V21  1  0.75000000  0.87524239  0.12524239  1
  V  V22  1  0.87500000  0.12500000  0.75000000  1
  V  V23  1  0.87524239  0.25000000  0.12524239  1
  Pb  Pb24  1  0.25000000  0.87228033  0.62228033  1
  Pb  Pb25  1  0.12771967  0.25000000  0.37771967  1
  Pb  Pb26  1  0.25000000  0.37228033  0.12228033  1
  Pb  Pb27  1  0.37228033  0.75000000  0.12228033  1
  Pb  Pb28  1  0.75000000  0.62771967  0.87771967  1
  Pb  Pb29  1  0.62771967  0.25000000  0.87771967  1
  Pb  Pb30  1  0.87228033  0.75000000  0.62228033  1
  Pb  Pb31  1  0.75000000  0.12771967  0.37771967  1
  O  O32  1  0.10852043  0.99352178  0.69695559  1
  O  O33  1  0.00526363  0.30288634  0.89227652  1
  O  O34  1  0.11319314  0.60883207  0.91083419  1
  O  O35  1  0.08843516  0.70343381  0.69695559  1
  O  O36  1  0.08939018  0.88701289  0.39227652  1
  O  O37  1  0.10883207  0.61319314  0.41083419  1
  O  O38  1  0.19711366  0.49473637  0.60772348  1
  O  O39  1  0.41060982  0.80288634  0.79762271  1
  O  O40  1  0.29764105  0.30200212  0.91083419  1
  O  O41  1  0.38701289  0.58939018  0.89227652  1
  O  O42  1  0.30288634  0.91060982  0.29762271  1
  O  O43  1  0.00647822  0.20343381  0.11499865  1
  O  O44  1  0.19799788  0.20235895  0.58916581  1
  O  O45  1  0.20343381  0.58843516  0.19695559  1
  O  O46  1  0.39116793  0.80200212  0.50436107  1
  O  O47  1  0.29656619  0.49352178  0.38500135  1
  O  O48  1  0.30200212  0.89116793  0.00436107  1
  O  O49  1  0.11298711  0.00526363  0.20237729  1
  O  O50  1  0.50526363  0.61298711  0.70237729  1
  O  O51  1  0.39147957  0.08843516  0.88500135  1
  O  O52  1  0.50647822  0.39147957  0.80304441  1
  O  O53  1  0.38680686  0.29764105  0.49563893  1
  O  O54  1  0.79764105  0.88680686  0.99563893  1
  O  O55  1  0.41156484  0.10852043  0.61499865  1
  O  O56  1  0.58843516  0.89147957  0.38500135  1
  O  O57  1  0.20235895  0.11319314  0.00436107  1
  O  O58  1  0.61319314  0.70235895  0.50436107  1
  O  O59  1  0.49352178  0.60852043  0.19695559  1
  O  O60  1  0.60852043  0.91156484  0.11499865  1
  O  O61  1  0.49473637  0.38701289  0.29762271  1
  O  O62  1  0.88701289  0.99473637  0.79762271  1
  O  O63  1  0.69799788  0.10883207  0.99563893  1
  O  O64  1  0.70343381  0.50647822  0.61499865  1
  O  O65  1  0.60883207  0.19799788  0.49563893  1
  O  O66  1  0.79656619  0.41156484  0.80304441  1
  O  O67  1  0.80200212  0.79764105  0.41083419  1
  O  O68  1  0.99352178  0.79656619  0.88500135  1
  O  O69  1  0.69711366  0.08939018  0.70237729  1
  O  O70  1  0.61298711  0.41060982  0.10772348  1
  O  O71  1  0.70235895  0.69799788  0.08916581  1
  O  O72  1  0.58939018  0.19711366  0.20237729  1
  O  O73  1  0.80288634  0.50526363  0.39227652  1
  O  O74  1  0.89116793  0.38680686  0.58916581  1
  O  O75  1  0.91060982  0.11298711  0.60772348  1
  O  O76  1  0.91156484  0.29656619  0.30304441  1
  O  O77  1  0.88680686  0.39116793  0.08916581  1
  O  O78  1  0.99473637  0.69711366  0.10772348  1
  O  O79  1  0.89147957  0.00647822  0.30304441  1
