# generated using pymatgen
data_ZnAs2
_symmetry_space_group_name_H-M   'P 1'
_cell_length_a   7.80152144
_cell_length_b   8.14417808
_cell_length_c   9.40739515
_cell_angle_alpha   102.50070220
_cell_angle_beta   90.00000000
_cell_angle_gamma   90.00000000
_symmetry_Int_Tables_number   1
_chemical_formula_structural   ZnAs2
_chemical_formula_sum   'Zn8 As16'
_cell_volume   583.54759995
_cell_formula_units_Z   8
loop_
 _symmetry_equiv_pos_site_id
 _symmetry_equiv_pos_as_xyz
  1  'x, y, z'
loop_
 _atom_site_type_symbol
 _atom_site_label
 _atom_site_symmetry_multiplicity
 _atom_site_fract_x
 _atom_site_fract_y
 _atom_site_fract_z
 _atom_site_occupancy
  Zn  Zn0  1  0.74868211  0.39439547  0.08081340  1
  Zn  Zn1  1  0.24868211  0.10560453  0.91918660  1
  Zn  Zn2  1  0.25131789  0.60560453  0.91918660  1
  Zn  Zn3  1  0.75131789  0.89439547  0.08081340  1
  Zn  Zn4  1  0.10068334  0.22293991  0.38873925  1
  Zn  Zn5  1  0.60068334  0.27706009  0.61126075  1
  Zn  Zn6  1  0.89931666  0.77706009  0.61126075  1
  Zn  Zn7  1  0.39931666  0.72293991  0.38873925  1
  As  As8  1  0.42423325  0.21942532  0.38510961  1
  As  As9  1  0.92423325  0.28057468  0.61489039  1
  As  As10  1  0.57576675  0.78057468  0.61489039  1
  As  As11  1  0.07576675  0.71942532  0.38510961  1
  As  As12  1  0.01190351  0.43285295  0.23818415  1
  As  As13  1  0.51190351  0.06714705  0.76181585  1
  As  As14  1  0.98809649  0.56714705  0.76181585  1
  As  As15  1  0.48809649  0.93285295  0.23818415  1
  As  As16  1  0.49122099  0.43626027  0.24315592  1
  As  As17  1  0.99122099  0.06373973  0.75684408  1
  As  As18  1  0.50877901  0.56373973  0.75684408  1
  As  As19  1  0.00877901  0.93626027  0.24315592  1
  As  As20  1  0.25462968  0.39240237  0.06738023  1
  As  As21  1  0.75462968  0.10759763  0.93261977  1
  As  As22  1  0.74537032  0.60759763  0.93261977  1
  As  As23  1  0.24537032  0.89240237  0.06738023  1
