# generated using pymatgen
data_Pu5Rh4
_symmetry_space_group_name_H-M   'P 1'
_cell_length_a   6.90193851
_cell_length_b   7.33397582
_cell_length_c   14.59176438
_cell_angle_alpha   90.00000000
_cell_angle_beta   90.00000000
_cell_angle_gamma   90.00000000
_symmetry_Int_Tables_number   1
_chemical_formula_structural   Pu5Rh4
_chemical_formula_sum   'Pu20 Rh16'
_cell_volume   738.61541613
_cell_formula_units_Z   4
loop_
 _symmetry_equiv_pos_site_id
 _symmetry_equiv_pos_as_xyz
  1  'x, y, z'
loop_
 _atom_site_type_symbol
 _atom_site_label
 _atom_site_symmetry_multiplicity
 _atom_site_fract_x
 _atom_site_fract_y
 _atom_site_fract_z
 _atom_site_occupancy
  Rh  Rh0  1  0.79795214  0.45550539  0.46679595  1
  Rh  Rh1  1  0.29795214  0.04449461  0.03320405  1
  Rh  Rh2  1  0.70204786  0.95550539  0.53320405  1
  Rh  Rh3  1  0.20204786  0.54449461  0.96679595  1
  Rh  Rh4  1  0.20204786  0.54449461  0.53320405  1
  Rh  Rh5  1  0.70204786  0.95550539  0.96679595  1
  Rh  Rh6  1  0.29795214  0.04449461  0.46679595  1
  Rh  Rh7  1  0.79795214  0.45550539  0.03320405  1
  Rh  Rh8  1  0.19887793  0.71220584  0.25000000  1
  Rh  Rh9  1  0.69887793  0.78779416  0.25000000  1
  Rh  Rh10  1  0.30112207  0.21220584  0.75000000  1
  Rh  Rh11  1  0.80112207  0.28779416  0.75000000  1
  Rh  Rh12  1  0.97972188  0.05198599  0.25000000  1
  Rh  Rh13  1  0.47972188  0.44801401  0.25000000  1
  Rh  Rh14  1  0.52027812  0.55198599  0.75000000  1
  Rh  Rh15  1  0.02027812  0.94801401  0.75000000  1
  Pu  Pu16  1  0.99363183  0.81959451  0.08829133  1
  Pu  Pu17  1  0.49363183  0.68040549  0.41170867  1
  Pu  Pu18  1  0.50636817  0.31959451  0.91170867  1
  Pu  Pu19  1  0.00636817  0.18040549  0.58829133  1
  Pu  Pu20  1  0.99363183  0.81959451  0.41170867  1
  Pu  Pu21  1  0.49363183  0.68040549  0.08829133  1
  Pu  Pu22  1  0.50636817  0.31959451  0.58829133  1
  Pu  Pu23  1  0.00636817  0.18040549  0.91170867  1
  Pu  Pu24  1  0.87406511  0.65327335  0.63462690  1
  Pu  Pu25  1  0.37406511  0.84672665  0.86537310  1
  Pu  Pu26  1  0.62593489  0.15327335  0.36537310  1
  Pu  Pu27  1  0.12593489  0.34672665  0.13462690  1
  Pu  Pu28  1  0.12593489  0.34672665  0.36537310  1
  Pu  Pu29  1  0.62593489  0.15327335  0.13462690  1
  Pu  Pu30  1  0.37406511  0.84672665  0.63462690  1
  Pu  Pu31  1  0.87406511  0.65327335  0.86537310  1
  Pu  Pu32  1  0.37458129  0.03431424  0.25000000  1
  Pu  Pu33  1  0.87458129  0.46568576  0.25000000  1
  Pu  Pu34  1  0.12541871  0.53431424  0.75000000  1
  Pu  Pu35  1  0.62541871  0.96568576  0.75000000  1
