# generated using pymatgen
data_TlP(HO2)2
_symmetry_space_group_name_H-M   'P 1'
_cell_length_a   9.14204455
_cell_length_b   15.11691936
_cell_length_c   6.62922483
_cell_angle_alpha   90.00000000
_cell_angle_beta   90.00000000
_cell_angle_gamma   106.88541435
_symmetry_Int_Tables_number   1
_chemical_formula_structural   TlP(HO2)2
_chemical_formula_sum   'Tl8 P8 H16 O32'
_cell_volume   876.65817094
_cell_formula_units_Z   8
loop_
 _symmetry_equiv_pos_site_id
 _symmetry_equiv_pos_as_xyz
  1  'x, y, z'
loop_
 _atom_site_type_symbol
 _atom_site_label
 _atom_site_symmetry_multiplicity
 _atom_site_fract_x
 _atom_site_fract_y
 _atom_site_fract_z
 _atom_site_occupancy
  Tl  Tl0  1  0.06047004  0.61866320  0.27222308  1
  Tl  Tl1  1  0.93952996  0.88133680  0.77222308  1
  Tl  Tl2  1  0.93952996  0.38133680  0.72777692  1
  Tl  Tl3  1  0.06047004  0.11866320  0.22777692  1
  Tl  Tl4  1  0.56329383  0.63640724  0.22261509  1
  Tl  Tl5  1  0.43670617  0.86359276  0.72261509  1
  Tl  Tl6  1  0.43670617  0.36359276  0.77738491  1
  Tl  Tl7  1  0.56329383  0.13640724  0.27738491  1
  P  P8  1  0.17893927  0.87455008  0.25538786  1
  P  P9  1  0.82106073  0.62544992  0.75538786  1
  P  P10  1  0.82106073  0.12544992  0.74461214  1
  P  P11  1  0.17893927  0.37455008  0.24461214  1
  P  P12  1  0.68137350  0.87495788  0.24681487  1
  P  P13  1  0.31862650  0.62504212  0.74681487  1
  P  P14  1  0.31862650  0.12504212  0.75318513  1
  P  P15  1  0.68137350  0.37495788  0.25318513  1
  H  H16  1  0.72422541  0.99153121  0.02067340  1
  H  H17  1  0.27577459  0.50846879  0.52067340  1
  H  H18  1  0.27577459  0.00846879  0.97932660  1
  H  H19  1  0.72422541  0.49153121  0.47932660  1
  H  H20  1  0.76264067  0.99299796  0.47317676  1
  H  H21  1  0.23735933  0.50700204  0.97317676  1
  H  H22  1  0.23735933  0.00700204  0.52682324  1
  H  H23  1  0.76264067  0.49299796  0.02682324  1
  H  H24  1  0.37646052  0.81521819  0.23734310  1
  H  H25  1  0.62353948  0.68478181  0.73734310  1
  H  H26  1  0.62353948  0.18478181  0.76265690  1
  H  H27  1  0.37646052  0.31521819  0.26265690  1
  H  H28  1  0.92370960  0.81282009  0.24885371  1
  H  H29  1  0.07629040  0.68717991  0.74885371  1
  H  H30  1  0.07629040  0.18717991  0.75114629  1
  H  H31  1  0.92370960  0.31282009  0.25114629  1
  O  O32  1  0.26126004  0.92386836  0.44272396  1
  O  O33  1  0.73873996  0.57613164  0.94272396  1
  O  O34  1  0.73873996  0.07613164  0.55727604  1
  O  O35  1  0.26126004  0.42386836  0.05727604  1
  O  O36  1  0.01934679  0.80417045  0.31881766  1
  O  O37  1  0.98065321  0.69582955  0.81881766  1
  O  O38  1  0.98065321  0.19582955  0.68118234  1
  O  O39  1  0.01934679  0.30417045  0.18118234  1
  O  O40  1  0.15065261  0.93819516  0.08994710  1
  O  O41  1  0.84934739  0.56180484  0.58994710  1
  O  O42  1  0.84934739  0.06180484  0.91005290  1
  O  O43  1  0.15065261  0.43819516  0.41005290  1
  O  O44  1  0.27244387  0.80893200  0.16954050  1
  O  O45  1  0.72755613  0.69106800  0.66954050  1
  O  O46  1  0.72755613  0.19106800  0.83045950  1
  O  O47  1  0.27244387  0.30893200  0.33045950  1
  O  O48  1  0.79125149  0.93610430  0.41171350  1
  O  O49  1  0.20874851  0.56389570  0.91171350  1
  O  O50  1  0.20874851  0.06389570  0.58828650  1
  O  O51  1  0.79125149  0.43610430  0.08828650  1
  O  O52  1  0.53015405  0.81645558  0.33843768  1
  O  O53  1  0.46984595  0.68354442  0.83843768  1
  O  O54  1  0.46984595  0.18354442  0.66156232  1
  O  O55  1  0.53015405  0.31645558  0.16156232  1
  O  O56  1  0.63610162  0.94411201  0.09541521  1
  O  O57  1  0.36389838  0.55588799  0.59541521  1
  O  O58  1  0.36389838  0.05588799  0.90458479  1
  O  O59  1  0.63610162  0.44411201  0.40458479  1
  O  O60  1  0.77438873  0.81811575  0.14444604  1
  O  O61  1  0.22561127  0.68188425  0.64444604  1
  O  O62  1  0.22561127  0.18188425  0.85555396  1
  O  O63  1  0.77438873  0.31811575  0.35555396  1
