# generated using pymatgen
data_CdPbO3
_symmetry_space_group_name_H-M   'P 1'
_cell_length_a   9.22187611
_cell_length_b   9.22187553
_cell_length_c   9.22187643
_cell_angle_alpha   108.03653316
_cell_angle_beta   110.13850511
_cell_angle_gamma   110.24809643
_symmetry_Int_Tables_number   1
_chemical_formula_structural   CdPbO3
_chemical_formula_sum   'Cd8 Pb8 O24'
_cell_volume   603.43695287
_cell_formula_units_Z   8
loop_
 _symmetry_equiv_pos_site_id
 _symmetry_equiv_pos_as_xyz
  1  'x, y, z'
loop_
 _atom_site_type_symbol
 _atom_site_label
 _atom_site_symmetry_multiplicity
 _atom_site_fract_x
 _atom_site_fract_y
 _atom_site_fract_z
 _atom_site_occupancy
  Cd  Cd0  1  0.03482071  0.75000000  0.78482071  1
  Cd  Cd1  1  0.00000000  0.00000000  0.50000000  1
  Cd  Cd2  1  0.46517929  0.25000000  0.71517929  1
  Cd  Cd3  1  0.50000000  0.50000000  0.50000000  1
  Cd  Cd4  1  0.53482071  0.75000000  0.28482071  1
  Cd  Cd5  1  0.50000000  0.00000000  0.00000000  1
  Cd  Cd6  1  0.96517929  0.25000000  0.21517929  1
  Cd  Cd7  1  0.00000000  0.50000000  0.00000000  1
  Pb  Pb8  1  0.21299360  0.96299360  0.25000000  1
  Pb  Pb9  1  0.25000000  0.21471773  0.96471773  1
  Pb  Pb10  1  0.25000000  0.71471773  0.46471773  1
  Pb  Pb11  1  0.28700640  0.53700640  0.75000000  1
  Pb  Pb12  1  0.71299360  0.46299360  0.25000000  1
  Pb  Pb13  1  0.75000000  0.78528227  0.03528227  1
  Pb  Pb14  1  0.75000000  0.28528227  0.53528227  1
  Pb  Pb15  1  0.78700640  0.03700640  0.75000000  1
  O  O16  1  0.03718523  0.48670374  0.75543682  1
  O  O17  1  0.23333754  0.95333060  0.49956186  1
  O  O18  1  0.26666246  0.76622432  0.71999306  1
  O  O19  1  0.23126692  0.28174841  0.74456318  1
  O  O20  1  0.00703761  0.03661359  0.26607788  1
  O  O21  1  0.22946429  0.46338641  0.47042402  1
  O  O22  1  0.27053571  0.74095973  0.23392212  1
  O  O23  1  0.04623126  0.26622432  0.99956186  1
  O  O24  1  0.73126692  0.98670374  0.94951850  1
  O  O25  1  0.53718523  0.78174841  0.55048150  1
  O  O26  1  0.54623126  0.54666940  0.78000694  1
  O  O27  1  0.50703761  0.24095973  0.97042402  1
  O  O28  1  0.49296239  0.75904027  0.02957598  1
  O  O29  1  0.45376874  0.45333060  0.21999306  1
  O  O30  1  0.46281477  0.21825159  0.44951850  1
  O  O31  1  0.26873308  0.01329626  0.05048150  1
  O  O32  1  0.72946429  0.25904027  0.76607788  1
  O  O33  1  0.95376874  0.73377568  0.00043814  1
  O  O34  1  0.77053571  0.53661359  0.52957598  1
  O  O35  1  0.99296239  0.96338641  0.73392212  1
  O  O36  1  0.76873308  0.71825159  0.25543682  1
  O  O37  1  0.73333754  0.23377568  0.28000694  1
  O  O38  1  0.76666246  0.04666940  0.50043814  1
  O  O39  1  0.96281477  0.51329626  0.24456318  1
