# generated using pymatgen
data_Dy2Ti2O7
_symmetry_space_group_name_H-M   'P 1'
_cell_length_a   7.54585441
_cell_length_b   13.21178117
_cell_length_c   5.35245978
_cell_angle_alpha   90.00000000
_cell_angle_beta   90.00000000
_cell_angle_gamma   98.32226627
_symmetry_Int_Tables_number   1
_chemical_formula_structural   Dy2Ti2O7
_chemical_formula_sum   'Dy8 Ti8 O28'
_cell_volume   527.98996457
_cell_formula_units_Z   4
loop_
 _symmetry_equiv_pos_site_id
 _symmetry_equiv_pos_as_xyz
  1  'x, y, z'
loop_
 _atom_site_type_symbol
 _atom_site_label
 _atom_site_symmetry_multiplicity
 _atom_site_fract_x
 _atom_site_fract_y
 _atom_site_fract_z
 _atom_site_occupancy
  Dy  Dy0  1  0.23340673  0.92293154  0.77354423  1
  Dy  Dy1  1  0.14219128  0.56298792  0.36076980  1
  Dy  Dy2  1  0.28551183  0.13375517  0.24751620  1
  Dy  Dy3  1  0.35434780  0.38419947  0.78003686  1
  Dy  Dy4  1  0.64565220  0.61580053  0.28003686  1
  Dy  Dy5  1  0.71448817  0.86624483  0.74751620  1
  Dy  Dy6  1  0.85780872  0.43701208  0.86076980  1
  Dy  Dy7  1  0.76659327  0.07706846  0.27354423  1
  Ti  Ti8  1  0.06955320  0.32064883  0.28467155  1
  Ti  Ti9  1  0.03073880  0.12144129  0.76992646  1
  Ti  Ti10  1  0.41018264  0.67227619  0.79509763  1
  Ti  Ti11  1  0.47026129  0.87530577  0.26810328  1
  Ti  Ti12  1  0.52973871  0.12469423  0.76810328  1
  Ti  Ti13  1  0.58981736  0.32772381  0.29509763  1
  Ti  Ti14  1  0.96926120  0.87855871  0.26992646  1
  Ti  Ti15  1  0.93044680  0.67935117  0.78467155  1
  O  O16  1  0.01141347  0.17900730  0.43391546  1
  O  O17  1  0.07259045  0.40764953  0.56308820  1
  O  O18  1  0.17263111  0.68670083  0.67197909  1
  O  O19  1  0.22081418  0.88247443  0.34992693  1
  O  O20  1  0.13850054  0.43068488  0.06723781  1
  O  O21  1  0.06051651  0.02506217  0.04102341  1
  O  O22  1  0.13015196  0.23259426  0.95283548  1
  O  O23  1  0.36494272  0.61600348  0.09543125  1
  O  O24  1  0.42388619  0.82227125  0.93243547  1
  O  O25  1  0.32722730  0.30584367  0.37981437  1
  O  O26  1  0.27182704  0.08855550  0.65145074  1
  O  O27  1  0.41201777  0.55375802  0.58795987  1
  O  O28  1  0.54706403  0.97370521  0.53891301  1
  O  O29  1  0.51554101  0.76510412  0.45266589  1
  O  O30  1  0.48445899  0.23489588  0.95266589  1
  O  O31  1  0.45293597  0.02629479  0.03891301  1
  O  O32  1  0.58798223  0.44624198  0.08795987  1
  O  O33  1  0.72817296  0.91144450  0.15145074  1
  O  O34  1  0.67277270  0.69415633  0.87981437  1
  O  O35  1  0.57611381  0.17772875  0.43243547  1
  O  O36  1  0.63505728  0.38399652  0.59543125  1
  O  O37  1  0.86984804  0.76740574  0.45283548  1
  O  O38  1  0.93948349  0.97493783  0.54102341  1
  O  O39  1  0.86149946  0.56931512  0.56723781  1
  O  O40  1  0.77918582  0.11752557  0.84992693  1
  O  O41  1  0.82736889  0.31329917  0.17197909  1
  O  O42  1  0.92740955  0.59235047  0.06308820  1
  O  O43  1  0.98858653  0.82099270  0.93391546  1
