# generated using pymatgen
data_PH4NO3
_symmetry_space_group_name_H-M   'P 1'
_cell_length_a   7.60316832
_cell_length_b   7.60316832
_cell_length_c   12.76868735
_cell_angle_alpha   90.00000000
_cell_angle_beta   90.00000000
_cell_angle_gamma   88.09231963
_symmetry_Int_Tables_number   1
_chemical_formula_structural   PH4NO3
_chemical_formula_sum   'P8 H32 N8 O24'
_cell_volume   737.72532790
_cell_formula_units_Z   8
loop_
 _symmetry_equiv_pos_site_id
 _symmetry_equiv_pos_as_xyz
  1  'x, y, z'
loop_
 _atom_site_type_symbol
 _atom_site_label
 _atom_site_symmetry_multiplicity
 _atom_site_fract_x
 _atom_site_fract_y
 _atom_site_fract_z
 _atom_site_occupancy
  P  P0  1  0.46649112  0.46649112  0.65027221  1
  P  P1  1  0.53350888  0.53350888  0.34972779  1
  P  P2  1  0.03350888  0.03350888  0.15027221  1
  P  P3  1  0.96649112  0.96649112  0.84972779  1
  P  P4  1  0.28873282  0.71126718  0.50000000  1
  P  P5  1  0.78873282  0.21126718  0.00000000  1
  P  P6  1  0.71126718  0.28873282  0.50000000  1
  P  P7  1  0.21126718  0.78873282  0.00000000  1
  H  H8  1  0.12609306  0.12609306  0.38767254  1
  H  H9  1  0.87390694  0.87390694  0.61232746  1
  H  H10  1  0.37390694  0.37390694  0.88767254  1
  H  H11  1  0.62609306  0.62609306  0.11232746  1
  H  H12  1  0.26756123  0.26756123  0.43324030  1
  H  H13  1  0.73243877  0.73243877  0.56675970  1
  H  H14  1  0.23243877  0.23243877  0.93324030  1
  H  H15  1  0.76756123  0.76756123  0.06675970  1
  H  H16  1  0.07406973  0.23607875  0.49997127  1
  H  H17  1  0.76392125  0.92593027  0.50002873  1
  H  H18  1  0.26392125  0.42593027  0.99997127  1
  H  H19  1  0.57406973  0.73607875  0.00002873  1
  H  H20  1  0.92593027  0.76392125  0.50002873  1
  H  H21  1  0.23607875  0.07406973  0.49997127  1
  H  H22  1  0.73607875  0.57406973  0.00002873  1
  H  H23  1  0.42593027  0.26392125  0.99997127  1
  H  H24  1  0.94794471  0.60931575  0.74858054  1
  H  H25  1  0.39068425  0.05205529  0.25141946  1
  H  H26  1  0.89068425  0.55205529  0.24858054  1
  H  H27  1  0.44794471  0.10931575  0.75141946  1
  H  H28  1  0.05205529  0.39068425  0.25141946  1
  H  H29  1  0.60931575  0.94794471  0.74858054  1
  H  H30  1  0.10931575  0.44794471  0.75141946  1
  H  H31  1  0.55205529  0.89068425  0.24858054  1
  H  H32  1  0.92354515  0.41667911  0.68265355  1
  H  H33  1  0.58332089  0.07645485  0.31734645  1
  H  H34  1  0.08332089  0.57645485  0.18265355  1
  H  H35  1  0.42354515  0.91667911  0.81734645  1
  H  H36  1  0.07645485  0.58332089  0.31734645  1
  H  H37  1  0.41667911  0.92354515  0.68265355  1
  H  H38  1  0.91667911  0.42354515  0.81734645  1
  H  H39  1  0.57645485  0.08332089  0.18265355  1
  N  N40  1  0.97501098  0.47501098  0.75000000  1
  N  N41  1  0.52498902  0.02498902  0.25000000  1
  N  N42  1  0.02498902  0.52498902  0.25000000  1
  N  N43  1  0.47501098  0.97501098  0.75000000  1
  N  N44  1  0.17646570  0.17646570  0.45661881  1
  N  N45  1  0.82353430  0.82353430  0.54338119  1
  N  N46  1  0.32353430  0.32353430  0.95661881  1
  N  N47  1  0.67646570  0.67646570  0.04338119  1
  O  O48  1  0.60239870  0.60239870  0.66284978  1
  O  O49  1  0.39760130  0.39760130  0.33715022  1
  O  O50  1  0.89760130  0.89760130  0.16284978  1
  O  O51  1  0.10239870  0.10239870  0.83715022  1
  O  O52  1  0.37997873  0.37997873  0.74157215  1
  O  O53  1  0.62002127  0.62002127  0.25842785  1
  O  O54  1  0.12002127  0.12002127  0.24157215  1
  O  O55  1  0.87997873  0.87997873  0.75842785  1
  O  O56  1  0.30793944  0.87618096  0.56342841  1
  O  O57  1  0.12381904  0.69206056  0.43657159  1
  O  O58  1  0.62381904  0.19206056  0.06342841  1
  O  O59  1  0.80793944  0.37618096  0.93657159  1
  O  O60  1  0.69206056  0.12381904  0.43657159  1
  O  O61  1  0.87618096  0.30793944  0.56342841  1
  O  O62  1  0.37618096  0.80793944  0.93657159  1
  O  O63  1  0.19206056  0.62381904  0.06342841  1
  O  O64  1  0.30409221  0.53973878  0.57564623  1
  O  O65  1  0.46026122  0.69590779  0.42435377  1
  O  O66  1  0.96026122  0.19590779  0.07564623  1
  O  O67  1  0.80409221  0.03973878  0.92435377  1
  O  O68  1  0.69590779  0.46026122  0.42435377  1
  O  O69  1  0.53973878  0.30409221  0.57564623  1
  O  O70  1  0.03973878  0.80409221  0.92435377  1
  O  O71  1  0.19590779  0.96026122  0.07564623  1
