# generated using pymatgen
data_Th(CoSi)2
_symmetry_space_group_name_H-M   'P 1'
_cell_length_a   4.03890018
_cell_length_b   4.03890018
_cell_length_c   5.60767737
_cell_angle_alpha   111.10771161
_cell_angle_beta   111.10771164
_cell_angle_gamma   90.00000003
_symmetry_Int_Tables_number   1
_chemical_formula_structural   Th(CoSi)2
_chemical_formula_sum   'Th1 Co2 Si2'
_cell_volume   78.72416743
_cell_formula_units_Z   1
loop_
 _symmetry_equiv_pos_site_id
 _symmetry_equiv_pos_as_xyz
  1  'x, y, z'
loop_
 _atom_site_type_symbol
 _atom_site_label
 _atom_site_symmetry_multiplicity
 _atom_site_fract_x
 _atom_site_fract_y
 _atom_site_fract_z
 _atom_site_occupancy
  Si  Si0  1  0.63342743  0.63342743  0.26685485  1
  Si  Si1  1  0.36657257  0.36657257  0.73314515  1
  Co  Co2  1  0.75000000  0.25000000  0.50000000  1
  Co  Co3  1  0.25000000  0.75000000  0.50000000  1
  Th  Th4  1  0.00000000  0.00000000  0.00000000  1
