# generated using pymatgen
data_Mn9Al2Si8(HO4)8
_symmetry_space_group_name_H-M   'P 1'
_cell_length_a   8.43478777
_cell_length_b   10.46796865
_cell_length_c   7.74564145
_cell_angle_alpha   104.53412806
_cell_angle_beta   94.01498617
_cell_angle_gamma   103.78222390
_symmetry_Int_Tables_number   1
_chemical_formula_structural   Mn9Al2Si8(HO4)8
_chemical_formula_sum   'Mn9 Al2 Si8 H8 O32'
_cell_volume   636.79760718
_cell_formula_units_Z   1
loop_
 _symmetry_equiv_pos_site_id
 _symmetry_equiv_pos_as_xyz
  1  'x, y, z'
loop_
 _atom_site_type_symbol
 _atom_site_label
 _atom_site_symmetry_multiplicity
 _atom_site_fract_x
 _atom_site_fract_y
 _atom_site_fract_z
 _atom_site_occupancy
  Mn  Mn0  1  0.00000000  0.50000000  0.50000000  1
  Mn  Mn1  1  0.39054656  0.56828882  0.64031198  1
  Mn  Mn2  1  0.60945344  0.43171118  0.35968802  1
  Mn  Mn3  1  0.16277624  0.70139329  0.91917426  1
  Mn  Mn4  1  0.83722376  0.29860671  0.08082574  1
  Mn  Mn5  1  0.43128250  0.22811870  0.94713154  1
  Mn  Mn6  1  0.56871750  0.77188130  0.05286846  1
  Mn  Mn7  1  0.16445983  0.05680494  0.62111061  1
  Mn  Mn8  1  0.83554017  0.94319506  0.37888939  1
  Al  Al9  1  0.77876812  0.63078945  0.76807811  1
  Al  Al10  1  0.22123188  0.36921055  0.23192189  1
  Si  Si11  1  0.88483761  0.64235020  0.18565324  1
  Si  Si12  1  0.11516239  0.35764980  0.81434676  1
  Si  Si13  1  0.43063359  0.89731297  0.70569744  1
  Si  Si14  1  0.56936641  0.10268703  0.29430256  1
  Si  Si15  1  0.25605904  0.70129400  0.32080621  1
  Si  Si16  1  0.74394096  0.29870600  0.67919379  1
  Si  Si17  1  0.80897072  0.95199538  0.80037366  1
  Si  Si18  1  0.19102928  0.04800462  0.19962634  1
  H  H19  1  0.97889302  0.76862290  0.63326604  1
  H  H20  1  0.02110698  0.23137710  0.36673396  1
  H  H21  1  0.66846170  0.70145625  0.49140811  1
  H  H22  1  0.33153830  0.29854375  0.50859189  1
  H  H23  1  0.01504171  0.12457242  0.00025006  1
  H  H24  1  0.98495829  0.87542758  0.99974994  1
  H  H25  1  0.57372184  0.48666638  0.88604963  1
  H  H26  1  0.42627816  0.51333362  0.11395037  1
  O  O27  1  0.83360243  0.50117407  0.25184294  1
  O  O28  1  0.16639757  0.49882593  0.74815706  1
  O  O29  1  0.90550356  0.61566321  0.97116341  1
  O  O30  1  0.09449644  0.38433679  0.02883659  1
  O  O31  1  0.23399271  0.55712677  0.37996504  1
  O  O32  1  0.76600729  0.44287323  0.62003496  1
  O  O33  1  0.33665246  0.69519636  0.13577936  1
  O  O34  1  0.66334754  0.30480364  0.86422064  1
  O  O35  1  0.75695636  0.73714062  0.24265606  1
  O  O36  1  0.24304364  0.26285938  0.75734394  1
  O  O37  1  0.39427931  0.77847615  0.81302017  1
  O  O38  1  0.60572069  0.22152385  0.18697983  1
  O  O39  1  0.34559110  0.02146649  0.77455319  1
  O  O40  1  0.65440890  0.97853351  0.22544681  1
  O  O41  1  0.36855563  0.82555450  0.48915139  1
  O  O42  1  0.63144437  0.17444550  0.51084861  1
  O  O43  1  0.07141332  0.72954173  0.30016488  1
  O  O44  1  0.92858668  0.27045827  0.69983512  1
  O  O45  1  0.92440423  0.94144816  0.63762416  1
  O  O46  1  0.07559577  0.05855184  0.36237584  1
  O  O47  1  0.63065831  0.96495643  0.72387553  1
  O  O48  1  0.36934169  0.03504357  0.27612447  1
  O  O49  1  0.78816188  0.82083600  0.88510681  1
  O  O50  1  0.21183812  0.17916400  0.11489319  1
  O  O51  1  0.97849363  0.68689788  0.67497470  1
  O  O52  1  0.02150637  0.31310212  0.32502530  1
  O  O53  1  0.63614442  0.63262814  0.55675798  1
  O  O54  1  0.36385558  0.36737186  0.44324202  1
  O  O55  1  0.89224363  0.09615644  0.96374218  1
  O  O56  1  0.10775637  0.90384356  0.03625782  1
  O  O57  1  0.57617431  0.57286964  0.85557227  1
  O  O58  1  0.42382569  0.42713036  0.14442773  1
