# generated using pymatgen
data_Rb2CrH2Cl5O
_symmetry_space_group_name_H-M   'P 1'
_cell_length_a   14.19591879
_cell_length_b   9.84369868
_cell_length_c   7.34614918
_cell_angle_alpha   90.00000000
_cell_angle_beta   90.00000000
_cell_angle_gamma   90.00000000
_symmetry_Int_Tables_number   1
_chemical_formula_structural   Rb2CrH2Cl5O
_chemical_formula_sum   'Rb8 Cr4 H8 Cl20 O4'
_cell_volume   1026.55343593
_cell_formula_units_Z   4
loop_
 _symmetry_equiv_pos_site_id
 _symmetry_equiv_pos_as_xyz
  1  'x, y, z'
loop_
 _atom_site_type_symbol
 _atom_site_label
 _atom_site_symmetry_multiplicity
 _atom_site_fract_x
 _atom_site_fract_y
 _atom_site_fract_z
 _atom_site_occupancy
  Rb  Rb0  1  0.64514002  0.99896158  0.34693824  1
  Rb  Rb1  1  0.14514002  0.50103842  0.15306176  1
  Rb  Rb2  1  0.35485998  0.49896158  0.65306176  1
  Rb  Rb3  1  0.85485998  0.00103842  0.84693824  1
  Rb  Rb4  1  0.35485998  0.00103842  0.65306176  1
  Rb  Rb5  1  0.85485998  0.49896158  0.84693824  1
  Rb  Rb6  1  0.64514002  0.50103842  0.34693824  1
  Rb  Rb7  1  0.14514002  0.99896158  0.15306176  1
  Cr  Cr8  1  0.61125845  0.25000000  0.80890436  1
  Cr  Cr9  1  0.11125845  0.25000000  0.69109564  1
  Cr  Cr10  1  0.38874155  0.75000000  0.19109564  1
  Cr  Cr11  1  0.88874155  0.75000000  0.30890436  1
  H  H12  1  0.47097921  0.16846932  0.04133044  1
  H  H13  1  0.97097921  0.33153068  0.45866956  1
  H  H14  1  0.52902079  0.66846932  0.95866956  1
  H  H15  1  0.02902079  0.83153068  0.54133044  1
  H  H16  1  0.52902079  0.83153068  0.95866956  1
  H  H17  1  0.02902079  0.66846932  0.54133044  1
  H  H18  1  0.47097921  0.33153068  0.04133044  1
  H  H19  1  0.97097921  0.16846932  0.45866956  1
  Cl  Cl20  1  0.71526977  0.25000000  0.06349662  1
  Cl  Cl21  1  0.21526977  0.25000000  0.43650338  1
  Cl  Cl22  1  0.28473023  0.75000000  0.93650338  1
  Cl  Cl23  1  0.78473023  0.75000000  0.56349662  1
  Cl  Cl24  1  0.50884502  0.25000000  0.54815816  1
  Cl  Cl25  1  0.00884502  0.25000000  0.95184184  1
  Cl  Cl26  1  0.49115498  0.75000000  0.45184184  1
  Cl  Cl27  1  0.99115498  0.75000000  0.04815816  1
  Cl  Cl28  1  0.74239007  0.25000000  0.60982477  1
  Cl  Cl29  1  0.24239007  0.25000000  0.89017523  1
  Cl  Cl30  1  0.25760993  0.75000000  0.39017523  1
  Cl  Cl31  1  0.75760993  0.75000000  0.10982477  1
  Cl  Cl32  1  0.60366678  0.00710139  0.81924146  1
  Cl  Cl33  1  0.10366678  0.49289861  0.68075854  1
  Cl  Cl34  1  0.39633322  0.50710139  0.18075854  1
  Cl  Cl35  1  0.89633322  0.99289861  0.31924146  1
  Cl  Cl36  1  0.39633322  0.99289861  0.18075854  1
  Cl  Cl37  1  0.89633322  0.50710139  0.31924146  1
  Cl  Cl38  1  0.60366678  0.49289861  0.81924146  1
  Cl  Cl39  1  0.10366678  0.00710139  0.68075854  1
  O  O40  1  0.49368373  0.25000000  0.97823232  1
  O  O41  1  0.99368373  0.25000000  0.52176768  1
  O  O42  1  0.50631627  0.75000000  0.02176768  1
  O  O43  1  0.00631627  0.75000000  0.47823232  1
