# generated using pymatgen
data_KH(IF6)2
_symmetry_space_group_name_H-M   'P 1'
_cell_length_a   8.82688997
_cell_length_b   8.82688997
_cell_length_c   8.82688997
_cell_angle_alpha   111.54301066
_cell_angle_beta   111.54301066
_cell_angle_gamma   105.40265939
_symmetry_Int_Tables_number   1
_chemical_formula_structural   KH(IF6)2
_chemical_formula_sum   'K2 H2 I4 F24'
_cell_volume   527.43747432
_cell_formula_units_Z   2
loop_
 _symmetry_equiv_pos_site_id
 _symmetry_equiv_pos_as_xyz
  1  'x, y, z'
loop_
 _atom_site_type_symbol
 _atom_site_label
 _atom_site_symmetry_multiplicity
 _atom_site_fract_x
 _atom_site_fract_y
 _atom_site_fract_z
 _atom_site_occupancy
  K  K0  1  0.25000000  0.25000000  0.00000000  1
  K  K1  1  0.75000000  0.75000000  0.00000000  1
  H  H2  1  0.25000000  0.75000000  0.50000000  1
  H  H3  1  0.75000000  0.25000000  0.50000000  1
  I  I4  1  0.65964775  0.15964775  0.81929549  1
  I  I5  1  0.34035225  0.84035225  0.18070451  1
  I  I6  1  0.15964775  0.34035225  0.50000000  1
  I  I7  1  0.84035225  0.65964775  0.50000000  1
  F  F8  1  0.64097521  0.14097521  0.50000000  1
  F  F9  1  0.14097521  0.64097521  0.50000000  1
  F  F10  1  0.35902479  0.85902479  0.50000000  1
  F  F11  1  0.85902479  0.35902479  0.50000000  1
  F  F12  1  0.79330504  0.29330504  0.08661008  1
  F  F13  1  0.20669496  0.70669496  0.91338992  1
  F  F14  1  0.29330504  0.20669496  0.50000000  1
  F  F15  1  0.70669496  0.79330504  0.50000000  1
  F  F16  1  0.45897152  0.15494968  0.86448095  1
  F  F17  1  0.29046873  0.59449058  0.13551905  1
  F  F18  1  0.95897152  0.09449058  0.30402185  1
  F  F19  1  0.79046873  0.65494968  0.69597815  1
  F  F20  1  0.59449058  0.45897152  0.30402185  1
  F  F21  1  0.15494968  0.29046873  0.69597815  1
  F  F22  1  0.65494968  0.95897152  0.86448095  1
  F  F23  1  0.09449058  0.79046873  0.13551905  1
  F  F24  1  0.54102848  0.84505032  0.13551905  1
  F  F25  1  0.70953127  0.40550942  0.86448095  1
  F  F26  1  0.04102848  0.90550942  0.69597815  1
  F  F27  1  0.20953127  0.34505032  0.30402185  1
  F  F28  1  0.40550942  0.54102848  0.69597815  1
  F  F29  1  0.84505032  0.70953127  0.30402185  1
  F  F30  1  0.34505032  0.04102848  0.13551905  1
  F  F31  1  0.90550942  0.20953127  0.86448095  1
