# generated using pymatgen
data_Li7Mn2(CoO4)3
_symmetry_space_group_name_H-M   'P 1'
_cell_length_a   2.91906473
_cell_length_b   6.54294449
_cell_length_c   11.80639275
_cell_angle_alpha   76.84190652
_cell_angle_beta   90.00000005
_cell_angle_gamma   102.88938726
_symmetry_Int_Tables_number   1
_chemical_formula_structural   Li7Mn2(CoO4)3
_chemical_formula_sum   'Li7 Mn2 Co3 O12'
_cell_volume   213.73420669
_cell_formula_units_Z   1
loop_
 _symmetry_equiv_pos_site_id
 _symmetry_equiv_pos_as_xyz
  1  'x, y, z'
loop_
 _atom_site_type_symbol
 _atom_site_label
 _atom_site_symmetry_multiplicity
 _atom_site_fract_x
 _atom_site_fract_y
 _atom_site_fract_z
 _atom_site_occupancy
  Li  Li0  1  0.33545429  0.67090958  0.41077760  1
  Li  Li1  1  0.66715642  0.33431184  0.58553851  1
  Li  Li2  1  0.99951058  0.99902116  0.74779449  1
  Li  Li3  1  0.33121171  0.66242442  0.92255640  1
  Li  Li4  1  0.67452389  0.34904678  0.08150638  1
  Li  Li5  1  0.99214311  0.98428622  0.25182662  1
  Li  Li6  1  0.33333300  0.66666700  0.16666700  1
  Mn  Mn7  1  0.99327255  0.98654510  0.00405319  1
  Mn  Mn8  1  0.67339445  0.34678790  0.32927981  1
  Co  Co9  1  0.99886750  0.99773500  0.50000384  1
  Co  Co10  1  0.33333300  0.66666700  0.66666700  1
  Co  Co11  1  0.66779950  0.33559800  0.83332916  1
  O  O12  1  0.49790375  0.99580650  0.61915603  1
  O  O13  1  0.82970723  0.65941446  0.78369144  1
  O  O14  1  0.15891112  0.31782324  0.95231068  1
  O  O15  1  0.50186441  0.00372781  0.10924945  1
  O  O16  1  0.82030516  0.64061032  0.29807827  1
  O  O17  1  0.16266299  0.32532699  0.44643282  1
  O  O18  1  0.16480259  0.32960519  0.22408355  1
  O  O19  1  0.50775488  0.01551076  0.38102332  1
  O  O20  1  0.83695977  0.67391854  0.54964156  1
  O  O21  1  0.16876325  0.33752650  0.71417697  1
  O  O22  1  0.50400301  0.00800701  0.88690118  1
  O  O23  1  0.84636184  0.69272268  0.03525473  1
