# generated using pymatgen
data_CsZrCuSe3
_symmetry_space_group_name_H-M   'P 1'
_cell_length_a   3.94636109
_cell_length_b   8.38487030
_cell_length_c   10.28629519
_cell_angle_alpha   90.00000000
_cell_angle_beta   90.00000000
_cell_angle_gamma   103.61085807
_symmetry_Int_Tables_number   1
_chemical_formula_structural   CsZrCuSe3
_chemical_formula_sum   'Cs2 Zr2 Cu2 Se6'
_cell_volume   330.81186152
_cell_formula_units_Z   2
loop_
 _symmetry_equiv_pos_site_id
 _symmetry_equiv_pos_as_xyz
  1  'x, y, z'
loop_
 _atom_site_type_symbol
 _atom_site_label
 _atom_site_symmetry_multiplicity
 _atom_site_fract_x
 _atom_site_fract_y
 _atom_site_fract_z
 _atom_site_occupancy
  Cu  Cu0  1  0.46943527  0.93887055  0.75000000  1
  Cu  Cu1  1  0.53056473  0.06112945  0.25000000  1
  Se  Se2  1  0.38809512  0.77619024  0.55242760  1
  Se  Se3  1  0.61190488  0.22380976  0.44757240  1
  Se  Se4  1  0.93986188  0.87972375  0.25000000  1
  Se  Se5  1  0.06013812  0.12027625  0.75000000  1
  Se  Se6  1  0.38809512  0.77619024  0.94757240  1
  Se  Se7  1  0.61190488  0.22380976  0.05242760  1
  Zr  Zr8  1  0.00000000  0.00000000  0.50000000  1
  Zr  Zr9  1  0.00000000  0.00000000  0.00000000  1
  Cs  Cs10  1  0.25384856  0.50769712  0.25000000  1
  Cs  Cs11  1  0.74615144  0.49230288  0.75000000  1
