# generated using pymatgen
data_RbSmH8(SO6)2
_symmetry_space_group_name_H-M   'P 1'
_cell_length_a   6.70774639
_cell_length_b   19.14428544
_cell_length_c   8.65922932
_cell_angle_alpha   90.00000000
_cell_angle_beta   95.81175886
_cell_angle_gamma   90.00000000
_symmetry_Int_Tables_number   1
_chemical_formula_structural   RbSmH8(SO6)2
_chemical_formula_sum   'Rb4 Sm4 H32 S8 O48'
_cell_volume   1106.25942298
_cell_formula_units_Z   4
loop_
 _symmetry_equiv_pos_site_id
 _symmetry_equiv_pos_as_xyz
  1  'x, y, z'
loop_
 _atom_site_type_symbol
 _atom_site_label
 _atom_site_symmetry_multiplicity
 _atom_site_fract_x
 _atom_site_fract_y
 _atom_site_fract_z
 _atom_site_occupancy
  Rb  Rb0  1  0.64860468  0.28175778  0.61920024  1
  Rb  Rb1  1  0.35139532  0.78175778  0.88079976  1
  Rb  Rb2  1  0.35139532  0.71824222  0.38079976  1
  Rb  Rb3  1  0.64860468  0.21824222  0.11920024  1
  Sm  Sm4  1  0.15449738  0.37814197  0.28319760  1
  Sm  Sm5  1  0.84550262  0.87814197  0.21680240  1
  Sm  Sm6  1  0.84550262  0.62185803  0.71680240  1
  Sm  Sm7  1  0.15449738  0.12185803  0.78319760  1
  H  H8  1  0.13410736  0.09212367  0.44209249  1
  H  H9  1  0.86589264  0.59212367  0.05790751  1
  H  H10  1  0.86589264  0.90787633  0.55790751  1
  H  H11  1  0.13410736  0.40787633  0.94209249  1
  H  H12  1  0.24740680  0.02288665  0.48782117  1
  H  H13  1  0.75259320  0.52288665  0.01217883  1
  H  H14  1  0.75259320  0.97711335  0.51217883  1
  H  H15  1  0.24740680  0.47711335  0.98782117  1
  H  H16  1  0.19014982  0.36286576  0.64640831  1
  H  H17  1  0.80985018  0.86286576  0.85359169  1
  H  H18  1  0.80985018  0.63713424  0.35359169  1
  H  H19  1  0.19014982  0.13713424  0.14640831  1
  H  H20  1  0.29716515  0.43206472  0.61037140  1
  H  H21  1  0.70283485  0.93206472  0.88962860  1
  H  H22  1  0.70283485  0.56793528  0.38962860  1
  H  H23  1  0.29716515  0.06793528  0.11037140  1
  H  H24  1  0.69896806  0.39675468  0.94699214  1
  H  H25  1  0.30103194  0.89675468  0.55300786  1
  H  H26  1  0.30103194  0.60324532  0.05300786  1
  H  H27  1  0.69896806  0.10324532  0.44699214  1
  H  H28  1  0.51999226  0.42961703  0.83694901  1
  H  H29  1  0.48000774  0.92961703  0.66305099  1
  H  H30  1  0.48000774  0.57038297  0.16305099  1
  H  H31  1  0.51999226  0.07038297  0.33694901  1
  H  H32  1  0.82841487  0.47296809  0.56802687  1
  H  H33  1  0.17158513  0.97296809  0.93197313  1
  H  H34  1  0.17158513  0.52703191  0.43197313  1
  H  H35  1  0.82841487  0.02703191  0.06802687  1
  H  H36  1  0.76686795  0.46424285  0.73941647  1
  H  H37  1  0.23313205  0.96424285  0.76058353  1
  H  H38  1  0.23313205  0.53575715  0.26058353  1
  H  H39  1  0.76686795  0.03575715  0.23941647  1
  S  S40  1  0.12659314  0.22369263  0.40579586  1
  S  S41  1  0.87340686  0.72369263  0.09420414  1
  S  S42  1  0.87340686  0.77630737  0.59420414  1
  S  S43  1  0.12659314  0.27630737  0.90579586  1
  S  S44  1  0.69791403  0.42439169  0.27190080  1
  S  S45  1  0.30208597  0.92439169  0.22809920  1
  S  S46  1  0.30208597  0.57560831  0.72809920  1
  S  S47  1  0.69791403  0.07560831  0.77190080  1
  O  O48  1  0.08703886  0.34040188  0.80966429  1
  O  O49  1  0.91296114  0.84040188  0.69033571  1
  O  O50  1  0.91296114  0.65959812  0.19033571  1
  O  O51  1  0.08703886  0.15959812  0.30966429  1
  O  O52  1  0.13919804  0.20457677  0.57247056  1
  O  O53  1  0.86080196  0.70457677  0.92752944  1
  O  O54  1  0.86080196  0.79542323  0.42752944  1
  O  O55  1  0.13919804  0.29542323  0.07247056  1
  O  O56  1  0.95962952  0.22454427  0.87127838  1
  O  O57  1  0.04037048  0.72454427  0.62872162  1
  O  O58  1  0.04037048  0.77545573  0.12872162  1
  O  O59  1  0.95962952  0.27545573  0.37127838  1
  O  O60  1  0.31440969  0.24019890  0.87123082  1
  O  O61  1  0.68559031  0.74019890  0.62876918  1
  O  O62  1  0.68559031  0.75980110  0.12876918  1
  O  O63  1  0.31440969  0.25980110  0.37123082  1
  O  O64  1  0.51566915  0.11740732  0.79038317  1
  O  O65  1  0.48433085  0.61740732  0.70961683  1
  O  O66  1  0.48433085  0.88259268  0.20961683  1
  O  O67  1  0.51566915  0.38259268  0.29038317  1
  O  O68  1  0.64918155  0.49841730  0.23788371  1
  O  O69  1  0.35081845  0.99841730  0.26211629  1
  O  O70  1  0.35081845  0.50158270  0.76211629  1
  O  O71  1  0.64918155  0.00158270  0.73788371  1
  O  O72  1  0.80627718  0.10708538  0.64414213  1
  O  O73  1  0.19372282  0.60708538  0.85585787  1
  O  O74  1  0.19372282  0.89291462  0.35585787  1
  O  O75  1  0.80627718  0.39291462  0.14414213  1
  O  O76  1  0.84346606  0.08134769  0.91473187  1
  O  O77  1  0.15653394  0.58134769  0.58526813  1
  O  O78  1  0.15653394  0.91865231  0.08526813  1
  O  O79  1  0.84346606  0.41865231  0.41473187  1
  O  O80  1  0.18984733  0.06392163  0.53290134  1
  O  O81  1  0.81015267  0.56392163  0.96709866  1
  O  O82  1  0.81015267  0.93607837  0.46709866  1
  O  O83  1  0.18984733  0.43607837  0.03290134  1
  O  O84  1  0.26044083  0.38619831  0.56394047  1
  O  O85  1  0.73955917  0.88619831  0.93605953  1
  O  O86  1  0.73955917  0.61380169  0.43605953  1
  O  O87  1  0.26044083  0.11380169  0.06394047  1
  O  O88  1  0.64665237  0.40366357  0.83726239  1
  O  O89  1  0.35334763  0.90366357  0.66273761  1
  O  O90  1  0.35334763  0.59633643  0.16273761  1
  O  O91  1  0.64665237  0.09633643  0.33726239  1
  O  O92  1  0.81106748  0.49949635  0.66458041  1
  O  O93  1  0.18893252  0.99949635  0.83541959  1
  O  O94  1  0.18893252  0.50050365  0.33541959  1
  O  O95  1  0.81106748  0.00050365  0.16458041  1
