# generated using pymatgen
data_CsErZnSe3
_symmetry_space_group_name_H-M   'P 1'
_cell_length_a   4.16036768
_cell_length_b   8.40679027
_cell_length_c   10.94724470
_cell_angle_alpha   90.00000000
_cell_angle_beta   90.00000000
_cell_angle_gamma   104.32612998
_symmetry_Int_Tables_number   1
_chemical_formula_structural   CsErZnSe3
_chemical_formula_sum   'Cs2 Er2 Zn2 Se6'
_cell_volume   370.97705279
_cell_formula_units_Z   2
loop_
 _symmetry_equiv_pos_site_id
 _symmetry_equiv_pos_as_xyz
  1  'x, y, z'
loop_
 _atom_site_type_symbol
 _atom_site_label
 _atom_site_symmetry_multiplicity
 _atom_site_fract_x
 _atom_site_fract_y
 _atom_site_fract_z
 _atom_site_occupancy
  Zn  Zn0  1  0.53710715  0.07421430  0.25000000  1
  Zn  Zn1  1  0.46289285  0.92578570  0.75000000  1
  Se  Se2  1  0.94436410  0.88872821  0.25000000  1
  Se  Se3  1  0.05563590  0.11127179  0.75000000  1
  Se  Se4  1  0.38527016  0.77054031  0.94211123  1
  Se  Se5  1  0.61472984  0.22945969  0.05788877  1
  Se  Se6  1  0.61472984  0.22945969  0.44211123  1
  Se  Se7  1  0.38527016  0.77054031  0.55788877  1
  Cs  Cs8  1  0.25587674  0.51175347  0.25000000  1
  Cs  Cs9  1  0.74412326  0.48824653  0.75000000  1
  Er  Er10  1  0.00000000  0.00000000  0.50000000  1
  Er  Er11  1  0.00000000  0.00000000  0.00000000  1
