# generated using pymatgen
data_As2HPbF13
_symmetry_space_group_name_H-M   'P 1'
_cell_length_a   10.95540985
_cell_length_b   15.99283974
_cell_length_c   11.17469112
_cell_angle_alpha   90.00000000
_cell_angle_beta   90.00006058
_cell_angle_gamma   90.00000000
_symmetry_Int_Tables_number   1
_chemical_formula_structural   As2HPbF13
_chemical_formula_sum   'As16 H8 Pb8 F104'
_cell_volume   1957.89655586
_cell_formula_units_Z   8
loop_
 _symmetry_equiv_pos_site_id
 _symmetry_equiv_pos_as_xyz
  1  'x, y, z'
loop_
 _atom_site_type_symbol
 _atom_site_label
 _atom_site_symmetry_multiplicity
 _atom_site_fract_x
 _atom_site_fract_y
 _atom_site_fract_z
 _atom_site_occupancy
  As  As0  1  0.00000000  0.34433084  0.25000000  1
  As  As1  1  0.00000000  0.24549667  0.75000000  1
  As  As2  1  0.00000000  0.75450333  0.25000000  1
  As  As3  1  0.00000000  0.65566916  0.75000000  1
  As  As4  1  0.18287246  0.07385711  0.41903873  1
  As  As5  1  0.18287246  0.92614289  0.91903873  1
  As  As6  1  0.31712664  0.42614279  0.91903817  1
  As  As7  1  0.31712664  0.57385721  0.41903817  1
  As  As8  1  0.50000000  0.25450228  0.25000000  1
  As  As9  1  0.50000000  0.84433119  0.25000000  1
  As  As10  1  0.50000000  0.15566881  0.75000000  1
  As  As11  1  0.50000000  0.74549772  0.75000000  1
  As  As12  1  0.68287336  0.42614279  0.58096183  1
  As  As13  1  0.68287336  0.57385721  0.08096183  1
  As  As14  1  0.81712754  0.07385711  0.08096127  1
  As  As15  1  0.81712754  0.92614289  0.58096127  1
  H  H16  1  0.03225065  0.58499604  0.02133921  1
  H  H17  1  0.03225065  0.41500396  0.52133921  1
  H  H18  1  0.46775012  0.08499597  0.02133907  1
  H  H19  1  0.46775012  0.91500403  0.52133907  1
  H  H20  1  0.53224988  0.08499597  0.47866093  1
  H  H21  1  0.53224988  0.91500403  0.97866093  1
  H  H22  1  0.96774935  0.41500396  0.97866079  1
  H  H23  1  0.96774935  0.58499604  0.47866079  1
  Pb  Pb24  1  0.19613087  0.15616499  0.04334305  1
  Pb  Pb25  1  0.19613087  0.84383501  0.54334305  1
  Pb  Pb26  1  0.30386898  0.65616478  0.04334365  1
  Pb  Pb27  1  0.30386898  0.34383522  0.54334365  1
  Pb  Pb28  1  0.69613102  0.34383522  0.95665635  1
  Pb  Pb29  1  0.69613102  0.65616478  0.45665635  1
  Pb  Pb30  1  0.80386913  0.84383501  0.95665695  1
  Pb  Pb31  1  0.80386913  0.15616499  0.45665695  1
  F  F32  1  0.00000000  0.13695240  0.75000000  1
  F  F33  1  0.00000000  0.64619538  0.25000000  1
  F  F34  1  0.00000000  0.35380462  0.75000000  1
  F  F35  1  0.00000000  0.86304760  0.25000000  1
  F  F36  1  0.02040675  0.08924657  0.42624446  1
  F  F37  1  0.02040675  0.91075343  0.92624446  1
  F  F38  1  0.05508930  0.24463826  0.90274435  1
  F  F39  1  0.05508930  0.75536174  0.40274435  1
  F  F40  1  0.07398442  0.26276535  0.16575691  1
  F  F41  1  0.07398442  0.73723465  0.66575691  1
  F  F42  1  0.07250683  0.41901737  0.16133754  1
  F  F43  1  0.07250683  0.58098263  0.66133754  1
  F  F44  1  0.10491279  0.57440719  0.06449663  1
  F  F45  1  0.10491279  0.42559281  0.56449663  1
  F  F46  1  0.12357775  0.34088916  0.35326669  1
  F  F47  1  0.12357775  0.65911084  0.85326669  1
  F  F48  1  0.15366181  0.24726108  0.69607343  1
  F  F49  1  0.15366181  0.75273892  0.19607343  1
  F  F50  1  0.15827175  0.03320147  0.87796271  1
  F  F51  1  0.15827175  0.96679853  0.37796271  1
  F  F52  1  0.15941992  0.56024498  0.40454672  1
  F  F53  1  0.15941992  0.43975502  0.90454672  1
  F  F54  1  0.17382022  0.10195839  0.26354480  1
  F  F55  1  0.17382022  0.89804161  0.76354480  1
  F  F56  1  0.18295775  0.04166114  0.56925139  1
  F  F57  1  0.18295775  0.95833886  0.06925139  1
  F  F58  1  0.20347214  0.18016326  0.45873722  1
  F  F59  1  0.20347214  0.81983674  0.95873722  1
  F  F60  1  0.29652749  0.31983724  0.95873707  1
  F  F61  1  0.29652749  0.68016276  0.45873707  1
  F  F62  1  0.31704134  0.45833808  0.06925084  1
  F  F63  1  0.31704134  0.54166192  0.56925084  1
  F  F64  1  0.32617924  0.60195870  0.26354451  1
  F  F65  1  0.32617924  0.39804130  0.76354451  1
  F  F66  1  0.34058082  0.06024589  0.40454888  1
  F  F67  1  0.34058082  0.93975411  0.90454888  1
  F  F68  1  0.34172957  0.53320116  0.87796317  1
  F  F69  1  0.34172957  0.46679884  0.37796317  1
  F  F70  1  0.34633851  0.25273846  0.19607250  1
  F  F71  1  0.34633851  0.74726154  0.69607250  1
  F  F72  1  0.37642161  0.15911014  0.85326552  1
  F  F73  1  0.37642161  0.84088986  0.35326552  1
  F  F74  1  0.39508605  0.07440706  0.06449641  1
  F  F75  1  0.39508605  0.92559294  0.56449641  1
  F  F76  1  0.42749278  0.08098261  0.66133732  1
  F  F77  1  0.42749278  0.91901739  0.16133732  1
  F  F78  1  0.42601578  0.23723439  0.66575765  1
  F  F79  1  0.42601578  0.76276561  0.16575765  1
  F  F80  1  0.44491065  0.25536182  0.40274393  1
  F  F81  1  0.44491065  0.74463818  0.90274393  1
  F  F82  1  0.47959249  0.41075365  0.92624481  1
  F  F83  1  0.47959249  0.58924635  0.42624481  1
  F  F84  1  0.50000000  0.36304770  0.25000000  1
  F  F85  1  0.50000000  0.14619536  0.25000000  1
  F  F86  1  0.50000000  0.63695230  0.75000000  1
  F  F87  1  0.50000000  0.85380464  0.75000000  1
  F  F88  1  0.52040751  0.41075365  0.57375519  1
  F  F89  1  0.52040751  0.58924635  0.07375519  1
  F  F90  1  0.55508935  0.25536182  0.09725607  1
  F  F91  1  0.55508935  0.74463818  0.59725607  1
  F  F92  1  0.57398422  0.76276561  0.33424235  1
  F  F93  1  0.57398422  0.23723439  0.83424235  1
  F  F94  1  0.57250722  0.91901739  0.33866268  1
  F  F95  1  0.57250722  0.08098261  0.83866268  1
  F  F96  1  0.60491395  0.07440706  0.43550359  1
  F  F97  1  0.60491395  0.92559294  0.93550359  1
  F  F98  1  0.62357839  0.15911014  0.64673448  1
  F  F99  1  0.62357839  0.84088986  0.14673448  1
  F  F100  1  0.65366149  0.25273846  0.30392750  1
  F  F101  1  0.65366149  0.74726154  0.80392750  1
  F  F102  1  0.65827043  0.46679884  0.12203683  1
  F  F103  1  0.65827043  0.53320116  0.62203683  1
  F  F104  1  0.65941918  0.06024589  0.09545112  1
  F  F105  1  0.65941918  0.93975411  0.59545112  1
  F  F106  1  0.67382076  0.39804130  0.73645549  1
  F  F107  1  0.67382076  0.60195870  0.23645549  1
  F  F108  1  0.68295866  0.45833808  0.43074916  1
  F  F109  1  0.68295866  0.54166192  0.93074916  1
  F  F110  1  0.70347251  0.31983724  0.54126293  1
  F  F111  1  0.70347251  0.68016276  0.04126293  1
  F  F112  1  0.79652786  0.18016326  0.04126278  1
  F  F113  1  0.79652786  0.81983674  0.54126278  1
  F  F114  1  0.81704225  0.04166114  0.93074861  1
  F  F115  1  0.81704225  0.95833886  0.43074861  1
  F  F116  1  0.82617978  0.10195839  0.23645520  1
  F  F117  1  0.82617978  0.89804161  0.73645520  1
  F  F118  1  0.84058008  0.43975502  0.59545328  1
  F  F119  1  0.84058008  0.56024498  0.09545328  1
  F  F120  1  0.84172825  0.03320147  0.62203729  1
  F  F121  1  0.84172825  0.96679853  0.12203729  1
  F  F122  1  0.84633819  0.75273892  0.30392657  1
  F  F123  1  0.84633819  0.24726108  0.80392657  1
  F  F124  1  0.87642225  0.34088916  0.14673331  1
  F  F125  1  0.87642225  0.65911084  0.64673331  1
  F  F126  1  0.89508721  0.42559281  0.93550337  1
  F  F127  1  0.89508721  0.57440719  0.43550337  1
  F  F128  1  0.92749317  0.41901737  0.33866246  1
  F  F129  1  0.92749317  0.58098263  0.83866246  1
  F  F130  1  0.92601558  0.26276535  0.33424309  1
  F  F131  1  0.92601558  0.73723465  0.83424309  1
  F  F132  1  0.94491070  0.24463826  0.59725565  1
  F  F133  1  0.94491070  0.75536174  0.09725565  1
  F  F134  1  0.97959325  0.91075343  0.57375554  1
  F  F135  1  0.97959325  0.08924657  0.07375554  1
