# generated using pymatgen
data_Na4(NiO2)9
_symmetry_space_group_name_H-M   'P 1'
_cell_length_a   7.08716771
_cell_length_b   7.10909403
_cell_length_c   7.51280763
_cell_angle_alpha   103.80079815
_cell_angle_beta   90.66574355
_cell_angle_gamma   105.81586331
_symmetry_Int_Tables_number   1
_chemical_formula_structural   Na4(NiO2)9
_chemical_formula_sum   'Na4 Ni9 O18'
_cell_volume   352.48513978
_cell_formula_units_Z   1
loop_
 _symmetry_equiv_pos_site_id
 _symmetry_equiv_pos_as_xyz
  1  'x, y, z'
loop_
 _atom_site_type_symbol
 _atom_site_label
 _atom_site_symmetry_multiplicity
 _atom_site_fract_x
 _atom_site_fract_y
 _atom_site_fract_z
 _atom_site_occupancy
  Na  Na0  1  0.10277568  0.09840397  0.69779237  1
  Na  Na1  1  0.20160035  0.19982843  0.30170509  1
  Na  Na2  1  0.58143407  0.58120824  0.36509212  1
  Na  Na3  1  0.67138646  0.67504785  0.97003482  1
  Ni  Ni4  1  0.05719155  0.54760366  0.83496659  1
  Ni  Ni5  1  0.50265592  0.00287985  0.49537642  1
  Ni  Ni6  1  0.16933706  0.66600316  0.50234874  1
  Ni  Ni7  1  0.60994256  0.11583294  0.16503809  1
  Ni  Ni8  1  0.71652334  0.22756653  0.83224375  1
  Ni  Ni9  1  0.27630681  0.77433710  0.16728166  1
  Ni  Ni10  1  0.83541974  0.32972819  0.49879942  1
  Ni  Ni11  1  0.38759266  0.88779956  0.83364541  1
  Ni  Ni12  1  0.94354965  0.44879256  0.17018651  1
  O  O13  1  0.98433617  0.31825473  0.93043566  1
  O  O14  1  0.09620165  0.40176594  0.59908748  1
  O  O15  1  0.32994338  0.00259983  0.07435236  1
  O  O16  1  0.45655934  0.14301772  0.72590369  1
  O  O17  1  0.31849774  0.62964930  0.93595924  1
  O  O18  1  0.56556165  0.23913296  0.40458615  1
  O  O19  1  0.77259029  0.08786002  0.57100451  1
  O  O20  1  0.11941066  0.78145425  0.74417617  1
  O  O21  1  0.21626783  0.54009890  0.26160960  1
  O  O22  1  0.79211441  0.46214690  0.73551435  1
  O  O23  1  0.67995221  0.38405476  0.09329644  1
  O  O24  1  0.44260805  0.77248125  0.58931390  1
  O  O25  1  0.88896174  0.21689143  0.25886331  1
  O  O26  1  0.23754228  0.92418328  0.40397168  1
  O  O27  1  0.89932024  0.56810732  0.41249814  1
  O  O28  1  0.65375162  0.99255257  0.92773037  1
  O  O29  1  0.53879519  0.85506121  0.25706296  1
  O  O30  1  0.00742569  0.68121259  0.07345200  1
