# generated using pymatgen
data_FeH24C8(NCl2)2
_symmetry_space_group_name_H-M   'P 1'
_cell_length_a   9.16587139
_cell_length_b   12.54309249
_cell_length_c   15.63704584
_cell_angle_alpha   90.00000000
_cell_angle_beta   90.00000000
_cell_angle_gamma   90.00000000
_symmetry_Int_Tables_number   1
_chemical_formula_structural   FeH24C8(NCl2)2
_chemical_formula_sum   'Fe4 H96 C32 N8 Cl16'
_cell_volume   1797.76571244
_cell_formula_units_Z   4
loop_
 _symmetry_equiv_pos_site_id
 _symmetry_equiv_pos_as_xyz
  1  'x, y, z'
loop_
 _atom_site_type_symbol
 _atom_site_label
 _atom_site_symmetry_multiplicity
 _atom_site_fract_x
 _atom_site_fract_y
 _atom_site_fract_z
 _atom_site_occupancy
  Fe  Fe0  1  0.75000000  0.25563300  0.90696031  1
  Fe  Fe1  1  0.25000000  0.24436700  0.40696031  1
  Fe  Fe2  1  0.25000000  0.74436700  0.09303969  1
  Fe  Fe3  1  0.75000000  0.75563300  0.59303969  1
  H  H4  1  0.65236109  0.60486500  0.26778145  1
  H  H5  1  0.84855248  0.85992498  0.02370574  1
  H  H6  1  0.52041099  0.85739805  0.88745221  1
  H  H7  1  0.88435714  0.97711154  0.85710811  1
  H  H8  1  0.62301799  0.36151035  0.71067255  1
  H  H9  1  0.65236109  0.10486500  0.23221855  1
  H  H10  1  0.38435714  0.02288846  0.14289189  1
  H  H11  1  0.12301799  0.13848965  0.21067255  1
  H  H12  1  0.60980301  0.88036180  0.29225432  1
  H  H13  1  0.12521213  0.59387148  0.90491721  1
  H  H14  1  0.34818780  0.79585643  0.43442248  1
  H  H15  1  0.34818780  0.29585643  0.06557752  1
  H  H16  1  0.15236109  0.89513500  0.76778145  1
  H  H17  1  0.37698201  0.63848965  0.28932745  1
  H  H18  1  0.87478787  0.90612852  0.40491721  1
  H  H19  1  0.02041099  0.64260195  0.38745221  1
  H  H20  1  0.51891957  0.49301582  0.16163947  1
  H  H21  1  0.15144752  0.14007502  0.97629426  1
  H  H22  1  0.84782730  0.14860110  0.37883280  1
  H  H23  1  0.37478787  0.09387148  0.59508279  1
  H  H24  1  0.75000000  0.20357807  0.66554001  1
  H  H25  1  0.88435714  0.47711154  0.64289189  1
  H  H26  1  0.75000000  0.06621513  0.45499544  1
  H  H27  1  0.15144752  0.64007502  0.52370574  1
  H  H28  1  0.75000000  0.99128234  0.19100579  1
  H  H29  1  0.12521213  0.09387148  0.59508279  1
  H  H30  1  0.87478787  0.40612852  0.09508279  1
  H  H31  1  0.34855248  0.64007502  0.52370574  1
  H  H32  1  0.84855248  0.35992498  0.47629426  1
  H  H33  1  0.65217270  0.14860110  0.37883280  1
  H  H34  1  0.25000000  0.79642193  0.33445999  1
  H  H35  1  0.11564286  0.52288846  0.35710811  1
  H  H36  1  0.65217270  0.64860110  0.12116720  1
  H  H37  1  0.34782730  0.35139890  0.87883280  1
  H  H38  1  0.75000000  0.70357807  0.83445999  1
  H  H39  1  0.98108043  0.99301582  0.33836053  1
  H  H40  1  0.25000000  0.43378487  0.95499544  1
  H  H41  1  0.98108043  0.49301582  0.16163947  1
  H  H42  1  0.60980301  0.38036180  0.20774568  1
  H  H43  1  0.25000000  0.29642193  0.16554001  1
  H  H44  1  0.65181220  0.70414357  0.93442248  1
  H  H45  1  0.15217270  0.35139890  0.87883280  1
  H  H46  1  0.34763891  0.39513500  0.73221855  1
  H  H47  1  0.48108043  0.00698418  0.66163947  1
  H  H48  1  0.02041099  0.14260195  0.11254779  1
  H  H49  1  0.34763891  0.89513500  0.76778145  1
  H  H50  1  0.15236109  0.39513500  0.73221855  1
  H  H51  1  0.10980301  0.61963820  0.79225432  1
  H  H52  1  0.89019699  0.88036180  0.29225432  1
  H  H53  1  0.61564286  0.97711154  0.85710811  1
  H  H54  1  0.62301799  0.86151035  0.78932745  1
  H  H55  1  0.25000000  0.52245308  0.49233821  1
  H  H56  1  0.52041099  0.35739805  0.61254779  1
  H  H57  1  0.87698201  0.86151035  0.78932745  1
  H  H58  1  0.25000000  0.93378487  0.54500456  1
  H  H59  1  0.25000000  0.00871766  0.80899421  1
  H  H60  1  0.61564286  0.47711154  0.64289189  1
  H  H61  1  0.01891957  0.50698418  0.83836053  1
  H  H62  1  0.65144752  0.85992498  0.02370574  1
  H  H63  1  0.65181220  0.20414357  0.56557752  1
  H  H64  1  0.48108043  0.50698418  0.83836053  1
  H  H65  1  0.84818780  0.20414357  0.56557752  1
  H  H66  1  0.97958901  0.35739805  0.61254779  1
  H  H67  1  0.12301799  0.63848965  0.28932745  1
  H  H68  1  0.51891957  0.99301582  0.33836053  1
  H  H69  1  0.37698201  0.13848965  0.21067255  1
  H  H70  1  0.65144752  0.35992498  0.47629426  1
  H  H71  1  0.75000000  0.56621513  0.04500456  1
  H  H72  1  0.84763891  0.10486500  0.23221855  1
  H  H73  1  0.47958901  0.14260195  0.11254779  1
  H  H74  1  0.84782730  0.64860110  0.12116720  1
  H  H75  1  0.62521213  0.40612852  0.09508279  1
  H  H76  1  0.39019699  0.11963820  0.70774568  1
  H  H77  1  0.10980301  0.11963820  0.70774568  1
  H  H78  1  0.75000000  0.49128234  0.30899421  1
  H  H79  1  0.01891957  0.00698418  0.66163947  1
  H  H80  1  0.15181220  0.79585643  0.43442248  1
  H  H81  1  0.84763891  0.60486500  0.26778145  1
  H  H82  1  0.47958901  0.64260195  0.38745221  1
  H  H83  1  0.15181220  0.29585643  0.06557752  1
  H  H84  1  0.34855248  0.14007502  0.97629426  1
  H  H85  1  0.89019699  0.38036180  0.20774568  1
  H  H86  1  0.87698201  0.36151035  0.71067255  1
  H  H87  1  0.62521213  0.90612852  0.40491721  1
  H  H88  1  0.25000000  0.50871766  0.69100579  1
  H  H89  1  0.25000000  0.02245308  0.00766179  1
  H  H90  1  0.39019699  0.61963820  0.79225432  1
  H  H91  1  0.15217270  0.85139890  0.62116720  1
  H  H92  1  0.84818780  0.70414357  0.93442248  1
  H  H93  1  0.11564286  0.02288846  0.14289189  1
  H  H94  1  0.97958901  0.85739805  0.88745221  1
  H  H95  1  0.75000000  0.47754692  0.50766179  1
  H  H96  1  0.34782730  0.85139890  0.62116720  1
  H  H97  1  0.75000000  0.97754692  0.99233821  1
  H  H98  1  0.37478787  0.59387148  0.90491721  1
  H  H99  1  0.38435714  0.52288846  0.35710811  1
  C  C100  1  0.61621826  0.44238704  0.15844972  1
  C  C101  1  0.38283694  0.61020176  0.35549645  1
  C  C102  1  0.88378174  0.94238704  0.34155028  1
  C  C103  1  0.38378174  0.55761296  0.84155028  1
  C  C104  1  0.25000000  0.44489304  0.73868732  1
  C  C105  1  0.25000000  0.10971908  0.00797857  1
  C  C106  1  0.75000000  0.55510696  0.26131268  1
  C  C107  1  0.25000000  0.26879322  0.09887480  1
  C  C108  1  0.75000000  0.05510696  0.23868732  1
  C  C109  1  0.25000000  0.89980377  0.60977105  1
  C  C110  1  0.61716306  0.88979824  0.85549645  1
  C  C111  1  0.11716306  0.61020176  0.35549645  1
  C  C112  1  0.25000000  0.60971908  0.49202143  1
  C  C113  1  0.75000000  0.10019623  0.39022895  1
  C  C114  1  0.88283694  0.38979824  0.64450355  1
  C  C115  1  0.25000000  0.76879322  0.40112520  1
  C  C116  1  0.11716306  0.11020176  0.14450355  1
  C  C117  1  0.61621826  0.94238704  0.34155028  1
  C  C118  1  0.75000000  0.89028092  0.99202143  1
  C  C119  1  0.75000000  0.60019623  0.10977105  1
  C  C120  1  0.75000000  0.73120678  0.90112520  1
  C  C121  1  0.25000000  0.39980377  0.89022895  1
  C  C122  1  0.88378174  0.44238704  0.15844972  1
  C  C123  1  0.88283694  0.88979824  0.85549645  1
  C  C124  1  0.38283694  0.11020176  0.14450355  1
  C  C125  1  0.75000000  0.23120678  0.59887480  1
  C  C126  1  0.11621826  0.05761296  0.65844972  1
  C  C127  1  0.11621826  0.55761296  0.84155028  1
  C  C128  1  0.75000000  0.39028092  0.50797857  1
  C  C129  1  0.61716306  0.38979824  0.64450355  1
  C  C130  1  0.38378174  0.05761296  0.65844972  1
  C  C131  1  0.25000000  0.94489304  0.76131268  1
  N  N132  1  0.75000000  0.85074291  0.90133785  1
  N  N133  1  0.75000000  0.50936305  0.17253311  1
  N  N134  1  0.25000000  0.14925709  0.09866215  1
  N  N135  1  0.75000000  0.00936305  0.32746689  1
  N  N136  1  0.25000000  0.99063695  0.67253311  1
  N  N137  1  0.25000000  0.64925709  0.40133785  1
  N  N138  1  0.75000000  0.35074291  0.59866215  1
  N  N139  1  0.25000000  0.49063695  0.82746689  1
  Cl  Cl140  1  0.25000000  0.31458374  0.54010631  1
  Cl  Cl141  1  0.45686944  0.80023586  0.15848532  1
  Cl  Cl142  1  0.04313056  0.30023586  0.34151468  1
  Cl  Cl143  1  0.25000000  0.56466029  0.09697549  1
  Cl  Cl144  1  0.95686944  0.69976414  0.65848532  1
  Cl  Cl145  1  0.54313056  0.69976414  0.65848532  1
  Cl  Cl146  1  0.75000000  0.68541626  0.45989369  1
  Cl  Cl147  1  0.45686944  0.30023586  0.34151468  1
  Cl  Cl148  1  0.04313056  0.80023586  0.15848532  1
  Cl  Cl149  1  0.75000000  0.93533971  0.59697549  1
  Cl  Cl150  1  0.75000000  0.18541626  0.04010631  1
  Cl  Cl151  1  0.25000000  0.06466029  0.40302451  1
  Cl  Cl152  1  0.95686944  0.19976414  0.84151468  1
  Cl  Cl153  1  0.54313056  0.19976414  0.84151468  1
  Cl  Cl154  1  0.75000000  0.43533971  0.90302451  1
  Cl  Cl155  1  0.25000000  0.81458374  0.95989369  1
