# generated using pymatgen
data_Na3MnAsCO7
_symmetry_space_group_name_H-M   'P 1'
_cell_length_a   9.19992020
_cell_length_b   7.01630265
_cell_length_c   5.26693237
_cell_angle_alpha   90.00000000
_cell_angle_beta   89.72080289
_cell_angle_gamma   90.00000000
_symmetry_Int_Tables_number   1
_chemical_formula_structural   Na3MnAsCO7
_chemical_formula_sum   'Na6 Mn2 As2 C2 O14'
_cell_volume   339.97341682
_cell_formula_units_Z   2
loop_
 _symmetry_equiv_pos_site_id
 _symmetry_equiv_pos_as_xyz
  1  'x, y, z'
loop_
 _atom_site_type_symbol
 _atom_site_label
 _atom_site_symmetry_multiplicity
 _atom_site_fract_x
 _atom_site_fract_y
 _atom_site_fract_z
 _atom_site_occupancy
  Na  Na0  1  0.07932924  0.25000000  0.76011472  1
  Na  Na1  1  0.25436024  0.00288094  0.24643624  1
  Na  Na2  1  0.25436024  0.49711906  0.24643624  1
  Na  Na3  1  0.74563976  0.50288094  0.75356376  1
  Na  Na4  1  0.74563976  0.99711906  0.75356376  1
  Na  Na5  1  0.92067076  0.75000000  0.23988528  1
  Mn  Mn6  1  0.35262885  0.75000000  0.77751733  1
  Mn  Mn7  1  0.64737115  0.25000000  0.22248267  1
  As  As8  1  0.41278767  0.25000000  0.70218485  1
  As  As9  1  0.58721233  0.75000000  0.29781515  1
  C  C10  1  0.05823983  0.75000000  0.73446326  1
  C  C11  1  0.94176017  0.25000000  0.26553674  1
  O  O12  1  0.08189451  0.25000000  0.28796845  1
  O  O13  1  0.11842223  0.75000000  0.95844820  1
  O  O14  1  0.14183062  0.75000000  0.53288642  1
  O  O15  1  0.30819017  0.05643999  0.78884620  1
  O  O16  1  0.30819017  0.44356001  0.78884620  1
  O  O17  1  0.43201944  0.25000000  0.37447767  1
  O  O18  1  0.41486379  0.75000000  0.17380825  1
  O  O19  1  0.58513621  0.25000000  0.82619175  1
  O  O20  1  0.56798056  0.75000000  0.62552233  1
  O  O21  1  0.69180983  0.55643999  0.21115380  1
  O  O22  1  0.69180983  0.94356001  0.21115380  1
  O  O23  1  0.85816938  0.25000000  0.46711358  1
  O  O24  1  0.88157777  0.25000000  0.04155180  1
  O  O25  1  0.91810549  0.75000000  0.71203155  1
