# generated using pymatgen
data_Bi3PO7
_symmetry_space_group_name_H-M   'P 1'
_cell_length_a   9.43572671
_cell_length_b   9.43572671
_cell_length_c   12.28981478
_cell_angle_alpha   77.21854715
_cell_angle_beta   102.78145285
_cell_angle_gamma   87.51066879
_symmetry_Int_Tables_number   1
_chemical_formula_structural   Bi3PO7
_chemical_formula_sum   'Bi18 P6 O42'
_cell_volume   1035.72331590
_cell_formula_units_Z   6
loop_
 _symmetry_equiv_pos_site_id
 _symmetry_equiv_pos_as_xyz
  1  'x, y, z'
loop_
 _atom_site_type_symbol
 _atom_site_label
 _atom_site_symmetry_multiplicity
 _atom_site_fract_x
 _atom_site_fract_y
 _atom_site_fract_z
 _atom_site_occupancy
  Bi  Bi0  1  0.48334521  0.85424216  0.94545915  1
  Bi  Bi1  1  0.14575784  0.51665479  0.94545915  1
  Bi  Bi2  1  0.50152847  0.80991923  0.62181989  1
  Bi  Bi3  1  0.19008077  0.49847153  0.62181989  1
  Bi  Bi4  1  0.85023492  0.80939463  0.84000175  1
  Bi  Bi5  1  0.19060537  0.14976508  0.84000175  1
  Bi  Bi6  1  0.20008589  0.49145204  0.28183041  1
  Bi  Bi7  1  0.50854796  0.79991411  0.28183041  1
  Bi  Bi8  1  0.82759093  0.86619647  0.50175863  1
  Bi  Bi9  1  0.13380353  0.17240907  0.50175863  1
  Bi  Bi10  1  0.83509809  0.85415800  0.16290929  1
  Bi  Bi11  1  0.14584200  0.16490191  0.16290929  1
  Bi  Bi12  1  0.49982268  0.15576641  0.69722671  1
  Bi  Bi13  1  0.84423359  0.50017732  0.69722671  1
  Bi  Bi14  1  0.85405003  0.51887984  0.39059779  1
  Bi  Bi15  1  0.48112016  0.14594997  0.39059779  1
  Bi  Bi16  1  0.83625357  0.50864773  0.08470480  1
  Bi  Bi17  1  0.49135227  0.16374643  0.08470480  1
  P  P18  1  0.17018210  0.82981790  0.71272162  1
  P  P19  1  0.16589049  0.83410951  0.07540067  1
  P  P20  1  0.50482185  0.49517815  0.51144620  1
  P  P21  1  0.50062312  0.49937688  0.12787799  1
  P  P22  1  0.83937995  0.16062005  0.65656766  1
  P  P23  1  0.83495147  0.16504853  0.27326634  1
  O  O24  1  0.07574439  0.92425561  0.59814459  1
  O  O25  1  0.07061941  0.73924149  0.78098930  1
  O  O26  1  0.26075851  0.92938059  0.78098930  1
  O  O27  1  0.05287585  0.94712415  0.09396840  1
  O  O28  1  0.28133918  0.71866082  0.69060446  1
  O  O29  1  0.09366953  0.41492313  0.77494868  1
  O  O30  1  0.58507687  0.90633047  0.77494868  1
  O  O31  1  0.26760536  0.92386411  0.00922705  1
  O  O32  1  0.07613589  0.73239464  0.00922705  1
  O  O33  1  0.25799708  0.74200292  0.19203693  1
  O  O34  1  0.56490702  0.89585415  0.44658101  1
  O  O35  1  0.10414585  0.43509298  0.44658101  1
  O  O36  1  0.40198214  0.59801786  0.40275154  1
  O  O37  1  0.47425574  0.52574426  0.62404264  1
  O  O38  1  0.07829521  0.41694632  0.11463512  1
  O  O39  1  0.58305268  0.92170479  0.11463512  1
  O  O40  1  0.75455134  0.74230655  0.66947107  1
  O  O41  1  0.25769345  0.24544866  0.66947107  1
  O  O42  1  0.38956946  0.61043054  0.02926004  1
  O  O43  1  0.44224416  0.10630469  0.89456225  1
  O  O44  1  0.89369531  0.55775584  0.89456225  1
  O  O45  1  0.76947743  0.76765248  0.33778323  1
  O  O46  1  0.23234752  0.23052257  0.33778323  1
  O  O47  1  0.47225157  0.33563992  0.50859789  1
  O  O48  1  0.66436008  0.52774843  0.50859789  1
  O  O49  1  0.41656410  0.39327367  0.20144771  1
  O  O50  1  0.60672633  0.58343590  0.20144771  1
  O  O51  1  0.24308246  0.24840739  0.01021451  1
  O  O52  1  0.75159261  0.75691754  0.01021451  1
  O  O53  1  0.38917943  0.04879948  0.55486116  1
  O  O54  1  0.95120052  0.61082057  0.55486116  1
  O  O55  1  0.74290357  0.25709643  0.70649941  1
  O  O56  1  0.59156516  0.40843384  0.06945410  1
  O  O57  1  0.38553237  0.05201960  0.23071837  1
  O  O58  1  0.94798040  0.61446763  0.23071837  1
  O  O59  1  0.73684029  0.07267858  0.58383946  1
  O  O60  1  0.92732142  0.26315971  0.58383946  1
  O  O61  1  0.67703496  0.13134642  0.28066699  1
  O  O62  1  0.86865358  0.32296504  0.28066699  1
  O  O63  1  0.94627551  0.05372449  0.76057879  1
  O  O64  1  0.85934122  0.14065878  0.15735054  1
  O  O65  1  0.94329280  0.05670720  0.37664669  1
