# generated using pymatgen
data_KNaLaTaO5
_symmetry_space_group_name_H-M   'P 1'
_cell_length_a   5.84913846
_cell_length_b   5.84913846
_cell_length_c   8.36025056
_cell_angle_alpha   90.00000000
_cell_angle_beta   90.00000000
_cell_angle_gamma   90.00000000
_symmetry_Int_Tables_number   1
_chemical_formula_structural   KNaLaTaO5
_chemical_formula_sum   'K2 Na2 La2 Ta2 O10'
_cell_volume   286.02440952
_cell_formula_units_Z   2
loop_
 _symmetry_equiv_pos_site_id
 _symmetry_equiv_pos_as_xyz
  1  'x, y, z'
loop_
 _atom_site_type_symbol
 _atom_site_label
 _atom_site_symmetry_multiplicity
 _atom_site_fract_x
 _atom_site_fract_y
 _atom_site_fract_z
 _atom_site_occupancy
  K  K0  1  0.75000000  0.24999900  0.00000000  1
  K  K1  1  0.24999900  0.75000000  0.00000000  1
  Na  Na2  1  0.75000000  0.75000000  0.24106675  1
  Na  Na3  1  0.24999900  0.24999900  0.75893325  1
  La  La4  1  0.75000000  0.24999900  0.50000000  1
  La  La5  1  0.24999900  0.75000000  0.50000000  1
  Ta  Ta6  1  0.24999900  0.24999900  0.25399740  1
  Ta  Ta7  1  0.75000000  0.75000000  0.74600260  1
  O  O8  1  0.24999900  0.24999900  0.03192774  1
  O  O9  1  0.02157084  0.02157084  0.32469394  1
  O  O10  1  0.47842916  0.02157084  0.32469394  1
  O  O11  1  0.02157084  0.47842916  0.32469394  1
  O  O12  1  0.47842916  0.47842916  0.32469394  1
  O  O13  1  0.52156984  0.52156984  0.67530606  1
  O  O14  1  0.97843016  0.52156984  0.67530606  1
  O  O15  1  0.52156984  0.97843016  0.67530606  1
  O  O16  1  0.97843016  0.97843016  0.67530606  1
  O  O17  1  0.75000000  0.75000000  0.96807326  1
