# generated using pymatgen
data_ErSi2Rh3
_symmetry_space_group_name_H-M   'P 1'
_cell_length_a   5.55191033
_cell_length_b   6.61361713
_cell_length_c   6.61361713
_cell_angle_alpha   65.82773516
_cell_angle_beta   65.18225088
_cell_angle_gamma   65.18225090
_symmetry_Int_Tables_number   1
_chemical_formula_structural   ErSi2Rh3
_chemical_formula_sum   'Er2 Si4 Rh6'
_cell_volume   191.86748819
_cell_formula_units_Z   2
loop_
 _symmetry_equiv_pos_site_id
 _symmetry_equiv_pos_as_xyz
  1  'x, y, z'
loop_
 _atom_site_type_symbol
 _atom_site_label
 _atom_site_symmetry_multiplicity
 _atom_site_fract_x
 _atom_site_fract_y
 _atom_site_fract_z
 _atom_site_occupancy
  Si  Si0  1  0.61467500  0.57842069  0.57842069  1
  Si  Si1  1  0.27151638  0.92157931  0.92157931  1
  Si  Si2  1  0.38532500  0.42157931  0.42157931  1
  Si  Si3  1  0.72848362  0.07842069  0.07842069  1
  Rh  Rh4  1  0.50000000  0.78633157  0.21366843  1
  Rh  Rh5  1  0.50000000  0.21366843  0.78633157  1
  Rh  Rh6  1  0.50000000  0.00000000  0.50000000  1
  Rh  Rh7  1  0.50000000  0.50000000  0.00000000  1
  Rh  Rh8  1  0.00000000  0.28633157  0.71366843  1
  Rh  Rh9  1  0.00000000  0.71366843  0.28633157  1
  Er  Er10  1  0.95217492  0.75000000  0.75000000  1
  Er  Er11  1  0.04782508  0.25000000  0.25000000  1
