# generated using pymatgen
data_Er2Co12P7
_symmetry_space_group_name_H-M   'P 1'
_cell_length_a   8.99158308
_cell_length_b   8.99158307
_cell_length_c   3.57674737
_cell_angle_alpha   90.00000000
_cell_angle_beta   90.00000000
_cell_angle_gamma   119.99999996
_symmetry_Int_Tables_number   1
_chemical_formula_structural   Er2Co12P7
_chemical_formula_sum   'Er2 Co12 P7'
_cell_volume   250.43280671
_cell_formula_units_Z   1
loop_
 _symmetry_equiv_pos_site_id
 _symmetry_equiv_pos_as_xyz
  1  'x, y, z'
loop_
 _atom_site_type_symbol
 _atom_site_label
 _atom_site_symmetry_multiplicity
 _atom_site_fract_x
 _atom_site_fract_y
 _atom_site_fract_z
 _atom_site_occupancy
  P  P0  1  0.00000000  0.00000000  0.00000000  1
  P  P1  1  0.59683576  0.70882079  0.50000000  1
  P  P2  1  0.70637764  0.11340966  0.00000000  1
  P  P3  1  0.88659034  0.59296798  0.00000000  1
  P  P4  1  0.40703202  0.29362236  0.00000000  1
  P  P5  1  0.29117921  0.88801497  0.50000000  1
  P  P6  1  0.11198503  0.40316424  0.50000000  1
  Co  Co7  1  0.11909389  0.84600597  0.00000000  1
  Co  Co8  1  0.38268886  0.43559091  0.50000000  1
  Co  Co9  1  0.72691208  0.88090611  0.00000000  1
  Co  Co10  1  0.56440909  0.94709795  0.50000000  1
  Co  Co11  1  0.23410425  0.10239349  0.50000000  1
  Co  Co12  1  0.86828923  0.76589575  0.50000000  1
  Co  Co13  1  0.89760651  0.13171077  0.50000000  1
  Co  Co14  1  0.93969835  0.37438504  0.00000000  1
  Co  Co15  1  0.62561496  0.56531331  0.00000000  1
  Co  Co16  1  0.43468669  0.06030165  0.00000000  1
  Co  Co17  1  0.05290205  0.61731114  0.50000000  1
  Co  Co18  1  0.15399403  0.27308792  0.00000000  1
  Er  Er19  1  0.66666667  0.33333333  0.50000000  1
  Er  Er20  1  0.33333333  0.66666667  0.00000000  1
