# generated using pymatgen
data_NaMgP3(H4O5)2
_symmetry_space_group_name_H-M   'P 1'
_cell_length_a   14.84310189
_cell_length_b   9.14874801
_cell_length_c   14.96395886
_cell_angle_alpha   90.00000000
_cell_angle_beta   90.00000000
_cell_angle_gamma   90.00000000
_symmetry_Int_Tables_number   1
_chemical_formula_structural   NaMgP3(H4O5)2
_chemical_formula_sum   'Na8 Mg8 P24 H64 O80'
_cell_volume   2032.04274778
_cell_formula_units_Z   8
loop_
 _symmetry_equiv_pos_site_id
 _symmetry_equiv_pos_as_xyz
  1  'x, y, z'
loop_
 _atom_site_type_symbol
 _atom_site_label
 _atom_site_symmetry_multiplicity
 _atom_site_fract_x
 _atom_site_fract_y
 _atom_site_fract_z
 _atom_site_occupancy
  Na  Na0  1  0.06615975  0.56277445  0.34139664  1
  Na  Na1  1  0.06615975  0.93722555  0.84139664  1
  Na  Na2  1  0.43384025  0.06277445  0.34139664  1
  Na  Na3  1  0.43384025  0.43722555  0.84139664  1
  Na  Na4  1  0.56615975  0.56277445  0.15860336  1
  Na  Na5  1  0.56615975  0.93722555  0.65860336  1
  Na  Na6  1  0.93384025  0.06277445  0.15860336  1
  Na  Na7  1  0.93384025  0.43722555  0.65860336  1
  Mg  Mg8  1  0.04619937  0.94765945  0.34028125  1
  Mg  Mg9  1  0.04619937  0.55234055  0.84028125  1
  Mg  Mg10  1  0.45380063  0.44765945  0.34028125  1
  Mg  Mg11  1  0.45380063  0.05234055  0.84028125  1
  Mg  Mg12  1  0.54619937  0.55234055  0.65971875  1
  Mg  Mg13  1  0.54619937  0.94765945  0.15971875  1
  Mg  Mg14  1  0.95380063  0.05234055  0.65971875  1
  Mg  Mg15  1  0.95380063  0.44765945  0.15971875  1
  P  P16  1  0.00810074  0.72569732  0.02989477  1
  P  P17  1  0.00810074  0.77430268  0.52989477  1
  P  P18  1  0.11916832  0.23796657  0.22398315  1
  P  P19  1  0.11916832  0.26203343  0.72398315  1
  P  P20  1  0.23838727  0.96608788  0.46850362  1
  P  P21  1  0.23838727  0.53391212  0.96850362  1
  P  P22  1  0.26161273  0.03391212  0.96850362  1
  P  P23  1  0.26161273  0.46608788  0.46850362  1
  P  P24  1  0.38083168  0.73796657  0.22398315  1
  P  P25  1  0.38083168  0.76203343  0.72398315  1
  P  P26  1  0.49189926  0.22569732  0.02989477  1
  P  P27  1  0.49189926  0.27430268  0.52989477  1
  P  P28  1  0.50810074  0.77430268  0.97010523  1
  P  P29  1  0.50810074  0.72569732  0.47010523  1
  P  P30  1  0.61916832  0.23796657  0.27601685  1
  P  P31  1  0.61916832  0.26203343  0.77601685  1
  P  P32  1  0.73838727  0.53391212  0.53149638  1
  P  P33  1  0.73838727  0.96608788  0.03149638  1
  P  P34  1  0.76161273  0.03391212  0.53149638  1
  P  P35  1  0.76161273  0.46608788  0.03149638  1
  P  P36  1  0.88083168  0.73796657  0.27601685  1
  P  P37  1  0.88083168  0.76203343  0.77601685  1
  P  P38  1  0.99189926  0.27430268  0.97010523  1
  P  P39  1  0.99189926  0.22569732  0.47010523  1
  H  H40  1  0.08422331  0.25493852  0.45873215  1
  H  H41  1  0.08422331  0.24506148  0.95873215  1
  H  H42  1  0.10153222  0.58492605  0.53345421  1
  H  H43  1  0.10153222  0.91507395  0.03345421  1
  H  H44  1  0.10109192  0.80130287  0.19841628  1
  H  H45  1  0.10109192  0.69869713  0.69841628  1
  H  H46  1  0.14054666  0.51844932  0.07778761  1
  H  H47  1  0.14054666  0.98155068  0.57778761  1
  H  H48  1  0.16141842  0.22844281  0.14006431  1
  H  H49  1  0.16141842  0.27155719  0.64006431  1
  H  H50  1  0.18292419  0.78731788  0.26667246  1
  H  H51  1  0.18292419  0.71268212  0.76667246  1
  H  H52  1  0.19662900  0.15287790  0.33657762  1
  H  H53  1  0.19662900  0.34712210  0.83657762  1
  H  H54  1  0.23735229  0.81179976  0.46935742  1
  H  H55  1  0.23735229  0.68820024  0.96935742  1
  H  H56  1  0.26264771  0.31179976  0.46935742  1
  H  H57  1  0.26264771  0.18820024  0.96935742  1
  H  H58  1  0.30337100  0.65287790  0.33657762  1
  H  H59  1  0.30337100  0.84712210  0.83657762  1
  H  H60  1  0.31707581  0.28731788  0.26667246  1
  H  H61  1  0.31707581  0.21268212  0.76667246  1
  H  H62  1  0.33858158  0.72844281  0.14006431  1
  H  H63  1  0.33858158  0.77155719  0.64006431  1
  H  H64  1  0.35945334  0.01844932  0.07778761  1
  H  H65  1  0.35945334  0.48155068  0.57778761  1
  H  H66  1  0.39890808  0.30130287  0.19841628  1
  H  H67  1  0.39890808  0.19869713  0.69841628  1
  H  H68  1  0.39846778  0.41507395  0.03345421  1
  H  H69  1  0.39846778  0.08492605  0.53345421  1
  H  H70  1  0.41577669  0.75493852  0.45873215  1
  H  H71  1  0.41577669  0.74506148  0.95873215  1
  H  H72  1  0.58422331  0.24506148  0.54126785  1
  H  H73  1  0.58422331  0.25493852  0.04126785  1
  H  H74  1  0.60153222  0.58492605  0.96654579  1
  H  H75  1  0.60153222  0.91507395  0.46654579  1
  H  H76  1  0.60109192  0.69869713  0.80158372  1
  H  H77  1  0.60109192  0.80130287  0.30158372  1
  H  H78  1  0.64054666  0.98155068  0.92221239  1
  H  H79  1  0.64054666  0.51844932  0.42221239  1
  H  H80  1  0.66141842  0.22844281  0.35993569  1
  H  H81  1  0.66141842  0.27155719  0.85993569  1
  H  H82  1  0.68292419  0.71268212  0.73332754  1
  H  H83  1  0.68292419  0.78731788  0.23332754  1
  H  H84  1  0.69662900  0.15287790  0.16342238  1
  H  H85  1  0.69662900  0.34712210  0.66342238  1
  H  H86  1  0.73735229  0.68820024  0.53064258  1
  H  H87  1  0.73735229  0.81179976  0.03064258  1
  H  H88  1  0.76264771  0.18820024  0.53064258  1
  H  H89  1  0.76264771  0.31179976  0.03064258  1
  H  H90  1  0.80337100  0.65287790  0.16342238  1
  H  H91  1  0.80337100  0.84712210  0.66342238  1
  H  H92  1  0.81707581  0.21268212  0.73332754  1
  H  H93  1  0.81707581  0.28731788  0.23332754  1
  H  H94  1  0.83858158  0.72844281  0.35993569  1
  H  H95  1  0.83858158  0.77155719  0.85993569  1
  H  H96  1  0.85945334  0.48155068  0.92221239  1
  H  H97  1  0.85945334  0.01844932  0.42221239  1
  H  H98  1  0.89890808  0.19869713  0.80158372  1
  H  H99  1  0.89890808  0.30130287  0.30158372  1
  H  H100  1  0.89846778  0.08492605  0.96654579  1
  H  H101  1  0.89846778  0.41507395  0.46654579  1
  H  H102  1  0.91577669  0.74506148  0.54126785  1
  H  H103  1  0.91577669  0.75493852  0.04126785  1
  O  O104  1  0.03128448  0.77910195  0.43127938  1
  O  O105  1  0.03128448  0.72089805  0.93127938  1
  O  O106  1  0.03147574  0.59034215  0.08451871  1
  O  O107  1  0.03147574  0.90965785  0.58451871  1
  O  O108  1  0.05497245  0.86609798  0.07476959  1
  O  O109  1  0.05497245  0.63390202  0.57476959  1
  O  O110  1  0.06436576  0.10046036  0.24039312  1
  O  O111  1  0.06436576  0.39953964  0.74039312  1
  O  O112  1  0.06957170  0.38285835  0.22879163  1
  O  O113  1  0.06957170  0.11714165  0.72879163  1
  O  O114  1  0.11636731  0.78809743  0.26168743  1
  O  O115  1  0.11636731  0.71190257  0.76168743  1
  O  O116  1  0.16567031  0.52105867  0.45883423  1
  O  O117  1  0.16567031  0.97894133  0.95883423  1
  O  O118  1  0.17275664  0.01578547  0.39549984  1
  O  O119  1  0.17275664  0.48421453  0.89549984  1
  O  O120  1  0.20137572  0.24097202  0.29401154  1
  O  O121  1  0.20137572  0.25902798  0.79401154  1
  O  O122  1  0.20401828  0.01385238  0.56516224  1
  O  O123  1  0.20401828  0.48614762  0.06516224  1
  O  O124  1  0.29598172  0.51385238  0.56516224  1
  O  O125  1  0.29598172  0.98614762  0.06516224  1
  O  O126  1  0.29862428  0.74097202  0.29401154  1
  O  O127  1  0.29862428  0.75902798  0.79401154  1
  O  O128  1  0.32724336  0.51578547  0.39549984  1
  O  O129  1  0.32724336  0.98421453  0.89549984  1
  O  O130  1  0.33432969  0.02105867  0.45883423  1
  O  O131  1  0.33432969  0.47894133  0.95883423  1
  O  O132  1  0.38363269  0.28809743  0.26168743  1
  O  O133  1  0.38363269  0.21190257  0.76168743  1
  O  O134  1  0.43042830  0.61714165  0.72879163  1
  O  O135  1  0.43042830  0.88285835  0.22879163  1
  O  O136  1  0.43563424  0.60046036  0.24039312  1
  O  O137  1  0.43563424  0.89953964  0.74039312  1
  O  O138  1  0.44502755  0.36609798  0.07476959  1
  O  O139  1  0.44502755  0.13390202  0.57476959  1
  O  O140  1  0.46852426  0.09034215  0.08451871  1
  O  O141  1  0.46852426  0.40965785  0.58451871  1
  O  O142  1  0.46871552  0.27910195  0.43127938  1
  O  O143  1  0.46871552  0.22089805  0.93127938  1
  O  O144  1  0.53128448  0.77910195  0.06872062  1
  O  O145  1  0.53128448  0.72089805  0.56872062  1
  O  O146  1  0.53147574  0.59034215  0.41548129  1
  O  O147  1  0.53147574  0.90965785  0.91548129  1
  O  O148  1  0.55497245  0.63390202  0.92523041  1
  O  O149  1  0.55497245  0.86609798  0.42523041  1
  O  O150  1  0.56436576  0.10046036  0.25960688  1
  O  O151  1  0.56436576  0.39953964  0.75960688  1
  O  O152  1  0.56957170  0.11714165  0.77120837  1
  O  O153  1  0.56957170  0.38285835  0.27120837  1
  O  O154  1  0.61636731  0.71190257  0.73831257  1
  O  O155  1  0.61636731  0.78809743  0.23831257  1
  O  O156  1  0.66567031  0.52105867  0.04116577  1
  O  O157  1  0.66567031  0.97894133  0.54116577  1
  O  O158  1  0.67275664  0.01578547  0.10450016  1
  O  O159  1  0.67275664  0.48421453  0.60450016  1
  O  O160  1  0.70137572  0.24097202  0.20598846  1
  O  O161  1  0.70137572  0.25902798  0.70598846  1
  O  O162  1  0.70401828  0.01385238  0.93483776  1
  O  O163  1  0.70401828  0.48614762  0.43483776  1
  O  O164  1  0.79598172  0.51385238  0.93483776  1
  O  O165  1  0.79598172  0.98614762  0.43483776  1
  O  O166  1  0.79862428  0.74097202  0.20598846  1
  O  O167  1  0.79862428  0.75902798  0.70598846  1
  O  O168  1  0.82724336  0.51578547  0.10450016  1
  O  O169  1  0.82724336  0.98421453  0.60450016  1
  O  O170  1  0.83432969  0.02105867  0.04116577  1
  O  O171  1  0.83432969  0.47894133  0.54116577  1
  O  O172  1  0.88363269  0.21190257  0.73831257  1
  O  O173  1  0.88363269  0.28809743  0.23831257  1
  O  O174  1  0.93042830  0.61714165  0.77120837  1
  O  O175  1  0.93042830  0.88285835  0.27120837  1
  O  O176  1  0.93563424  0.60046036  0.25960688  1
  O  O177  1  0.93563424  0.89953964  0.75960688  1
  O  O178  1  0.94502755  0.13390202  0.92523041  1
  O  O179  1  0.94502755  0.36609798  0.42523041  1
  O  O180  1  0.96852426  0.40965785  0.91548129  1
  O  O181  1  0.96852426  0.09034215  0.41548129  1
  O  O182  1  0.96871552  0.22089805  0.56872062  1
  O  O183  1  0.96871552  0.27910195  0.06872062  1
