# generated using pymatgen
data_Ta2Tl2P7HO24
_symmetry_space_group_name_H-M   'P 1'
_cell_length_a   5.24410476
_cell_length_b   18.76365080
_cell_length_c   10.93798550
_cell_angle_alpha   90.00000000
_cell_angle_beta   95.42317602
_cell_angle_gamma   90.00000000
_symmetry_Int_Tables_number   1
_chemical_formula_structural   Ta2Tl2P7HO24
_chemical_formula_sum   'Ta4 Tl4 P14 H2 O48'
_cell_volume   1071.46428288
_cell_formula_units_Z   2
loop_
 _symmetry_equiv_pos_site_id
 _symmetry_equiv_pos_as_xyz
  1  'x, y, z'
loop_
 _atom_site_type_symbol
 _atom_site_label
 _atom_site_symmetry_multiplicity
 _atom_site_fract_x
 _atom_site_fract_y
 _atom_site_fract_z
 _atom_site_occupancy
  Ta  Ta0  1  0.20132170  0.02379422  0.80516547  1
  Ta  Ta1  1  0.20132170  0.47620578  0.80516547  1
  Ta  Ta2  1  0.79867830  0.97620578  0.19483453  1
  Ta  Ta3  1  0.79867830  0.52379422  0.19483453  1
  Tl  Tl4  1  0.19371858  0.75000000  0.72447404  1
  Tl  Tl5  1  0.24923873  0.25000000  0.01687180  1
  Tl  Tl6  1  0.75076127  0.75000000  0.98312820  1
  Tl  Tl7  1  0.80628142  0.25000000  0.27552596  1
  P  P8  1  0.17173342  0.12586009  0.53451178  1
  P  P9  1  0.17173342  0.37413991  0.53451178  1
  P  P10  1  0.37992943  0.25000000  0.66752164  1
  P  P11  1  0.26516986  0.59792987  0.04451254  1
  P  P12  1  0.26516986  0.90207013  0.04451254  1
  P  P13  1  0.32467621  0.08438436  0.29722672  1
  P  P14  1  0.32467621  0.41561564  0.29722672  1
  P  P15  1  0.67532379  0.58438436  0.70277328  1
  P  P16  1  0.67532379  0.91561564  0.70277328  1
  P  P17  1  0.73483014  0.09792987  0.95548746  1
  P  P18  1  0.73483014  0.40207013  0.95548746  1
  P  P19  1  0.62007057  0.75000000  0.33247836  1
  P  P20  1  0.82826658  0.87413991  0.46548822  1
  P  P21  1  0.82826658  0.62586009  0.46548822  1
  H  H22  1  0.19252587  0.75000000  0.28962555  1
  H  H23  1  0.80747413  0.25000000  0.71037445  1
  O  O24  1  0.06565263  0.65869526  0.52190395  1
  O  O25  1  0.06565263  0.84130474  0.52190395  1
  O  O26  1  0.02247950  0.59284397  0.11775748  1
  O  O27  1  0.02247950  0.90715603  0.11775748  1
  O  O28  1  0.15578928  0.25000000  0.74048830  1
  O  O29  1  0.15192606  0.07772376  0.64719145  1
  O  O30  1  0.15192606  0.42227624  0.64719145  1
  O  O31  1  0.25011285  0.53023706  0.95834128  1
  O  O32  1  0.25011285  0.96976294  0.95834128  1
  O  O33  1  0.09882010  0.03508762  0.24878081  1
  O  O34  1  0.09882010  0.46491238  0.24878081  1
  O  O35  1  0.28605219  0.66616067  0.97700614  1
  O  O36  1  0.28605219  0.83383933  0.97700614  1
  O  O37  1  0.32562578  0.07773055  0.44580921  1
  O  O38  1  0.32562578  0.42226945  0.44580921  1
  O  O39  1  0.30149703  0.15957283  0.25479075  1
  O  O40  1  0.30149703  0.34042717  0.25479075  1
  O  O41  1  0.39314931  0.18356184  0.57697213  1
  O  O42  1  0.39314931  0.31643816  0.57697213  1
  O  O43  1  0.35954424  0.75000000  0.25299691  1
  O  O44  1  0.42490598  0.54513804  0.72556123  1
  O  O45  1  0.42490598  0.95486196  0.72556123  1
  O  O46  1  0.50011627  0.08345852  0.85786362  1
  O  O47  1  0.50011627  0.41654148  0.85786362  1
  O  O48  1  0.49988373  0.58345852  0.14213638  1
  O  O49  1  0.49988373  0.91654148  0.14213638  1
  O  O50  1  0.57509402  0.04513804  0.27443877  1
  O  O51  1  0.57509402  0.45486196  0.27443877  1
  O  O52  1  0.64045576  0.25000000  0.74700309  1
  O  O53  1  0.60685069  0.68356184  0.42302787  1
  O  O54  1  0.60685069  0.81643816  0.42302787  1
  O  O55  1  0.69850297  0.84042717  0.74520925  1
  O  O56  1  0.69850297  0.65957283  0.74520925  1
  O  O57  1  0.67437422  0.57773055  0.55419079  1
  O  O58  1  0.67437422  0.92226945  0.55419079  1
  O  O59  1  0.71394781  0.16616067  0.02299386  1
  O  O60  1  0.71394781  0.33383933  0.02299386  1
  O  O61  1  0.90117990  0.53508762  0.75121919  1
  O  O62  1  0.90117990  0.96491238  0.75121919  1
  O  O63  1  0.74988715  0.03023706  0.04165872  1
  O  O64  1  0.74988715  0.46976294  0.04165872  1
  O  O65  1  0.84807394  0.57772376  0.35280855  1
  O  O66  1  0.84807394  0.92227624  0.35280855  1
  O  O67  1  0.84421072  0.75000000  0.25951170  1
  O  O68  1  0.97752050  0.09284397  0.88224252  1
  O  O69  1  0.97752050  0.40715603  0.88224252  1
  O  O70  1  0.93434737  0.34130474  0.47809605  1
  O  O71  1  0.93434737  0.15869526  0.47809605  1
