# generated using pymatgen
data_Tl2SiS3
_symmetry_space_group_name_H-M   'P 1'
_cell_length_a   6.97259770
_cell_length_b   6.90372252
_cell_length_c   8.56188593
_cell_angle_alpha   112.39406642
_cell_angle_beta   88.80019363
_cell_angle_gamma   112.38795635
_symmetry_Int_Tables_number   1
_chemical_formula_structural   Tl2SiS3
_chemical_formula_sum   'Tl4 Si2 S6'
_cell_volume   348.60286624
_cell_formula_units_Z   2
loop_
 _symmetry_equiv_pos_site_id
 _symmetry_equiv_pos_as_xyz
  1  'x, y, z'
loop_
 _atom_site_type_symbol
 _atom_site_label
 _atom_site_symmetry_multiplicity
 _atom_site_fract_x
 _atom_site_fract_y
 _atom_site_fract_z
 _atom_site_occupancy
  Si  Si0  1  0.45051869  0.56687735  0.67443560  1
  Si  Si1  1  0.54948131  0.43312265  0.32556440  1
  S  S2  1  0.32025745  0.26022462  0.10865429  1
  S  S3  1  0.67974255  0.73977538  0.89134571  1
  S  S4  1  0.14017313  0.49338855  0.72639913  1
  S  S5  1  0.85982687  0.50661145  0.27360087  1
  S  S6  1  0.52723784  0.74793198  0.50488168  1
  S  S7  1  0.47276216  0.25206802  0.49511832  1
  Tl  Tl8  1  0.68423981  0.27630245  0.89665855  1
  Tl  Tl9  1  0.31576019  0.72369755  0.10334145  1
  Tl  Tl10  1  0.95913165  0.13855108  0.33161193  1
  Tl  Tl11  1  0.04086835  0.86144892  0.66838807  1
