# generated using pymatgen
data_Na5(NiO2)9
_symmetry_space_group_name_H-M   'P 1'
_cell_length_a   5.73790250
_cell_length_b   8.59253569
_cell_length_c   7.47882631
_cell_angle_alpha   100.52895329
_cell_angle_beta   84.56305055
_cell_angle_gamma   74.49060303
_symmetry_Int_Tables_number   1
_chemical_formula_structural   Na5(NiO2)9
_chemical_formula_sum   'Na5 Ni9 O18'
_cell_volume   345.28349541
_cell_formula_units_Z   1
loop_
 _symmetry_equiv_pos_site_id
 _symmetry_equiv_pos_as_xyz
  1  'x, y, z'
loop_
 _atom_site_type_symbol
 _atom_site_label
 _atom_site_symmetry_multiplicity
 _atom_site_fract_x
 _atom_site_fract_y
 _atom_site_fract_z
 _atom_site_occupancy
  Na  Na0  1  0.99560985  0.20749421  0.33987603  1
  Na  Na1  1  0.99995614  0.33340012  0.00004499  1
  Na  Na2  1  0.00436792  0.45918130  0.66014757  1
  Na  Na3  1  0.99650788  0.81612841  0.70486628  1
  Na  Na4  1  0.00356840  0.85048438  0.29510112  1
  Ni  Ni5  1  0.49859601  0.05906495  0.83261260  1
  Ni  Ni6  1  0.49359192  0.16694131  0.49942734  1
  Ni  Ni7  1  0.49769372  0.27419654  0.16759178  1
  Ni  Ni8  1  0.50231609  0.39245441  0.83236861  1
  Ni  Ni9  1  0.50637869  0.49973179  0.50058862  1
  Ni  Ni10  1  0.50139799  0.60760879  0.16740253  1
  Ni  Ni11  1  0.50563769  0.72536309  0.83435327  1
  Ni  Ni12  1  0.50000504  0.83330229  0.49999180  1
  Ni  Ni13  1  0.49439537  0.94130610  0.16563852  1
  O  O14  1  0.30421523  0.99832691  0.39970399  1
  O  O15  1  0.67294805  0.08896177  0.25562877  1
  O  O16  1  0.31594755  0.12877551  0.08514681  1
  O  O17  1  0.31283946  0.25935164  0.74047645  1
  O  O18  1  0.67840730  0.21735607  0.92821629  1
  O  O19  1  0.31017356  0.33778198  0.40298514  1
  O  O20  1  0.68981651  0.32889676  0.59698272  1
  O  O21  1  0.32152274  0.44912658  0.07167940  1
  O  O22  1  0.32703872  0.57774635  0.74439021  1
  O  O23  1  0.68717796  0.40728582  0.25949107  1
  O  O24  1  0.68411976  0.53785286  0.91465809  1
  O  O25  1  0.32191385  0.68541701  0.42357698  1
  O  O26  1  0.69578793  0.66830494  0.60028629  1
  O  O27  1  0.31799926  0.80356554  0.06614664  1
  O  O28  1  0.67223844  0.76882061  0.26147283  1
  O  O29  1  0.32785760  0.89801471  0.73863398  1
  O  O30  1  0.68201198  0.86312644  0.93383283  1
  O  O31  1  0.67796142  0.98129780  0.57667946  1
