# generated using pymatgen
data_Tl3SbS4
_symmetry_space_group_name_H-M   'P 1'
_cell_length_a   6.44544828
_cell_length_b   6.72758795
_cell_length_c   12.16312576
_cell_angle_alpha   95.12517227
_cell_angle_beta   98.51234379
_cell_angle_gamma   105.58815714
_symmetry_Int_Tables_number   1
_chemical_formula_structural   Tl3SbS4
_chemical_formula_sum   'Tl6 Sb2 S8'
_cell_volume   497.78955797
_cell_formula_units_Z   2
loop_
 _symmetry_equiv_pos_site_id
 _symmetry_equiv_pos_as_xyz
  1  'x, y, z'
loop_
 _atom_site_type_symbol
 _atom_site_label
 _atom_site_symmetry_multiplicity
 _atom_site_fract_x
 _atom_site_fract_y
 _atom_site_fract_z
 _atom_site_occupancy
  S  S0  1  0.05313820  0.22080849  0.25818021  1
  S  S1  1  0.52853864  0.05702769  0.37966076  1
  S  S2  1  0.84898094  0.90525150  0.72238636  1
  S  S3  1  0.48388274  0.27174800  0.72043088  1
  S  S4  1  0.00885519  0.43622243  0.59919327  1
  S  S5  1  0.49727203  0.06448166  0.05648803  1
  S  S6  1  0.68845816  0.58775108  0.25631989  1
  S  S7  1  0.03949539  0.42800986  0.92233029  1
  Sb  Sb8  1  0.85131545  0.25786382  0.73995121  1
  Sb  Sb9  1  0.68584481  0.23497905  0.23876057  1
  Tl  Tl10  1  0.54008229  0.49895999  0.51091360  1
  Tl  Tl11  1  0.23138291  0.67780007  0.19893281  1
  Tl  Tl12  1  0.99799973  0.99462006  0.46785885  1
  Tl  Tl13  1  0.96859432  0.00260928  0.01271545  1
  Tl  Tl14  1  0.30583726  0.81528901  0.78009184  1
  Tl  Tl15  1  0.56802195  0.48967801  0.96598597  1
