# generated using pymatgen
data_Sr4(RuO4)3
_symmetry_space_group_name_H-M   'P 1'
_cell_length_a   5.57647931
_cell_length_b   9.79350388
_cell_length_c   18.33263495
_cell_angle_alpha   90.06101937
_cell_angle_beta   89.99980662
_cell_angle_gamma   89.99873971
_symmetry_Int_Tables_number   1
_chemical_formula_structural   Sr4(RuO4)3
_chemical_formula_sum   'Sr16 Ru12 O48'
_cell_volume   1001.20460676
_cell_formula_units_Z   4
loop_
 _symmetry_equiv_pos_site_id
 _symmetry_equiv_pos_as_xyz
  1  'x, y, z'
loop_
 _atom_site_type_symbol
 _atom_site_label
 _atom_site_symmetry_multiplicity
 _atom_site_fract_x
 _atom_site_fract_y
 _atom_site_fract_z
 _atom_site_occupancy
  Sr  Sr0  1  0.00002530  0.33484549  0.24538639  1
  Sr  Sr1  1  0.00003400  0.99913072  0.98997827  1
  Sr  Sr2  1  0.00000442  0.00062371  0.49180939  1
  Sr  Sr3  1  0.99998816  0.34851446  0.63448358  1
  Sr  Sr4  1  0.99998539  0.66493639  0.74596767  1
  Sr  Sr5  1  0.00004559  0.31520669  0.86228245  1
  Sr  Sr6  1  0.00001143  0.65130926  0.13469011  1
  Sr  Sr7  1  0.99998684  0.68601355  0.36166215  1
  Sr  Sr8  1  0.50001743  0.82730412  0.24584613  1
  Sr  Sr9  1  0.50002364  0.50126127  0.00471834  1
  Sr  Sr10  1  0.50000658  0.17144834  0.74600403  1
  Sr  Sr11  1  0.50001321  0.50014594  0.50437624  1
  Sr  Sr12  1  0.49998584  0.81865260  0.63122658  1
  Sr  Sr13  1  0.50000142  0.85189426  0.85730096  1
  Sr  Sr14  1  0.50003405  0.18258866  0.13198601  1
  Sr  Sr15  1  0.50000890  0.14756809  0.35657988  1
  Ru  Ru16  1  0.00003627  0.33495447  0.05980638  1
  Ru  Ru17  1  0.00005814  0.33275910  0.43415773  1
  Ru  Ru18  1  0.00003038  0.99925993  0.18988182  1
  Ru  Ru19  1  0.00000642  0.99970984  0.69036483  1
  Ru  Ru20  1  0.99999775  0.66489549  0.55996520  1
  Ru  Ru21  1  0.00001155  0.66721031  0.93446116  1
  Ru  Ru22  1  0.50003613  0.83286396  0.05905224  1
  Ru  Ru23  1  0.50001963  0.83475240  0.43414184  1
  Ru  Ru24  1  0.50002359  0.16791082  0.55902417  1
  Ru  Ru25  1  0.50003530  0.16538680  0.93376755  1
  Ru  Ru26  1  0.49997494  0.50117946  0.80586693  1
  Ru  Ru27  1  0.50004771  0.49846869  0.30602335  1
  O  O28  1  0.00000136  0.83152578  0.23859273  1
  O  O29  1  0.99995652  0.16609783  0.12098886  1
  O  O30  1  0.00032079  0.17754347  0.37503112  1
  O  O31  1  0.00025637  0.49846101  0.99959922  1
  O  O32  1  0.24922976  0.74930616  0.99785788  1
  O  O33  1  0.24933544  0.25139572  0.49768601  1
  O  O34  1  0.24183748  0.40867152  0.11889619  1
  O  O35  1  0.24110750  0.59197361  0.61915890  1
  O  O36  1  0.25006304  0.07932498  0.24103747  1
  O  O37  1  0.25067980  0.91959338  0.74081666  1
  O  O38  1  0.25805620  0.09107476  0.87549322  1
  O  O39  1  0.25748893  0.90857424  0.37561713  1
  O  O40  1  0.24845755  0.41860176  0.37544551  1
  O  O41  1  0.24827671  0.58198993  0.87544548  1
  O  O42  1  0.25074967  0.57907516  0.25339991  1
  O  O43  1  0.25026646  0.42057707  0.75348695  1
  O  O44  1  0.25190669  0.08102180  0.61810588  1
  O  O45  1  0.25257483  0.91897238  0.11859458  1
  O  O46  1  0.24986235  0.25033601  0.99708133  1
  O  O47  1  0.25060179  0.74976722  0.49729379  1
  O  O48  1  0.49989065  0.99936362  0.49447106  1
  O  O49  1  0.49972768  0.33312677  0.87308175  1
  O  O50  1  0.50007230  0.32101349  0.62007585  1
  O  O51  1  0.50013130  0.66705955  0.75488833  1
  O  O52  1  0.49994881  0.33221125  0.25479901  1
  O  O53  1  0.49996413  0.67931239  0.11981209  1
  O  O54  1  0.50027674  0.66683964  0.37319370  1
  O  O55  1  0.50019578  0.00136098  0.99465465  1
  O  O56  1  0.75014743  0.25047068  0.99705287  1
  O  O57  1  0.74951234  0.74987188  0.49729701  1
  O  O58  1  0.74750702  0.91893891  0.11860413  1
  O  O59  1  0.74814423  0.08100554  0.61809982  1
  O  O60  1  0.74943708  0.57898409  0.25339232  1
  O  O61  1  0.74961047  0.42046708  0.75349927  1
  O  O62  1  0.75149746  0.41837773  0.37542066  1
  O  O63  1  0.75183350  0.58177432  0.87548720  1
  O  O64  1  0.74242717  0.90872265  0.37562443  1
  O  O65  1  0.74208045  0.09121190  0.87547297  1
  O  O66  1  0.75002319  0.07935380  0.24104447  1
  O  O67  1  0.74928910  0.91963420  0.74080990  1
  O  O68  1  0.75824393  0.40874069  0.11886767  1
  O  O69  1  0.75883662  0.59202688  0.61915731  1
  O  O70  1  0.75083456  0.25125416  0.49766650  1
  O  O71  1  0.75079179  0.74915438  0.99789935  1
  O  O72  1  0.99986203  0.50166369  0.49952965  1
  O  O73  1  0.99974769  0.82236066  0.87549507  1
  O  O74  1  0.00003935  0.83559268  0.62004861  1
  O  O75  1  0.00004496  0.16722280  0.73891316  1
