# generated using pymatgen
data_Dy2H16S3O20
_symmetry_space_group_name_H-M   'P 1'
_cell_length_a   6.71642328
_cell_length_b   7.62421577
_cell_length_c   18.27382226
_cell_angle_alpha   80.74861268
_cell_angle_beta   90.00000000
_cell_angle_gamma   63.86635049
_symmetry_Int_Tables_number   1
_chemical_formula_structural   Dy2H16S3O20
_chemical_formula_sum   'Dy4 H32 S6 O40'
_cell_volume   826.51331437
_cell_formula_units_Z   2
loop_
 _symmetry_equiv_pos_site_id
 _symmetry_equiv_pos_as_xyz
  1  'x, y, z'
loop_
 _atom_site_type_symbol
 _atom_site_label
 _atom_site_symmetry_multiplicity
 _atom_site_fract_x
 _atom_site_fract_y
 _atom_site_fract_z
 _atom_site_occupancy
  Dy  Dy0  1  0.15551073  0.68062268  0.88862330  1
  Dy  Dy1  1  0.16386759  0.68062268  0.38862330  1
  Dy  Dy2  1  0.83613241  0.31937732  0.61137670  1
  Dy  Dy3  1  0.84448927  0.31937732  0.11137670  1
  H  H4  1  0.68584570  0.98988910  0.89232717  1
  H  H5  1  0.80473480  0.99698606  0.96571376  1
  H  H6  1  0.30691803  0.99599891  0.66011200  1
  H  H7  1  0.56334794  0.70006244  0.00510520  1
  H  H8  1  0.15417996  0.88781239  0.64657959  1
  H  H9  1  0.32426520  0.98988910  0.39232717  1
  H  H10  1  0.19827914  0.99698606  0.46571376  1
  H  H11  1  0.69708306  0.99599891  0.16011200  1
  H  H12  1  0.53996044  0.69908508  0.55062063  1
  H  H13  1  0.73659062  0.70006244  0.50510520  1
  H  H14  1  0.74183680  0.64299447  0.70128546  1
  H  H15  1  0.95800665  0.88781239  0.14657959  1
  H  H16  1  0.21882519  0.55179489  0.74144168  1
  H  H17  1  0.77062008  0.44820511  0.75855832  1
  H  H18  1  0.38483127  0.35700553  0.79871454  1
  H  H19  1  0.23904552  0.30091492  0.94937937  1
  H  H20  1  0.76095448  0.69908508  0.05062063  1
  H  H21  1  0.61516873  0.64299447  0.20128546  1
  H  H22  1  0.22937992  0.55179489  0.24144168  1
  H  H23  1  0.78117481  0.44820511  0.25855832  1
  H  H24  1  0.04199335  0.11218761  0.85342041  1
  H  H25  1  0.25816320  0.35700553  0.29871454  1
  H  H26  1  0.26340938  0.29993756  0.49489480  1
  H  H27  1  0.46003956  0.30091492  0.44937937  1
  H  H28  1  0.30291694  0.00400109  0.83988800  1
  H  H29  1  0.80172086  0.00301394  0.53428624  1
  H  H30  1  0.67573480  0.01011090  0.60767283  1
  H  H31  1  0.84582004  0.11218761  0.35342041  1
  H  H32  1  0.43665206  0.29993756  0.99489480  1
  H  H33  1  0.69308197  0.00400109  0.33988800  1
  H  H34  1  0.19526520  0.00301394  0.03428624  1
  H  H35  1  0.31415430  0.01011090  0.10767283  1
  S  S36  1  0.76611554  0.44186826  0.91200894  1
  S  S37  1  0.20798380  0.55813174  0.58799106  1
  S  S38  1  0.79201620  0.44186826  0.41200894  1
  S  S39  1  0.23388446  0.55813174  0.08799106  1
  S  S40  1  0.68386602  0.00000000  0.75000000  1
  S  S41  1  0.31613398  0.00000000  0.25000000  1
  O  O42  1  0.17891788  0.98265153  0.86155559  1
  O  O43  1  0.80958178  0.90965566  0.93158659  1
  O  O44  1  0.59316954  0.92532754  0.69367283  1
  O  O45  1  0.89403807  0.83475479  0.78712292  1
  O  O46  1  0.83843058  0.98265153  0.36155559  1
  O  O47  1  0.28076256  0.90965566  0.43158659  1
  O  O48  1  0.54321111  0.61823045  0.90281900  1
  O  O49  1  0.12126742  0.67230662  0.64860261  1
  O  O50  1  0.94163710  0.50989602  0.91290003  1
  O  O51  1  0.48150292  0.92532754  0.19367283  1
  O  O52  1  0.10068065  0.69052509  0.51475156  1
  O  O53  1  0.69606861  0.67339014  0.55585437  1
  O  O54  1  0.27120614  0.83475479  0.28712292  1
  O  O55  1  0.28677875  0.50092708  0.79329023  1
  O  O56  1  0.78770583  0.49907292  0.70670977  1
  O  O57  1  0.36945875  0.32660986  0.94414563  1
  O  O58  1  0.79120574  0.30947491  0.98524844  1
  O  O59  1  0.83855944  0.61823045  0.40281900  1
  O  O60  1  0.45153412  0.49010298  0.58709997  1
  O  O61  1  0.79357404  0.32769338  0.85139739  1
  O  O62  1  0.20642596  0.67230662  0.14860261  1
  O  O63  1  0.54846588  0.50989602  0.41290003  1
  O  O64  1  0.16144056  0.38176955  0.59718100  1
  O  O65  1  0.20879426  0.69052509  0.01475156  1
  O  O66  1  0.63054125  0.67339014  0.05585437  1
  O  O67  1  0.21229417  0.50092708  0.29329023  1
  O  O68  1  0.71322125  0.49907292  0.20670977  1
  O  O69  1  0.72879386  0.16524521  0.71287708  1
  O  O70  1  0.30393139  0.32660986  0.44414563  1
  O  O71  1  0.89931935  0.30947491  0.48524844  1
  O  O72  1  0.51849708  0.07467246  0.80632717  1
  O  O73  1  0.05836290  0.49010298  0.08709997  1
  O  O74  1  0.87873258  0.32769338  0.35139739  1
  O  O75  1  0.45678889  0.38176955  0.09718100  1
  O  O76  1  0.71923744  0.09034434  0.56841341  1
  O  O77  1  0.16156942  0.01734847  0.63844441  1
  O  O78  1  0.10596193  0.16524521  0.21287708  1
  O  O79  1  0.40683046  0.07467246  0.30632717  1
  O  O80  1  0.19041822  0.09034434  0.06841341  1
  O  O81  1  0.82108212  0.01734847  0.13844441  1
