# generated using pymatgen
data_H7C3N6Cl
_symmetry_space_group_name_H-M   'P 1'
_cell_length_a   9.35028682
_cell_length_b   10.67261475
_cell_length_c   10.67261475
_cell_angle_alpha   108.46106699
_cell_angle_beta   65.10782078
_cell_angle_gamma   65.10782078
_symmetry_Int_Tables_number   1
_chemical_formula_structural   H7C3N6Cl
_chemical_formula_sum   'H28 C12 N24 Cl4'
_cell_volume   700.97955693
_cell_formula_units_Z   4
loop_
 _symmetry_equiv_pos_site_id
 _symmetry_equiv_pos_as_xyz
  1  'x, y, z'
loop_
 _atom_site_type_symbol
 _atom_site_label
 _atom_site_symmetry_multiplicity
 _atom_site_fract_x
 _atom_site_fract_y
 _atom_site_fract_z
 _atom_site_occupancy
  H  H0  1  0.69317441  0.32470395  0.14729205  1
  H  H1  1  0.69317441  0.14729205  0.32470395  1
  H  H2  1  0.19803211  0.33580014  0.14482719  1
  H  H3  1  0.19803211  0.14482719  0.33580014  1
  H  H4  1  0.74411146  0.43343169  0.26121516  1
  H  H5  1  0.74411146  0.26121516  0.43343169  1
  H  H6  1  0.24971382  0.48576708  0.30436021  1
  H  H7  1  0.24971382  0.30436021  0.48576708  1
  H  H8  1  0.75986672  0.86839747  0.06343399  1
  H  H9  1  0.75986672  0.06343399  0.86839747  1
  H  H10  1  0.26245223  0.64206686  0.29186316  1
  H  H11  1  0.26245223  0.29186316  0.64206686  1
  H  H12  1  0.23450862  0.78135623  0.15090577  1
  H  H13  1  0.23450862  0.15090577  0.78135623  1
  H  H14  1  0.76549138  0.84909423  0.21864377  1
  H  H15  1  0.76549138  0.21864377  0.84909423  1
  H  H16  1  0.73754777  0.70813684  0.35793314  1
  H  H17  1  0.73754777  0.35793314  0.70813684  1
  H  H18  1  0.24013328  0.13160253  0.93656601  1
  H  H19  1  0.24013328  0.93656601  0.13160253  1
  H  H20  1  0.75028618  0.69563979  0.51423292  1
  H  H21  1  0.75028618  0.51423292  0.69563979  1
  H  H22  1  0.25588854  0.56656831  0.73878484  1
  H  H23  1  0.25588854  0.73878484  0.56656831  1
  H  H24  1  0.80196789  0.85517281  0.66419986  1
  H  H25  1  0.80196789  0.66419986  0.85517281  1
  H  H26  1  0.30682559  0.85270795  0.67529605  1
  H  H27  1  0.30682559  0.67529605  0.85270795  1
  C  C28  1  0.73100336  0.48400633  0.09621136  1
  C  C29  1  0.73100336  0.09621136  0.48400633  1
  C  C30  1  0.25590804  0.49913288  0.11612159  1
  C  C31  1  0.25590804  0.11612159  0.49913288  1
  C  C32  1  0.76249474  0.67645252  0.06739380  1
  C  C33  1  0.76249474  0.06739380  0.67645252  1
  C  C34  1  0.23750526  0.93260620  0.32354748  1
  C  C35  1  0.23750526  0.32354748  0.93260620  1
  C  C36  1  0.74409196  0.88387841  0.50086712  1
  C  C37  1  0.74409196  0.50086712  0.88387841  1
  C  C38  1  0.26899664  0.51599367  0.90378864  1
  C  C39  1  0.26899664  0.90378864  0.51599367  1
  N  N40  1  0.24071779  0.37303920  0.06636270  1
  N  N41  1  0.24071779  0.06636270  0.37303920  1
  N  N42  1  0.71221197  0.41451404  0.18000241  1
  N  N43  1  0.71221197  0.18000241  0.41451404  1
  N  N44  1  0.27208177  0.57144597  0.03532593  1
  N  N45  1  0.27208177  0.03532593  0.57144597  1
  N  N46  1  0.74937096  0.60595418  0.15070638  1
  N  N47  1  0.74937096  0.15070638  0.60595418  1
  N  N48  1  0.25143080  0.54792670  0.24958300  1
  N  N49  1  0.25143080  0.24958300  0.54792670  1
  N  N50  1  0.77777977  0.79847853  0.11107560  1
  N  N51  1  0.77777977  0.11107560  0.79847853  1
  N  N52  1  0.22222023  0.88892440  0.20152147  1
  N  N53  1  0.22222023  0.20152147  0.88892440  1
  N  N54  1  0.74856920  0.75041700  0.45207330  1
  N  N55  1  0.74856920  0.45207330  0.75041700  1
  N  N56  1  0.25062904  0.84929362  0.39404582  1
  N  N57  1  0.25062904  0.39404582  0.84929362  1
  N  N58  1  0.72791823  0.96467407  0.42855403  1
  N  N59  1  0.72791823  0.42855403  0.96467407  1
  N  N60  1  0.28778803  0.81999759  0.58548596  1
  N  N61  1  0.28778803  0.58548596  0.81999759  1
  N  N62  1  0.75928221  0.93363730  0.62696080  1
  N  N63  1  0.75928221  0.62696080  0.93363730  1
  Cl  Cl64  1  0.58443412  0.16099002  0.16099002  1
  Cl  Cl65  1  0.96779201  0.34186025  0.34186025  1
  Cl  Cl66  1  0.03220799  0.65813975  0.65813975  1
  Cl  Cl67  1  0.41556588  0.83900998  0.83900998  1
