# generated using pymatgen
data_RbPHO3F
_symmetry_space_group_name_H-M   'P 1'
_cell_length_a   7.63108511
_cell_length_b   15.86458522
_cell_length_c   7.70749731
_cell_angle_alpha   90.00000000
_cell_angle_beta   105.50024955
_cell_angle_gamma   90.00000000
_symmetry_Int_Tables_number   1
_chemical_formula_structural   RbPHO3F
_chemical_formula_sum   'Rb8 P8 H8 O24 F8'
_cell_volume   899.16292823
_cell_formula_units_Z   8
loop_
 _symmetry_equiv_pos_site_id
 _symmetry_equiv_pos_as_xyz
  1  'x, y, z'
loop_
 _atom_site_type_symbol
 _atom_site_label
 _atom_site_symmetry_multiplicity
 _atom_site_fract_x
 _atom_site_fract_y
 _atom_site_fract_z
 _atom_site_occupancy
  Rb  Rb0  1  0.06693930  0.29549232  0.74759012  1
  Rb  Rb1  1  0.25694304  0.95255284  0.27581536  1
  Rb  Rb2  1  0.24305696  0.45255284  0.22418464  1
  Rb  Rb3  1  0.43306070  0.79549232  0.75240988  1
  Rb  Rb4  1  0.56693930  0.20450768  0.24759012  1
  Rb  Rb5  1  0.75694304  0.54744716  0.77581536  1
  Rb  Rb6  1  0.74305696  0.04744716  0.72418464  1
  Rb  Rb7  1  0.93306070  0.70450768  0.25240988  1
  P  P8  1  0.09216167  0.20300774  0.22168222  1
  P  P9  1  0.24469409  0.53149361  0.73192632  1
  P  P10  1  0.25530591  0.03149361  0.76807368  1
  P  P11  1  0.40783833  0.70300774  0.27831778  1
  P  P12  1  0.59216167  0.29699226  0.72168222  1
  P  P13  1  0.74469409  0.96850639  0.23192632  1
  P  P14  1  0.75530591  0.46850639  0.26807368  1
  P  P15  1  0.90783833  0.79699226  0.77831778  1
  H  H16  1  0.09984066  0.89975411  0.89464559  1
  H  H17  1  0.17075312  0.11749515  0.53319194  1
  H  H18  1  0.32924688  0.61749415  0.96680806  1
  H  H19  1  0.40015934  0.39975411  0.60535441  1
  H  H20  1  0.59984066  0.60024589  0.39464559  1
  H  H21  1  0.67075312  0.38250485  0.03319194  1
  H  H22  1  0.82924688  0.88250585  0.46680806  1
  H  H23  1  0.90015934  0.10024589  0.10535441  1
  O  O24  1  0.07556359  0.83733289  0.92162504  1
  O  O25  1  0.14299078  0.99109773  0.87950799  1
  O  O26  1  0.14800600  0.47866447  0.83852559  1
  O  O27  1  0.13865183  0.10521218  0.65225041  1
  O  O28  1  0.36134817  0.60521218  0.84774959  1
  O  O29  1  0.20686691  0.13735920  0.34339933  1
  O  O30  1  0.18349008  0.26850014  0.13606304  1
  O  O31  1  0.35199400  0.97866447  0.66147441  1
  O  O32  1  0.35700922  0.49109773  0.62049201  1
  O  O33  1  0.31650992  0.76850014  0.36393696  1
  O  O34  1  0.29313309  0.63735920  0.15660067  1
  O  O35  1  0.42443641  0.33733289  0.57837496  1
  O  O36  1  0.57556359  0.66266711  0.42162504  1
  O  O37  1  0.70686691  0.36264080  0.84339933  1
  O  O38  1  0.68349008  0.23149986  0.63606304  1
  O  O39  1  0.64299078  0.50890227  0.37950799  1
  O  O40  1  0.64800600  0.02133553  0.33852559  1
  O  O41  1  0.81650992  0.73149986  0.86393696  1
  O  O42  1  0.79313309  0.86264080  0.65660067  1
  O  O43  1  0.63865183  0.39478782  0.15225041  1
  O  O44  1  0.86134817  0.89478782  0.34774959  1
  O  O45  1  0.85199400  0.52133553  0.16147441  1
  O  O46  1  0.85700922  0.00890227  0.12049201  1
  O  O47  1  0.92443641  0.16266711  0.07837496  1
  F  F48  1  0.01255174  0.74754746  0.65118578  1
  F  F49  1  0.08954978  0.58324140  0.58751527  1
  F  F50  1  0.41045022  0.08324140  0.91248473  1
  F  F51  1  0.48744826  0.24754746  0.84881422  1
  F  F52  1  0.51255174  0.75245254  0.15118578  1
  F  F53  1  0.58954978  0.91675860  0.08751527  1
  F  F54  1  0.91045022  0.41675860  0.41248473  1
  F  F55  1  0.98744826  0.25245254  0.34881422  1
