# generated using pymatgen
data_K2LiNbO4
_symmetry_space_group_name_H-M   'P 1'
_cell_length_a   5.92929319
_cell_length_b   8.27500525
_cell_length_c   12.36535172
_cell_angle_alpha   90.00000000
_cell_angle_beta   77.14413028
_cell_angle_gamma   90.00000000
_symmetry_Int_Tables_number   1
_chemical_formula_structural   K2LiNbO4
_chemical_formula_sum   'K8 Li4 Nb4 O16'
_cell_volume   591.49677962
_cell_formula_units_Z   4
loop_
 _symmetry_equiv_pos_site_id
 _symmetry_equiv_pos_as_xyz
  1  'x, y, z'
loop_
 _atom_site_type_symbol
 _atom_site_label
 _atom_site_symmetry_multiplicity
 _atom_site_fract_x
 _atom_site_fract_y
 _atom_site_fract_z
 _atom_site_occupancy
  K  K0  1  0.21210104  0.99061796  0.15876382  1
  K  K1  1  0.18678843  0.25682272  0.63804178  1
  K  K2  1  0.28789896  0.49061796  0.34123618  1
  K  K3  1  0.68678843  0.24317728  0.13804178  1
  K  K4  1  0.31321157  0.75682272  0.86195822  1
  K  K5  1  0.71210104  0.50938204  0.65876382  1
  K  K6  1  0.81321157  0.74317728  0.36195822  1
  K  K7  1  0.78789896  0.00938204  0.84123618  1
  Li  Li8  1  0.22749078  0.02525997  0.40994500  1
  Li  Li9  1  0.27250922  0.52525997  0.09005500  1
  Li  Li10  1  0.72749078  0.47474003  0.90994500  1
  Li  Li11  1  0.77250922  0.97474003  0.59005500  1
  Nb  Nb12  1  0.21818381  0.27950720  0.93249126  1
  Nb  Nb13  1  0.28181619  0.77950720  0.56750874  1
  Nb  Nb14  1  0.71818381  0.22049280  0.43249126  1
  Nb  Nb15  1  0.78181619  0.72049280  0.06750874  1
  O  O16  1  0.05863168  0.70075262  0.11783868  1
  O  O17  1  0.15497490  0.30262077  0.08813987  1
  O  O18  1  0.07166336  0.94770442  0.62140906  1
  O  O19  1  0.16537828  0.57308220  0.60028444  1
  O  O20  1  0.34502510  0.80262077  0.41186013  1
  O  O21  1  0.44136832  0.20075262  0.38216132  1
  O  O22  1  0.33462172  0.07308220  0.89971556  1
  O  O23  1  0.42833664  0.44770442  0.87859094  1
  O  O24  1  0.57166336  0.55229558  0.12140906  1
  O  O25  1  0.66537828  0.92691780  0.10028444  1
  O  O26  1  0.55863168  0.79924738  0.61783868  1
  O  O27  1  0.65497490  0.19737923  0.58813987  1
  O  O28  1  0.83462172  0.42691780  0.39971556  1
  O  O29  1  0.92833664  0.05229558  0.37859094  1
  O  O30  1  0.84502510  0.69737923  0.91186013  1
  O  O31  1  0.94136832  0.29924738  0.88216132  1
