# generated using pymatgen
data_Y5U2O12
_symmetry_space_group_name_H-M   'P 1'
_cell_length_a   6.61848392
_cell_length_b   6.57995318
_cell_length_c   19.83647211
_cell_angle_alpha   98.94073572
_cell_angle_beta   99.36468570
_cell_angle_gamma   99.39135472
_symmetry_Int_Tables_number   1
_chemical_formula_structural   Y5U2O12
_chemical_formula_sum   'Y15 U6 O36'
_cell_volume   826.10498634
_cell_formula_units_Z   3
loop_
 _symmetry_equiv_pos_site_id
 _symmetry_equiv_pos_as_xyz
  1  'x, y, z'
loop_
 _atom_site_type_symbol
 _atom_site_label
 _atom_site_symmetry_multiplicity
 _atom_site_fract_x
 _atom_site_fract_y
 _atom_site_fract_z
 _atom_site_occupancy
  Y  Y0  1  0.38954233  0.85553003  0.56316128  1
  Y  Y1  1  0.38948960  0.85691265  0.89671310  1
  Y  Y2  1  0.39418905  0.85985894  0.23080512  1
  Y  Y3  1  0.30621123  0.60589158  0.71330284  1
  Y  Y4  1  0.30516057  0.60486836  0.37956406  1
  Y  Y5  1  0.31422729  0.60644610  0.04503415  1
  Y  Y6  1  0.14317841  0.31542441  0.86968172  1
  Y  Y7  1  0.14364299  0.31578637  0.53688258  1
  Y  Y8  1  0.14473306  0.30898241  0.20307496  1
  Y  Y9  1  0.86589719  0.68830433  0.79797314  1
  Y  Y10  1  0.86541016  0.68793943  0.46470328  1
  Y  Y11  1  0.68667419  0.39156998  0.95215456  1
  Y  Y12  1  0.68739520  0.39348303  0.61909757  1
  Y  Y13  1  0.68367960  0.39252713  0.28492570  1
  Y  Y14  1  0.60727966  0.14197765  0.10363386  1
  U  U15  1  0.99616120  -0.00010821  0.66575736  1
  U  U16  1  0.99612535  0.00006242  0.33361455  1
  U  U17  1  0.00003232  0.00212733  0.99986674  1
  U  U18  1  0.86141863  0.69077782  0.13195905  1
  U  U19  1  0.60330011  0.13926331  0.76995302  1
  U  U20  1  0.60325462  0.13943090  0.43687723  1
  O  O21  1  0.05553210  0.92480436  0.89536291  1
  O  O22  1  0.05628474  0.92255614  0.56213896  1
  O  O23  1  0.05719038  0.92261821  0.22774638  1
  O  O24  1  0.31644287  0.94412856  0.35888108  1
  O  O25  1  0.31609744  0.94529449  0.69263883  1
  O  O26  1  0.31484874  0.94466726  0.02579962  1
  O  O27  1  0.18120999  0.58808051  0.81023872  1
  O  O28  1  0.18148377  0.58665537  0.47686682  1
  O  O29  1  0.16696831  0.58800174  0.14127258  1
  O  O30  1  0.57710039  0.83425798  0.80390532  1
  O  O31  1  0.57934768  0.81318411  0.14000509  1
  O  O32  1  0.57633976  0.83361731  0.47083243  1
  O  O33  1  0.07812084  0.31624455  0.98219705  1
  O  O34  1  0.07509677  0.31345755  0.64830802  1
  O  O35  1  0.07479824  0.31172981  0.31404747  1
  O  O36  1  0.41644973  0.56888488  0.94076890  1
  O  O37  1  0.41791367  0.56934929  0.60869006  1
  O  O38  1  0.41397016  0.56805330  0.27391967  1
  O  O39  1  0.58291958  0.42281877  0.72887186  1
  O  O40  1  0.58206728  0.42300726  0.39501537  1
  O  O41  1  0.59149459  0.43218040  0.06017995  1
  O  O42  1  0.92419647  0.68439315  0.68524064  1
  O  O43  1  0.92423029  0.68467376  0.35232035  1
  O  O44  1  0.92136082  0.68627882  0.01817418  1
  O  O45  1  0.42918215  0.17699721  0.52520790  1
  O  O46  1  0.42904997  0.17705189  0.85831390  1
  O  O47  1  0.43098470  0.17487350  0.19350605  1
  O  O48  1  0.82150449  0.41047874  0.85603035  1
  O  O49  1  0.82083752  0.41202362  0.52314452  1
  O  O50  1  0.82416209  0.42301849  0.19043481  1
  O  O51  1  0.68621037  0.05494053  0.97399167  1
  O  O52  1  0.68033384  0.05808510  0.64239709  1
  O  O53  1  0.68075699  0.05834814  0.31002301  1
  O  O54  1  0.94384446  0.07837503  0.77065795  1
  O  O55  1  0.94291578  0.07881477  0.43859298  1
  O  O56  1  0.94175028  0.07099845  0.10554565  1
