# generated using pymatgen
data_ScAg(PS3)2
_symmetry_space_group_name_H-M   'P 1'
_cell_length_a   6.22209126
_cell_length_b   6.22209125
_cell_length_c   14.57894319
_cell_angle_alpha   90.00000000
_cell_angle_beta   90.00000000
_cell_angle_gamma   120.00000003
_symmetry_Int_Tables_number   1
_chemical_formula_structural   ScAg(PS3)2
_chemical_formula_sum   'Sc2 Ag2 P4 S12'
_cell_volume   488.79800893
_cell_formula_units_Z   2
loop_
 _symmetry_equiv_pos_site_id
 _symmetry_equiv_pos_as_xyz
  1  'x, y, z'
loop_
 _atom_site_type_symbol
 _atom_site_label
 _atom_site_symmetry_multiplicity
 _atom_site_fract_x
 _atom_site_fract_y
 _atom_site_fract_z
 _atom_site_occupancy
  P  P0  1  0.66666667  0.33333333  0.67369090  1
  P  P1  1  0.66666667  0.33333333  0.82630910  1
  P  P2  1  0.33333333  0.66666667  0.32630910  1
  P  P3  1  0.33333333  0.66666667  0.17369090  1
  S  S4  1  0.96581571  0.30383598  0.86527581  1
  S  S5  1  0.33802027  0.30383598  0.63472419  1
  S  S6  1  0.96581571  0.66197973  0.63472419  1
  S  S7  1  0.69616402  0.03418429  0.63472419  1
  S  S8  1  0.30383598  0.33802027  0.13472419  1
  S  S9  1  0.66197973  0.96581571  0.13472419  1
  S  S10  1  0.03418429  0.69616402  0.13472419  1
  S  S11  1  0.66197973  0.69616402  0.36527581  1
  S  S12  1  0.03418429  0.33802027  0.36527581  1
  S  S13  1  0.30383598  0.96581571  0.36527581  1
  S  S14  1  0.69616402  0.66197973  0.86527581  1
  S  S15  1  0.33802027  0.03418429  0.86527581  1
  Sc  Sc16  1  0.00000000  0.00000000  0.75000000  1
  Sc  Sc17  1  0.00000000  0.00000000  0.25000000  1
  Ag  Ag18  1  0.33333333  0.66666667  0.75000000  1
  Ag  Ag19  1  0.66666667  0.33333333  0.25000000  1
