# generated using pymatgen
data_B6H10C2SBr
_symmetry_space_group_name_H-M   'P 1'
_cell_length_a   9.74828562
_cell_length_b   9.89191942
_cell_length_c   19.35530266
_cell_angle_alpha   90.00000000
_cell_angle_beta   90.00000000
_cell_angle_gamma   90.00000000
_symmetry_Int_Tables_number   1
_chemical_formula_structural   B6H10C2SBr
_chemical_formula_sum   'B48 H80 C16 S8 Br8'
_cell_volume   1866.41743199
_cell_formula_units_Z   8
loop_
 _symmetry_equiv_pos_site_id
 _symmetry_equiv_pos_as_xyz
  1  'x, y, z'
loop_
 _atom_site_type_symbol
 _atom_site_label
 _atom_site_symmetry_multiplicity
 _atom_site_fract_x
 _atom_site_fract_y
 _atom_site_fract_z
 _atom_site_occupancy
  B  B0  1  0.01236429  0.38852915  0.36023138  1
  B  B1  1  0.01657234  0.57245355  0.47734642  1
  B  B2  1  0.02012809  0.90047280  0.04915566  1
  B  B3  1  0.05755899  0.03882973  0.10408660  1
  B  B4  1  0.06877089  0.55151358  0.33060642  1
  B  B5  1  0.07211966  0.66432397  0.40320889  1
  B  B6  1  0.13547853  0.32680023  0.42023885  1
  B  B7  1  0.13698158  0.44112038  0.49087238  1
  B  B8  1  0.18948111  0.42020052  0.34696022  1
  B  B9  1  0.19484801  0.60189824  0.46339757  1
  B  B10  1  0.22584240  0.58931929  0.37339782  1
  B  B11  1  0.23161397  0.54935411  0.92825813  1
  B  B12  1  0.26838603  0.45064589  0.42825813  1
  B  B13  1  0.27415760  0.41068071  0.87339782  1
  B  B14  1  0.30515199  0.39810176  0.96339757  1
  B  B15  1  0.31051889  0.57979948  0.84696022  1
  B  B16  1  0.36301842  0.55887962  0.99087238  1
  B  B17  1  0.36452147  0.67319977  0.92023885  1
  B  B18  1  0.42788034  0.33567603  0.90320889  1
  B  B19  1  0.43122911  0.44848642  0.83060642  1
  B  B20  1  0.44244101  0.96117027  0.60408660  1
  B  B21  1  0.47987191  0.09952720  0.54915566  1
  B  B22  1  0.48342766  0.42754645  0.97734642  1
  B  B23  1  0.48763571  0.61147085  0.86023138  1
  B  B24  1  0.51236429  0.11147085  0.63976862  1
  B  B25  1  0.51657234  0.92754645  0.52265358  1
  B  B26  1  0.52012809  0.59952720  0.95084434  1
  B  B27  1  0.55755899  0.46117027  0.89591340  1
  B  B28  1  0.56877089  0.94848642  0.66939358  1
  B  B29  1  0.57211966  0.83567603  0.59679111  1
  B  B30  1  0.63547853  0.17319977  0.57976115  1
  B  B31  1  0.63698158  0.05887962  0.50912762  1
  B  B32  1  0.68948111  0.07979948  0.65303978  1
  B  B33  1  0.69484801  0.89810176  0.53660243  1
  B  B34  1  0.72584240  0.91068071  0.62660218  1
  B  B35  1  0.73161397  0.95064589  0.07174187  1
  B  B36  1  0.76838603  0.04935411  0.57174187  1
  B  B37  1  0.77415760  0.08931929  0.12660218  1
  B  B38  1  0.80515199  0.10189824  0.03660243  1
  B  B39  1  0.81051889  0.92020052  0.15303978  1
  B  B40  1  0.86301842  0.94112038  0.00912762  1
  B  B41  1  0.86452147  0.82680023  0.07976115  1
  B  B42  1  0.92788034  0.16432397  0.09679111  1
  B  B43  1  0.93122911  0.05151358  0.16939358  1
  B  B44  1  0.94244101  0.53882973  0.39591340  1
  B  B45  1  0.97987191  0.40047280  0.45084434  1
  B  B46  1  0.98342766  0.07245355  0.02265358  1
  B  B47  1  0.98763571  0.88852915  0.13976862  1
  H  H48  1  0.03092954  0.54085427  0.62799357  1
  H  H49  1  0.04384291  0.12791302  0.97702142  1
  H  H50  1  0.05012938  0.81319500  0.17634459  1
  H  H51  1  0.05577500  0.88028803  0.87978238  1
  H  H52  1  0.04563174  0.59102713  0.27342525  1
  H  H53  1  0.04891130  0.78254567  0.39696997  1
  H  H54  1  0.06615618  0.40583542  0.68856044  1
  H  H55  1  0.05219015  0.93805732  0.56058825  1
  H  H56  1  0.08483559  0.99080177  0.69412836  1
  H  H57  1  0.08973201  0.57469409  0.08278847  1
  H  H58  1  0.10623999  0.83381846  0.02112746  1
  H  H59  1  0.11600023  0.58302118  0.93925250  1
  H  H60  1  0.16017324  0.20881655  0.42683129  1
  H  H61  1  0.16597556  0.56763637  0.16712081  1
  H  H62  1  0.18186675  0.06177627  0.53862398  1
  H  H63  1  0.19072571  0.89223615  0.50435367  1
  H  H64  1  0.19680762  0.43279867  0.10631427  1
  H  H65  1  0.21588024  0.11488141  0.67471418  1
  H  H66  1  0.24841225  0.98323128  0.73683962  1
  H  H67  1  0.23988129  0.32491318  0.99990293  1
  H  H68  1  0.26011871  0.67508682  0.49990293  1
  H  H69  1  0.25158775  0.01676872  0.23683962  1
  H  H70  1  0.28411976  0.88511859  0.17471418  1
  H  H71  1  0.30319238  0.56720133  0.60631427  1
  H  H72  1  0.30927429  0.10776385  0.00435367  1
  H  H73  1  0.31813325  0.93822373  0.03862398  1
  H  H74  1  0.33402444  0.43236363  0.66712081  1
  H  H75  1  0.33982676  0.79118345  0.92683129  1
  H  H76  1  0.38399977  0.41697882  0.43925250  1
  H  H77  1  0.39376001  0.16618154  0.52112746  1
  H  H78  1  0.41026799  0.42530591  0.58278847  1
  H  H79  1  0.41516441  0.00919823  0.19412836  1
  H  H80  1  0.44780985  0.06194268  0.06058825  1
  H  H81  1  0.43384382  0.59416458  0.18856044  1
  H  H82  1  0.45108870  0.21745433  0.89696997  1
  H  H83  1  0.45436826  0.40897287  0.77342525  1
  H  H84  1  0.44422500  0.11971197  0.37978238  1
  H  H85  1  0.44987062  0.18680500  0.67634459  1
  H  H86  1  0.45615709  0.87208698  0.47702142  1
  H  H87  1  0.46907046  0.45914573  0.12799357  1
  H  H88  1  0.53092954  0.95914573  0.37200643  1
  H  H89  1  0.54384291  0.37208698  0.02297858  1
  H  H90  1  0.55012938  0.68680500  0.82365541  1
  H  H91  1  0.55577500  0.61971197  0.12021762  1
  H  H92  1  0.54563174  0.90897287  0.72657475  1
  H  H93  1  0.54891130  0.71745433  0.60303003  1
  H  H94  1  0.56615618  0.09416458  0.31143956  1
  H  H95  1  0.55219015  0.56194268  0.43941175  1
  H  H96  1  0.58483559  0.50919823  0.30587164  1
  H  H97  1  0.58973201  0.92530591  0.91721153  1
  H  H98  1  0.60623999  0.66618154  0.97887254  1
  H  H99  1  0.61600023  0.91697882  0.06074750  1
  H  H100  1  0.66017324  0.29118345  0.57316871  1
  H  H101  1  0.66597556  0.93236363  0.83287919  1
  H  H102  1  0.68186675  0.43822373  0.46137602  1
  H  H103  1  0.69072571  0.60776385  0.49564633  1
  H  H104  1  0.69680762  0.06720133  0.89368573  1
  H  H105  1  0.71588024  0.38511859  0.32528582  1
  H  H106  1  0.74841225  0.51676872  0.26316038  1
  H  H107  1  0.73988129  0.17508682  0.00009707  1
  H  H108  1  0.76011871  0.82491318  0.50009707  1
  H  H109  1  0.75158775  0.48323128  0.76316038  1
  H  H110  1  0.78411976  0.61488141  0.82528582  1
  H  H111  1  0.80319238  0.93279867  0.39368573  1
  H  H112  1  0.80927429  0.39223615  0.99564633  1
  H  H113  1  0.81813325  0.56177627  0.96137602  1
  H  H114  1  0.83402444  0.06763637  0.33287919  1
  H  H115  1  0.83982676  0.70881655  0.07316871  1
  H  H116  1  0.88399977  0.08302118  0.56074750  1
  H  H117  1  0.89376001  0.33381846  0.47887254  1
  H  H118  1  0.91026799  0.07469409  0.41721153  1
  H  H119  1  0.91516441  0.49080177  0.80587164  1
  H  H120  1  0.94780985  0.43805732  0.93941175  1
  H  H121  1  0.93384382  0.90583542  0.81143956  1
  H  H122  1  0.95108870  0.28254567  0.10303003  1
  H  H123  1  0.95436826  0.09102713  0.22657475  1
  H  H124  1  0.94422500  0.38028803  0.62021762  1
  H  H125  1  0.94987062  0.31319500  0.32365541  1
  H  H126  1  0.95615709  0.62791302  0.52297858  1
  H  H127  1  0.96907046  0.04085427  0.87200643  1
  C  C128  1  0.03959892  0.43153397  0.63493647  1
  C  C129  1  0.16083236  0.95508268  0.54856637  1
  C  C130  1  0.17936002  0.54122025  0.11240719  1
  C  C131  1  0.19533539  0.00994843  0.68874880  1
  C  C132  1  0.30466461  0.99005157  0.18874880  1
  C  C133  1  0.32063998  0.45877975  0.61240719  1
  C  C134  1  0.33916764  0.04491732  0.04856637  1
  C  C135  1  0.46040108  0.56846603  0.13493647  1
  C  C136  1  0.53959892  0.06846603  0.36506353  1
  C  C137  1  0.66083236  0.54491732  0.45143363  1
  C  C138  1  0.67936002  0.95877975  0.88759281  1
  C  C139  1  0.69533539  0.49005157  0.31125120  1
  C  C140  1  0.80466461  0.50994843  0.81125120  1
  C  C141  1  0.82063998  0.04122025  0.38759281  1
  C  C142  1  0.83916764  0.45508268  0.95143363  1
  C  C143  1  0.96040108  0.93153397  0.86506353  1
  S  S144  1  0.17416885  0.36672425  0.58031554  1
  S  S145  1  0.24053761  0.10103688  0.12205494  1
  S  S146  1  0.25946239  0.89896312  0.62205494  1
  S  S147  1  0.32583115  0.63327575  0.08031554  1
  S  S148  1  0.67416885  0.13327575  0.41968446  1
  S  S149  1  0.74053761  0.39896312  0.87794506  1
  S  S150  1  0.75946239  0.60103688  0.37794506  1
  S  S151  1  0.82583115  0.86672425  0.91968446  1
  Br  Br152  1  0.13259937  0.29691390  0.82650222  1
  Br  Br153  1  0.20493378  0.66868918  0.77159607  1
  Br  Br154  1  0.29506622  0.33131082  0.27159607  1
  Br  Br155  1  0.36740063  0.70308610  0.32650222  1
  Br  Br156  1  0.63259937  0.20308610  0.17349778  1
  Br  Br157  1  0.70493378  0.83131082  0.22840393  1
  Br  Br158  1  0.79506622  0.16868918  0.72840393  1
  Br  Br159  1  0.86740063  0.79691390  0.67349778  1
