# generated using pymatgen
data_LiCu3F10
_symmetry_space_group_name_H-M   'P 1'
_cell_length_a   3.77875735
_cell_length_b   7.22649730
_cell_length_c   14.38420949
_cell_angle_alpha   90.00000000
_cell_angle_beta   89.76399453
_cell_angle_gamma   90.00000000
_symmetry_Int_Tables_number   1
_chemical_formula_structural   LiCu3F10
_chemical_formula_sum   'Li2 Cu6 F20'
_cell_volume   392.78886226
_cell_formula_units_Z   2
loop_
 _symmetry_equiv_pos_site_id
 _symmetry_equiv_pos_as_xyz
  1  'x, y, z'
loop_
 _atom_site_type_symbol
 _atom_site_label
 _atom_site_symmetry_multiplicity
 _atom_site_fract_x
 _atom_site_fract_y
 _atom_site_fract_z
 _atom_site_occupancy
  Li  Li0  1  0.03991830  0.41717197  0.42812243  1
  Li  Li1  1  0.03991830  0.58282803  0.92812243  1
  Cu  Cu2  1  0.01856746  0.09552074  0.02821124  1
  Cu  Cu3  1  0.01610752  0.00233551  0.28144371  1
  Cu  Cu4  1  0.02216495  0.59036796  0.12978817  1
  Cu  Cu5  1  0.01856746  0.90447926  0.52821124  1
  Cu  Cu6  1  0.01610752  0.99766449  0.78144371  1
  Cu  Cu7  1  0.02216495  0.40963204  0.62978817  1
  F  F8  1  0.01107863  0.22628098  0.34352163  1
  F  F9  1  0.01665187  0.09646860  0.15479004  1
  F  F10  1  0.01861342  0.77183044  0.22777669  1
  F  F11  1  0.02437649  0.40225708  0.02791608  1
  F  F12  1  0.02445489  0.76361117  0.03349430  1
  F  F13  1  0.02086323  0.42970369  0.22380748  1
  F  F14  1  0.01107863  0.77371902  0.84352163  1
  F  F15  1  0.01839078  0.87320385  0.40114618  1
  F  F16  1  0.01665187  0.90353140  0.65479004  1
  F  F17  1  0.01861342  0.22816956  0.72777669  1
  F  F18  1  0.02437649  0.59774292  0.52791608  1
  F  F19  1  0.02445489  0.23638883  0.53349430  1
  F  F20  1  0.02086323  0.57029631  0.72380748  1
  F  F21  1  0.01839078  0.12679615  0.90114618  1
  F  F22  1  0.51875995  0.07062696  0.02453792  1
  F  F23  1  0.51600852  0.00615450  0.28136709  1
  F  F24  1  0.52220900  0.58924488  0.12464803  1
  F  F25  1  0.51875995  0.92937304  0.52453792  1
  F  F26  1  0.51600852  0.99384550  0.78136709  1
  F  F27  1  0.52220900  0.41075512  0.62464803  1
