# generated using pymatgen
data_Na5FeO4
_symmetry_space_group_name_H-M   'P 1'
_cell_length_a   10.72718994
_cell_length_b   10.60593209
_cell_length_c   10.35101074
_cell_angle_alpha   90.00000000
_cell_angle_beta   90.00000000
_cell_angle_gamma   90.00000000
_symmetry_Int_Tables_number   1
_chemical_formula_structural   Na5FeO4
_chemical_formula_sum   'Na40 Fe8 O32'
_cell_volume   1177.65362077
_cell_formula_units_Z   8
loop_
 _symmetry_equiv_pos_site_id
 _symmetry_equiv_pos_as_xyz
  1  'x, y, z'
loop_
 _atom_site_type_symbol
 _atom_site_label
 _atom_site_symmetry_multiplicity
 _atom_site_fract_x
 _atom_site_fract_y
 _atom_site_fract_z
 _atom_site_occupancy
  Na  Na0  1  0.10332566  0.61444083  0.14776769  1
  Na  Na1  1  0.10332566  0.88555917  0.64776769  1
  Na  Na2  1  0.11322619  0.10740625  0.83552591  1
  Na  Na3  1  0.11322619  0.39259275  0.33552591  1
  Na  Na4  1  0.11812173  0.84665421  0.36511854  1
  Na  Na5  1  0.11812173  0.65334579  0.86511854  1
  Na  Na6  1  0.14621299  0.87699331  0.08937521  1
  Na  Na7  1  0.14621299  0.62300669  0.58937521  1
  Na  Na8  1  0.16065811  0.12076892  0.40029921  1
  Na  Na9  1  0.16065811  0.37923108  0.90029921  1
  Na  Na10  1  0.33934189  0.87923108  0.90029921  1
  Na  Na11  1  0.33934189  0.62076892  0.40029921  1
  Na  Na12  1  0.35378701  0.12300669  0.58937521  1
  Na  Na13  1  0.35378701  0.37699331  0.08937521  1
  Na  Na14  1  0.38187827  0.34665421  0.36511854  1
  Na  Na15  1  0.38187827  0.15334579  0.86511854  1
  Na  Na16  1  0.38677381  0.60740625  0.83552591  1
  Na  Na17  1  0.38677381  0.89259375  0.33552591  1
  Na  Na18  1  0.39667434  0.11444083  0.14776769  1
  Na  Na19  1  0.39667434  0.38555917  0.64776769  1
  Na  Na20  1  0.60332566  0.61444083  0.35223231  1
  Na  Na21  1  0.60332566  0.88555917  0.85223231  1
  Na  Na22  1  0.61322619  0.10740625  0.66447409  1
  Na  Na23  1  0.61322619  0.39259275  0.16447409  1
  Na  Na24  1  0.61812173  0.65334579  0.63488146  1
  Na  Na25  1  0.61812173  0.84665421  0.13488146  1
  Na  Na26  1  0.64621299  0.62300669  0.91062479  1
  Na  Na27  1  0.64621299  0.87699331  0.41062479  1
  Na  Na28  1  0.66065811  0.12076892  0.09970079  1
  Na  Na29  1  0.66065811  0.37923108  0.59970079  1
  Na  Na30  1  0.83934189  0.62076892  0.09970079  1
  Na  Na31  1  0.83934189  0.87923108  0.59970079  1
  Na  Na32  1  0.85378701  0.37699331  0.41062479  1
  Na  Na33  1  0.85378701  0.12300669  0.91062479  1
  Na  Na34  1  0.88187827  0.15334579  0.63488146  1
  Na  Na35  1  0.88187827  0.34665421  0.13488146  1
  Na  Na36  1  0.88677381  0.60740625  0.66447409  1
  Na  Na37  1  0.88677381  0.89259375  0.16447409  1
  Na  Na38  1  0.89667434  0.11444083  0.35223231  1
  Na  Na39  1  0.89667434  0.38555917  0.85223231  1
  Fe  Fe40  1  0.12749607  0.14551182  0.11623215  1
  Fe  Fe41  1  0.12749607  0.35448818  0.61623215  1
  Fe  Fe42  1  0.37250393  0.64551182  0.11623215  1
  Fe  Fe43  1  0.37250393  0.85448818  0.61623215  1
  Fe  Fe44  1  0.62749607  0.14551182  0.38376785  1
  Fe  Fe45  1  0.62749607  0.35448818  0.88376785  1
  Fe  Fe46  1  0.87250393  0.64551182  0.38376785  1
  Fe  Fe47  1  0.87250393  0.85448818  0.88376785  1
  O  O48  1  0.01900442  0.26032302  0.50226016  1
  O  O49  1  0.01900442  0.23967698  0.00226016  1
  O  O50  1  0.04963439  0.02261701  0.23045053  1
  O  O51  1  0.04963439  0.47738299  0.73045053  1
  O  O52  1  0.24134449  0.05077047  0.00586538  1
  O  O53  1  0.24134449  0.44922953  0.50586538  1
  O  O54  1  0.23592810  0.24515316  0.22487713  1
  O  O55  1  0.23592810  0.25484684  0.72487713  1
  O  O56  1  0.26407190  0.74515316  0.22487713  1
  O  O57  1  0.26407190  0.75484684  0.72487713  1
  O  O58  1  0.25865551  0.55077047  0.00586538  1
  O  O59  1  0.25865551  0.94922953  0.50586538  1
  O  O60  1  0.45036561  0.52261701  0.23045053  1
  O  O61  1  0.45036561  0.97738299  0.73045053  1
  O  O62  1  0.48099558  0.76032302  0.50226016  1
  O  O63  1  0.48099558  0.73967698  0.00226016  1
  O  O64  1  0.51900442  0.26032302  0.99773984  1
  O  O65  1  0.51900442  0.23967698  0.49773984  1
  O  O66  1  0.54963439  0.02261701  0.26954947  1
  O  O67  1  0.54963439  0.47738299  0.76954947  1
  O  O68  1  0.74134449  0.44922953  0.99413462  1
  O  O69  1  0.74134449  0.05077047  0.49413462  1
  O  O70  1  0.73592810  0.24515316  0.27512287  1
  O  O71  1  0.73592810  0.25484684  0.77512287  1
  O  O72  1  0.76407190  0.74515316  0.27512287  1
  O  O73  1  0.76407190  0.75484684  0.77512287  1
  O  O74  1  0.75865551  0.94922953  0.99413462  1
  O  O75  1  0.75865551  0.55077047  0.49413462  1
  O  O76  1  0.95036561  0.97738299  0.76954947  1
  O  O77  1  0.95036561  0.52261701  0.26954947  1
  O  O78  1  0.98099558  0.76032302  0.99773984  1
  O  O79  1  0.98099558  0.73967698  0.49773984  1
