# generated using pymatgen
data_LaHSe3O10
_symmetry_space_group_name_H-M   'P 1'
_cell_length_a   7.42524554
_cell_length_b   10.97962641
_cell_length_c   23.91111953
_cell_angle_alpha   90.00000000
_cell_angle_beta   90.00000000
_cell_angle_gamma   90.00000000
_symmetry_Int_Tables_number   1
_chemical_formula_structural   LaHSe3O10
_chemical_formula_sum   'La8 H8 Se24 O80'
_cell_volume   1949.38802205
_cell_formula_units_Z   8
loop_
 _symmetry_equiv_pos_site_id
 _symmetry_equiv_pos_as_xyz
  1  'x, y, z'
loop_
 _atom_site_type_symbol
 _atom_site_label
 _atom_site_symmetry_multiplicity
 _atom_site_fract_x
 _atom_site_fract_y
 _atom_site_fract_z
 _atom_site_occupancy
  La  La0  1  0.06112569  0.46168463  0.09070565  1
  La  La1  1  0.06112569  0.03831537  0.59070565  1
  La  La2  1  0.43887431  0.96168463  0.09070565  1
  La  La3  1  0.43887431  0.53831537  0.59070565  1
  La  La4  1  0.56112569  0.03831537  0.90929435  1
  La  La5  1  0.56112569  0.46168463  0.40929435  1
  La  La6  1  0.93887431  0.53831537  0.90929435  1
  La  La7  1  0.93887431  0.96168463  0.40929435  1
  H  H8  1  0.18211457  0.34365281  0.29096206  1
  H  H9  1  0.18211457  0.15634719  0.79096206  1
  H  H10  1  0.31788543  0.84365281  0.29096206  1
  H  H11  1  0.31788543  0.65634719  0.79096206  1
  H  H12  1  0.68211457  0.34365281  0.20903794  1
  H  H13  1  0.68211457  0.15634719  0.70903794  1
  H  H14  1  0.81788543  0.65634719  0.70903794  1
  H  H15  1  0.81788543  0.84365281  0.20903794  1
  Se  Se16  1  0.03701414  0.79277194  0.14344320  1
  Se  Se17  1  0.03701414  0.70722806  0.64344320  1
  Se  Se18  1  0.06339286  0.61856533  0.38054216  1
  Se  Se19  1  0.06339286  0.88143467  0.88054216  1
  Se  Se20  1  0.19481670  0.17569800  0.00635044  1
  Se  Se21  1  0.19481670  0.32430200  0.50635044  1
  Se  Se22  1  0.30518330  0.67569800  0.00635044  1
  Se  Se23  1  0.30518330  0.82430200  0.50635044  1
  Se  Se24  1  0.43660714  0.11856533  0.38054216  1
  Se  Se25  1  0.43660714  0.38143467  0.88054216  1
  Se  Se26  1  0.46298586  0.29277194  0.14344320  1
  Se  Se27  1  0.46298586  0.20722806  0.64344320  1
  Se  Se28  1  0.53701414  0.79277194  0.35655680  1
  Se  Se29  1  0.53701414  0.70722806  0.85655680  1
  Se  Se30  1  0.56339286  0.61856533  0.11945784  1
  Se  Se31  1  0.56339286  0.88143467  0.61945784  1
  Se  Se32  1  0.69481670  0.17569800  0.49364956  1
  Se  Se33  1  0.69481670  0.32430200  0.99364956  1
  Se  Se34  1  0.80518330  0.67569800  0.49364956  1
  Se  Se35  1  0.80518330  0.82430200  0.99364956  1
  Se  Se36  1  0.93660714  0.11856533  0.11945784  1
  Se  Se37  1  0.93660714  0.38143467  0.61945784  1
  Se  Se38  1  0.96298586  0.20722806  0.85655680  1
  Se  Se39  1  0.96298586  0.29277194  0.35655680  1
  O  O40  1  0.11064295  0.97455823  0.28672647  1
  O  O41  1  0.11064295  0.52544177  0.78672647  1
  O  O42  1  0.09967336  0.64455494  0.14624748  1
  O  O43  1  0.09967336  0.85544506  0.64624748  1
  O  O44  1  0.06652810  0.30126659  0.28706291  1
  O  O45  1  0.06652810  0.19873341  0.78706291  1
  O  O46  1  0.10608536  0.59751410  0.00579163  1
  O  O47  1  0.10608536  0.90248590  0.50579163  1
  O  O48  1  0.10662219  0.07469508  0.06449560  1
  O  O49  1  0.10662219  0.42530492  0.56449560  1
  O  O50  1  0.11408711  0.76416909  0.39828745  1
  O  O51  1  0.11408711  0.73583091  0.89828745  1
  O  O52  1  0.22648755  0.87540520  0.15704071  1
  O  O53  1  0.22648755  0.62459480  0.65704071  1
  O  O54  1  0.23979290  0.53431712  0.40195503  1
  O  O55  1  0.23979290  0.96568288  0.90195503  1
  O  O56  1  0.30221886  0.56050501  0.26800656  1
  O  O57  1  0.30221886  0.93949499  0.76800656  1
  O  O58  1  0.24819563  0.30513207  0.03994581  1
  O  O59  1  0.24819563  0.19486793  0.53994581  1
  O  O60  1  0.25180437  0.80513207  0.03994581  1
  O  O61  1  0.25180437  0.69486793  0.53994581  1
  O  O62  1  0.19778114  0.06050501  0.26800656  1
  O  O63  1  0.19778114  0.43949499  0.76800656  1
  O  O64  1  0.26020710  0.03431712  0.40195503  1
  O  O65  1  0.26020710  0.46568288  0.90195503  1
  O  O66  1  0.27351245  0.37540520  0.15704071  1
  O  O67  1  0.27351245  0.12459480  0.65704071  1
  O  O68  1  0.38591289  0.26416909  0.39828745  1
  O  O69  1  0.38591289  0.23583091  0.89828745  1
  O  O70  1  0.39337781  0.57469508  0.06449560  1
  O  O71  1  0.39337781  0.92530492  0.56449560  1
  O  O72  1  0.39391464  0.09751410  0.00579163  1
  O  O73  1  0.39391464  0.40248590  0.50579163  1
  O  O74  1  0.43347190  0.80126659  0.28706291  1
  O  O75  1  0.43347190  0.69873341  0.78706291  1
  O  O76  1  0.40032664  0.14455494  0.14624748  1
  O  O77  1  0.40032664  0.35544506  0.64624748  1
  O  O78  1  0.38935705  0.47455823  0.28672647  1
  O  O79  1  0.38935705  0.02544177  0.78672647  1
  O  O80  1  0.61064295  0.52544177  0.71327353  1
  O  O81  1  0.61064295  0.97455823  0.21327353  1
  O  O82  1  0.59967336  0.64455494  0.35375252  1
  O  O83  1  0.59967336  0.85544506  0.85375252  1
  O  O84  1  0.56652810  0.30126659  0.21293709  1
  O  O85  1  0.56652810  0.19873341  0.71293709  1
  O  O86  1  0.60608536  0.59751410  0.49420837  1
  O  O87  1  0.60608536  0.90248590  0.99420837  1
  O  O88  1  0.60662219  0.42530492  0.93550440  1
  O  O89  1  0.60662219  0.07469508  0.43550440  1
  O  O90  1  0.61408711  0.76416909  0.10171255  1
  O  O91  1  0.61408711  0.73583091  0.60171255  1
  O  O92  1  0.72648755  0.62459480  0.84295929  1
  O  O93  1  0.72648755  0.87540520  0.34295929  1
  O  O94  1  0.73979290  0.53431712  0.09804497  1
  O  O95  1  0.73979290  0.96568288  0.59804497  1
  O  O96  1  0.80221886  0.56050501  0.23199344  1
  O  O97  1  0.80221886  0.93949499  0.73199344  1
  O  O98  1  0.74819563  0.30513207  0.46005419  1
  O  O99  1  0.74819563  0.19486793  0.96005419  1
  O  O100  1  0.75180437  0.80513207  0.46005419  1
  O  O101  1  0.75180437  0.69486793  0.96005419  1
  O  O102  1  0.69778114  0.06050501  0.23199344  1
  O  O103  1  0.69778114  0.43949499  0.73199344  1
  O  O104  1  0.76020710  0.03431712  0.09804497  1
  O  O105  1  0.76020710  0.46568288  0.59804497  1
  O  O106  1  0.77351245  0.12459480  0.84295929  1
  O  O107  1  0.77351245  0.37540520  0.34295929  1
  O  O108  1  0.88591289  0.26416909  0.10171255  1
  O  O109  1  0.88591289  0.23583091  0.60171255  1
  O  O110  1  0.89337781  0.57469508  0.43550440  1
  O  O111  1  0.89337781  0.92530492  0.93550440  1
  O  O112  1  0.89391464  0.09751410  0.49420837  1
  O  O113  1  0.89391464  0.40248590  0.99420837  1
  O  O114  1  0.93347190  0.80126659  0.21293709  1
  O  O115  1  0.93347190  0.69873341  0.71293709  1
  O  O116  1  0.90032664  0.14455494  0.35375252  1
  O  O117  1  0.90032664  0.35544506  0.85375252  1
  O  O118  1  0.88935705  0.47455823  0.21327353  1
  O  O119  1  0.88935705  0.02544177  0.71327353  1
