# generated using pymatgen
data_Li4MnCo2O7
_symmetry_space_group_name_H-M   'P 1'
_cell_length_a   2.89549406
_cell_length_b   7.76673903
_cell_length_c   11.62195423
_cell_angle_alpha   83.76073035
_cell_angle_beta   97.15592444
_cell_angle_gamma   79.25703435
_symmetry_Int_Tables_number   1
_chemical_formula_structural   Li4MnCo2O7
_chemical_formula_sum   'Li8 Mn2 Co4 O14'
_cell_volume   252.43689927
_cell_formula_units_Z   2
loop_
 _symmetry_equiv_pos_site_id
 _symmetry_equiv_pos_as_xyz
  1  'x, y, z'
loop_
 _atom_site_type_symbol
 _atom_site_label
 _atom_site_symmetry_multiplicity
 _atom_site_fract_x
 _atom_site_fract_y
 _atom_site_fract_z
 _atom_site_occupancy
  Li  Li0  1  0.58109207  0.07348593  0.23566906  1
  Li  Li1  1  0.70933232  0.20355598  0.62221963  1
  Li  Li2  1  0.86034603  0.36339634  0.08408841  1
  Li  Li3  1  0.28829196  0.78227692  0.35886185  1
  Li  Li4  1  0.41923775  0.93754846  0.77602495  1
  Li  Li5  1  0.99508413  0.50199820  0.49216646  1
  Li  Li6  1  0.14734266  0.63675718  0.93144249  1
  Li  Li7  1  0.14274278  0.14375721  0.42924277  1
  Mn  Mn8  1  -0.00447298  0.00501360  -0.00393237  1
  Mn  Mn9  1  0.57227203  0.57195492  0.71649798  1
  Co  Co10  1  0.28452338  0.28733642  0.85638419  1
  Co  Co11  1  0.44943471  0.40447499  0.30334541  1
  Co  Co12  1  0.72250763  0.70394460  0.14895886  1
  Co  Co13  1  0.83884089  0.87723787  0.55491964  1
  O  O14  1  0.42400419  0.17016537  0.01817275  1
  O  O15  1  0.56354569  0.33065227  0.45774365  1
  O  O16  1  0.71732279  0.44723918  0.88188475  1
  O  O17  1  0.13248607  0.89223914  0.15721228  1
  O  O18  1  0.29336918  0.02397615  0.61071351  1
  O  O19  1  0.85273716  0.60621985  0.31169417  1
  O  O20  1  0.01521715  0.72307091  0.75350621  1
  O  O21  1  0.72698170  0.94764071  0.40160511  1
  O  O22  1  0.85376682  0.12558735  0.83312000  1
  O  O23  1  0.99579558  0.25710353  0.24869369  1
  O  O24  1  0.44171604  0.67577933  0.55921140  1
  O  O25  1  0.55487837  0.85107001  0.96082775  1
  O  O26  1  0.14520426  0.40497825  0.69538678  1
  O  O27  1  0.27639965  0.55153931  0.10433862  1
