# generated using pymatgen
data_CsMnH4(OF2)2
_symmetry_space_group_name_H-M   'P 1'
_cell_length_a   6.67322061
_cell_length_b   6.86592422
_cell_length_c   8.76468848
_cell_angle_alpha   94.80465923
_cell_angle_beta   112.37629537
_cell_angle_gamma   60.92417486
_symmetry_Int_Tables_number   1
_chemical_formula_structural   CsMnH4(OF2)2
_chemical_formula_sum   'Cs2 Mn2 H8 O4 F8'
_cell_volume   321.98738747
_cell_formula_units_Z   2
loop_
 _symmetry_equiv_pos_site_id
 _symmetry_equiv_pos_as_xyz
  1  'x, y, z'
loop_
 _atom_site_type_symbol
 _atom_site_label
 _atom_site_symmetry_multiplicity
 _atom_site_fract_x
 _atom_site_fract_y
 _atom_site_fract_z
 _atom_site_occupancy
  Cs  Cs0  1  0.97258255  0.50000000  0.50000000  1
  Cs  Cs1  1  0.02572105  0.00000000  0.00000000  1
  Mn  Mn2  1  0.49646301  0.74969663  0.74844569  1
  Mn  Mn3  1  0.49771394  0.25030337  0.25155431  1
  H  H4  1  0.09328910  0.92368887  0.42101888  1
  H  H5  1  0.67385589  0.80523964  0.09442428  1
  H  H6  1  0.31751330  0.69894266  0.39964600  1
  H  H7  1  0.40050804  0.42163575  0.92551190  1
  H  H8  1  0.89663089  0.57836425  0.07448810  1
  H  H9  1  0.61680996  0.30105734  0.60035400  1
  H  H10  1  0.38467125  0.19476036  0.90557572  1
  H  H11  1  0.59595809  0.07631113  0.57898112  1
  O  O12  1  0.24639226  0.78087399  0.48138159  1
  O  O13  1  0.74549076  0.72142363  0.01343939  1
  O  O14  1  0.45347501  0.27857637  0.98656061  1
  O  O15  1  0.54588466  0.21912601  0.51861841  1
  F  F16  1  0.56121889  0.95070711  0.23243783  1
  F  F17  1  0.68032298  0.84744750  0.68736527  1
  F  F18  1  0.31502105  0.64970897  0.81065908  1
  F  F19  1  0.43479476  0.55003746  0.26633198  1
  F  F20  1  0.71850023  0.44996254  0.73366802  1
  F  F21  1  0.15407095  0.35029103  0.18934092  1
  F  F22  1  0.84040521  0.15255250  0.31263473  1
  F  F23  1  0.27948817  0.04929289  0.76756217  1
