# generated using pymatgen
data_Ca9Mn(PO4)7
_symmetry_space_group_name_H-M   'P 1'
_cell_length_a   13.91009552
_cell_length_b   13.91009552
_cell_length_c   13.91009576
_cell_angle_alpha   44.02698317
_cell_angle_beta   44.02698317
_cell_angle_gamma   44.02698323
_symmetry_Int_Tables_number   1
_chemical_formula_structural   Ca9Mn(PO4)7
_chemical_formula_sum   'Ca18 Mn2 P14 O56'
_cell_volume   1180.85431332
_cell_formula_units_Z   2
loop_
 _symmetry_equiv_pos_site_id
 _symmetry_equiv_pos_as_xyz
  1  'x, y, z'
loop_
 _atom_site_type_symbol
 _atom_site_label
 _atom_site_symmetry_multiplicity
 _atom_site_fract_x
 _atom_site_fract_y
 _atom_site_fract_z
 _atom_site_occupancy
  Ca  Ca0  1  0.06473367  0.65654488  0.07902061  1
  Ca  Ca1  1  0.35739862  0.90486151  0.93227700  1
  Ca  Ca2  1  0.40486151  0.85739862  0.43227700  1
  Ca  Ca3  1  0.55177435  0.97347636  0.95331399  1
  Ca  Ca4  1  0.15654488  0.56473367  0.57902061  1
  Ca  Ca5  1  0.05177435  0.45331399  0.47347636  1
  Ca  Ca6  1  0.90486151  0.93227700  0.35739862  1
  Ca  Ca7  1  0.45331399  0.47347636  0.05177435  1
  Ca  Ca8  1  0.56473367  0.57902061  0.15654488  1
  Ca  Ca9  1  0.07902061  0.06473367  0.65654488  1
  Ca  Ca10  1  0.97347636  0.95331399  0.55177435  1
  Ca  Ca11  1  0.43227700  0.40486151  0.85739862  1
  Ca  Ca12  1  0.95331399  0.55177435  0.97347636  1
  Ca  Ca13  1  0.85739862  0.43227700  0.40486151  1
  Ca  Ca14  1  0.57902061  0.15654488  0.56473367  1
  Ca  Ca15  1  0.47347636  0.05177435  0.45331399  1
  Ca  Ca16  1  0.65654488  0.07902061  0.06473367  1
  Ca  Ca17  1  0.93227700  0.35739862  0.90486151  1
  Mn  Mn18  1  0.00155657  0.00155657  0.00155657  1
  Mn  Mn19  1  0.50155657  0.50155657  0.50155657  1
  P  P20  1  0.27423349  0.82289609  0.31190799  1
  P  P21  1  0.18494325  0.68674146  0.22385519  1
  P  P22  1  0.18674146  0.68494325  0.72385519  1
  P  P23  1  0.32289609  0.77423349  0.81190799  1
  P  P24  1  0.68494325  0.72385519  0.18674146  1
  P  P25  1  0.77423349  0.81190799  0.32289609  1
  P  P26  1  0.26774270  0.26774270  0.26774270  1
  P  P27  1  0.76774270  0.76774270  0.76774270  1
  P  P28  1  0.31190799  0.27423349  0.82289609  1
  P  P29  1  0.22385519  0.18494325  0.68674146  1
  P  P30  1  0.68674146  0.22385519  0.18494325  1
  P  P31  1  0.81190799  0.32289609  0.77423349  1
  P  P32  1  0.82289609  0.31190799  0.27423349  1
  P  P33  1  0.72385519  0.18674146  0.68494325  1
  O  O34  1  0.11694350  0.86564625  0.13308689  1
  O  O35  1  0.13034995  0.85429337  0.67064710  1
  O  O36  1  0.11267305  0.83561468  0.39090311  1
  O  O37  1  0.14282313  0.87349462  0.88253980  1
  O  O38  1  0.25954471  0.90628177  0.35765481  1
  O  O39  1  0.11380672  0.67288990  0.68891586  1
  O  O40  1  0.08872598  0.64953411  0.39612452  1
  O  O41  1  0.35317873  0.87188944  0.13847177  1
  O  O42  1  0.37188944  0.85317873  0.63847177  1
  O  O43  1  0.14953411  0.58872598  0.89612452  1
  O  O44  1  0.17288990  0.61380672  0.18891586  1
  O  O45  1  0.40628177  0.75954471  0.85765481  1
  O  O46  1  0.61267305  0.89090311  0.33561468  1
  O  O47  1  0.58872598  0.89612452  0.14953411  1
  O  O48  1  0.37349462  0.64282313  0.38253980  1
  O  O49  1  0.11113645  0.39525001  0.25836961  1
  O  O50  1  0.33561468  0.61267305  0.89090311  1
  O  O51  1  0.35429337  0.63034995  0.17064710  1
  O  O52  1  0.36564625  0.61694350  0.63308689  1
  O  O53  1  0.13847177  0.35317873  0.87188944  1
  O  O54  1  0.17064710  0.35429337  0.63034995  1
  O  O55  1  0.61113645  0.75836961  0.89525001  1
  O  O56  1  0.75836961  0.89525001  0.61113645  1
  O  O57  1  0.75954471  0.85765481  0.40628177  1
  O  O58  1  0.61694350  0.63308689  0.36564625  1
  O  O59  1  0.87349462  0.88253980  0.14282313  1
  O  O60  1  0.67288990  0.68891586  0.11380672  1
  O  O61  1  0.30906237  0.30906237  0.30906237  1
  O  O62  1  0.80906237  0.80906237  0.80906237  1
  O  O63  1  0.18891586  0.17288990  0.61380672  1
  O  O64  1  0.38253980  0.37349462  0.64282313  1
  O  O65  1  0.13308689  0.11694350  0.86564625  1
  O  O66  1  0.35765481  0.25954471  0.90628177  1
  O  O67  1  0.39525001  0.25836961  0.11113645  1
  O  O68  1  0.25836961  0.11113645  0.39525001  1
  O  O69  1  0.85429337  0.67064710  0.13034995  1
  O  O70  1  0.85317873  0.63847177  0.37188944  1
  O  O71  1  0.64953411  0.39612452  0.08872598  1
  O  O72  1  0.63847177  0.37188944  0.85317873  1
  O  O73  1  0.64282313  0.38253980  0.37349462  1
  O  O74  1  0.89525001  0.61113645  0.75836961  1
  O  O75  1  0.63308689  0.36564625  0.61694350  1
  O  O76  1  0.39612452  0.08872598  0.64953411  1
  O  O77  1  0.39090311  0.11267305  0.83561468  1
  O  O78  1  0.61380672  0.18891586  0.17288990  1
  O  O79  1  0.85765481  0.40628177  0.75954471  1
  O  O80  1  0.63034995  0.17064710  0.35429337  1
  O  O81  1  0.83561468  0.39090311  0.11267305  1
  O  O82  1  0.89090311  0.33561468  0.61267305  1
  O  O83  1  0.67064710  0.13034995  0.85429337  1
  O  O84  1  0.90628177  0.35765481  0.25954471  1
  O  O85  1  0.68891586  0.11380672  0.67288990  1
  O  O86  1  0.86564625  0.13308689  0.11694350  1
  O  O87  1  0.88253980  0.14282313  0.87349462  1
  O  O88  1  0.87188944  0.13847177  0.35317873  1
  O  O89  1  0.89612452  0.14953411  0.58872598  1
