# generated using pymatgen
data_Cs2Li2TiO4
_symmetry_space_group_name_H-M   'P 1'
_cell_length_a   5.84815436
_cell_length_b   5.96663604
_cell_length_c   9.60528823
_cell_angle_alpha   83.85424136
_cell_angle_beta   74.52297630
_cell_angle_gamma   86.18980228
_symmetry_Int_Tables_number   1
_chemical_formula_structural   Cs2Li2TiO4
_chemical_formula_sum   'Cs4 Li4 Ti2 O8'
_cell_volume   320.90366679
_cell_formula_units_Z   2
loop_
 _symmetry_equiv_pos_site_id
 _symmetry_equiv_pos_as_xyz
  1  'x, y, z'
loop_
 _atom_site_type_symbol
 _atom_site_label
 _atom_site_symmetry_multiplicity
 _atom_site_fract_x
 _atom_site_fract_y
 _atom_site_fract_z
 _atom_site_occupancy
  Li  Li0  1  0.92807770  0.18273100  0.44208075  1
  Li  Li1  1  0.07192230  0.81726900  0.55791925  1
  Li  Li2  1  0.69258815  0.58546009  0.42393790  1
  Li  Li3  1  0.30741185  0.41453991  0.57606210  1
  O  O4  1  0.02219629  0.57301436  0.70991473  1
  O  O5  1  0.97780371  0.42698564  0.29008527  1
  O  O6  1  0.89995645  0.86310091  0.40260936  1
  O  O7  1  0.10004355  0.13689909  0.59739064  1
  O  O8  1  0.25909403  0.79704628  0.10640225  1
  O  O9  1  0.74090597  0.20295372  0.89359775  1
  O  O10  1  0.36494048  0.63836152  0.39765159  1
  O  O11  1  0.63505952  0.36163848  0.60234841  1
  Ti  Ti12  1  0.13745720  0.68159320  0.29139201  1
  Ti  Ti13  1  0.86254280  0.31840680  0.70860799  1
  Cs  Cs14  1  0.47150287  0.85585406  0.71307054  1
  Cs  Cs15  1  0.52849713  0.14414594  0.28692946  1
  Cs  Cs16  1  0.78261987  0.72909696  0.01088003  1
  Cs  Cs17  1  0.21738013  0.27090304  0.98911997  1
