# generated using pymatgen
data_Ti(FeO2)2
_symmetry_space_group_name_H-M   'P 1'
_cell_length_a   6.11524579
_cell_length_b   6.11524548
_cell_length_c   10.46076088
_cell_angle_alpha   74.55448539
_cell_angle_beta   74.55448607
_cell_angle_gamma   60.81059354
_symmetry_Int_Tables_number   1
_chemical_formula_structural   Ti(FeO2)2
_chemical_formula_sum   'Ti4 Fe8 O16'
_cell_volume   324.82638239
_cell_formula_units_Z   4
loop_
 _symmetry_equiv_pos_site_id
 _symmetry_equiv_pos_as_xyz
  1  'x, y, z'
loop_
 _atom_site_type_symbol
 _atom_site_label
 _atom_site_symmetry_multiplicity
 _atom_site_fract_x
 _atom_site_fract_y
 _atom_site_fract_z
 _atom_site_occupancy
  Ti  Ti0  1  0.01059615  0.98940385  0.50000000  1
  Ti  Ti1  1  0.48940385  0.51059615  1.00000000  1
  Ti  Ti2  1  0.75000000  0.25000000  0.25000000  1
  Ti  Ti3  1  0.75000000  0.25000000  0.75000000  1
  Fe  Fe4  1  0.25000000  0.25000000  0.25000000  1
  Fe  Fe5  1  0.18385673  0.18492246  0.94120212  1
  Fe  Fe6  1  0.31614327  0.31507754  0.55879788  1
  Fe  Fe7  1  0.25000000  0.75000000  0.25000000  1
  Fe  Fe8  1  0.25000000  0.75000000  0.75000000  1
  Fe  Fe9  1  0.68492246  0.68385673  0.44120212  1
  Fe  Fe10  1  0.81507754  0.81614327  0.05879788  1
  Fe  Fe11  1  0.75000000  0.75000000  0.75000000  1
  O  O12  1  0.09651716  0.12019234  0.14573336  1
  O  O13  1  0.08608520  0.13542128  0.62605929  1
  O  O14  1  0.16806023  0.59739862  0.11134978  1
  O  O15  1  0.09739862  0.66806023  0.61134978  1
  O  O16  1  0.40348284  0.37980766  0.35426664  1
  O  O17  1  0.62608104  0.15625706  0.12561531  1
  O  O18  1  0.33193977  0.90260138  0.38865022  1
  O  O19  1  0.63542128  0.58608520  0.12605929  1
  O  O20  1  0.41391480  0.36457872  0.87394071  1
  O  O21  1  0.65625706  0.12608104  0.62561431  1
  O  O22  1  0.62019234  0.59651716  0.64573336  1
  O  O23  1  0.40260138  0.83193977  0.88865022  1
  O  O24  1  0.87391896  0.34374294  0.37438569  1
  O  O25  1  0.84374294  0.37391896  0.87438569  1
  O  O26  1  0.86457872  0.91391480  0.37394071  1
  O  O27  1  0.87980766  0.90348284  0.85426664  1
