# generated using pymatgen
data_K2ScPCO7
_symmetry_space_group_name_H-M   'P 1'
_cell_length_a   9.78340347
_cell_length_b   6.91103746
_cell_length_c   5.72284425
_cell_angle_alpha   90.00000000
_cell_angle_beta   90.98431941
_cell_angle_gamma   90.00000000
_symmetry_Int_Tables_number   1
_chemical_formula_structural   K2ScPCO7
_chemical_formula_sum   'K4 Sc2 P2 C2 O14'
_cell_volume   386.88424601
_cell_formula_units_Z   2
loop_
 _symmetry_equiv_pos_site_id
 _symmetry_equiv_pos_as_xyz
  1  'x, y, z'
loop_
 _atom_site_type_symbol
 _atom_site_label
 _atom_site_symmetry_multiplicity
 _atom_site_fract_x
 _atom_site_fract_y
 _atom_site_fract_z
 _atom_site_occupancy
  K  K0  1  0.23380699  0.48326916  0.24727041  1
  K  K1  1  0.23380699  0.01673084  0.24727041  1
  K  K2  1  0.76619301  0.51673084  0.75272959  1
  K  K3  1  0.76619301  0.98326916  0.75272959  1
  Sc  Sc4  1  0.36092900  0.75000000  0.77578408  1
  Sc  Sc5  1  0.63907100  0.25000000  0.22421592  1
  P  P6  1  0.43315050  0.25000000  0.71779906  1
  P  P7  1  0.56684950  0.75000000  0.28220094  1
  C  C8  1  0.09689542  0.75000000  0.72967300  1
  C  C9  1  0.90310458  0.25000000  0.27032700  1
  O  O10  1  0.03017689  0.25000000  0.29703717  1
  O  O11  1  0.16049522  0.75000000  0.93510768  1
  O  O12  1  0.18299799  0.75000000  0.55236406  1
  O  O13  1  0.34881467  0.06422818  0.76246735  1
  O  O14  1  0.34881467  0.43577182  0.76246735  1
  O  O15  1  0.43731241  0.75000000  0.11806466  1
  O  O16  1  0.47958006  0.25000000  0.45658956  1
  O  O17  1  0.52041994  0.75000000  0.54341044  1
  O  O18  1  0.56268759  0.25000000  0.88193534  1
  O  O19  1  0.65118533  0.56422818  0.23753265  1
  O  O20  1  0.65118533  0.93577182  0.23753265  1
  O  O21  1  0.81700201  0.25000000  0.44763594  1
  O  O22  1  0.83950478  0.25000000  0.06489232  1
  O  O23  1  0.96982311  0.75000000  0.70296283  1
