# generated using pymatgen
data_La(ClO4)3
_symmetry_space_group_name_H-M   'P 1'
_cell_length_a   8.56709754
_cell_length_b   9.86048335
_cell_length_c   8.56709792
_cell_angle_alpha   115.74811831
_cell_angle_beta   60.00000148
_cell_angle_gamma   115.74811975
_symmetry_Int_Tables_number   1
_chemical_formula_structural   La(ClO4)3
_chemical_formula_sum   'La2 Cl6 O24'
_cell_volume   542.19636310
_cell_formula_units_Z   2
loop_
 _symmetry_equiv_pos_site_id
 _symmetry_equiv_pos_as_xyz
  1  'x, y, z'
loop_
 _atom_site_type_symbol
 _atom_site_label
 _atom_site_symmetry_multiplicity
 _atom_site_fract_x
 _atom_site_fract_y
 _atom_site_fract_z
 _atom_site_occupancy
  La  La0  1  0.05881808  0.17645323  0.05881808  1
  La  La1  1  0.55881808  0.67645323  0.55881808  1
  Cl  Cl2  1  0.46811814  0.50100137  0.18688932  1
  Cl  Cl3  1  0.18688932  0.50100137  0.84599391  1
  Cl  Cl4  1  0.34599391  0.00100137  0.68688932  1
  Cl  Cl5  1  0.84599391  0.50100137  0.46811814  1
  Cl  Cl6  1  0.96811814  0.00100137  0.34599391  1
  Cl  Cl7  1  0.68688932  0.00100137  0.96811814  1
  O  O8  1  0.07549709  0.96055123  0.14019868  1
  O  O9  1  0.14019868  0.96055123  0.74485445  1
  O  O10  1  0.29022434  0.37571360  0.20110493  1
  O  O11  1  0.00324719  0.52017481  0.94652201  1
  O  O12  1  0.42198175  0.64625193  0.33060863  1
  O  O13  1  0.07040461  0.02017481  0.44652201  1
  O  O14  1  0.38438432  0.87571360  0.70110493  1
  O  O15  1  0.74485445  0.96055123  0.07549709  1
  O  O16  1  0.57040461  0.52017481  0.00324719  1
  O  O17  1  0.24485445  0.46055123  0.64019868  1
  O  O18  1  0.20110493  0.37571360  0.88438432  1
  O  O19  1  0.33060863  0.64625193  0.89366055  1
  O  O20  1  0.57549709  0.46055123  0.24485445  1
  O  O21  1  0.50324719  0.02017481  0.07040461  1
  O  O22  1  0.79022434  0.87571360  0.38438432  1
  O  O23  1  0.70110493  0.87571360  0.79022434  1
  O  O24  1  0.44652201  0.02017481  0.50324719  1
  O  O25  1  0.64019868  0.46055123  0.57549709  1
  O  O26  1  0.39366055  0.14625193  0.83060863  1
  O  O27  1  0.89366055  0.64625193  0.42198175  1
  O  O28  1  0.88438432  0.37571360  0.29022434  1
  O  O29  1  0.94652201  0.52017481  0.57040461  1
  O  O30  1  0.92198175  0.14625193  0.39366055  1
  O  O31  1  0.83060863  0.14625193  0.92198175  1
