# generated using pymatgen
data_Li4MnCo2O7
_symmetry_space_group_name_H-M   'P 1'
_cell_length_a   2.88651746
_cell_length_b   17.42599100
_cell_length_c   5.19069514
_cell_angle_alpha   103.30051516
_cell_angle_beta   90.00000000
_cell_angle_gamma   85.24919613
_symmetry_Int_Tables_number   1
_chemical_formula_structural   Li4MnCo2O7
_chemical_formula_sum   'Li8 Mn2 Co4 O14'
_cell_volume   253.16895926
_cell_formula_units_Z   2
loop_
 _symmetry_equiv_pos_site_id
 _symmetry_equiv_pos_as_xyz
  1  'x, y, z'
loop_
 _atom_site_type_symbol
 _atom_site_label
 _atom_site_symmetry_multiplicity
 _atom_site_fract_x
 _atom_site_fract_y
 _atom_site_fract_z
 _atom_site_occupancy
  Li  Li0  1  0.50271539  0.99456921  0.49844645  1
  Li  Li1  1  0.92882992  0.14233915  0.77694607  1
  Li  Li2  1  0.35879171  0.28241658  0.07113653  1
  Li  Li3  1  0.78806999  0.42385903  0.35634407  1
  Li  Li4  1  0.21173686  0.57652729  0.63782657  1
  Li  Li5  1  0.07358736  0.85282627  0.20463809  1
  Li  Li6  1  0.63884966  0.72230069  0.95416201  1
  Li  Li7  1  0.56978146  0.86043808  0.71181195  1
  Mn  Mn8  1  0.00170732  0.99658536  0.98575771  1
  Mn  Mn9  1  0.71403955  0.57192190  0.14760230  1
  Co  Co10  1  0.42858238  0.14283425  0.28410558  1
  Co  Co11  1  0.85731464  0.28537072  0.56413684  1
  Co  Co12  1  0.28683742  0.42632416  0.85512899  1
  Co  Co13  1  0.13635183  0.72729633  0.47394678  1
  O  O14  1  0.53105019  0.93790061  0.09915127  1
  O  O15  1  0.96320764  0.07358473  0.35846373  1
  O  O16  1  0.39248724  0.21502453  0.66085717  1
  O  O17  1  0.81878664  0.36242672  0.94366765  1
  O  O18  1  0.24590976  0.50817948  0.24929573  1
  O  O19  1  0.11064297  0.77871406  0.81139417  1
  O  O20  1  0.67968798  0.64062504  0.49034507  1
  O  O21  1  0.46671089  0.06657721  0.90751771  1
  O  O22  1  0.89399136  0.21201729  0.18899187  1
  O  O23  1  0.32176809  0.35646283  0.46970519  1
  O  O24  1  0.75243636  0.49512829  0.79073592  1
  O  O25  1  0.18500640  0.62998719  0.03292344  1
  O  O26  1  0.03158501  0.93682997  0.64609516  1
  O  O27  1  0.60953398  0.78093303  0.32886600  1
