# generated using pymatgen
data_Na5CoHO4
_symmetry_space_group_name_H-M   'P 1'
_cell_length_a   9.98407959
_cell_length_b   10.12983199
_cell_length_c   11.91627838
_cell_angle_alpha   90.00000000
_cell_angle_beta   90.00000000
_cell_angle_gamma   90.00000000
_symmetry_Int_Tables_number   1
_chemical_formula_structural   Na5CoHO4
_chemical_formula_sum   'Na40 Co8 H8 O32'
_cell_volume   1205.17722829
_cell_formula_units_Z   8
loop_
 _symmetry_equiv_pos_site_id
 _symmetry_equiv_pos_as_xyz
  1  'x, y, z'
loop_
 _atom_site_type_symbol
 _atom_site_label
 _atom_site_symmetry_multiplicity
 _atom_site_fract_x
 _atom_site_fract_y
 _atom_site_fract_z
 _atom_site_occupancy
  Na  Na0  1  0.98649105  0.58889494  0.21240204  1
  Na  Na1  1  0.48649105  0.91110506  0.28759796  1
  Na  Na2  1  0.01350895  0.08889494  0.78759796  1
  Na  Na3  1  0.51350895  0.41110506  0.71240204  1
  Na  Na4  1  0.01350895  0.41110506  0.78759796  1
  Na  Na5  1  0.51350895  0.08889494  0.71240204  1
  Na  Na6  1  0.98649105  0.91110506  0.21240204  1
  Na  Na7  1  0.48649105  0.58889494  0.28759796  1
  Na  Na8  1  0.07324726  0.43510412  0.41174243  1
  Na  Na9  1  0.57324726  0.06489588  0.08825757  1
  Na  Na10  1  0.92675274  0.93510412  0.58825757  1
  Na  Na11  1  0.42675274  0.56489588  0.91174243  1
  Na  Na12  1  0.92675274  0.56489588  0.58825757  1
  Na  Na13  1  0.42675274  0.93510412  0.91174243  1
  Na  Na14  1  0.07324726  0.06489588  0.41174243  1
  Na  Na15  1  0.57324726  0.43510412  0.08825757  1
  Na  Na16  1  0.07901660  0.75000000  0.44191224  1
  Na  Na17  1  0.57901660  0.75000000  0.05808776  1
  Na  Na18  1  0.92098340  0.25000000  0.55808776  1
  Na  Na19  1  0.42098340  0.25000000  0.94191224  1
  Na  Na20  1  0.63109477  0.56503518  0.51105335  1
  Na  Na21  1  0.13109477  0.93496482  0.98894665  1
  Na  Na22  1  0.36890523  0.06503518  0.48894665  1
  Na  Na23  1  0.86890523  0.43496482  0.01105335  1
  Na  Na24  1  0.36890523  0.43496482  0.48894665  1
  Na  Na25  1  0.86890523  0.06503518  0.01105335  1
  Na  Na26  1  0.63109477  0.93496482  0.51105335  1
  Na  Na27  1  0.13109477  0.56503518  0.98894665  1
  Na  Na28  1  0.78061201  0.41938581  0.32326311  1
  Na  Na29  1  0.28061201  0.08061419  0.17673689  1
  Na  Na30  1  0.21938799  0.91938581  0.67673689  1
  Na  Na31  1  0.71938799  0.58061419  0.82326311  1
  Na  Na32  1  0.21938799  0.58061419  0.67673689  1
  Na  Na33  1  0.71938799  0.91938581  0.82326311  1
  Na  Na34  1  0.78061201  0.08061419  0.32326311  1
  Na  Na35  1  0.28061201  0.41938581  0.17673689  1
  Na  Na36  1  0.11652997  0.25000000  0.98195642  1
  Na  Na37  1  0.61652997  0.25000000  0.51804358  1
  Na  Na38  1  0.88347003  0.75000000  0.01804358  1
  Na  Na39  1  0.38347003  0.75000000  0.48195642  1
  Co  Co40  1  0.01187898  0.25000000  0.21055002  1
  Co  Co41  1  0.51187898  0.25000000  0.28944998  1
  Co  Co42  1  0.98812102  0.75000000  0.78944998  1
  Co  Co43  1  0.48812102  0.75000000  0.71055002  1
  Co  Co44  1  0.78910147  0.75000000  0.38222528  1
  Co  Co45  1  0.28910147  0.75000000  0.11777472  1
  Co  Co46  1  0.21089853  0.25000000  0.61777472  1
  Co  Co47  1  0.71089853  0.25000000  0.88222528  1
  H  H48  1  0.75703408  0.36782667  0.69694864  1
  H  H49  1  0.25703408  0.13217333  0.80305136  1
  H  H50  1  0.24296592  0.86782667  0.30305136  1
  H  H51  1  0.74296592  0.63217333  0.19694864  1
  H  H52  1  0.24296592  0.63217333  0.30305136  1
  H  H53  1  0.74296592  0.86782667  0.19694864  1
  H  H54  1  0.75703408  0.13217333  0.69694864  1
  H  H55  1  0.25703408  0.36782667  0.80305136  1
  O  O56  1  0.89998421  0.59856128  0.39517235  1
  O  O57  1  0.39998421  0.90143872  0.10482765  1
  O  O58  1  0.10001579  0.09856128  0.60482765  1
  O  O59  1  0.60001579  0.40143872  0.89517235  1
  O  O60  1  0.10001579  0.40143872  0.60482765  1
  O  O61  1  0.60001579  0.09856128  0.89517235  1
  O  O62  1  0.89998421  0.90143872  0.39517235  1
  O  O63  1  0.39998421  0.59856128  0.10482765  1
  O  O64  1  0.05985197  0.09945915  0.12452614  1
  O  O65  1  0.55985197  0.40054085  0.37547386  1
  O  O66  1  0.94014803  0.59945915  0.87547386  1
  O  O67  1  0.44014803  0.90054085  0.62452614  1
  O  O68  1  0.94014803  0.90054085  0.87547386  1
  O  O69  1  0.44014803  0.59945915  0.62452614  1
  O  O70  1  0.05985197  0.40054085  0.12452614  1
  O  O71  1  0.55985197  0.09945915  0.37547386  1
  O  O72  1  0.60625037  0.75000000  0.38108588  1
  O  O73  1  0.10625037  0.75000000  0.11891412  1
  O  O74  1  0.39374963  0.25000000  0.61891412  1
  O  O75  1  0.89374963  0.25000000  0.88108588  1
  O  O76  1  0.94045516  0.25000000  0.35209523  1
  O  O77  1  0.44045516  0.25000000  0.14790477  1
  O  O78  1  0.05954484  0.75000000  0.64790477  1
  O  O79  1  0.55954484  0.75000000  0.85209523  1
  O  O80  1  0.74709369  0.41735532  0.62702602  1
  O  O81  1  0.24709369  0.08264468  0.87297398  1
  O  O82  1  0.25290631  0.91735532  0.37297398  1
  O  O83  1  0.75290631  0.58264468  0.12702602  1
  O  O84  1  0.25290631  0.58264468  0.37297398  1
  O  O85  1  0.75290631  0.91735532  0.12702602  1
  O  O86  1  0.74709369  0.08264468  0.62702602  1
  O  O87  1  0.24709369  0.41735532  0.87297398  1
