# generated using pymatgen
data_Nb2CdO6
_symmetry_space_group_name_H-M   'P 1'
_cell_length_a   15.04687975
_cell_length_b   5.96191064
_cell_length_c   5.23063130
_cell_angle_alpha   90.00000000
_cell_angle_beta   90.00000000
_cell_angle_gamma   90.00000000
_symmetry_Int_Tables_number   1
_chemical_formula_structural   Nb2CdO6
_chemical_formula_sum   'Nb8 Cd4 O24'
_cell_volume   469.23027023
_cell_formula_units_Z   4
loop_
 _symmetry_equiv_pos_site_id
 _symmetry_equiv_pos_as_xyz
  1  'x, y, z'
loop_
 _atom_site_type_symbol
 _atom_site_label
 _atom_site_symmetry_multiplicity
 _atom_site_fract_x
 _atom_site_fract_y
 _atom_site_fract_z
 _atom_site_occupancy
  Nb  Nb0  1  0.16511878  0.31846975  0.29067972  1
  Nb  Nb1  1  0.16511878  0.68153025  0.79067972  1
  Nb  Nb2  1  0.33488122  0.18153025  0.79067972  1
  Nb  Nb3  1  0.33488122  0.81846975  0.29067972  1
  Nb  Nb4  1  0.66511878  0.18153025  0.70932028  1
  Nb  Nb5  1  0.66511878  0.81846975  0.20932028  1
  Nb  Nb6  1  0.83488122  0.31846975  0.20932028  1
  Nb  Nb7  1  0.83488122  0.68153025  0.70932028  1
  Cd  Cd8  1  0.00000000  0.20176538  0.75000000  1
  Cd  Cd9  1  0.00000000  0.79823462  0.25000000  1
  Cd  Cd10  1  0.50000000  0.29823462  0.25000000  1
  Cd  Cd11  1  0.50000000  0.70176538  0.75000000  1
  O  O12  1  0.08698026  0.10929455  0.41112926  1
  O  O13  1  0.08698026  0.89070545  0.91112926  1
  O  O14  1  0.10150246  0.41283937  0.98263156  1
  O  O15  1  0.10150246  0.58716063  0.48263156  1
  O  O16  1  0.24296291  0.36359572  0.62058082  1
  O  O17  1  0.24296291  0.63640428  0.12058082  1
  O  O18  1  0.25703709  0.13640428  0.12058082  1
  O  O19  1  0.25703709  0.86359572  0.62058082  1
  O  O20  1  0.39849754  0.08716063  0.48263156  1
  O  O21  1  0.39849754  0.91283937  0.98263156  1
  O  O22  1  0.41301974  0.39070545  0.91112926  1
  O  O23  1  0.41301974  0.60929455  0.41112926  1
  O  O24  1  0.58698026  0.39070545  0.58887074  1
  O  O25  1  0.58698026  0.60929455  0.08887074  1
  O  O26  1  0.60150246  0.08716063  0.01736844  1
  O  O27  1  0.60150246  0.91283937  0.51736844  1
  O  O28  1  0.74296291  0.13640428  0.37941918  1
  O  O29  1  0.74296291  0.86359572  0.87941918  1
  O  O30  1  0.75703709  0.36359572  0.87941918  1
  O  O31  1  0.75703709  0.63640428  0.37941918  1
  O  O32  1  0.89849754  0.41283937  0.51736844  1
  O  O33  1  0.89849754  0.58716063  0.01736844  1
  O  O34  1  0.91301974  0.10929455  0.08887074  1
  O  O35  1  0.91301974  0.89070545  0.58887074  1
