# generated using pymatgen
data_Li2VP2HO8
_symmetry_space_group_name_H-M   'P 1'
_cell_length_a   4.86160925
_cell_length_b   8.17014293
_cell_length_c   7.62529154
_cell_angle_alpha   90.00000000
_cell_angle_beta   104.11155311
_cell_angle_gamma   90.00000000
_symmetry_Int_Tables_number   1
_chemical_formula_structural   Li2VP2HO8
_chemical_formula_sum   'Li4 V2 P4 H2 O16'
_cell_volume   293.73694887
_cell_formula_units_Z   2
loop_
 _symmetry_equiv_pos_site_id
 _symmetry_equiv_pos_as_xyz
  1  'x, y, z'
loop_
 _atom_site_type_symbol
 _atom_site_label
 _atom_site_symmetry_multiplicity
 _atom_site_fract_x
 _atom_site_fract_y
 _atom_site_fract_z
 _atom_site_occupancy
  Li  Li0  1  0.11573041  0.36619184  0.65531596  1
  Li  Li1  1  0.38426959  0.86619184  0.84468404  1
  Li  Li2  1  0.60433345  0.13575073  0.16004228  1
  Li  Li3  1  0.89566655  0.63575073  0.33995772  1
  V  V4  1  0.50012547  0.49940921  0.00413938  1
  V  V5  1  0.99987453  0.99940921  0.49586062  1
  P  P6  1  0.13217355  0.34823042  0.26845527  1
  P  P7  1  0.36782645  0.84823042  0.23154473  1
  P  P8  1  0.62955178  0.15516841  0.76140331  1
  P  P9  1  0.87044822  0.65516841  0.73859669  1
  H  H10  1  0.53756058  0.51213977  0.51365313  1
  H  H11  1  0.96243942  0.01213977  0.98634687  1
  O  O12  1  0.11558503  0.54370366  0.83937000  1
  O  O13  1  0.01315845  0.18113904  0.30842583  1
  O  O14  1  0.15055747  0.82607682  0.34932756  1
  O  O15  1  0.25976643  0.43988311  0.44742882  1
  O  O16  1  0.38441497  0.04370366  0.66063000  1
  O  O17  1  0.51563849  0.31900129  0.81065555  1
  O  O18  1  0.24023357  0.93988311  0.05257118  1
  O  O19  1  0.34944253  0.32607682  0.15067244  1
  O  O20  1  0.64549218  0.67475270  0.84805356  1
  O  O21  1  0.75463334  0.06133837  0.94672803  1
  O  O22  1  0.48684155  0.68113904  0.19157417  1
  O  O23  1  0.61614542  0.95711561  0.33942249  1
  O  O24  1  0.74536666  0.56133837  0.55327197  1
  O  O25  1  0.85450782  0.17475270  0.65194644  1
  O  O26  1  0.98436151  0.81900129  0.68934445  1
  O  O27  1  0.88385458  0.45711561  0.16057751  1
