# generated using pymatgen
data_PrBO3
_symmetry_space_group_name_H-M   'P 1'
_cell_length_a   5.83747190
_cell_length_b   5.09553317
_cell_length_c   8.22929168
_cell_angle_alpha   90.00000000
_cell_angle_beta   90.00000000
_cell_angle_gamma   90.00000000
_symmetry_Int_Tables_number   1
_chemical_formula_structural   PrBO3
_chemical_formula_sum   'Pr4 B4 O12'
_cell_volume   244.78054185
_cell_formula_units_Z   4
loop_
 _symmetry_equiv_pos_site_id
 _symmetry_equiv_pos_as_xyz
  1  'x, y, z'
loop_
 _atom_site_type_symbol
 _atom_site_label
 _atom_site_symmetry_multiplicity
 _atom_site_fract_x
 _atom_site_fract_y
 _atom_site_fract_z
 _atom_site_occupancy
  Pr  Pr0  1  0.24139888  0.25000000  0.58381996  1
  Pr  Pr1  1  0.25859912  0.75000000  0.08382096  1
  Pr  Pr2  1  0.74140088  0.25000000  0.91617904  1
  Pr  Pr3  1  0.75860112  0.75000000  0.41618004  1
  B  B4  1  0.08471191  0.25000000  0.23857254  1
  B  B5  1  0.41529009  0.75000000  0.73857254  1
  B  B6  1  0.58470991  0.25000000  0.26142846  1
  B  B7  1  0.91528809  0.75000000  0.76142846  1
  O  O8  1  0.08968625  0.01583089  0.32341751  1
  O  O9  1  0.41031375  0.98416911  0.82341651  1
  O  O10  1  0.58968625  0.48416911  0.17658349  1
  O  O11  1  0.91031375  0.51582889  0.67658249  1
  O  O12  1  0.91031375  0.98416911  0.67658249  1
  O  O13  1  0.58968625  0.01583089  0.17658349  1
  O  O14  1  0.41031375  0.51582889  0.82341651  1
  O  O15  1  0.08968625  0.48416911  0.32341751  1
  O  O16  1  0.09805450  0.25000000  0.07103678  1
  O  O17  1  0.40194350  0.75000000  0.57103578  1
  O  O18  1  0.59805550  0.25000000  0.42896322  1
  O  O19  1  0.90194550  0.75000000  0.92896422  1
