# generated using pymatgen
data_Cs2Li2GeO4
_symmetry_space_group_name_H-M   'P 1'
_cell_length_a   5.74454599
_cell_length_b   5.89747933
_cell_length_c   9.66355199
_cell_angle_alpha   84.47913805
_cell_angle_beta   76.58705401
_cell_angle_gamma   86.53908513
_symmetry_Int_Tables_number   1
_chemical_formula_structural   Cs2Li2GeO4
_chemical_formula_sum   'Cs4 Li4 Ge2 O8'
_cell_volume   316.73307394
_cell_formula_units_Z   2
loop_
 _symmetry_equiv_pos_site_id
 _symmetry_equiv_pos_as_xyz
  1  'x, y, z'
loop_
 _atom_site_type_symbol
 _atom_site_label
 _atom_site_symmetry_multiplicity
 _atom_site_fract_x
 _atom_site_fract_y
 _atom_site_fract_z
 _atom_site_occupancy
  Li  Li0  1  0.06680099  0.81321679  0.55967749  1
  Li  Li1  1  0.93319901  0.18678321  0.44032251  1
  Li  Li2  1  0.69412200  0.58719861  0.42036840  1
  Li  Li3  1  0.30587800  0.41280139  0.57963160  1
  O  O4  1  0.01811318  0.56967143  0.71131721  1
  O  O5  1  0.98188682  0.43032857  0.28868279  1
  O  O6  1  0.90345886  0.86233459  0.39861993  1
  O  O7  1  0.09654114  0.13766541  0.60138007  1
  O  O8  1  0.73479010  0.19905813  0.87828904  1
  O  O9  1  0.26520990  0.80094187  0.12171096  1
  O  O10  1  0.35343562  0.63977964  0.40662066  1
  O  O11  1  0.64656438  0.36022036  0.59337934  1
  Ge  Ge12  1  0.86292422  0.31727953  0.70472812  1
  Ge  Ge13  1  0.13707578  0.68272047  0.29527188  1
  Cs  Cs14  1  0.21432331  0.26630077  0.98776600  1
  Cs  Cs15  1  0.78567669  0.73369923  0.01223400  1
  Cs  Cs16  1  0.48531524  0.85514561  0.70787592  1
  Cs  Cs17  1  0.51468476  0.14485439  0.29212408  1
