# generated using pymatgen
data_Rb3LuO3
_symmetry_space_group_name_H-M   'P 1'
_cell_length_a   11.65734774
_cell_length_b   7.30910324
_cell_length_c   7.91829418
_cell_angle_alpha   90.00000000
_cell_angle_beta   94.42624056
_cell_angle_gamma   90.00000000
_symmetry_Int_Tables_number   1
_chemical_formula_structural   Rb3LuO3
_chemical_formula_sum   'Rb12 Lu4 O12'
_cell_volume   672.66412660
_cell_formula_units_Z   4
loop_
 _symmetry_equiv_pos_site_id
 _symmetry_equiv_pos_as_xyz
  1  'x, y, z'
loop_
 _atom_site_type_symbol
 _atom_site_label
 _atom_site_symmetry_multiplicity
 _atom_site_fract_x
 _atom_site_fract_y
 _atom_site_fract_z
 _atom_site_occupancy
  Rb  Rb0  1  0.07801100  0.32816926  0.64126137  1
  Rb  Rb1  1  0.15476517  0.62195629  0.06379449  1
  Rb  Rb2  1  0.19243056  0.80448791  0.62615543  1
  Rb  Rb3  1  0.30756944  0.30448791  0.37384457  1
  Rb  Rb4  1  0.34523483  0.12195629  0.93620551  1
  Rb  Rb5  1  0.42198900  0.82816926  0.35873863  1
  Rb  Rb6  1  0.57801100  0.17183074  0.64126137  1
  Rb  Rb7  1  0.65476517  0.87804371  0.06379449  1
  Rb  Rb8  1  0.69243056  0.69551209  0.62615543  1
  Rb  Rb9  1  0.80756944  0.19551209  0.37384457  1
  Rb  Rb10  1  0.84523483  0.37804371  0.93620551  1
  Rb  Rb11  1  0.92198900  0.67183074  0.35873863  1
  Lu  Lu12  1  0.06609089  0.08724126  0.15950178  1
  Lu  Lu13  1  0.43390911  0.58724126  0.84049822  1
  Lu  Lu14  1  0.56609089  0.41275874  0.15950178  1
  Lu  Lu15  1  0.93390911  0.91275874  0.84049822  1
  O  O16  1  0.04156271  0.34910505  0.25135848  1
  O  O17  1  0.09461283  0.04832761  0.89656584  1
  O  O18  1  0.18681187  0.94172414  0.30664854  1
  O  O19  1  0.31318813  0.44172414  0.69335146  1
  O  O20  1  0.40538717  0.54832761  0.10343416  1
  O  O21  1  0.45843729  0.84910505  0.74864152  1
  O  O22  1  0.54156271  0.15089495  0.25135848  1
  O  O23  1  0.59461283  0.45167239  0.89656584  1
  O  O24  1  0.68681187  0.55827586  0.30664854  1
  O  O25  1  0.81318813  0.05827586  0.69335146  1
  O  O26  1  0.90538717  0.95167239  0.10343416  1
  O  O27  1  0.95843729  0.65089495  0.74864152  1
