# generated using pymatgen
data_Ba13Bi11O36
_symmetry_space_group_name_H-M   'P 1'
_cell_length_a   10.91090922
_cell_length_b   10.91033528
_cell_length_c   10.76159263
_cell_angle_alpha   99.73637598
_cell_angle_beta   109.76509175
_cell_angle_gamma   60.01061459
_symmetry_Int_Tables_number   1
_chemical_formula_structural   Ba13Bi11O36
_chemical_formula_sum   'Ba13 Bi11 O36'
_cell_volume   1044.19695258
_cell_formula_units_Z   1
loop_
 _symmetry_equiv_pos_site_id
 _symmetry_equiv_pos_as_xyz
  1  'x, y, z'
loop_
 _atom_site_type_symbol
 _atom_site_label
 _atom_site_symmetry_multiplicity
 _atom_site_fract_x
 _atom_site_fract_y
 _atom_site_fract_z
 _atom_site_occupancy
  Ba  Ba0  1  0.91666700  0.66666700  0.75000000  1
  Ba  Ba1  1  0.96314322  0.32786504  0.87163544  1
  Ba  Ba2  1  0.87018978  0.00546896  0.62836456  1
  Ba  Ba3  1  0.54343409  0.66169813  0.62735856  1
  Ba  Ba4  1  0.78880013  0.66707187  0.36856372  1
  Ba  Ba5  1  0.61892038  0.00039853  0.87144889  1
  Ba  Ba6  1  0.28989891  0.67163487  0.87264144  1
  Ba  Ba7  1  0.70929086  0.33303970  0.12757698  1
  Ba  Ba8  1  0.21441262  0.33293447  0.62855111  1
  Ba  Ba9  1  0.45903547  0.33259925  0.37525377  1
  Ba  Ba10  1  0.04453387  0.66626213  0.13143628  1
  Ba  Ba11  1  0.37429753  0.00073475  0.12474623  1
  Ba  Ba12  1  0.12404214  0.00029330  0.37242302  1
  Bi  Bi13  1  0.83505283  0.32793240  0.49733302  1
  Bi  Bi14  1  0.58435119  0.33326771  0.75273010  1
  Bi  Bi15  1  0.66433675  0.66429372  0.00238389  1
  Bi  Bi16  1  0.75236692  0.99746873  0.24988001  1
  Bi  Bi17  1  0.41666700  0.66666700  0.25000000  1
  Bi  Bi18  1  0.16899725  0.66903928  0.49761611  1
  Bi  Bi19  1  0.49332077  0.00311548  0.49667230  1
  Bi  Bi20  1  0.24898181  0.00006629  0.74726990  1
  Bi  Bi21  1  0.34001223  0.33021752  0.00332770  1
  Bi  Bi22  1  0.08096608  0.33586427  0.25011999  1
  Bi  Bi23  1  0.99828017  0.00540060  0.00266698  1
  O  O24  1  0.90928652  0.88111850  0.88276274  1
  O  O25  1  0.79917167  0.61486462  0.88417801  1
  O  O26  1  0.99041731  0.84270756  0.36503006  1
  O  O27  1  0.48143174  0.84564179  0.87889485  1
  O  O28  1  0.81805080  0.19112886  0.88135434  1
  O  O29  1  0.92404748  0.45221550  0.61723726  1
  O  O30  1  0.57836560  0.52450811  0.88289772  1
  O  O31  1  0.65814391  0.82977011  0.61650079  1
  O  O32  1  0.96948302  0.28778573  0.36919153  1
  O  O33  1  0.63804514  0.96242396  0.37709195  1
  O  O34  1  0.48446454  0.28488698  0.88151966  1
  O  O35  1  0.13819954  0.96585591  0.87790548  1
  O  O36  1  0.69513446  0.36747709  0.62209452  1
  O  O37  1  0.65206731  0.51408415  0.37927274  1
  O  O38  1  0.17518909  0.50356389  0.88349921  1
  O  O39  1  0.74719820  0.80542601  0.12517699  1
  O  O40  1  0.57418789  0.14535273  0.62196388  1
  O  O41  1  0.25496740  0.80882489  0.61710228  1
  O  O42  1  0.75198234  0.18784894  0.37950255  1
  O  O43  1  0.41107494  0.86646621  0.36724018  1
  O  O44  1  0.25914511  0.18798027  0.87803612  1
  O  O45  1  0.84291569  0.49062544  0.13496994  1
  O  O46  1  0.35190126  0.48769221  0.62110515  1
  O  O47  1  0.30896408  0.62517279  0.37539967  1
  O  O48  1  0.86384998  0.04554727  0.13080847  1
  O  O49  1  0.52436892  0.70816121  0.12460033  1
  O  O50  1  0.03416133  0.71846938  0.61582199  1
  O  O51  1  0.34886846  0.04844702  0.61848034  1
  O  O52  1  0.31393554  0.18622334  0.37777156  1
  O  O53  1  0.42225806  0.46686679  0.13275982  1
  O  O54  1  0.08613580  0.52790699  0.37482301  1
  O  O55  1  0.18126669  0.81924885  0.12072726  1
  O  O56  1  0.51939746  0.14711066  0.12222844  1
  O  O57  1  0.01528220  0.14220414  0.61864566  1
  O  O58  1  0.19528886  0.37090904  0.12290805  1
  O  O59  1  0.08135166  0.14548506  0.12049745  1
