# generated using pymatgen
data_BaTm2F8
_symmetry_space_group_name_H-M   'P 1'
_cell_length_a   4.27151883
_cell_length_b   6.30158003
_cell_length_c   6.30158004
_cell_angle_alpha   112.93239706
_cell_angle_beta   94.94210955
_cell_angle_gamma   94.94210959
_symmetry_Int_Tables_number   1
_chemical_formula_structural   BaTm2F8
_chemical_formula_sum   'Ba1 Tm2 F8'
_cell_volume   154.30441449
_cell_formula_units_Z   1
loop_
 _symmetry_equiv_pos_site_id
 _symmetry_equiv_pos_as_xyz
  1  'x, y, z'
loop_
 _atom_site_type_symbol
 _atom_site_label
 _atom_site_symmetry_multiplicity
 _atom_site_fract_x
 _atom_site_fract_y
 _atom_site_fract_z
 _atom_site_occupancy
  F  F0  1  0.00000000  0.73655019  0.26344981  1
  F  F1  1  0.00000000  0.26344981  0.73655019  1
  F  F2  1  0.23001195  0.39504355  0.39504355  1
  F  F3  1  0.43959424  0.67070272  0.95464556  1
  F  F4  1  0.56040576  0.04535444  0.32929728  1
  F  F5  1  0.56040576  0.32929728  0.04535444  1
  F  F6  1  0.43959424  0.95464556  0.67070272  1
  F  F7  1  0.76998805  0.60495645  0.60495645  1
  Ba  Ba8  1  0.00000000  0.00000000  0.00000000  1
  Tm  Tm9  1  0.50000000  0.32447583  0.67552417  1
  Tm  Tm10  1  0.50000000  0.67552417  0.32447583  1
