# generated using pymatgen
data_Rb2NaZn2H5(C2O7)2
_symmetry_space_group_name_H-M   'P 1'
_cell_length_a   10.84879823
_cell_length_b   11.58102197
_cell_length_c   5.24723324
_cell_angle_alpha   90.00000000
_cell_angle_beta   91.99945111
_cell_angle_gamma   90.00000000
_symmetry_Int_Tables_number   1
_chemical_formula_structural   Rb2NaZn2H5(C2O7)2
_chemical_formula_sum   'Rb4 Na2 Zn4 H10 C8 O28'
_cell_volume   658.86189499
_cell_formula_units_Z   2
loop_
 _symmetry_equiv_pos_site_id
 _symmetry_equiv_pos_as_xyz
  1  'x, y, z'
loop_
 _atom_site_type_symbol
 _atom_site_label
 _atom_site_symmetry_multiplicity
 _atom_site_fract_x
 _atom_site_fract_y
 _atom_site_fract_z
 _atom_site_occupancy
  Rb  Rb0  1  0.07611219  0.16583443  0.03328355  1
  Rb  Rb1  1  0.42388781  0.66583443  0.46671645  1
  Rb  Rb2  1  0.57611219  0.33416557  0.53328355  1
  Rb  Rb3  1  0.92388781  0.83416557  0.96671645  1
  Na  Na4  1  0.00000000  0.50000000  0.00000000  1
  Na  Na5  1  0.50000000  0.00000000  0.50000000  1
  Zn  Zn6  1  0.20235717  0.39901885  0.53430216  1
  Zn  Zn7  1  0.29764283  0.89901885  0.96569784  1
  Zn  Zn8  1  0.70235717  0.10098115  0.03430316  1
  Zn  Zn9  1  0.79764283  0.60098115  0.46569784  1
  H  H10  1  0.00000000  0.00000000  0.50000000  1
  H  H11  1  0.18137740  0.70096646  0.12125569  1
  H  H12  1  0.22612319  0.67156941  0.84739475  1
  H  H13  1  0.27387681  0.17156941  0.65260525  1
  H  H14  1  0.31862260  0.20096646  0.37874431  1
  H  H15  1  0.50000000  0.50000000  0.00000000  1
  H  H16  1  0.68137740  0.79903354  0.62125569  1
  H  H17  1  0.72612319  0.82843059  0.34739475  1
  H  H18  1  0.77387681  0.32843059  0.15260525  1
  H  H19  1  0.81862260  0.29903354  0.87874431  1
  C  C20  1  0.06543229  0.62366096  0.49536054  1
  C  C21  1  0.18092027  0.92806043  0.46868212  1
  C  C22  1  0.31907973  0.42806043  0.03131788  1
  C  C23  1  0.43456771  0.12366096  0.00463946  1
  C  C24  1  0.56543229  0.87633904  0.99536054  1
  C  C25  1  0.68092027  0.57193957  0.96868212  1
  C  C26  1  0.81907973  0.07193957  0.53131788  1
  C  C27  1  0.93456771  0.37633904  0.50463946  1
  O  O28  1  0.03300284  0.38497134  0.36627984  1
  O  O29  1  0.05632397  0.66240004  0.26678456  1
  O  O30  1  0.08957766  0.95930442  0.61170737  1
  O  O31  1  0.17095343  0.59029110  0.59815904  1
  O  O32  1  0.16798536  0.93599866  0.22351449  1
  O  O33  1  0.21890557  0.39024396  0.92059626  1
  O  O34  1  0.25012894  0.21900468  0.49912426  1
  O  O35  1  0.24987106  0.71900468  0.00087574  1
  O  O36  1  0.28109443  0.89024396  0.57940374  1
  O  O37  1  0.32904657  0.09029110  0.90184096  1
  O  O38  1  0.33201464  0.43599866  0.27648551  1
  O  O39  1  0.41042234  0.45930442  0.88829263  1
  O  O40  1  0.44367603  0.16240004  0.23321544  1
  O  O41  1  0.46699716  0.88497134  0.13372016  1
  O  O42  1  0.53300284  0.11502866  0.86627984  1
  O  O43  1  0.55632397  0.83759996  0.76678456  1
  O  O44  1  0.58957766  0.54069558  0.11170737  1
  O  O45  1  0.66798536  0.56400134  0.72351449  1
  O  O46  1  0.67095343  0.90970890  0.09815904  1
  O  O47  1  0.71890557  0.10975604  0.42059626  1
  O  O48  1  0.75012894  0.28099532  0.99912426  1
  O  O49  1  0.74987106  0.78099532  0.50087574  1
  O  O50  1  0.78109443  0.60975604  0.07940374  1
  O  O51  1  0.83201464  0.06400134  0.77648551  1
  O  O52  1  0.82904657  0.40970890  0.40184096  1
  O  O53  1  0.91042234  0.04069558  0.38829263  1
  O  O54  1  0.94367603  0.33759996  0.73321544  1
  O  O55  1  0.96699716  0.61502866  0.63372016  1
