# generated using pymatgen
data_Cr5O12
_symmetry_space_group_name_H-M   'P 1'
_cell_length_a   12.53554798
_cell_length_b   9.05956112
_cell_length_c   8.98481534
_cell_angle_alpha   89.99982624
_cell_angle_beta   90.00074848
_cell_angle_gamma   90.00088139
_symmetry_Int_Tables_number   1
_chemical_formula_structural   Cr5O12
_chemical_formula_sum   'Cr20 O48'
_cell_volume   1020.37459812
_cell_formula_units_Z   4
loop_
 _symmetry_equiv_pos_site_id
 _symmetry_equiv_pos_as_xyz
  1  'x, y, z'
loop_
 _atom_site_type_symbol
 _atom_site_label
 _atom_site_symmetry_multiplicity
 _atom_site_fract_x
 _atom_site_fract_y
 _atom_site_fract_z
 _atom_site_occupancy
  Cr  Cr0  1  0.99999462  0.46318675  0.24999649  1
  Cr  Cr1  1  0.99999714  0.53679122  0.75000489  1
  Cr  Cr2  1  0.11959598  0.24918192  0.96805005  1
  Cr  Cr3  1  0.11958387  0.75080481  0.46803481  1
  Cr  Cr4  1  0.14523841  0.10414992  0.60606185  1
  Cr  Cr5  1  0.14525457  0.89585780  0.10605225  1
  Cr  Cr6  1  0.35477210  0.39583487  0.10606853  1
  Cr  Cr7  1  0.35476708  0.60414963  0.60605332  1
  Cr  Cr8  1  0.38041239  0.25081740  0.46804223  1
  Cr  Cr9  1  0.38041180  0.74919262  0.96802402  1
  Cr  Cr10  1  0.50000048  0.03679568  0.74999194  1
  Cr  Cr11  1  0.49999657  0.96321540  0.24999818  1
  Cr  Cr12  1  0.61958905  0.25080158  0.03195487  1
  Cr  Cr13  1  0.61959633  0.74918884  0.53194662  1
  Cr  Cr14  1  0.64525008  0.39583606  0.39393044  1
  Cr  Cr15  1  0.64522457  0.60416128  0.89393413  1
  Cr  Cr16  1  0.85476790  0.10416325  0.89394890  1
  Cr  Cr17  1  0.85475287  0.89584688  0.39394723  1
  Cr  Cr18  1  0.88040234  0.24918369  0.53196266  1
  Cr  Cr19  1  0.88040889  0.75082251  0.03195305  1
  O  O20  1  0.02396385  0.15857801  0.55740072  1
  O  O21  1  0.02397406  0.84141459  0.05740132  1
  O  O22  1  0.07423066  0.56909175  0.35935559  1
  O  O23  1  0.07423389  0.43090237  0.85935903  1
  O  O24  1  0.08196629  0.35521616  0.15322208  1
  O  O25  1  0.08197185  0.64478347  0.65322239  1
  O  O26  1  0.15883782  0.07846007  0.09410867  1
  O  O27  1  0.15882655  0.92153104  0.59411139  1
  O  O28  1  0.16891764  0.15040163  0.78171144  1
  O  O29  1  0.16891966  0.84959285  0.28169504  1
  O  O30  1  0.23157164  0.18141111  0.48874229  1
  O  O31  1  0.23157413  0.81859263  0.98873224  1
  O  O32  1  0.26843879  0.31858875  0.98874764  1
  O  O33  1  0.26842937  0.68141775  0.48873743  1
  O  O34  1  0.33108437  0.65041422  0.78169948  1
  O  O35  1  0.33108960  0.34959110  0.28170340  1
  O  O36  1  0.34117282  0.42154968  0.59409947  1
  O  O37  1  0.34117490  0.57845923  0.09410807  1
  O  O38  1  0.41802412  0.14478575  0.65321905  1
  O  O39  1  0.41802422  0.85522573  0.15322138  1
  O  O40  1  0.42576393  0.06910354  0.35936326  1
  O  O41  1  0.42576143  0.93090268  0.85935632  1
  O  O42  1  0.47603535  0.65858862  0.55739074  1
  O  O43  1  0.47603969  0.34141264  0.05740316  1
  O  O44  1  0.52397573  0.34140880  0.44259757  1
  O  O45  1  0.52396157  0.65858796  0.94260081  1
  O  O46  1  0.57423663  0.06910399  0.14064185  1
  O  O47  1  0.57423357  0.93089281  0.64063721  1
  O  O48  1  0.58197445  0.14477721  0.84677171  1
  O  O49  1  0.58196855  0.85522360  0.34677638  1
  O  O50  1  0.65882381  0.42154470  0.90589034  1
  O  O51  1  0.65883569  0.57844485  0.40588798  1
  O  O52  1  0.66893000  0.34958133  0.21829118  1
  O  O53  1  0.66890685  0.65040973  0.71829628  1
  O  O54  1  0.73156822  0.31858553  0.51126774  1
  O  O55  1  0.73156242  0.68141883  0.01125605  1
  O  O56  1  0.76843990  0.18141742  0.01127658  1
  O  O57  1  0.76842989  0.81858527  0.51127000  1
  O  O58  1  0.83107573  0.15041546  0.71830625  1
  O  O59  1  0.83107658  0.84958635  0.21830245  1
  O  O60  1  0.84116014  0.07844832  0.40589695  1
  O  O61  1  0.84116376  0.92155342  0.90589499  1
  O  O62  1  0.91802530  0.35521733  0.34677868  1
  O  O63  1  0.91802013  0.64478709  0.84678512  1
  O  O64  1  0.92576148  0.43090296  0.64064544  1
  O  O65  1  0.92575834  0.56910464  0.14063668  1
  O  O66  1  0.97604067  0.15859353  0.94261391  1
  O  O67  1  0.97602696  0.84141143  0.44260975  1
