# generated using pymatgen
data_BaCaGaF7
_symmetry_space_group_name_H-M   'P 1'
_cell_length_a   5.49427904
_cell_length_b   5.52406944
_cell_length_c   19.34534000
_cell_angle_alpha   90.00000000
_cell_angle_beta   92.37984437
_cell_angle_gamma   90.00000000
_symmetry_Int_Tables_number   1
_chemical_formula_structural   BaCaGaF7
_chemical_formula_sum   'Ba4 Ca4 Ga4 F28'
_cell_volume   586.63972422
_cell_formula_units_Z   4
loop_
 _symmetry_equiv_pos_site_id
 _symmetry_equiv_pos_as_xyz
  1  'x, y, z'
loop_
 _atom_site_type_symbol
 _atom_site_label
 _atom_site_symmetry_multiplicity
 _atom_site_fract_x
 _atom_site_fract_y
 _atom_site_fract_z
 _atom_site_occupancy
  F  F0  1  0.78048531  0.05506199  0.93636231  1
  F  F1  1  0.71951469  0.05506199  0.56363769  1
  F  F2  1  0.21951469  0.94493801  0.06363769  1
  F  F3  1  0.28048531  0.94493801  0.43636231  1
  F  F4  1  0.52392669  0.02395354  0.17683723  1
  F  F5  1  0.97607331  0.02395354  0.32316277  1
  F  F6  1  0.47607331  0.97604646  0.82316277  1
  F  F7  1  0.02392669  0.97604646  0.67683723  1
  F  F8  1  0.55801780  0.28397664  0.05755216  1
  F  F9  1  0.94198220  0.28397664  0.44244784  1
  F  F10  1  0.44198220  0.71602336  0.94244784  1
  F  F11  1  0.05801780  0.71602336  0.55755216  1
  F  F12  1  0.58952544  0.59109562  0.56137742  1
  F  F13  1  0.91047456  0.59109562  0.93862258  1
  F  F14  1  0.41047456  0.40890438  0.43862258  1
  F  F15  1  0.08952544  0.40890438  0.06137742  1
  F  F16  1  0.55926000  0.87029670  0.68405536  1
  F  F17  1  0.94074000  0.87029670  0.81594464  1
  F  F18  1  0.44074000  0.12970330  0.31594464  1
  F  F19  1  0.05926000  0.12970330  0.18405536  1
  F  F20  1  0.07837641  0.49061622  0.32471693  1
  F  F21  1  0.42162359  0.49061622  0.17528307  1
  F  F22  1  0.92162359  0.50938378  0.67528307  1
  F  F23  1  0.57837641  0.50938378  0.82471693  1
  F  F24  1  0.42427836  0.37082834  0.69169589  1
  F  F25  1  0.07572164  0.37082834  0.80830411  1
  F  F26  1  0.57572164  0.62917166  0.30830411  1
  F  F27  1  0.92427836  0.62917166  0.19169589  1
  Ca  Ca28  1  0.75000000  0.32455100  0.25000000  1
  Ca  Ca29  1  0.25000000  0.67544900  0.75000000  1
  Ca  Ca30  1  0.25000000  0.79107230  0.25000000  1
  Ca  Ca31  1  0.75000000  0.20892770  0.75000000  1
  Ga  Ga32  1  0.29744629  0.22522519  0.11934790  1
  Ga  Ga33  1  0.79744629  0.77477481  0.61934790  1
  Ga  Ga34  1  0.20255371  0.22522519  0.38065210  1
  Ga  Ga35  1  0.70255371  0.77477481  0.88065210  1
  Ba  Ba36  1  0.24876122  0.24330424  0.93150955  1
  Ba  Ba37  1  0.75123878  0.75669576  0.06849045  1
  Ba  Ba38  1  0.74876122  0.75669576  0.43150955  1
  Ba  Ba39  1  0.25123878  0.24330424  0.56849045  1
