# generated using pymatgen
data_Rb2Li2SiO4
_symmetry_space_group_name_H-M   'P 1'
_cell_length_a   5.53013397
_cell_length_b   5.71611552
_cell_length_c   8.86373071
_cell_angle_alpha   83.72698730
_cell_angle_beta   75.36871872
_cell_angle_gamma   85.69918886
_symmetry_Int_Tables_number   1
_chemical_formula_structural   Rb2Li2SiO4
_chemical_formula_sum   'Rb4 Li4 Si2 O8'
_cell_volume   269.15359759
_cell_formula_units_Z   2
loop_
 _symmetry_equiv_pos_site_id
 _symmetry_equiv_pos_as_xyz
  1  'x, y, z'
loop_
 _atom_site_type_symbol
 _atom_site_label
 _atom_site_symmetry_multiplicity
 _atom_site_fract_x
 _atom_site_fract_y
 _atom_site_fract_z
 _atom_site_occupancy
  Li  Li0  1  0.93173193  0.18837516  0.43826004  1
  Li  Li1  1  0.06826807  0.81162484  0.56173996  1
  Li  Li2  1  0.69690221  0.59340850  0.41849765  1
  Li  Li3  1  0.30309779  0.40659150  0.58150235  1
  O  O4  1  0.99779103  0.55733176  0.72085044  1
  O  O5  1  0.00220897  0.44266824  0.27914956  1
  O  O6  1  0.91845428  0.86713692  0.38022084  1
  O  O7  1  0.08154572  0.13286308  0.61977916  1
  O  O8  1  0.27077905  0.79728219  0.10247253  1
  O  O9  1  0.72922095  0.20271781  0.89752747  1
  O  O10  1  0.35624285  0.64154249  0.38996689  1
  O  O11  1  0.64375715  0.35845751  0.61003311  1
  Si  Si12  1  0.14573542  0.68772109  0.28112104  1
  Si  Si13  1  0.85426458  0.31227891  0.71887896  1
  Rb  Rb14  1  0.47667954  0.85049327  0.73140303  1
  Rb  Rb15  1  0.52332046  0.14950673  0.26859697  1
  Rb  Rb16  1  0.79213039  0.72841943  0.01797489  1
  Rb  Rb17  1  0.20786961  0.27158057  0.98202511  1
