# generated using pymatgen
data_Er2IrRh
_symmetry_space_group_name_H-M   'P 1'
_cell_length_a   4.80907677
_cell_length_b   4.80907677
_cell_length_c   4.80907677
_cell_angle_alpha   59.95913232
_cell_angle_beta   59.95913232
_cell_angle_gamma   59.95913232
_symmetry_Int_Tables_number   1
_chemical_formula_structural   Er2IrRh
_chemical_formula_sum   'Er2 Ir1 Rh1'
_cell_volume   78.57193281
_cell_formula_units_Z   1
loop_
 _symmetry_equiv_pos_site_id
 _symmetry_equiv_pos_as_xyz
  1  'x, y, z'
loop_
 _atom_site_type_symbol
 _atom_site_label
 _atom_site_symmetry_multiplicity
 _atom_site_fract_x
 _atom_site_fract_y
 _atom_site_fract_z
 _atom_site_occupancy
  Er  Er0  1  0.99999921  0.99999921  0.99999921  1
  Er  Er1  1  0.49999817  0.49999817  0.49999817  1
  Ir  Ir2  1  0.24999904  0.24999904  0.24999904  1
  Rh  Rh3  1  0.75000358  0.75000358  0.75000358  1
