# generated using pymatgen
data_Li7Co5O12
_symmetry_space_group_name_H-M   'P 1'
_cell_length_a   4.90904792
_cell_length_b   4.90350926
_cell_length_c   9.60966607
_cell_angle_alpha   84.99111071
_cell_angle_beta   100.04511644
_cell_angle_gamma   120.03736855
_symmetry_Int_Tables_number   1
_chemical_formula_structural   Li7Co5O12
_chemical_formula_sum   'Li7 Co5 O12'
_cell_volume   197.18349650
_cell_formula_units_Z   1
loop_
 _symmetry_equiv_pos_site_id
 _symmetry_equiv_pos_as_xyz
  1  'x, y, z'
loop_
 _atom_site_type_symbol
 _atom_site_label
 _atom_site_symmetry_multiplicity
 _atom_site_fract_x
 _atom_site_fract_y
 _atom_site_fract_z
 _atom_site_occupancy
  Li  Li0  1  0.99380445  0.49985685  0.00080399  1
  Li  Li1  1  0.33970858  0.17265098  0.00125526  1
  Li  Li2  1  0.16019083  0.82703746  0.49949197  1
  Li  Li3  1  0.50605240  0.49985685  0.49919601  1
  Li  Li4  1  0.83294240  0.17265098  0.49874474  1
  Li  Li5  1  0.66684563  0.82703746  0.00050803  1
  Li  Li6  1  0.74824655  0.49649310  0.25000000  1
  Co  Co7  1  0.08291471  0.16582941  0.25000000  1
  Co  Co8  1  0.25159541  0.50318981  0.75000000  1
  Co  Co9  1  0.58463334  0.16926668  0.75000000  1
  Co  Co10  1  0.41412528  0.82825156  0.25000000  1
  Co  Co11  1  0.91856317  0.83712533  0.75000000  1
  O  O12  1  0.21427739  0.16959855  0.64208586  1
  O  O13  1  0.42208861  0.13714721  0.36184236  1
  O  O14  1  0.14332109  0.49692737  0.36143397  1
  O  O15  1  0.71505859  0.13714721  0.13815764  1
  O  O16  1  0.95532116  0.16959855  0.85791414  1
  O  O17  1  0.35360628  0.49692737  0.13856603  1
  O  O18  1  0.62217765  0.50311474  0.85985110  1
  O  O19  1  0.07499997  0.85684152  0.13806675  1
  O  O20  1  0.28879618  0.83674787  0.85790566  1
  O  O21  1  0.88093710  0.50311474  0.64014890  1
  O  O22  1  0.54795169  0.83674787  0.64209434  1
  O  O23  1  0.78184154  0.85684152  0.36193325  1
