# generated using pymatgen
data_Cs3YO3
_symmetry_space_group_name_H-M   'P 1'
_cell_length_a   12.23763685
_cell_length_b   7.63534261
_cell_length_c   8.39358056
_cell_angle_alpha   90.00000000
_cell_angle_beta   95.48184086
_cell_angle_gamma   90.00000000
_symmetry_Int_Tables_number   1
_chemical_formula_structural   Cs3YO3
_chemical_formula_sum   'Cs12 Y4 O12'
_cell_volume   780.69709465
_cell_formula_units_Z   4
loop_
 _symmetry_equiv_pos_site_id
 _symmetry_equiv_pos_as_xyz
  1  'x, y, z'
loop_
 _atom_site_type_symbol
 _atom_site_label
 _atom_site_symmetry_multiplicity
 _atom_site_fract_x
 _atom_site_fract_y
 _atom_site_fract_z
 _atom_site_occupancy
  Cs  Cs0  1  0.07554385  0.33915576  0.65144345  1
  Cs  Cs1  1  0.15580477  0.61775691  0.05582221  1
  Cs  Cs2  1  0.19422660  0.82094409  0.61881560  1
  Cs  Cs3  1  0.30577340  0.32094409  0.38118440  1
  Cs  Cs4  1  0.34419523  0.11775691  0.94417779  1
  Cs  Cs5  1  0.42445615  0.83915576  0.34855655  1
  Cs  Cs6  1  0.57554385  0.16084424  0.65144345  1
  Cs  Cs7  1  0.65580477  0.88224309  0.05582221  1
  Cs  Cs8  1  0.69422660  0.67905591  0.61881560  1
  Cs  Cs9  1  0.80577340  0.17905591  0.38118440  1
  Cs  Cs10  1  0.84419523  0.38224309  0.94417779  1
  Cs  Cs11  1  0.92445615  0.66084424  0.34855655  1
  Y  Y12  1  0.06769936  0.08552193  0.15790451  1
  Y  Y13  1  0.43230064  0.58552193  0.84209549  1
  Y  Y14  1  0.56769936  0.41447807  0.15790451  1
  Y  Y15  1  0.93230064  0.91447807  0.84209549  1
  O  O16  1  0.04384499  0.34484113  0.24611641  1
  O  O17  1  0.08901936  0.05619189  0.89867113  1
  O  O18  1  0.19227360  0.94371857  0.29890075  1
  O  O19  1  0.30772640  0.44371857  0.70109925  1
  O  O20  1  0.41098064  0.55619189  0.10132887  1
  O  O21  1  0.45615501  0.84484113  0.75388359  1
  O  O22  1  0.54384499  0.15515887  0.24611641  1
  O  O23  1  0.58901936  0.44380811  0.89867113  1
  O  O24  1  0.69227360  0.55628143  0.29890075  1
  O  O25  1  0.80772640  0.05628143  0.70109925  1
  O  O26  1  0.91098064  0.94380811  0.10132887  1
  O  O27  1  0.95615501  0.65515887  0.75388359  1
