# generated using pymatgen
data_MnP2O7
_symmetry_space_group_name_H-M   'P 1'
_cell_length_a   7.89853390
_cell_length_b   6.83905018
_cell_length_c   4.75742580
_cell_angle_alpha   105.52845207
_cell_angle_beta   92.99491696
_cell_angle_gamma   91.41008337
_symmetry_Int_Tables_number   1
_chemical_formula_structural   MnP2O7
_chemical_formula_sum   'Mn2 P4 O14'
_cell_volume   247.07095756
_cell_formula_units_Z   2
loop_
 _symmetry_equiv_pos_site_id
 _symmetry_equiv_pos_as_xyz
  1  'x, y, z'
loop_
 _atom_site_type_symbol
 _atom_site_label
 _atom_site_symmetry_multiplicity
 _atom_site_fract_x
 _atom_site_fract_y
 _atom_site_fract_z
 _atom_site_occupancy
  Mn  Mn0  1  0.00000000  0.00000000  0.00000000  1
  Mn  Mn1  1  0.50000000  0.50000000  0.50000000  1
  P  P2  1  0.23712064  0.86174725  0.47964294  1
  P  P3  1  0.31090311  0.25366496  0.88744787  1
  P  P4  1  0.68909689  0.74633504  0.11255213  1
  P  P5  1  0.76287936  0.13825275  0.52035706  1
  O  O6  1  0.08135919  0.83168380  0.64484529  1
  O  O7  1  0.12379871  0.23560240  0.95619034  1
  O  O8  1  0.19524970  0.93447250  0.20714624  1
  O  O9  1  0.32213625  0.40429049  0.70163358  1
  O  O10  1  0.33923208  0.67175020  0.38013203  1
  O  O11  1  0.36277202  0.03300555  0.69435000  1
  O  O12  1  0.43872101  0.29118966  0.15046614  1
  O  O13  1  0.56127899  0.70881034  0.84953386  1
  O  O14  1  0.63722798  0.96699445  0.30565000  1
  O  O15  1  0.66076792  0.32824980  0.61986797  1
  O  O16  1  0.67786375  0.59570951  0.29836642  1
  O  O17  1  0.80475030  0.06552750  0.79285376  1
  O  O18  1  0.87620129  0.76439760  0.04380966  1
  O  O19  1  0.91864081  0.16831620  0.35515471  1
