# generated using pymatgen
data_Na6V2C4SO16
_symmetry_space_group_name_H-M   'P 1'
_cell_length_a   10.00869026
_cell_length_b   10.00869036
_cell_length_c   10.00869026
_cell_angle_alpha   60.00000156
_cell_angle_beta   119.99999909
_cell_angle_gamma   89.99999815
_symmetry_Int_Tables_number   1
_chemical_formula_structural   Na6V2C4SO16
_chemical_formula_sum   'Na12 V4 C8 S2 O32'
_cell_volume   708.95188872
_cell_formula_units_Z   2
loop_
 _symmetry_equiv_pos_site_id
 _symmetry_equiv_pos_as_xyz
  1  'x, y, z'
loop_
 _atom_site_type_symbol
 _atom_site_label
 _atom_site_symmetry_multiplicity
 _atom_site_fract_x
 _atom_site_fract_y
 _atom_site_fract_z
 _atom_site_occupancy
  Na  Na0  1  0.09088663  0.65911337  0.18177325  1
  Na  Na1  1  0.34088663  0.34088663  0.25000000  1
  Na  Na2  1  0.09088663  0.09088663  0.75000000  1
  Na  Na3  1  0.65911337  0.09088663  0.31822675  1
  Na  Na4  1  0.09088663  0.65911337  0.75000000  1
  Na  Na5  1  0.90911337  0.34088663  0.25000000  1
  Na  Na6  1  0.34088663  0.90911337  0.25000000  1
  Na  Na7  1  0.65911337  0.09088663  0.75000000  1
  Na  Na8  1  0.34088663  0.90911337  0.68177325  1
  Na  Na9  1  0.90911337  0.34088663  0.81822675  1
  Na  Na10  1  0.90911337  0.90911337  0.25000000  1
  Na  Na11  1  0.65911337  0.65911337  0.75000000  1
  V  V12  1  0.50000000  0.00000000  0.00000000  1
  V  V13  1  0.00000000  0.50000000  0.50000000  1
  V  V14  1  0.50000000  0.50000000  0.00000000  1
  V  V15  1  0.50000000  0.50000000  0.50000000  1
  C  C16  1  0.34295007  0.71901631  0.06196638  1
  C  C17  1  0.28098369  0.28098369  0.56196638  1
  C  C18  1  0.28098369  0.28098369  0.93803362  1
  C  C19  1  0.28098369  0.65704993  0.56196638  1
  C  C20  1  0.71901631  0.34295007  0.43803362  1
  C  C21  1  0.71901631  0.71901631  0.06196638  1
  C  C22  1  0.65704993  0.28098369  0.93803362  1
  C  C23  1  0.71901631  0.71901631  0.43803362  1
  S  S24  1  0.12500000  0.12500000  0.25000000  1
  S  S25  1  0.87500000  0.87500000  0.75000000  1
  O  O26  1  0.06387728  0.06387728  0.12775457  1
  O  O27  1  0.06387728  0.06387728  0.37224543  1
  O  O28  1  0.06387728  0.30836815  0.12775457  1
  O  O29  1  0.39795869  0.14099037  0.05715924  1
  O  O30  1  0.30836815  0.06387728  0.37224543  1
  O  O31  1  0.14099037  0.39795869  0.44284076  1
  O  O32  1  0.65920155  0.30184939  0.05715924  1
  O  O33  1  0.30184939  0.14099037  0.69980807  1
  O  O34  1  0.34079845  0.60204131  0.19980807  1
  O  O35  1  0.60204131  0.34079845  0.30019193  1
  O  O36  1  0.14099037  0.30184939  0.80019193  1
  O  O37  1  0.39795869  0.30184939  0.53894906  1
  O  O38  1  0.34079845  0.85900963  0.03894906  1
  O  O39  1  0.69815061  0.60204131  0.03894906  1
  O  O40  1  0.14099037  0.65920155  0.53894906  1
  O  O41  1  0.30184939  0.65920155  0.44284076  1
  O  O42  1  0.69815061  0.34079845  0.55715924  1
  O  O43  1  0.30184939  0.39795869  0.96105094  1
  O  O44  1  0.85900963  0.34079845  0.46105094  1
  O  O45  1  0.65920155  0.14099037  0.96105094  1
  O  O46  1  0.60204131  0.69815061  0.46105094  1
  O  O47  1  0.85900963  0.69815061  0.19980807  1
  O  O48  1  0.39795869  0.65920155  0.69980807  1
  O  O49  1  0.65920155  0.39795869  0.80019193  1
  O  O50  1  0.69815061  0.85900963  0.30019193  1
  O  O51  1  0.34079845  0.69815061  0.94284076  1
  O  O52  1  0.85900963  0.60204131  0.55715924  1
  O  O53  1  0.69163185  0.93612272  0.62775457  1
  O  O54  1  0.60204131  0.85900963  0.94284076  1
  O  O55  1  0.93612272  0.69163185  0.87224543  1
  O  O56  1  0.93612272  0.93612272  0.62775457  1
  O  O57  1  0.93612272  0.93612272  0.87224543  1
