# generated using pymatgen
data_Na5FeHO4
_symmetry_space_group_name_H-M   'P 1'
_cell_length_a   10.03710609
_cell_length_b   10.28845001
_cell_length_c   11.99199234
_cell_angle_alpha   90.00000000
_cell_angle_beta   90.00000000
_cell_angle_gamma   90.00000000
_symmetry_Int_Tables_number   1
_chemical_formula_structural   Na5FeHO4
_chemical_formula_sum   'Na40 Fe8 H8 O32'
_cell_volume   1238.36824989
_cell_formula_units_Z   8
loop_
 _symmetry_equiv_pos_site_id
 _symmetry_equiv_pos_as_xyz
  1  'x, y, z'
loop_
 _atom_site_type_symbol
 _atom_site_label
 _atom_site_symmetry_multiplicity
 _atom_site_fract_x
 _atom_site_fract_y
 _atom_site_fract_z
 _atom_site_occupancy
  Na  Na0  1  0.01098163  0.59197673  0.21919979  1
  Na  Na1  1  0.51098163  0.90802327  0.28080021  1
  Na  Na2  1  0.98901837  0.09197673  0.78080021  1
  Na  Na3  1  0.48901837  0.40802327  0.71919979  1
  Na  Na4  1  0.98901837  0.40802327  0.78080021  1
  Na  Na5  1  0.48901837  0.09197673  0.71919979  1
  Na  Na6  1  0.01098163  0.90802327  0.21919979  1
  Na  Na7  1  0.51098163  0.59197673  0.28080021  1
  Na  Na8  1  0.07206614  0.43320086  0.41351530  1
  Na  Na9  1  0.57206614  0.06679914  0.08648470  1
  Na  Na10  1  0.92793386  0.93320086  0.58648470  1
  Na  Na11  1  0.42793386  0.56679914  0.91351530  1
  Na  Na12  1  0.92793386  0.56679914  0.58648470  1
  Na  Na13  1  0.42793386  0.93320086  0.91351530  1
  Na  Na14  1  0.07206614  0.06679914  0.41351530  1
  Na  Na15  1  0.57206614  0.43320086  0.08648470  1
  Na  Na16  1  0.08708039  0.75000000  0.44640791  1
  Na  Na17  1  0.58708039  0.75000000  0.05359209  1
  Na  Na18  1  0.91291961  0.25000000  0.55359209  1
  Na  Na19  1  0.41291961  0.25000000  0.94640791  1
  Na  Na20  1  0.62982799  0.56105568  0.51349462  1
  Na  Na21  1  0.12982799  0.93894432  0.98650538  1
  Na  Na22  1  0.37017201  0.06105568  0.48650538  1
  Na  Na23  1  0.87017201  0.43894432  0.01349462  1
  Na  Na24  1  0.37017201  0.43894432  0.48650538  1
  Na  Na25  1  0.87017201  0.06105568  0.01349462  1
  Na  Na26  1  0.62982799  0.93894432  0.51349462  1
  Na  Na27  1  0.12982799  0.56105568  0.98650538  1
  Na  Na28  1  0.78543045  0.41900357  0.32125044  1
  Na  Na29  1  0.28543045  0.08099643  0.17874956  1
  Na  Na30  1  0.21456955  0.91900357  0.67874956  1
  Na  Na31  1  0.71456955  0.58099643  0.82125044  1
  Na  Na32  1  0.21456955  0.58099643  0.67874956  1
  Na  Na33  1  0.71456955  0.91900357  0.82125044  1
  Na  Na34  1  0.78543045  0.08099643  0.32125044  1
  Na  Na35  1  0.28543045  0.41900357  0.17874956  1
  Na  Na36  1  0.10876250  0.25000000  0.97901406  1
  Na  Na37  1  0.60876250  0.25000000  0.52098594  1
  Na  Na38  1  0.89123750  0.75000000  0.02098594  1
  Na  Na39  1  0.39123750  0.75000000  0.47901406  1
  Fe  Fe40  1  0.01654822  0.25000000  0.20657123  1
  Fe  Fe41  1  0.51654822  0.25000000  0.29342877  1
  Fe  Fe42  1  0.98345178  0.75000000  0.79342877  1
  Fe  Fe43  1  0.48345178  0.75000000  0.70657123  1
  Fe  Fe44  1  0.79832475  0.75000000  0.38516435  1
  Fe  Fe45  1  0.29832475  0.75000000  0.11483565  1
  Fe  Fe46  1  0.20167525  0.25000000  0.61483565  1
  Fe  Fe47  1  0.70167525  0.25000000  0.88516435  1
  H  H48  1  0.74077442  0.37334893  0.69792329  1
  H  H49  1  0.24077442  0.12665107  0.80207671  1
  H  H50  1  0.25922558  0.87334893  0.30207671  1
  H  H51  1  0.75922558  0.62665107  0.19792329  1
  H  H52  1  0.25922558  0.62665107  0.30207671  1
  H  H53  1  0.75922558  0.87334893  0.19792329  1
  H  H54  1  0.74077442  0.12665107  0.69792329  1
  H  H55  1  0.24077442  0.37334893  0.80207671  1
  O  O56  1  0.90274192  0.59501071  0.39388803  1
  O  O57  1  0.40274192  0.90498929  0.10611197  1
  O  O58  1  0.09725808  0.09501071  0.60611197  1
  O  O59  1  0.59725808  0.40498929  0.89388803  1
  O  O60  1  0.09725808  0.40498929  0.60611197  1
  O  O61  1  0.59725808  0.09501071  0.89388803  1
  O  O62  1  0.90274192  0.90498929  0.39388803  1
  O  O63  1  0.40274192  0.59501071  0.10611197  1
  O  O64  1  0.06209101  0.09521025  0.12654439  1
  O  O65  1  0.56209101  0.40478975  0.37345561  1
  O  O66  1  0.93790899  0.59521025  0.87345561  1
  O  O67  1  0.43790899  0.90478975  0.62654439  1
  O  O68  1  0.93790899  0.90478975  0.87345561  1
  O  O69  1  0.43790899  0.59521025  0.62654439  1
  O  O70  1  0.06209101  0.40478975  0.12654439  1
  O  O71  1  0.56209101  0.09521025  0.37345561  1
  O  O72  1  0.60806180  0.75000000  0.38995363  1
  O  O73  1  0.10806180  0.75000000  0.11004637  1
  O  O74  1  0.39193820  0.25000000  0.61004637  1
  O  O75  1  0.89193820  0.25000000  0.88995363  1
  O  O76  1  0.94159535  0.25000000  0.35330668  1
  O  O77  1  0.44159535  0.25000000  0.14669332  1
  O  O78  1  0.05840465  0.75000000  0.64669332  1
  O  O79  1  0.55840465  0.75000000  0.85330668  1
  O  O80  1  0.75146424  0.41886823  0.62661830  1
  O  O81  1  0.25146424  0.08113177  0.87338170  1
  O  O82  1  0.24853576  0.91886823  0.37338170  1
  O  O83  1  0.74853576  0.58113177  0.12661830  1
  O  O84  1  0.24853576  0.58113177  0.37338170  1
  O  O85  1  0.74853576  0.91886823  0.12661830  1
  O  O86  1  0.75146424  0.08113177  0.62661830  1
  O  O87  1  0.25146424  0.41886823  0.87338170  1
