# generated using pymatgen
data_Li7Mn2(CoO4)3
_symmetry_space_group_name_H-M   'P 1'
_cell_length_a   2.88733968
_cell_length_b   14.47101258
_cell_length_c   5.17616975
_cell_angle_alpha   89.35731893
_cell_angle_beta   90.00000000
_cell_angle_gamma   90.00000000
_symmetry_Int_Tables_number   1
_chemical_formula_structural   Li7Mn2(CoO4)3
_chemical_formula_sum   'Li7 Mn2 Co3 O12'
_cell_volume   216.26089175
_cell_formula_units_Z   1
loop_
 _symmetry_equiv_pos_site_id
 _symmetry_equiv_pos_as_xyz
  1  'x, y, z'
loop_
 _atom_site_type_symbol
 _atom_site_label
 _atom_site_symmetry_multiplicity
 _atom_site_fract_x
 _atom_site_fract_y
 _atom_site_fract_z
 _atom_site_occupancy
  Li  Li0  1  0.50000000  0.99514575  0.50441671  1
  Li  Li1  1  0.00000000  0.16346207  0.65911153  1
  Li  Li2  1  0.50000000  0.32576960  0.82696695  1
  Li  Li3  1  0.00000000  0.50441816  0.00058006  1
  Li  Li4  1  -0.00000000  0.83381268  0.34965740  1
  Li  Li5  1  0.50000000  0.67550645  0.16771571  1
  Li  Li6  1  0.50000000  0.83469256  0.83123613  1
  Mn  Mn7  1  0.00000000  0.99471449  0.98884525  1
  Mn  Mn8  1  0.50000000  0.50085111  0.51158827  1
  Co  Co9  1  0.50000000  0.16657350  0.15912407  1
  Co  Co10  1  0.00000000  0.33153899  0.32983611  1
  Co  Co11  1  -0.00000000  0.68041272  0.68719373  1
  O  O12  1  0.50000000  0.92655172  0.15056390  1
  O  O13  1  0.00000000  0.08480416  0.30232468  1
  O  O14  1  0.50000000  0.25326101  0.47193006  1
  O  O15  1  -0.00000000  0.42586907  0.66317163  1
  O  O16  1  0.00000000  0.74197714  0.98059592  1
  O  O17  1  0.50000000  0.58168998  0.79918950  1
  O  O18  1  0.50000000  0.07632174  0.85254786  1
  O  O19  1  0.00000000  0.24613474  -0.00298367  1
  O  O20  1  0.50000000  0.41547576  0.21108306  1
  O  O21  1  -0.00000000  0.57139386  0.35727696  1
  O  O22  1  0.00000000  0.92519764  0.69610175  1
  O  O23  1  0.50000000  0.74442511  0.50192641  1
