# generated using pymatgen
data_Ba2GeP2
_symmetry_space_group_name_H-M   'P 1'
_cell_length_a   7.58626625
_cell_length_b   8.66941698
_cell_length_c   9.64793662
_cell_angle_alpha   90.00000000
_cell_angle_beta   90.00000000
_cell_angle_gamma   106.11188346
_symmetry_Int_Tables_number   1
_chemical_formula_structural   Ba2GeP2
_chemical_formula_sum   'Ba8 Ge4 P8'
_cell_volume   609.60704472
_cell_formula_units_Z   4
loop_
 _symmetry_equiv_pos_site_id
 _symmetry_equiv_pos_as_xyz
  1  'x, y, z'
loop_
 _atom_site_type_symbol
 _atom_site_label
 _atom_site_symmetry_multiplicity
 _atom_site_fract_x
 _atom_site_fract_y
 _atom_site_fract_z
 _atom_site_occupancy
  P  P0  1  0.82719751  0.75558678  0.09667442  1
  P  P1  1  0.67280249  0.24441322  0.59667442  1
  P  P2  1  0.17280249  0.24441322  0.90332558  1
  P  P3  1  0.32719751  0.75558678  0.40332558  1
  P  P4  1  0.84254620  0.76354680  0.59833203  1
  P  P5  1  0.65745380  0.23645320  0.09833203  1
  P  P6  1  0.15745380  0.23645320  0.40166797  1
  P  P7  1  0.34254620  0.76354680  0.90166797  1
  Ge  Ge8  1  0.02466243  0.64368866  0.46703570  1
  Ge  Ge9  1  0.47533757  0.35631134  0.96703570  1
  Ge  Ge10  1  0.97533757  0.35631134  0.53296430  1
  Ge  Ge11  1  0.52466243  0.64368866  0.03296430  1
  Ba  Ba12  1  0.59986698  0.47667846  0.33584889  1
  Ba  Ba13  1  0.90013302  0.52332154  0.83584889  1
  Ba  Ba14  1  0.40013302  0.52332154  0.66415111  1
  Ba  Ba15  1  0.09986698  0.47667846  0.16415111  1
  Ba  Ba16  1  0.23995574  0.99187822  0.13944985  1
  Ba  Ba17  1  0.26004426  0.00812178  0.63944985  1
  Ba  Ba18  1  0.76004426  0.00812178  0.86055015  1
  Ba  Ba19  1  0.73995574  0.99187822  0.36055015  1
