# generated using pymatgen
data_Ca9Co(PO4)7
_symmetry_space_group_name_H-M   'P 1'
_cell_length_a   13.81825797
_cell_length_b   13.81825797
_cell_length_c   13.81825815
_cell_angle_alpha   44.49778921
_cell_angle_beta   44.49778921
_cell_angle_gamma   44.49778626
_symmetry_Int_Tables_number   1
_chemical_formula_structural   Ca9Co(PO4)7
_chemical_formula_sum   'Ca18 Co2 P14 O56'
_cell_volume   1178.46511454
_cell_formula_units_Z   2
loop_
 _symmetry_equiv_pos_site_id
 _symmetry_equiv_pos_as_xyz
  1  'x, y, z'
loop_
 _atom_site_type_symbol
 _atom_site_label
 _atom_site_symmetry_multiplicity
 _atom_site_fract_x
 _atom_site_fract_y
 _atom_site_fract_z
 _atom_site_occupancy
  Ca  Ca0  1  0.06442983  0.65397470  0.07961355  1
  Ca  Ca1  1  0.35215056  0.90869133  0.93399784  1
  Ca  Ca2  1  0.40869133  0.85215056  0.43399784  1
  Ca  Ca3  1  0.55037258  0.97219409  0.95238227  1
  Ca  Ca4  1  0.15397470  0.56442983  0.57961355  1
  Ca  Ca5  1  0.05037258  0.45238227  0.47219409  1
  Ca  Ca6  1  0.90869133  0.93399784  0.35215056  1
  Ca  Ca7  1  0.45238227  0.47219409  0.05037258  1
  Ca  Ca8  1  0.56442983  0.57961355  0.15397470  1
  Ca  Ca9  1  0.07961355  0.06442983  0.65397470  1
  Ca  Ca10  1  0.97219409  0.95238227  0.55037258  1
  Ca  Ca11  1  0.43399784  0.40869133  0.85215056  1
  Ca  Ca12  1  0.95238227  0.55037258  0.97219409  1
  Ca  Ca13  1  0.85215056  0.43399784  0.40869133  1
  Ca  Ca14  1  0.47219409  0.05037258  0.45238227  1
  Ca  Ca15  1  0.57961355  0.15397470  0.56442983  1
  Ca  Ca16  1  0.65397470  0.07961355  0.06442983  1
  Ca  Ca17  1  0.93399784  0.35215056  0.90869133  1
  Co  Co18  1  0.00029334  0.00029334  0.00029334  1
  Co  Co19  1  0.50029334  0.50029334  0.50029334  1
  P  P20  1  0.27810702  0.81999782  0.31139655  1
  P  P21  1  0.18807947  0.68436218  0.72014329  1
  P  P22  1  0.18436218  0.68807947  0.22014329  1
  P  P23  1  0.31999782  0.77810702  0.81139655  1
  P  P24  1  0.68436218  0.72014329  0.18807947  1
  P  P25  1  0.77810702  0.81139655  0.31999782  1
  P  P26  1  0.27175771  0.27175771  0.27175771  1
  P  P27  1  0.77175771  0.77175771  0.77175771  1
  P  P28  1  0.31139655  0.27810702  0.81999782  1
  P  P29  1  0.22014329  0.18436218  0.68807947  1
  P  P30  1  0.68807947  0.22014329  0.18436218  1
  P  P31  1  0.81139655  0.31999782  0.77810702  1
  P  P32  1  0.81999782  0.31139655  0.27810702  1
  P  P33  1  0.72014329  0.18807947  0.68436218  1
  O  O34  1  0.11244365  0.86692427  0.13215093  1
  O  O35  1  0.13679270  0.85196377  0.66681615  1
  O  O36  1  0.13992411  0.87666735  0.88207060  1
  O  O37  1  0.11803858  0.83338622  0.38563148  1
  O  O38  1  0.26197716  0.90277445  0.36007317  1
  O  O39  1  0.11468940  0.67580870  0.68166431  1
  O  O40  1  0.08949871  0.64784207  0.39285791  1
  O  O41  1  0.35797490  0.86989363  0.13832011  1
  O  O42  1  0.36989363  0.85797490  0.63832011  1
  O  O43  1  0.14784207  0.58949871  0.89285791  1
  O  O44  1  0.17580870  0.61468940  0.18166431  1
  O  O45  1  0.10710920  0.38791627  0.28212343  1
  O  O46  1  0.40277445  0.76197716  0.86007317  1
  O  O47  1  0.60710920  0.78212343  0.88791627  1
  O  O48  1  0.58949871  0.89285791  0.14784207  1
  O  O49  1  0.61803858  0.88563148  0.33338622  1
  O  O50  1  0.33338622  0.61803858  0.88563148  1
  O  O51  1  0.37666735  0.63992411  0.38207060  1
  O  O52  1  0.35196377  0.63679270  0.16681615  1
  O  O53  1  0.36692427  0.61244365  0.63215093  1
  O  O54  1  0.13832011  0.35797490  0.86989363  1
  O  O55  1  0.16681615  0.35196377  0.63679270  1
  O  O56  1  0.76197716  0.86007317  0.40277445  1
  O  O57  1  0.78212343  0.88791627  0.60710920  1
  O  O58  1  0.61244365  0.63215093  0.36692427  1
  O  O59  1  0.67580870  0.68166431  0.11468940  1
  O  O60  1  0.87666735  0.88207060  0.13992411  1
  O  O61  1  0.31346465  0.31346465  0.31346465  1
  O  O62  1  0.81346465  0.81346465  0.81346465  1
  O  O63  1  0.38207060  0.37666735  0.63992411  1
  O  O64  1  0.18166431  0.17580870  0.61468940  1
  O  O65  1  0.13215093  0.11244365  0.86692427  1
  O  O66  1  0.38791627  0.28212343  0.10710920  1
  O  O67  1  0.36007317  0.26197716  0.90277445  1
  O  O68  1  0.85196377  0.66681615  0.13679270  1
  O  O69  1  0.85797490  0.63832011  0.36989363  1
  O  O70  1  0.64784207  0.39285791  0.08949871  1
  O  O71  1  0.63832011  0.36989363  0.85797490  1
  O  O72  1  0.63992411  0.38207060  0.37666735  1
  O  O73  1  0.63215093  0.36692427  0.61244365  1
  O  O74  1  0.38563148  0.11803858  0.83338622  1
  O  O75  1  0.39285791  0.08949871  0.64784207  1
  O  O76  1  0.28212343  0.10710920  0.38791627  1
  O  O77  1  0.88791627  0.60710920  0.78212343  1
  O  O78  1  0.61468940  0.18166431  0.17580870  1
  O  O79  1  0.86007317  0.40277445  0.76197716  1
  O  O80  1  0.83338622  0.38563148  0.11803858  1
  O  O81  1  0.63679270  0.16681615  0.35196377  1
  O  O82  1  0.66681615  0.13679270  0.85196377  1
  O  O83  1  0.88563148  0.33338622  0.61803858  1
  O  O84  1  0.90277445  0.36007317  0.26197716  1
  O  O85  1  0.68166431  0.11468940  0.67580870  1
  O  O86  1  0.86692427  0.13215093  0.11244365  1
  O  O87  1  0.88207060  0.13992411  0.87666735  1
  O  O88  1  0.86989363  0.13832011  0.35797490  1
  O  O89  1  0.89285791  0.14784207  0.58949871  1
