# generated using pymatgen
data_K2BiPCO7
_symmetry_space_group_name_H-M   'P 1'
_cell_length_a   9.90633653
_cell_length_b   7.28143740
_cell_length_c   5.89232815
_cell_angle_alpha   90.00000000
_cell_angle_beta   94.39506245
_cell_angle_gamma   90.00000000
_symmetry_Int_Tables_number   1
_chemical_formula_structural   K2BiPCO7
_chemical_formula_sum   'K4 Bi2 P2 C2 O14'
_cell_volume   423.77773712
_cell_formula_units_Z   2
loop_
 _symmetry_equiv_pos_site_id
 _symmetry_equiv_pos_as_xyz
  1  'x, y, z'
loop_
 _atom_site_type_symbol
 _atom_site_label
 _atom_site_symmetry_multiplicity
 _atom_site_fract_x
 _atom_site_fract_y
 _atom_site_fract_z
 _atom_site_occupancy
  K  K0  1  0.22217773  0.48725937  0.24731595  1
  K  K1  1  0.22217773  0.01274063  0.24731595  1
  K  K2  1  0.77782227  0.51274063  0.75268405  1
  K  K3  1  0.77782227  0.98725937  0.75268405  1
  Bi  Bi4  1  0.37999498  0.75000000  0.78841060  1
  Bi  Bi5  1  0.62000502  0.25000000  0.21158940  1
  P  P6  1  0.41816885  0.25000000  0.71758866  1
  P  P7  1  0.58183115  0.75000000  0.28241134  1
  C  C8  1  0.09826076  0.75000000  0.72265951  1
  C  C9  1  0.90173924  0.25000000  0.27734049  1
  O  O10  1  0.02812997  0.25000000  0.29172863  1
  O  O11  1  0.17058425  0.75000000  0.92370172  1
  O  O12  1  0.17197169  0.75000000  0.54492433  1
  O  O13  1  0.34461300  0.07647135  0.80286984  1
  O  O14  1  0.34461300  0.42352865  0.80286984  1
  O  O15  1  0.42914060  0.75000000  0.18019288  1
  O  O16  1  0.41922975  0.25000000  0.45438668  1
  O  O17  1  0.58077025  0.75000000  0.54561332  1
  O  O18  1  0.57085940  0.25000000  0.81980712  1
  O  O19  1  0.65538700  0.57647135  0.19713016  1
  O  O20  1  0.65538700  0.92352865  0.19713016  1
  O  O21  1  0.82802831  0.25000000  0.45507567  1
  O  O22  1  0.82941575  0.25000000  0.07629828  1
  O  O23  1  0.97187003  0.75000000  0.70827137  1
