# generated using pymatgen
data_NaTi5O10
_symmetry_space_group_name_H-M   'P 1'
_cell_length_a   10.12814032
_cell_length_b   8.46125164
_cell_length_c   9.52081828
_cell_angle_alpha   95.31894715
_cell_angle_beta   81.85445781
_cell_angle_gamma   112.46580227
_symmetry_Int_Tables_number   1
_chemical_formula_structural   NaTi5O10
_chemical_formula_sum   'Na4 Ti20 O40'
_cell_volume   745.71251346
_cell_formula_units_Z   4
loop_
 _symmetry_equiv_pos_site_id
 _symmetry_equiv_pos_as_xyz
  1  'x, y, z'
loop_
 _atom_site_type_symbol
 _atom_site_label
 _atom_site_symmetry_multiplicity
 _atom_site_fract_x
 _atom_site_fract_y
 _atom_site_fract_z
 _atom_site_occupancy
  Na  Na0  1  0.19957381  0.80012221  0.19989063  1
  Na  Na1  1  0.39996510  0.59998732  0.40013226  1
  Na  Na2  1  0.80042619  0.19987779  0.80010937  1
  Na  Na3  1  0.60003490  0.40001268  0.59986774  1
  Ti  Ti4  1  0.33766441  0.16226107  0.04134119  1
  Ti  Ti5  1  0.04625443  0.06462607  0.33372855  1
  Ti  Ti6  1  0.84859364  0.26421472  0.13497510  1
  Ti  Ti7  1  0.55384952  0.33466859  0.26247014  1
  Ti  Ti8  1  0.35423992  0.53636786  0.06322237  1
  Ti  Ti9  1  0.75353148  0.13371127  0.46323338  1
  Ti  Ti10  1  0.05716414  0.43551603  0.35782997  1
  Ti  Ti11  1  0.45829736  0.03455075  0.75848076  1
  Ti  Ti12  1  0.25729755  0.23556797  0.55704385  1
  Ti  Ti13  1  0.14086556  0.36143238  0.84312130  1
  Ti  Ti14  1  0.85913444  0.63856762  0.15687870  1
  Ti  Ti15  1  0.54170264  0.96544925  0.24151924  1
  Ti  Ti16  1  0.74270245  0.76443203  0.44295615  1
  Ti  Ti17  1  0.94283586  0.56448397  0.64217003  1
  Ti  Ti18  1  0.24646852  0.86628873  0.53676662  1
  Ti  Ti19  1  0.44615048  0.66533141  0.73752986  1
  Ti  Ti20  1  0.64576008  0.46363214  0.93677763  1
  Ti  Ti21  1  0.15140636  0.73578528  0.86502490  1
  Ti  Ti22  1  0.95374457  0.93537393  0.66627145  1
  Ti  Ti23  1  0.66233559  0.83773893  0.95865881  1
  O  O24  1  0.17932757  0.07927402  0.18310690  1
  O  O25  1  0.71415524  0.03749662  0.07947774  1
  O  O26  1  0.45733078  0.10682761  0.16276940  1
  O  O27  1  0.14345795  0.29478374  0.43551420  1
  O  O28  1  0.34310915  0.09421467  0.63661359  1
  O  O29  1  0.46494789  0.40872650  0.12150085  1
  O  O30  1  0.86590852  0.00890795  0.52197085  1
  O  O31  1  0.66497320  0.20897803  0.32236738  1
  O  O32  1  0.08247317  0.16666061  0.71703331  1
  O  O33  1  0.73400762  0.39042489  0.07891851  1
  O  O34  1  0.93312341  0.19159428  0.28029856  1
  O  O35  1  0.02630043  0.71446419  0.02285441  1
  O  O36  1  0.22597962  0.52294112  0.22082064  1
  O  O37  1  0.62623978  0.12232626  0.62152584  1
  O  O38  1  0.42620188  0.32247837  0.42069740  1
  O  O39  1  0.74053274  0.69049747  0.03702372  1
  O  O40  1  0.94164691  0.49312970  0.23724080  1
  O  O41  1  0.48371208  0.76497174  0.12006131  1
  O  O42  1  0.88361401  0.36448087  0.52047603  1
  O  O43  1  0.68340062  0.56481376  0.32016193  1
  O  O44  1  0.31659938  0.43518624  0.67983807  1
  O  O45  1  0.11638599  0.63551913  0.47952397  1
  O  O46  1  0.51628792  0.23502826  0.87993869  1
  O  O47  1  0.25946726  0.30950253  0.96297628  1
  O  O48  1  0.05835309  0.50687030  0.76275920  1
  O  O49  1  0.57379812  0.67752163  0.57930260  1
  O  O50  1  0.77402038  0.47705888  0.77917936  1
  O  O51  1  0.97369957  0.28553581  0.97714559  1
  O  O52  1  0.37376022  0.87767374  0.37847416  1
  O  O53  1  0.26599238  0.60957511  0.92108149  1
  O  O54  1  0.06687659  0.80840572  0.71970144  1
  O  O55  1  0.91752683  0.83333939  0.28296669  1
  O  O56  1  0.33502680  0.79102197  0.67763262  1
  O  O57  1  0.53505211  0.59127350  0.87849915  1
  O  O58  1  0.13409148  0.99109205  0.47802915  1
  O  O59  1  0.85654205  0.70521626  0.56448580  1
  O  O60  1  0.65689085  0.90578533  0.36338641  1
  O  O61  1  0.54266922  0.89317239  0.83723060  1
  O  O62  1  0.28584476  0.96250338  0.92052226  1
  O  O63  1  0.82067243  0.92072598  0.81689410  1
