# generated using pymatgen
data_Rb2MgH12(SeO7)2
_symmetry_space_group_name_H-M   'P 1'
_cell_length_a   9.46236464
_cell_length_b   12.84624297
_cell_length_c   6.39717966
_cell_angle_alpha   90.00000000
_cell_angle_beta   105.08462035
_cell_angle_gamma   90.00000000
_symmetry_Int_Tables_number   1
_chemical_formula_structural   Rb2MgH12(SeO7)2
_chemical_formula_sum   'Rb4 Mg2 H24 Se4 O28'
_cell_volume   750.81988214
_cell_formula_units_Z   2
loop_
 _symmetry_equiv_pos_site_id
 _symmetry_equiv_pos_as_xyz
  1  'x, y, z'
loop_
 _atom_site_type_symbol
 _atom_site_label
 _atom_site_symmetry_multiplicity
 _atom_site_fract_x
 _atom_site_fract_y
 _atom_site_fract_z
 _atom_site_occupancy
  Rb  Rb0  1  0.13164246  0.34586070  0.34158201  1
  Rb  Rb1  1  0.36835754  0.84586070  0.65841799  1
  Rb  Rb2  1  0.63164246  0.15413930  0.34158201  1
  Rb  Rb3  1  0.86835754  0.65413930  0.65841799  1
  Mg  Mg4  1  0.00000000  0.00000000  0.00000000  1
  Mg  Mg5  1  0.50000000  0.50000000  0.00000000  1
  H  H6  1  0.08984640  0.05607151  0.65406221  1
  H  H7  1  0.03117320  0.86078588  0.33263556  1
  H  H8  1  0.13966503  0.81904214  0.99575290  1
  H  H9  1  0.23580775  0.40422287  0.93334289  1
  H  H10  1  0.26764405  0.62866660  0.91059325  1
  H  H11  1  0.20583412  0.09005918  0.31584551  1
  H  H12  1  0.29416588  0.59005918  0.68415449  1
  H  H13  1  0.23235595  0.12866660  0.08940675  1
  H  H14  1  0.26419225  0.90422287  0.06665711  1
  H  H15  1  0.36033497  0.31904214  0.00424710  1
  H  H16  1  0.46882680  0.36078588  0.66736444  1
  H  H17  1  0.41015360  0.55607151  0.34593779  1
  H  H18  1  0.58984640  0.44392849  0.65406221  1
  H  H19  1  0.53117320  0.63921412  0.33263556  1
  H  H20  1  0.63966503  0.68095786  0.99575290  1
  H  H21  1  0.73580775  0.09577713  0.93334289  1
  H  H22  1  0.76764405  0.87133340  0.91059325  1
  H  H23  1  0.70583412  0.40994082  0.31584551  1
  H  H24  1  0.79416588  0.90994082  0.68415449  1
  H  H25  1  0.73235595  0.37133340  0.08940675  1
  H  H26  1  0.76419225  0.59577713  0.06665711  1
  H  H27  1  0.86033497  0.18095786  0.00424710  1
  H  H28  1  0.96882680  0.13921412  0.66736444  1
  H  H29  1  0.91015360  0.94392849  0.34593779  1
  Se  Se30  1  0.09624422  0.64010747  0.26795233  1
  Se  Se31  1  0.40375578  0.14010747  0.73204767  1
  Se  Se32  1  0.59624422  0.85989253  0.26795233  1
  Se  Se33  1  0.90375578  0.35989253  0.73204767  1
  O  O34  1  0.00055753  0.06610360  0.70586439  1
  O  O35  1  0.06013206  0.42742749  0.78065491  1
  O  O36  1  0.16339936  0.89294087  0.97263854  1
  O  O37  1  0.08789128  0.74174829  0.42950637  1
  O  O38  1  0.12822920  0.68283847  0.03514365  1
  O  O39  1  0.15615781  0.10881546  0.16383859  1
  O  O40  1  0.23312977  0.56227914  0.40144331  1
  O  O41  1  0.26687023  0.06227914  0.59855669  1
  O  O42  1  0.34384219  0.60881646  0.83616141  1
  O  O43  1  0.37177080  0.18283847  0.96485635  1
  O  O44  1  0.41210872  0.24174829  0.57049363  1
  O  O45  1  0.33660064  0.39294087  0.02736146  1
  O  O46  1  0.50055753  0.43389640  0.70586439  1
  O  O47  1  0.43986794  0.92742749  0.21934509  1
  O  O48  1  0.56013206  0.07257251  0.78065491  1
  O  O49  1  0.49944247  0.56610360  0.29413561  1
  O  O50  1  0.66339936  0.60705913  0.97263854  1
  O  O51  1  0.58789128  0.75825171  0.42950637  1
  O  O52  1  0.62822920  0.81716153  0.03514365  1
  O  O53  1  0.65615781  0.39118354  0.16383859  1
  O  O54  1  0.73312977  0.93772086  0.40144331  1
  O  O55  1  0.76687023  0.43772086  0.59855669  1
  O  O56  1  0.84384219  0.89118354  0.83616141  1
  O  O57  1  0.87177080  0.31716153  0.96485635  1
  O  O58  1  0.91210872  0.25825171  0.57049363  1
  O  O59  1  0.83660064  0.10705913  0.02736146  1
  O  O60  1  0.93986794  0.57257251  0.21934509  1
  O  O61  1  0.99944247  0.93389640  0.29413561  1
