# generated using pymatgen
data_Na3FeAsCO7
_symmetry_space_group_name_H-M   'P 1'
_cell_length_a   9.27414904
_cell_length_b   6.85711732
_cell_length_c   5.29792791
_cell_angle_alpha   90.00000000
_cell_angle_beta   88.77983465
_cell_angle_gamma   90.00000000
_symmetry_Int_Tables_number   1
_chemical_formula_structural   Na3FeAsCO7
_chemical_formula_sum   'Na6 Fe2 As2 C2 O14'
_cell_volume   336.83965086
_cell_formula_units_Z   2
loop_
 _symmetry_equiv_pos_site_id
 _symmetry_equiv_pos_as_xyz
  1  'x, y, z'
loop_
 _atom_site_type_symbol
 _atom_site_label
 _atom_site_symmetry_multiplicity
 _atom_site_fract_x
 _atom_site_fract_y
 _atom_site_fract_z
 _atom_site_occupancy
  Na  Na0  1  0.08003944  0.25000000  0.76025763  1
  Na  Na1  1  0.25579527  0.00197032  0.24913290  1
  Na  Na2  1  0.25579527  0.49802968  0.24913290  1
  Na  Na3  1  0.74420473  0.50197032  0.75086710  1
  Na  Na4  1  0.74420473  0.99802968  0.75086710  1
  Na  Na5  1  0.91996056  0.75000000  0.23974237  1
  Fe  Fe6  1  0.34579971  0.75000000  0.78311194  1
  Fe  Fe7  1  0.65420029  0.25000000  0.21688806  1
  As  As8  1  0.41582072  0.25000000  0.69946942  1
  As  As9  1  0.58417928  0.75000000  0.30053058  1
  C  C10  1  0.05793614  0.75000000  0.72876858  1
  C  C11  1  0.94206386  0.25000000  0.27123142  1
  O  O12  1  0.08154093  0.25000000  0.28865209  1
  O  O13  1  0.11739598  0.75000000  0.94972978  1
  O  O14  1  0.14005986  0.75000000  0.52630355  1
  O  O15  1  0.30805679  0.05285649  0.78234569  1
  O  O16  1  0.30805679  0.44714351  0.78234569  1
  O  O17  1  0.44002002  0.25000000  0.37470793  1
  O  O18  1  0.41942908  0.75000000  0.16170386  1
  O  O19  1  0.58057092  0.25000000  0.83829614  1
  O  O20  1  0.55997998  0.75000000  0.62529207  1
  O  O21  1  0.69194321  0.55285649  0.21765431  1
  O  O22  1  0.69194321  0.94714351  0.21765431  1
  O  O23  1  0.85994014  0.25000000  0.47369645  1
  O  O24  1  0.88260402  0.25000000  0.05027022  1
  O  O25  1  0.91845907  0.75000000  0.71134791  1
