# generated using pymatgen
data_KNdGeS4
_symmetry_space_group_name_H-M   'P 1'
_cell_length_a   6.66957011
_cell_length_b   6.77692523
_cell_length_c   8.79097162
_cell_angle_alpha   90.00000000
_cell_angle_beta   107.23540695
_cell_angle_gamma   90.00000000
_symmetry_Int_Tables_number   1
_chemical_formula_structural   KNdGeS4
_chemical_formula_sum   'K2 Nd2 Ge2 S8'
_cell_volume   379.50210238
_cell_formula_units_Z   2
loop_
 _symmetry_equiv_pos_site_id
 _symmetry_equiv_pos_as_xyz
  1  'x, y, z'
loop_
 _atom_site_type_symbol
 _atom_site_label
 _atom_site_symmetry_multiplicity
 _atom_site_fract_x
 _atom_site_fract_y
 _atom_site_fract_z
 _atom_site_occupancy
  K  K0  1  0.27034517  0.01098704  0.06644339  1
  K  K1  1  0.72965583  0.51098704  0.93355561  1
  Nd  Nd2  1  0.77206200  0.49501532  0.44818997  1
  Nd  Nd3  1  0.22793800  0.99501532  0.55181103  1
  Ge  Ge4  1  0.22298978  0.52664618  0.32032950  1
  Ge  Ge5  1  0.77701022  0.02664618  0.67966950  1
  S  S6  1  0.42415218  0.52861736  0.16233005  1
  S  S7  1  0.97928729  0.76426938  0.27449851  1
  S  S8  1  0.02117243  0.25718888  0.29086998  1
  S  S9  1  0.57921309  0.08427684  0.42993000  1
  S  S10  1  0.42078791  0.58427684  0.57007100  1
  S  S11  1  0.97882757  0.75718888  0.70913002  1
  S  S12  1  0.02071171  0.26426938  0.72550049  1
  S  S13  1  0.57584782  0.02861736  0.83767095  1
