# generated using pymatgen
data_Li2NbCr3O8
_symmetry_space_group_name_H-M   'P 1'
_cell_length_a   5.98174716
_cell_length_b   5.98174933
_cell_length_c   9.62227295
_cell_angle_alpha   90.00072673
_cell_angle_beta   89.99963300
_cell_angle_gamma   120.00000933
_symmetry_Int_Tables_number   1
_chemical_formula_structural   Li2NbCr3O8
_chemical_formula_sum   'Li4 Nb2 Cr6 O16'
_cell_volume   298.17039766
_cell_formula_units_Z   2
loop_
 _symmetry_equiv_pos_site_id
 _symmetry_equiv_pos_as_xyz
  1  'x, y, z'
loop_
 _atom_site_type_symbol
 _atom_site_label
 _atom_site_symmetry_multiplicity
 _atom_site_fract_x
 _atom_site_fract_y
 _atom_site_fract_z
 _atom_site_occupancy
  Li  Li0  1  0.33333062  0.66668104  0.89914980  1
  Li  Li1  1  0.00000261  0.00000907  0.99337825  1
  Li  Li2  1  0.99999739  0.00000646  0.49337825  1
  Li  Li3  1  0.66666938  0.33335042  0.39914980  1
  Nb  Nb4  1  0.33334094  0.66667829  0.49314805  1
  Nb  Nb5  1  0.66665906  0.33333835  0.99314805  1
  Cr  Cr6  1  0.17017671  0.82986361  0.21532013  1
  Cr  Cr7  1  0.17013239  0.34031843  0.21531181  1
  Cr  Cr8  1  0.65968541  0.82985070  0.21530893  1
  Cr  Cr9  1  0.34031459  0.17016529  0.71530893  1
  Cr  Cr10  1  0.82982329  0.65968790  0.71532013  1
  Cr  Cr11  1  0.82986761  0.17018604  0.71531181  1
  O  O12  1  0.16715867  0.83284034  0.59418957  1
  O  O13  1  0.03974201  0.51988337  0.34110296  1
  O  O14  1  0.33332788  0.66667459  0.10854446  1
  O  O15  1  0.99999711  0.00001146  0.30788653  1
  O  O16  1  0.00000289  0.00001435  0.80788653  1
  O  O17  1  0.16716939  0.33433787  0.59418637  1
  O  O18  1  0.48013740  0.96027002  0.34110530  1
  O  O19  1  0.48011997  0.51987906  0.34109817  1
  O  O20  1  0.33432481  0.16717362  0.09418968  1
  O  O21  1  0.66567519  0.83284880  0.59418968  1
  O  O22  1  0.51986260  0.48013262  0.84110530  1
  O  O23  1  0.51988003  0.03975909  0.84109817  1
  O  O24  1  0.66667212  0.33334671  0.60854446  1
  O  O25  1  0.83284133  0.66568167  0.09418957  1
  O  O26  1  0.96025799  0.48014136  0.84110296  1
  O  O27  1  0.83283061  0.16716848  0.09418637  1
