# generated using pymatgen
data_EuH4S2NO8
_symmetry_space_group_name_H-M   'P 1'
_cell_length_a   8.99647830
_cell_length_b   7.22084897
_cell_length_c   10.87925716
_cell_angle_alpha   90.00000000
_cell_angle_beta   91.35499375
_cell_angle_gamma   90.00000000
_symmetry_Int_Tables_number   1
_chemical_formula_structural   EuH4S2NO8
_chemical_formula_sum   'Eu4 H16 S8 N4 O32'
_cell_volume   706.54297626
_cell_formula_units_Z   4
loop_
 _symmetry_equiv_pos_site_id
 _symmetry_equiv_pos_as_xyz
  1  'x, y, z'
loop_
 _atom_site_type_symbol
 _atom_site_label
 _atom_site_symmetry_multiplicity
 _atom_site_fract_x
 _atom_site_fract_y
 _atom_site_fract_z
 _atom_site_occupancy
  Eu  Eu0  1  0.05233265  0.67088066  0.84808779  1
  Eu  Eu1  1  0.05233265  0.82911934  0.34808779  1
  Eu  Eu2  1  0.94766735  0.17088066  0.65191221  1
  Eu  Eu3  1  0.94766735  0.32911934  0.15191221  1
  H  H4  1  0.35090989  0.45179185  0.65309541  1
  H  H5  1  0.35090989  0.04820815  0.15309541  1
  H  H6  1  0.39840719  0.23073569  0.61796672  1
  H  H7  1  0.39840719  0.26926431  0.11796672  1
  H  H8  1  0.46372973  0.33132138  0.74799537  1
  H  H9  1  0.46372973  0.16867862  0.24799537  1
  H  H10  1  0.47348472  0.89959197  0.88782358  1
  H  H11  1  0.47348472  0.60040803  0.38782358  1
  H  H12  1  0.52651528  0.39959197  0.61217642  1
  H  H13  1  0.52651528  0.10040803  0.11217642  1
  H  H14  1  0.53627027  0.83132138  0.75200463  1
  H  H15  1  0.53627027  0.66867862  0.25200463  1
  H  H16  1  0.60159281  0.73073569  0.88203328  1
  H  H17  1  0.60159281  0.76926431  0.38203328  1
  H  H18  1  0.64909011  0.95179185  0.84690459  1
  H  H19  1  0.64909011  0.54820815  0.34690459  1
  S  S20  1  0.17486055  0.16776182  0.88680736  1
  S  S21  1  0.17486055  0.33223818  0.38680736  1
  S  S22  1  0.26339987  0.83538542  0.58482942  1
  S  S23  1  0.26339987  0.66461458  0.08482942  1
  S  S24  1  0.73660013  0.33538542  0.91517058  1
  S  S25  1  0.73660013  0.16461458  0.41517058  1
  S  S26  1  0.82513945  0.66776182  0.61319264  1
  S  S27  1  0.82513945  0.83223818  0.11319264  1
  N  N28  1  0.43402330  0.35338185  0.65710664  1
  N  N29  1  0.43402330  0.14661815  0.15710664  1
  N  N30  1  0.56597670  0.85338185  0.84289336  1
  N  N31  1  0.56597670  0.64661815  0.34289336  1
  O  O32  1  0.10055579  0.01139573  0.81649146  1
  O  O33  1  0.10055579  0.48860427  0.31649146  1
  O  O34  1  0.11423825  0.32711750  0.51155949  1
  O  O35  1  0.12897945  0.33518597  0.81146986  1
  O  O36  1  0.12644520  0.95021677  0.55807119  1
  O  O37  1  0.11423825  0.17288250  0.01155949  1
  O  O38  1  0.12897945  0.16481403  0.31146986  1
  O  O39  1  0.12644520  0.54978323  0.05807119  1
  O  O40  1  0.23151921  0.69291632  0.67982795  1
  O  O41  1  0.23151921  0.80708368  0.17982795  1
  O  O42  1  0.28767819  0.75810093  0.96452353  1
  O  O43  1  0.28767819  0.74189907  0.46452353  1
  O  O44  1  0.33633587  0.15097742  0.89086188  1
  O  O45  1  0.33633587  0.34902258  0.39086188  1
  O  O46  1  0.38866143  0.95162651  0.62345624  1
  O  O47  1  0.38866143  0.54837349  0.12345624  1
  O  O48  1  0.61133857  0.45162651  0.87654376  1
  O  O49  1  0.61133857  0.04837349  0.37654376  1
  O  O50  1  0.66366413  0.65097742  0.60913812  1
  O  O51  1  0.66366413  0.84902258  0.10913812  1
  O  O52  1  0.71232181  0.25810093  0.53547647  1
  O  O53  1  0.71232181  0.24189907  0.03547647  1
  O  O54  1  0.76848079  0.19291632  0.82017205  1
  O  O55  1  0.76848079  0.30708368  0.32017205  1
  O  O56  1  0.87355480  0.45021677  0.94192881  1
  O  O57  1  0.87102055  0.83518597  0.68853014  1
  O  O58  1  0.88576175  0.82711750  0.98844051  1
  O  O59  1  0.87355480  0.04978323  0.44192881  1
  O  O60  1  0.87102055  0.66481403  0.18853014  1
  O  O61  1  0.88576175  0.67288250  0.48844051  1
  O  O62  1  0.89944421  0.51139573  0.68350854  1
  O  O63  1  0.89944421  0.98860427  0.18350854  1
