# generated using pymatgen
data_Na3FeSiCO7
_symmetry_space_group_name_H-M   'P 1'
_cell_length_a   9.04898048
_cell_length_b   6.59851866
_cell_length_c   5.21998572
_cell_angle_alpha   90.00000000
_cell_angle_beta   89.57083623
_cell_angle_gamma   90.00000000
_symmetry_Int_Tables_number   1
_chemical_formula_structural   Na3FeSiCO7
_chemical_formula_sum   'Na6 Fe2 Si2 C2 O14'
_cell_volume   311.67590706
_cell_formula_units_Z   2
loop_
 _symmetry_equiv_pos_site_id
 _symmetry_equiv_pos_as_xyz
  1  'x, y, z'
loop_
 _atom_site_type_symbol
 _atom_site_label
 _atom_site_symmetry_multiplicity
 _atom_site_fract_x
 _atom_site_fract_y
 _atom_site_fract_z
 _atom_site_occupancy
  Na  Na0  1  0.08671863  0.25000000  0.76122139  1
  Na  Na1  1  0.26131626  0.00534165  0.25252881  1
  Na  Na2  1  0.26131626  0.49465835  0.25252881  1
  Na  Na3  1  0.73868374  0.50534165  0.74747119  1
  Na  Na4  1  0.73868374  0.99465835  0.74747119  1
  Na  Na5  1  0.91328137  0.75000000  0.23877861  1
  Fe  Fe6  1  0.35834629  0.75000000  0.79146777  1
  Fe  Fe7  1  0.64165371  0.25000000  0.20853223  1
  Si  Si8  1  0.41867495  0.25000000  0.70369231  1
  Si  Si9  1  0.58132505  0.75000000  0.29630769  1
  C  C10  1  0.06208414  0.75000000  0.73478847  1
  C  C11  1  0.93791586  0.25000000  0.26521153  1
  O  O12  1  0.07950036  0.25000000  0.28828646  1
  O  O13  1  0.12314064  0.75000000  0.96041072  1
  O  O14  1  0.14827213  0.75000000  0.53374393  1
  O  O15  1  0.31701894  0.04996598  0.77435797  1
  O  O16  1  0.31701894  0.45003402  0.77435797  1
  O  O17  1  0.45252016  0.25000000  0.38995425  1
  O  O18  1  0.42249011  0.75000000  0.14673016  1
  O  O19  1  0.57750989  0.25000000  0.85326984  1
  O  O20  1  0.54747984  0.75000000  0.61004575  1
  O  O21  1  0.68298106  0.54996598  0.22564203  1
  O  O22  1  0.68298106  0.95003402  0.22564203  1
  O  O23  1  0.85172787  0.25000000  0.46625607  1
  O  O24  1  0.87685936  0.25000000  0.03958928  1
  O  O25  1  0.92049964  0.75000000  0.71171354  1
