# generated using pymatgen
data_MgSb2H2F14
_symmetry_space_group_name_H-M   'P 1'
_cell_length_a   12.67159897
_cell_length_b   12.54958678
_cell_length_c   7.06448131
_cell_angle_alpha   90.00000000
_cell_angle_beta   90.00000000
_cell_angle_gamma   90.00000000
_symmetry_Int_Tables_number   1
_chemical_formula_structural   MgSb2H2F14
_chemical_formula_sum   'Mg4 Sb8 H8 F56'
_cell_volume   1123.41734911
_cell_formula_units_Z   4
loop_
 _symmetry_equiv_pos_site_id
 _symmetry_equiv_pos_as_xyz
  1  'x, y, z'
loop_
 _atom_site_type_symbol
 _atom_site_label
 _atom_site_symmetry_multiplicity
 _atom_site_fract_x
 _atom_site_fract_y
 _atom_site_fract_z
 _atom_site_occupancy
  Mg  Mg0  1  0.09121563  0.25000000  0.28021901  1
  Mg  Mg1  1  0.40878437  0.75000000  0.78021901  1
  Mg  Mg2  1  0.59121563  0.25000000  0.21978099  1
  Mg  Mg3  1  0.90878437  0.75000000  0.71978099  1
  Sb  Sb4  1  0.00000000  0.00000000  0.00000000  1
  Sb  Sb5  1  0.00000000  0.50000000  0.00000000  1
  Sb  Sb6  1  0.17239593  0.75000000  0.45274641  1
  Sb  Sb7  1  0.32760407  0.25000000  0.95274641  1
  Sb  Sb8  1  0.50000000  0.50000000  0.50000000  1
  Sb  Sb9  1  0.50000000  0.00000000  0.50000000  1
  Sb  Sb10  1  0.67239593  0.75000000  0.04725359  1
  Sb  Sb11  1  0.82760407  0.25000000  0.54725359  1
  H  H12  1  0.11453549  0.11481812  0.59493785  1
  H  H13  1  0.11453549  0.38518188  0.59493785  1
  H  H14  1  0.38546451  0.61481812  0.09493785  1
  H  H15  1  0.38546451  0.88518188  0.09493785  1
  H  H16  1  0.61453549  0.11481812  0.90506215  1
  H  H17  1  0.61453549  0.38518188  0.90506215  1
  H  H18  1  0.88546451  0.61481812  0.40506215  1
  H  H19  1  0.88546451  0.88518188  0.40506215  1
  F  F20  1  0.04277849  0.03930971  0.74721537  1
  F  F21  1  0.04277849  0.46069029  0.74721537  1
  F  F22  1  0.05290610  0.13720449  0.09073328  1
  F  F23  1  0.05290610  0.36279551  0.09073328  1
  F  F24  1  0.05738008  0.75000000  0.64092625  1
  F  F25  1  0.06739642  0.75000000  0.26077079  1
  F  F26  1  0.13356584  0.13678415  0.46761199  1
  F  F27  1  0.13356584  0.36321585  0.46761199  1
  F  F28  1  0.13499195  0.55982036  0.03813072  1
  F  F29  1  0.13499195  0.94017964  0.03813072  1
  F  F30  1  0.17353796  0.59940128  0.46984501  1
  F  F31  1  0.17353796  0.90059872  0.46984501  1
  F  F32  1  0.20762600  0.25000000  0.78987224  1
  F  F33  1  0.23558633  0.25000000  0.17836374  1
  F  F34  1  0.26441367  0.75000000  0.67836374  1
  F  F35  1  0.29237400  0.75000000  0.28987224  1
  F  F36  1  0.32646204  0.09940128  0.96984501  1
  F  F37  1  0.32646204  0.40059872  0.96984501  1
  F  F38  1  0.36500805  0.05982036  0.53813072  1
  F  F39  1  0.36500805  0.44017964  0.53813072  1
  F  F40  1  0.36643416  0.63678415  0.96761199  1
  F  F41  1  0.36643416  0.86321585  0.96761199  1
  F  F42  1  0.43260358  0.25000000  0.76077079  1
  F  F43  1  0.44261992  0.25000000  0.14092625  1
  F  F44  1  0.44709390  0.63720449  0.59073328  1
  F  F45  1  0.44709390  0.86279551  0.59073328  1
  F  F46  1  0.45722151  0.53930971  0.24721537  1
  F  F47  1  0.45722151  0.96069029  0.24721537  1
  F  F48  1  0.54277849  0.03930971  0.75278463  1
  F  F49  1  0.54277849  0.46069029  0.75278463  1
  F  F50  1  0.55290610  0.13720449  0.40926672  1
  F  F51  1  0.55290610  0.36279551  0.40926672  1
  F  F52  1  0.55738008  0.75000000  0.85907375  1
  F  F53  1  0.56739642  0.75000000  0.23922921  1
  F  F54  1  0.63356584  0.13678415  0.03238801  1
  F  F55  1  0.63356584  0.36321585  0.03238801  1
  F  F56  1  0.63499195  0.55982036  0.46186928  1
  F  F57  1  0.63499195  0.94017964  0.46186928  1
  F  F58  1  0.67353796  0.59940128  0.03015499  1
  F  F59  1  0.67353796  0.90059872  0.03015499  1
  F  F60  1  0.70762600  0.25000000  0.71012776  1
  F  F61  1  0.73558633  0.25000000  0.32163626  1
  F  F62  1  0.76441367  0.75000000  0.82163626  1
  F  F63  1  0.79237400  0.75000000  0.21012776  1
  F  F64  1  0.82646204  0.09940128  0.53015499  1
  F  F65  1  0.82646204  0.40059872  0.53015499  1
  F  F66  1  0.86500805  0.05982036  0.96186928  1
  F  F67  1  0.86500805  0.44017964  0.96186928  1
  F  F68  1  0.86643416  0.63678415  0.53238801  1
  F  F69  1  0.86643416  0.86321585  0.53238801  1
  F  F70  1  0.93260358  0.25000000  0.73922921  1
  F  F71  1  0.94261992  0.25000000  0.35907375  1
  F  F72  1  0.94709390  0.63720449  0.90926672  1
  F  F73  1  0.94709390  0.86279551  0.90926672  1
  F  F74  1  0.95722151  0.96069029  0.25278463  1
  F  F75  1  0.95722151  0.53930971  0.25278463  1
