# generated using pymatgen
data_Rb2Li2GeO4
_symmetry_space_group_name_H-M   'P 1'
_cell_length_a   5.68187944
_cell_length_b   5.82424222
_cell_length_c   8.97973783
_cell_angle_alpha   83.40305777
_cell_angle_beta   74.41697094
_cell_angle_gamma   85.10216735
_symmetry_Int_Tables_number   1
_chemical_formula_structural   Rb2Li2GeO4
_chemical_formula_sum   'Rb4 Li4 Ge2 O8'
_cell_volume   283.88306224
_cell_formula_units_Z   2
loop_
 _symmetry_equiv_pos_site_id
 _symmetry_equiv_pos_as_xyz
  1  'x, y, z'
loop_
 _atom_site_type_symbol
 _atom_site_label
 _atom_site_symmetry_multiplicity
 _atom_site_fract_x
 _atom_site_fract_y
 _atom_site_fract_z
 _atom_site_occupancy
  Li  Li0  1  0.06988814  0.81381156  0.56057734  1
  Li  Li1  1  0.93011186  0.18618844  0.43942266  1
  Li  Li2  1  0.30442603  0.40881070  0.58076632  1
  Li  Li3  1  0.69557397  0.59118930  0.41923368  1
  O  O4  1  0.01131867  0.56864333  0.72350580  1
  O  O5  1  0.98868133  0.43135667  0.27649420  1
  O  O6  1  0.90146272  0.86919297  0.38996151  1
  O  O7  1  0.09853728  0.13080703  0.61003849  1
  O  O8  1  0.27296930  0.79975216  0.08411637  1
  O  O9  1  0.72703070  0.20024784  0.91588363  1
  O  O10  1  0.36449438  0.64042191  0.39131086  1
  O  O11  1  0.63550562  0.35957809  0.60868914  1
  Ge  Ge12  1  0.14483969  0.68662504  0.27629489  1
  Ge  Ge13  1  0.85516031  0.31337496  0.72370511  1
  Rb  Rb14  1  0.46956952  0.85007174  0.72889481  1
  Rb  Rb15  1  0.53043048  0.14992826  0.27110519  1
  Rb  Rb16  1  0.78834192  0.72674063  0.01806812  1
  Rb  Rb17  1  0.21165808  0.27325937  0.98193188  1
