# generated using pymatgen
data_Ba4Fe4O11
_symmetry_space_group_name_H-M   'P 1'
_cell_length_a   5.79561736
_cell_length_b   5.80264224
_cell_length_c   28.43960870
_cell_angle_alpha   89.75140134
_cell_angle_beta   90.19542684
_cell_angle_gamma   120.34771816
_symmetry_Int_Tables_number   1
_chemical_formula_structural   Ba4Fe4O11
_chemical_formula_sum   'Ba12 Fe12 O33'
_cell_volume   825.35890370
_cell_formula_units_Z   3
loop_
 _symmetry_equiv_pos_site_id
 _symmetry_equiv_pos_as_xyz
  1  'x, y, z'
loop_
 _atom_site_type_symbol
 _atom_site_label
 _atom_site_symmetry_multiplicity
 _atom_site_fract_x
 _atom_site_fract_y
 _atom_site_fract_z
 _atom_site_occupancy
  Ba  Ba0  1  0.33378796  0.66586616  0.79785963  1
  Ba  Ba1  1  0.33079959  0.66388533  0.28892187  1
  Ba  Ba2  1  0.33356074  0.66657407  0.95076282  1
  Ba  Ba3  1  0.00764648  0.01476494  0.37389921  1
  Ba  Ba4  1  0.99724753  0.00033668  0.12779112  1
  Ba  Ba5  1  0.99131039  0.00454004  0.62635663  1
  Ba  Ba6  1  0.33197015  0.66064303  0.45866727  1
  Ba  Ba7  1  0.00021274  0.99977212  0.87360945  1
  Ba  Ba8  1  0.67174429  0.32747420  0.04567595  1
  Ba  Ba9  1  0.66730190  0.32846737  0.54109930  1
  Ba  Ba10  1  0.66332893  0.33352796  0.20346951  1
  Ba  Ba11  1  0.66846249  0.32955725  0.71180394  1
  Fe  Fe12  1  0.35927858  0.63876058  0.08074407  1
  Fe  Fe13  1  0.31931169  0.68117515  0.57453589  1
  Fe  Fe14  1  0.33251475  0.66952765  0.17254028  1
  Fe  Fe15  1  0.98080250  0.01864625  0.99498650  1
  Fe  Fe16  1  0.00050209  0.00422305  0.24908469  1
  Fe  Fe17  1  0.99897713  0.00563773  0.50019198  1
  Fe  Fe18  1  0.31944774  0.67865856  0.67664751  1
  Fe  Fe19  1  0.99855636  0.00022500  0.75132660  1
  Fe  Fe20  1  0.67966308  0.36000887  0.32342247  1
  Fe  Fe21  1  0.66665278  0.33304616  0.82899114  1
  Fe  Fe22  1  0.66054694  0.33949779  0.92297353  1
  Fe  Fe23  1  0.68005451  0.36224906  0.42532625  1
  O  O24  1  0.15580790  0.84112060  0.71045508  1
  O  O25  1  0.16530944  0.83771866  0.20757313  1
  O  O26  1  0.16114664  0.84519640  0.54066893  1
  O  O27  1  0.04258850  0.51949422  0.11772670  1
  O  O28  1  0.05678667  0.49952339  0.62566935  1
  O  O29  1  0.17427331  0.33847516  0.54097154  1
  O  O30  1  0.17016893  0.33121186  0.04010757  1
  O  O31  1  0.17855191  0.33865235  0.70636645  1
  O  O32  1  0.15927519  0.33407594  0.21087187  1
  O  O33  1  0.49444537  0.94379732  0.62648144  1
  O  O34  1  0.47766507  0.95603754  0.11683552  1
  O  O35  1  0.49713889  0.50027507  0.12743063  1
  O  O36  1  0.66042219  0.81941031  0.70630601  1
  O  O37  1  0.66654387  0.84413915  0.20889300  1
  O  O38  1  0.66814779  0.82800265  0.04002723  1
  O  O39  1  0.66275142  0.82327678  0.54387286  1
  O  O40  1  0.34069914  0.17295610  0.79164313  1
  O  O41  1  0.33577567  0.16037412  0.29265031  1
  O  O42  1  0.33852794  0.16111110  0.45636715  1
  O  O43  1  0.32689523  0.15001448  0.96451649  1
  O  O44  1  0.50488936  0.44942150  0.37404060  1
  O  O45  1  0.51143078  0.48820916  0.88083267  1
  O  O46  1  0.84301508  0.68483997  0.28969009  1
  O  O47  1  0.82667406  0.65902811  0.79173783  1
  O  O48  1  0.83771598  0.68439723  0.45952353  1
  O  O49  1  0.85071784  0.67343383  0.96459648  1
  O  O50  1  0.51311374  0.03625555  0.87344059  1
  O  O51  1  0.94405110  0.44600019  0.37537640  1
  O  O52  1  0.96397537  0.48663598  0.87346584  1
  O  O53  1  0.82148017  0.16030242  0.29428401  1
  O  O54  1  0.82429450  0.16446578  0.45894803  1
  O  O55  1  0.83885953  0.16065114  0.78826973  1
  O  O56  1  0.82541202  0.17407092  0.95799120  1
