# generated using pymatgen
data_Na3SbH30S3N10
_symmetry_space_group_name_H-M   'P 1'
_cell_length_a   10.00047199
_cell_length_b   6.16099549
_cell_length_c   34.04877304
_cell_angle_alpha   90.00000000
_cell_angle_beta   91.34408545
_cell_angle_gamma   90.00000000
_symmetry_Int_Tables_number   1
_chemical_formula_structural   Na3SbH30S3N10
_chemical_formula_sum   'Na12 Sb4 H120 S12 N40'
_cell_volume   2097.26517520
_cell_formula_units_Z   4
loop_
 _symmetry_equiv_pos_site_id
 _symmetry_equiv_pos_as_xyz
  1  'x, y, z'
loop_
 _atom_site_type_symbol
 _atom_site_label
 _atom_site_symmetry_multiplicity
 _atom_site_fract_x
 _atom_site_fract_y
 _atom_site_fract_z
 _atom_site_occupancy
  Na  Na0  1  0.06044465  0.50103769  0.58787906  1
  Na  Na1  1  0.06044465  0.99896231  0.08787906  1
  Na  Na2  1  0.40972801  0.44984025  0.67733338  1
  Na  Na3  1  0.40972801  0.05015975  0.17733338  1
  Na  Na4  1  0.45463804  0.52008152  0.55311916  1
  Na  Na5  1  0.45463804  0.97991848  0.05311916  1
  Na  Na6  1  0.54536196  0.02008152  0.94688084  1
  Na  Na7  1  0.54536196  0.47991848  0.44688084  1
  Na  Na8  1  0.59027199  0.94984025  0.82266662  1
  Na  Na9  1  0.59027199  0.55015975  0.32266662  1
  Na  Na10  1  0.93955535  0.00103769  0.91212094  1
  Na  Na11  1  0.93955535  0.49896231  0.41212094  1
  Sb  Sb12  1  0.31258672  0.03469957  0.60197366  1
  Sb  Sb13  1  0.31258672  0.46530043  0.10197366  1
  Sb  Sb14  1  0.68741328  0.53469957  0.89802634  1
  Sb  Sb15  1  0.68741328  0.96530043  0.39802634  1
  H  H16  1  0.04051435  0.26171711  0.98713860  1
  H  H17  1  0.01773718  0.87478704  0.64273347  1
  H  H18  1  0.03181739  0.21075398  0.76053944  1
  H  H19  1  0.04051435  0.23828289  0.48713860  1
  H  H20  1  0.05954636  0.16443461  0.83832004  1
  H  H21  1  0.01773718  0.62521296  0.14273347  1
  H  H22  1  0.06689808  0.67230064  0.89692426  1
  H  H23  1  0.03181739  0.28924602  0.26053944  1
  H  H24  1  0.05954636  0.33556539  0.33832004  1
  H  H25  1  0.08739457  0.70532469  0.81604929  1
  H  H26  1  0.09108565  0.88637865  0.53259219  1
  H  H27  1  0.12255787  0.63760320  0.94187353  1
  H  H28  1  0.06689808  0.82769936  0.39692426  1
  H  H29  1  0.13407042  0.30959805  0.87228634  1
  H  H30  1  0.10578737  0.64340185  0.51325661  1
  H  H31  1  0.08739457  0.79467531  0.31604929  1
  H  H32  1  0.09108565  0.61362135  0.03259219  1
  H  H33  1  0.12255787  0.86239680  0.44187353  1
  H  H34  1  0.15289308  0.38063011  0.77096768  1
  H  H35  1  0.13407042  0.19040195  0.37228634  1
  H  H36  1  0.10578737  0.85659815  0.01325661  1
  H  H37  1  0.16544842  0.20834685  0.73412064  1
  H  H38  1  0.17790565  0.88877553  0.79392988  1
  H  H39  1  0.17024275  0.60313495  0.69085445  1
  H  H40  1  0.15289308  0.11936989  0.27096768  1
  H  H41  1  0.16544842  0.29165315  0.23412064  1
  H  H42  1  0.22454391  0.72735111  0.90835013  1
  H  H43  1  0.17790565  0.61122447  0.29392988  1
  H  H44  1  0.21671311  0.70759154  0.73362834  1
  H  H45  1  0.17024275  0.89686505  0.19085445  1
  H  H46  1  0.22724030  0.85324656  0.69276800  1
  H  H47  1  0.25077189  0.70550435  0.82268996  1
  H  H48  1  0.22454391  0.77264889  0.40835013  1
  H  H49  1  0.25347626  0.14189873  0.92749709  1
  H  H50  1  0.21671311  0.79240846  0.23362834  1
  H  H51  1  0.22724030  0.64675344  0.19276800  1
  H  H52  1  0.25077189  0.79449565  0.32268996  1
  H  H53  1  0.25347626  0.35810127  0.42749709  1
  H  H54  1  0.30764715  0.26494053  0.96758375  1
  H  H55  1  0.32683782  0.79845644  0.97613875  1
  H  H56  1  0.31493569  0.21607127  0.81181179  1
  H  H57  1  0.30764715  0.23505947  0.46758375  1
  H  H58  1  0.35452263  0.35468928  0.92420801  1
  H  H59  1  0.32683782  0.70154356  0.47613875  1
  H  H60  1  0.36508288  0.10042519  0.85307634  1
  H  H61  1  0.31493569  0.28392873  0.31181179  1
  H  H62  1  0.34414744  0.88834148  0.51023381  1
  H  H63  1  0.35452263  0.14531072  0.42420801  1
  H  H64  1  0.36508288  0.39957481  0.35307634  1
  H  H65  1  0.41454623  0.34851339  0.84318270  1
  H  H66  1  0.34414744  0.61165852  0.01023381  1
  H  H67  1  0.42265350  0.14814160  0.75109184  1
  H  H68  1  0.46810756  0.66848895  0.98133403  1
  H  H69  1  0.42926663  0.65716727  0.76766573  1
  H  H70  1  0.41454623  0.15148661  0.34318270  1
  H  H71  1  0.45040187  0.02517687  0.70949721  1
  H  H72  1  0.42265350  0.35185840  0.25109184  1
  H  H73  1  0.46810756  0.83151105  0.48133403  1
  H  H74  1  0.42926663  0.84283273  0.26766573  1
  H  H75  1  0.45040187  0.47482313  0.20949721  1
  H  H76  1  0.54959813  0.52517687  0.79050279  1
  H  H77  1  0.57073337  0.15716727  0.73233427  1
  H  H78  1  0.53189244  0.16848895  0.51866597  1
  H  H79  1  0.57734650  0.64814160  0.74890816  1
  H  H80  1  0.54959813  0.97482313  0.29050279  1
  H  H81  1  0.58545377  0.84851339  0.65681730  1
  H  H82  1  0.57073337  0.34283273  0.23233427  1
  H  H83  1  0.53189244  0.33151105  0.01866597  1
  H  H84  1  0.57734650  0.85185840  0.24890816  1
  H  H85  1  0.65585256  0.38834148  0.98976619  1
  H  H86  1  0.58545377  0.65148661  0.15681730  1
  H  H87  1  0.63491712  0.60042519  0.64692366  1
  H  H88  1  0.64547737  0.85468928  0.57579199  1
  H  H89  1  0.65585256  0.11165852  0.48976619  1
  H  H90  1  0.68506431  0.71607127  0.68818821  1
  H  H91  1  0.63491712  0.89957481  0.14692366  1
  H  H92  1  0.67316218  0.29845644  0.52386125  1
  H  H93  1  0.64547737  0.64531072  0.07579199  1
  H  H94  1  0.69235285  0.76494053  0.53241625  1
  H  H95  1  0.68506431  0.78392873  0.18818821  1
  H  H96  1  0.67316218  0.20154356  0.02386125  1
  H  H97  1  0.69235285  0.73505947  0.03241625  1
  H  H98  1  0.74652374  0.64189873  0.57250291  1
  H  H99  1  0.74922811  0.20550435  0.67731004  1
  H  H100  1  0.77275970  0.35324656  0.80723200  1
  H  H101  1  0.78328689  0.20759154  0.76637166  1
  H  H102  1  0.74652374  0.85810127  0.07250291  1
  H  H103  1  0.77545609  0.22735111  0.59164987  1
  H  H104  1  0.74922811  0.29449565  0.17731004  1
  H  H105  1  0.77275970  0.14675344  0.30723200  1
  H  H106  1  0.82975725  0.10313495  0.80914555  1
  H  H107  1  0.78328689  0.29240846  0.26637166  1
  H  H108  1  0.82209435  0.38877553  0.70607012  1
  H  H109  1  0.77545609  0.27264889  0.09164987  1
  H  H110  1  0.83455158  0.70834685  0.76587936  1
  H  H111  1  0.84710692  0.88063011  0.72903232  1
  H  H112  1  0.82975725  0.39686505  0.30914555  1
  H  H113  1  0.82209435  0.11122447  0.20607012  1
  H  H114  1  0.83455158  0.79165315  0.26587936  1
  H  H115  1  0.89421263  0.14340185  0.98674339  1
  H  H116  1  0.86592958  0.80959805  0.62771366  1
  H  H117  1  0.84710692  0.61936989  0.22903232  1
  H  H118  1  0.87744213  0.13760420  0.55812647  1
  H  H119  1  0.90891435  0.38637865  0.96740781  1
  H  H120  1  0.91260543  0.20532469  0.68395071  1
  H  H121  1  0.89421263  0.35659815  0.48674339  1
  H  H122  1  0.86592958  0.69040195  0.12771366  1
  H  H123  1  0.93310192  0.17230064  0.60307574  1
  H  H124  1  0.87744213  0.36239580  0.05812647  1
  H  H125  1  0.90891435  0.11362135  0.46740781  1
  H  H126  1  0.91260543  0.29467531  0.18395071  1
  H  H127  1  0.94045364  0.66443461  0.66167996  1
  H  H128  1  0.96818261  0.71075398  0.73946056  1
  H  H129  1  0.93310192  0.32769936  0.10307574  1
  H  H130  1  0.98226282  0.37478704  0.85726653  1
  H  H131  1  0.94045364  0.83556539  0.16167996  1
  H  H132  1  0.95948565  0.76171711  0.51286140  1
  H  H133  1  0.96818261  0.78924602  0.23946056  1
  H  H134  1  0.98226282  0.12521296  0.35726653  1
  H  H135  1  0.95948565  0.73828289  0.01286140  1
  S  S136  1  0.17085938  0.20843492  0.65054477  1
  S  S137  1  0.17085938  0.29156508  0.15054477  1
  S  S138  1  0.24055637  0.22688825  0.54221537  1
  S  S139  1  0.24055637  0.27311175  0.04221537  1
  S  S140  1  0.46956232  0.70481287  0.88582609  1
  S  S141  1  0.46956232  0.79518713  0.38582609  1
  S  S142  1  0.53043768  0.20481287  0.61417391  1
  S  S143  1  0.53043768  0.29518713  0.11417391  1
  S  S144  1  0.75944363  0.72688825  0.95778463  1
  S  S145  1  0.75944363  0.77311175  0.45778463  1
  S  S146  1  0.82914062  0.70843492  0.84945523  1
  S  S147  1  0.82914062  0.79156508  0.34945523  1
  N  N148  1  0.04349516  0.24482628  0.86410835  1
  N  N149  1  0.04461002  0.73774740  0.52980045  1
  N  N150  1  0.04349516  0.25517372  0.36410835  1
  N  N151  1  0.04461002  0.76225260  0.02980045  1
  N  N152  1  0.12851489  0.73928596  0.91828467  1
  N  N153  1  0.13383913  0.22317286  0.76252152  1
  N  N154  1  0.12851489  0.76071404  0.41828467  1
  N  N155  1  0.17593519  0.72768799  0.80191827  1
  N  N156  1  0.13383913  0.27682714  0.26252152  1
  N  N157  1  0.17593519  0.77231201  0.30191827  1
  N  N158  1  0.24035355  0.70050959  0.70448299  1
  N  N159  1  0.24035355  0.79949041  0.20448199  1
  N  N160  1  0.33525659  0.21655485  0.94006472  1
  N  N161  1  0.33525659  0.28344515  0.44006472  1
  N  N162  1  0.39273246  0.73874530  0.99687202  1
  N  N163  1  0.39551093  0.19898358  0.83073107  1
  N  N164  1  0.39273246  0.76125470  0.49687202  1
  N  N165  1  0.39551093  0.30101642  0.33073107  1
  N  N166  1  0.47094742  0.16361324  0.72509189  1
  N  N167  1  0.47094742  0.33638676  0.22509189  1
  N  N168  1  0.52905258  0.66361324  0.77490811  1
  N  N169  1  0.52905258  0.83638676  0.27490811  1
  N  N170  1  0.60448907  0.69898358  0.66926893  1
  N  N171  1  0.60726854  0.23874530  0.50312798  1
  N  N172  1  0.60448907  0.80101642  0.16926893  1
  N  N173  1  0.60726854  0.26125470  0.00312798  1
  N  N174  1  0.66474341  0.71655485  0.55993528  1
  N  N175  1  0.66474341  0.78344515  0.05993528  1
  N  N176  1  0.75964645  0.20050959  0.79551701  1
  N  N177  1  0.75964645  0.29949041  0.29551701  1
  N  N178  1  0.82406481  0.22768799  0.69808173  1
  N  N179  1  0.86616087  0.72317286  0.73747848  1
  N  N180  1  0.82406481  0.27231201  0.19808173  1
  N  N181  1  0.87148511  0.23928596  0.58171533  1
  N  N182  1  0.86616087  0.77682714  0.23747848  1
  N  N183  1  0.87148511  0.26071404  0.08171533  1
  N  N184  1  0.95538998  0.23774740  0.97019955  1
  N  N185  1  0.95650484  0.74482628  0.63589165  1
  N  N186  1  0.95538998  0.26225260  0.47019955  1
  N  N187  1  0.95650484  0.75517372  0.13589165  1
