# generated using pymatgen
data_K2NaZn2H5(C2O7)2
_symmetry_space_group_name_H-M   'P 1'
_cell_length_a   10.67476364
_cell_length_b   11.15380163
_cell_length_c   5.21873703
_cell_angle_alpha   90.00000000
_cell_angle_beta   92.98321442
_cell_angle_gamma   90.00000000
_symmetry_Int_Tables_number   1
_chemical_formula_structural   K2NaZn2H5(C2O7)2
_chemical_formula_sum   'K4 Na2 Zn4 H10 C8 O28'
_cell_volume   620.52267119
_cell_formula_units_Z   2
loop_
 _symmetry_equiv_pos_site_id
 _symmetry_equiv_pos_as_xyz
  1  'x, y, z'
loop_
 _atom_site_type_symbol
 _atom_site_label
 _atom_site_symmetry_multiplicity
 _atom_site_fract_x
 _atom_site_fract_y
 _atom_site_fract_z
 _atom_site_occupancy
  K  K0  1  0.07588311  0.16529397  0.03649027  1
  K  K1  1  0.42411689  0.66529397  0.46350973  1
  K  K2  1  0.57588311  0.33470603  0.53649027  1
  K  K3  1  0.92411689  0.83470603  0.96350973  1
  Na  Na4  1  0.00000000  0.50000000  0.00000000  1
  Na  Na5  1  0.50000000  0.00000000  0.50000000  1
  Zn  Zn6  1  0.20526531  0.39676555  0.53101600  1
  Zn  Zn7  1  0.29473469  0.89676555  0.96898400  1
  Zn  Zn8  1  0.70526531  0.10323445  0.03101600  1
  Zn  Zn9  1  0.79473469  0.60323445  0.46898400  1
  H  H10  1  0.00000000  0.00000000  0.50000000  1
  H  H11  1  0.18439014  0.69141374  0.12557181  1
  H  H12  1  0.23168812  0.66864187  0.84770832  1
  H  H13  1  0.26831188  0.16864187  0.65229168  1
  H  H14  1  0.31560986  0.19141374  0.37442819  1
  H  H15  1  0.50000000  0.50000000  0.00000000  1
  H  H16  1  0.68439014  0.80858626  0.62557181  1
  H  H17  1  0.73168812  0.83135813  0.34770832  1
  H  H18  1  0.76831188  0.33135813  0.15229168  1
  H  H19  1  0.81560986  0.30858626  0.87442819  1
  C  C20  1  0.06567924  0.62751281  0.49320222  1
  C  C21  1  0.18000941  0.92488202  0.46995305  1
  C  C22  1  0.31999059  0.42488202  0.03004595  1
  C  C23  1  0.43432076  0.12751281  0.00679778  1
  C  C24  1  0.56567924  0.87248719  0.99320222  1
  C  C25  1  0.68000941  0.57511798  0.96995305  1
  C  C26  1  0.81999059  0.07511798  0.53004695  1
  C  C27  1  0.93432076  0.37248719  0.50679778  1
  O  O28  1  0.03065234  0.37994612  0.36171418  1
  O  O29  1  0.05207202  0.66730150  0.26224455  1
  O  O30  1  0.08873700  0.95387254  0.61803703  1
  O  O31  1  0.16319260  0.93795425  0.22379615  1
  O  O32  1  0.17526721  0.59205978  0.58870812  1
  O  O33  1  0.21644272  0.38466478  0.92385007  1
  O  O34  1  0.24317677  0.21006702  0.48677953  1
  O  O35  1  0.25682323  0.71006702  0.01322047  1
  O  O36  1  0.28355728  0.88466478  0.57614993  1
  O  O37  1  0.32473279  0.09205978  0.91129188  1
  O  O38  1  0.33680740  0.43795425  0.27620385  1
  O  O39  1  0.41126300  0.45387254  0.88196297  1
  O  O40  1  0.44792798  0.16730150  0.23775545  1
  O  O41  1  0.46934766  0.87994612  0.13828582  1
  O  O42  1  0.53065234  0.12005388  0.86171418  1
  O  O43  1  0.55207202  0.83269850  0.76224455  1
  O  O44  1  0.58873700  0.54612746  0.11803703  1
  O  O45  1  0.66319260  0.56204575  0.72379615  1
  O  O46  1  0.67526721  0.90794022  0.08870812  1
  O  O47  1  0.71644272  0.11533522  0.42385007  1
  O  O48  1  0.74317677  0.28993298  0.98677953  1
  O  O49  1  0.75682323  0.78993298  0.51322047  1
  O  O50  1  0.78355728  0.61533522  0.07614993  1
  O  O51  1  0.82473279  0.40794022  0.41129188  1
  O  O52  1  0.83680740  0.06204575  0.77620385  1
  O  O53  1  0.91126300  0.04612746  0.38196297  1
  O  O54  1  0.94792798  0.33269850  0.73775545  1
  O  O55  1  0.96934766  0.62005388  0.63828582  1
