# generated using pymatgen
data_LiP4WO12
_symmetry_space_group_name_H-M   'P 1'
_cell_length_a   13.14141984
_cell_length_b   8.37665753
_cell_length_c   9.67230166
_cell_angle_alpha   90.00000000
_cell_angle_beta   90.00000000
_cell_angle_gamma   90.00000000
_symmetry_Int_Tables_number   1
_chemical_formula_structural   LiP4WO12
_chemical_formula_sum   'Li4 P16 W4 O48'
_cell_volume   1064.73831677
_cell_formula_units_Z   4
loop_
 _symmetry_equiv_pos_site_id
 _symmetry_equiv_pos_as_xyz
  1  'x, y, z'
loop_
 _atom_site_type_symbol
 _atom_site_label
 _atom_site_symmetry_multiplicity
 _atom_site_fract_x
 _atom_site_fract_y
 _atom_site_fract_z
 _atom_site_occupancy
  Li  Li0  1  0.00000000  0.99247352  0.75000000  1
  Li  Li1  1  0.00000000  0.00752648  0.25000000  1
  Li  Li2  1  0.50000000  0.50752648  0.25000000  1
  Li  Li3  1  0.50000000  0.49247352  0.75000000  1
  P  P4  1  0.13840120  0.17644952  0.50327341  1
  P  P5  1  0.13840120  0.82355048  0.00327341  1
  P  P6  1  0.15417357  0.53660220  0.50964191  1
  P  P7  1  0.15417357  0.46339780  0.00964191  1
  P  P8  1  0.34582643  0.03660220  0.50964191  1
  P  P9  1  0.34582643  0.96339780  0.00964191  1
  P  P10  1  0.36159880  0.32355048  0.00327341  1
  P  P11  1  0.36159880  0.67644952  0.50327341  1
  P  P12  1  0.63840120  0.32355048  0.49672659  1
  P  P13  1  0.63840120  0.67644952  0.99672659  1
  P  P14  1  0.65417357  0.03660220  0.99035809  1
  P  P15  1  0.65417357  0.96339780  0.49035809  1
  P  P16  1  0.84582643  0.46339780  0.49035809  1
  P  P17  1  0.84582643  0.53660220  0.99035809  1
  P  P18  1  0.86159880  0.17644952  0.99672659  1
  P  P19  1  0.86159880  0.82355048  0.49672659  1
  W  W20  1  0.00000000  0.62980465  0.25000000  1
  W  W21  1  0.00000000  0.37019535  0.75000000  1
  W  W22  1  0.50000000  0.12980465  0.25000000  1
  W  W23  1  0.50000000  0.87019535  0.75000000  1
  O  O24  1  0.06650671  0.18204116  0.62670356  1
  O  O25  1  0.06650671  0.81795884  0.12670356  1
  O  O26  1  0.07603643  0.54407095  0.62338453  1
  O  O27  1  0.07603643  0.45592905  0.12338453  1
  O  O28  1  0.10442373  0.09506538  0.37585604  1
  O  O29  1  0.10442373  0.90493462  0.87585604  1
  O  O30  1  0.13158082  0.36820915  0.88171738  1
  O  O31  1  0.13158082  0.63179085  0.38171738  1
  O  O32  1  0.17807001  0.35485303  0.46783074  1
  O  O33  1  0.17807001  0.64514697  0.96783074  1
  O  O34  1  0.24003307  0.09800396  0.57051749  1
  O  O35  1  0.24003307  0.90199604  0.07051749  1
  O  O36  1  0.25996693  0.40199604  0.07051749  1
  O  O37  1  0.25996693  0.59800396  0.57051749  1
  O  O38  1  0.32192999  0.14514697  0.96783074  1
  O  O39  1  0.32192999  0.85485303  0.46783074  1
  O  O40  1  0.36842018  0.13179085  0.38171738  1
  O  O41  1  0.36842018  0.86820915  0.88171738  1
  O  O42  1  0.39557627  0.59506538  0.37585604  1
  O  O43  1  0.39557627  0.40493462  0.87585604  1
  O  O44  1  0.42396357  0.04407095  0.62338453  1
  O  O45  1  0.42396357  0.95592905  0.12338453  1
  O  O46  1  0.43349329  0.68204116  0.62670356  1
  O  O47  1  0.43349329  0.31795884  0.12670356  1
  O  O48  1  0.56650671  0.31795884  0.37329644  1
  O  O49  1  0.56650671  0.68204116  0.87329644  1
  O  O50  1  0.57603643  0.04407095  0.87661547  1
  O  O51  1  0.57603643  0.95592905  0.37661547  1
  O  O52  1  0.60442373  0.40493462  0.62414396  1
  O  O53  1  0.60442373  0.59506538  0.12414396  1
  O  O54  1  0.63158082  0.13179085  0.11828262  1
  O  O55  1  0.63158082  0.86820915  0.61828262  1
  O  O56  1  0.67807001  0.14514697  0.53216926  1
  O  O57  1  0.67807001  0.85485303  0.03216926  1
  O  O58  1  0.74003307  0.40199604  0.42948251  1
  O  O59  1  0.74003307  0.59800396  0.92948251  1
  O  O60  1  0.75996693  0.09800396  0.92948251  1
  O  O61  1  0.75996693  0.90199604  0.42948251  1
  O  O62  1  0.82192999  0.35485303  0.03216926  1
  O  O63  1  0.82192999  0.64514697  0.53216926  1
  O  O64  1  0.86841918  0.36820915  0.61828262  1
  O  O65  1  0.86841918  0.63179085  0.11828262  1
  O  O66  1  0.89557627  0.09506538  0.12414396  1
  O  O67  1  0.89557627  0.90493462  0.62414396  1
  O  O68  1  0.92396357  0.45592905  0.37661547  1
  O  O69  1  0.92396357  0.54407095  0.87661547  1
  O  O70  1  0.93349329  0.18204116  0.87329644  1
  O  O71  1  0.93349329  0.81795884  0.37329644  1
