# generated using pymatgen
data_SrTiH4(OF3)2
_symmetry_space_group_name_H-M   'P 1'
_cell_length_a   6.07349215
_cell_length_b   11.30403124
_cell_length_c   9.86519807
_cell_angle_alpha   90.00000000
_cell_angle_beta   90.00000000
_cell_angle_gamma   99.40586659
_symmetry_Int_Tables_number   1
_chemical_formula_structural   SrTiH4(OF3)2
_chemical_formula_sum   'Sr4 Ti4 H16 O8 F24'
_cell_volume   668.18869819
_cell_formula_units_Z   4
loop_
 _symmetry_equiv_pos_site_id
 _symmetry_equiv_pos_as_xyz
  1  'x, y, z'
loop_
 _atom_site_type_symbol
 _atom_site_label
 _atom_site_symmetry_multiplicity
 _atom_site_fract_x
 _atom_site_fract_y
 _atom_site_fract_z
 _atom_site_occupancy
  Sr  Sr0  1  0.16909504  0.45072603  0.68677965  1
  Sr  Sr1  1  0.33090496  0.04927397  0.18677965  1
  Sr  Sr2  1  0.66909504  0.95072603  0.81322035  1
  Sr  Sr3  1  0.83090496  0.54927397  0.31322035  1
  Ti  Ti4  1  0.09353051  0.73195188  0.96423052  1
  Ti  Ti5  1  0.40646949  0.76804812  0.46423052  1
  Ti  Ti6  1  0.59353051  0.23195188  0.53576948  1
  Ti  Ti7  1  0.90646949  0.26804812  0.03576948  1
  H  H8  1  0.11739466  0.94715046  0.64652650  1
  H  H9  1  0.05197282  0.32773675  0.39218409  1
  H  H10  1  0.10848745  0.08480853  0.63558333  1
  H  H11  1  0.25606611  0.42997765  0.36749363  1
  H  H12  1  0.38260534  0.55284954  0.14652650  1
  H  H13  1  0.24393389  0.07002235  0.86749363  1
  H  H14  1  0.39151255  0.41519147  0.13558333  1
  H  H15  1  0.55197282  0.82773675  0.10781591  1
  H  H16  1  0.44802718  0.17226325  0.89218409  1
  H  H17  1  0.60848745  0.58480853  0.86441667  1
  H  H18  1  0.75606611  0.92997765  0.13250637  1
  H  H19  1  0.61739466  0.44715046  0.85347350  1
  H  H20  1  0.74393389  0.57002235  0.63250637  1
  H  H21  1  0.89151255  0.91519147  0.36441667  1
  H  H22  1  0.94802718  0.67226325  0.60781591  1
  H  H23  1  0.88260534  0.05284954  0.35347350  1
  O  O24  1  0.11454112  0.41028477  0.41829706  1
  O  O25  1  0.06288160  0.01414692  0.69287515  1
  O  O26  1  0.43711840  0.48585308  0.19287515  1
  O  O27  1  0.61454112  0.91028477  0.08170294  1
  O  O28  1  0.38545888  0.08971523  0.91829706  1
  O  O29  1  0.56288160  0.51414692  0.80712485  1
  O  O30  1  0.93711840  0.98585308  0.30712485  1
  O  O31  1  0.88545888  0.58971523  0.58170294  1
  F  F32  1  0.10757217  0.87942109  0.06049666  1
  F  F33  1  0.07252819  0.59049510  0.86211075  1
  F  F34  1  0.16942932  0.81364062  0.56570752  1
  F  F35  1  0.19106699  0.68643675  0.34350014  1
  F  F36  1  0.11892413  0.34045387  0.90961444  1
  F  F37  1  0.30893301  0.81356325  0.84350014  1
  F  F38  1  0.14285552  0.22575757  0.14462517  1
  F  F39  1  0.33057068  0.68635938  0.06570752  1
  F  F40  1  0.42747181  0.90950490  0.36211075  1
  F  F41  1  0.39242783  0.62057891  0.56049666  1
  F  F42  1  0.35714448  0.27424243  0.64462517  1
  F  F43  1  0.38107587  0.15954613  0.40961444  1
  F  F44  1  0.61892413  0.84045387  0.59038556  1
  F  F45  1  0.64285552  0.72575757  0.35537483  1
  F  F46  1  0.60757217  0.37942109  0.43950334  1
  F  F47  1  0.57252819  0.09049510  0.63788925  1
  F  F48  1  0.66942932  0.31364062  0.93429248  1
  F  F49  1  0.85714448  0.77424243  0.85537483  1
  F  F50  1  0.69106699  0.18643675  0.15649986  1
  F  F51  1  0.88107587  0.65954613  0.09038556  1
  F  F52  1  0.80893301  0.31356325  0.65649986  1
  F  F53  1  0.83057068  0.18635938  0.43429248  1
  F  F54  1  0.92747181  0.40950490  0.13788925  1
  F  F55  1  0.89242783  0.12057891  0.93950334  1
