# generated using pymatgen
data_CoNCl4O3
_symmetry_space_group_name_H-M   'P 1'
_cell_length_a   8.94859004
_cell_length_b   9.19083703
_cell_length_c   11.94536161
_cell_angle_alpha   90.00000000
_cell_angle_beta   90.00000000
_cell_angle_gamma   90.00000000
_symmetry_Int_Tables_number   1
_chemical_formula_structural   CoNCl4O3
_chemical_formula_sum   'Co4 N4 Cl16 O12'
_cell_volume   982.44665630
_cell_formula_units_Z   4
loop_
 _symmetry_equiv_pos_site_id
 _symmetry_equiv_pos_as_xyz
  1  'x, y, z'
loop_
 _atom_site_type_symbol
 _atom_site_label
 _atom_site_symmetry_multiplicity
 _atom_site_fract_x
 _atom_site_fract_y
 _atom_site_fract_z
 _atom_site_occupancy
  Co  Co0  1  0.17482391  0.75000000  0.59579099  1
  Co  Co1  1  0.32517609  0.25000000  0.09579099  1
  Co  Co2  1  0.67482391  0.75000000  0.90420901  1
  Co  Co3  1  0.82517609  0.25000000  0.40420901  1
  N  N4  1  0.15881943  0.25000000  0.77405937  1
  N  N5  1  0.34118057  0.75000000  0.27405937  1
  N  N6  1  0.65881943  0.25000000  0.72594063  1
  N  N7  1  0.84118057  0.75000000  0.22594063  1
  Cl  Cl8  1  0.02680217  0.25000000  0.49915928  1
  Cl  Cl9  1  0.12467679  0.75000000  0.76950708  1
  Cl  Cl10  1  0.19681522  0.43729427  0.05544759  1
  Cl  Cl11  1  0.19681522  0.06270573  0.05544759  1
  Cl  Cl12  1  0.30318478  0.56270573  0.55544759  1
  Cl  Cl13  1  0.30318478  0.93729427  0.55544759  1
  Cl  Cl14  1  0.37532321  0.25000000  0.26950708  1
  Cl  Cl15  1  0.47319783  0.75000000  0.99915928  1
  Cl  Cl16  1  0.52680217  0.25000000  0.00084072  1
  Cl  Cl17  1  0.62467679  0.75000000  0.73049292  1
  Cl  Cl18  1  0.69681522  0.06270573  0.44455241  1
  Cl  Cl19  1  0.69681522  0.43729427  0.44455241  1
  Cl  Cl20  1  0.80318478  0.56270573  0.94455241  1
  Cl  Cl21  1  0.80318478  0.93729427  0.94455241  1
  Cl  Cl22  1  0.87532321  0.25000000  0.23049292  1
  Cl  Cl23  1  0.97319783  0.75000000  0.50084072  1
  O  O24  1  0.09370251  0.13169884  0.79245095  1
  O  O25  1  0.09370251  0.36830116  0.79245095  1
  O  O26  1  0.20995377  0.75000000  0.23741143  1
  O  O27  1  0.29004623  0.25000000  0.73741143  1
  O  O28  1  0.40629749  0.63169884  0.29245095  1
  O  O29  1  0.40629749  0.86830116  0.29245095  1
  O  O30  1  0.59370251  0.13169884  0.70754905  1
  O  O31  1  0.59370251  0.36830116  0.70754905  1
  O  O32  1  0.70995377  0.75000000  0.26258857  1
  O  O33  1  0.79004623  0.25000000  0.76258857  1
  O  O34  1  0.90629749  0.63169884  0.20754905  1
  O  O35  1  0.90629749  0.86830116  0.20754905  1
