# generated using pymatgen
data_Cr5S8
_symmetry_space_group_name_H-M   'P 1'
_cell_length_a   6.80617235
_cell_length_b   11.08275975
_cell_length_c   6.72977096
_cell_angle_alpha   91.22713221
_cell_angle_beta   120.37626180
_cell_angle_gamma   90.00000000
_symmetry_Int_Tables_number   1
_chemical_formula_structural   Cr5S8
_chemical_formula_sum   'Cr10 S16'
_cell_volume   437.81314590
_cell_formula_units_Z   2
loop_
 _symmetry_equiv_pos_site_id
 _symmetry_equiv_pos_as_xyz
  1  'x, y, z'
loop_
 _atom_site_type_symbol
 _atom_site_label
 _atom_site_symmetry_multiplicity
 _atom_site_fract_x
 _atom_site_fract_y
 _atom_site_fract_z
 _atom_site_occupancy
  Cr  Cr0  1  0.99929833  0.99911233  0.99859667  1
  Cr  Cr1  1  0.50093081  0.49512492  0.00186161  1
  Cr  Cr2  1  0.01336494  0.73588395  0.02672987  1
  Cr  Cr3  1  0.98729813  0.26122954  0.97459627  1
  Cr  Cr4  1  0.48716167  0.76471365  0.97432335  1
  Cr  Cr5  1  0.50652387  0.24364829  0.01304773  1
  Cr  Cr6  1  0.48240021  0.74982969  0.49994294  1
  Cr  Cr7  1  0.01754274  0.74982969  0.49994294  1
  Cr  Cr8  1  0.52372092  0.24934348  0.50615737  1
  Cr  Cr9  1  0.98243644  0.24934348  0.50615737  1
  S  S10  1  0.16124000  0.13975080  0.32248001  1
  S  S11  1  0.82921948  0.38184179  0.65843896  1
  S  S12  1  0.17340564  0.61879204  0.34681128  1
  S  S13  1  0.66024781  0.63952386  0.32049561  1
  S  S14  1  0.33756409  0.36058606  0.67512817  1
  S  S15  1  0.66772753  0.12359294  0.33545507  1
  S  S16  1  0.32634417  0.88098224  0.65268834  1
  S  S17  1  0.17536651  0.62721746  0.83512277  1
  S  S18  1  0.65975627  0.62721746  0.83512277  1
  S  S19  1  0.83172695  0.37259868  0.17103894  1
  S  S20  1  0.33931199  0.37259868  0.17103894  1
  S  S21  1  0.16127267  0.12523895  0.83232071  1
  S  S22  1  0.67104804  0.12523895  0.83232071  1
  S  S23  1  0.84012880  0.87328066  0.16623164  1
  S  S24  1  0.32610285  0.87328066  0.16623164  1
  S  S25  1  0.83885914  0.86019975  0.67771828  1
