# generated using pymatgen
data_Ca2Cu2O5
_symmetry_space_group_name_H-M   'P 1'
_cell_length_a   10.51651759
_cell_length_b   3.59777133
_cell_length_c   12.76871125
_cell_angle_alpha   90.00000000
_cell_angle_beta   90.00000000
_cell_angle_gamma   90.00000000
_symmetry_Int_Tables_number   1
_chemical_formula_structural   Ca2Cu2O5
_chemical_formula_sum   'Ca8 Cu8 O20'
_cell_volume   483.11728416
_cell_formula_units_Z   4
loop_
 _symmetry_equiv_pos_site_id
 _symmetry_equiv_pos_as_xyz
  1  'x, y, z'
loop_
 _atom_site_type_symbol
 _atom_site_label
 _atom_site_symmetry_multiplicity
 _atom_site_fract_x
 _atom_site_fract_y
 _atom_site_fract_z
 _atom_site_occupancy
  Ca  Ca0  1  0.04772615  0.17682577  0.87073853  1
  Ca  Ca1  1  0.20264215  0.17881048  0.53729736  1
  Ca  Ca2  1  0.29735785  0.67881048  0.03729736  1
  Ca  Ca3  1  0.45227385  0.67682577  0.37073853  1
  Ca  Ca4  1  0.54772615  0.32317423  0.87073853  1
  Ca  Ca5  1  0.70264215  0.32118952  0.53729736  1
  Ca  Ca6  1  0.79735785  0.82118952  0.03729736  1
  Ca  Ca7  1  0.95227385  0.82317423  0.37073853  1
  Cu  Cu8  1  0.01320045  0.36122112  0.15387491  1
  Cu  Cu9  1  0.23899430  0.14438492  0.25048215  1
  Cu  Cu10  1  0.26100570  0.64438492  0.75048215  1
  Cu  Cu11  1  0.48679955  0.86122112  0.65387491  1
  Cu  Cu12  1  0.51320045  0.13877888  0.15387491  1
  Cu  Cu13  1  0.73899430  0.35561508  0.25048215  1
  Cu  Cu14  1  0.76100570  0.85561508  0.75048215  1
  Cu  Cu15  1  0.98679955  0.63877888  0.65387491  1
  O  O16  1  0.08350698  0.34553293  0.28901906  1
  O  O17  1  0.05875230  0.67869069  0.52259803  1
  O  O18  1  0.12400992  0.36706231  0.70330773  1
  O  O19  1  0.16979376  0.16837247  0.11452080  1
  O  O20  1  0.19052157  0.67394129  0.88216242  1
  O  O21  1  0.30947843  0.17394129  0.38216242  1
  O  O22  1  0.33020624  0.66837247  0.61452080  1
  O  O23  1  0.37599008  0.86706231  0.20330773  1
  O  O24  1  0.44124770  0.17869069  0.02259803  1
  O  O25  1  0.41649302  0.84553293  0.78901906  1
  O  O26  1  0.58350698  0.15446707  0.28901906  1
  O  O27  1  0.55875230  0.82130931  0.52259803  1
  O  O28  1  0.62400992  0.13293769  0.70330773  1
  O  O29  1  0.66979376  0.33162753  0.11452080  1
  O  O30  1  0.69052157  0.82605871  0.88216242  1
  O  O31  1  0.80947843  0.32605871  0.38216242  1
  O  O32  1  0.83020624  0.83162753  0.61452080  1
  O  O33  1  0.87599008  0.63293769  0.20330773  1
  O  O34  1  0.94124770  0.32130931  0.02259803  1
  O  O35  1  0.91649302  0.65446707  0.78901906  1
