# generated using pymatgen
data_Na3AlAs2
_symmetry_space_group_name_H-M   'P 1'
_cell_length_a   6.23650159
_cell_length_b   7.00585093
_cell_length_c   8.29844644
_cell_angle_alpha   114.96839222
_cell_angle_beta   112.07149114
_cell_angle_gamma   89.99999998
_symmetry_Int_Tables_number   1
_chemical_formula_structural   Na3AlAs2
_chemical_formula_sum   'Na6 Al2 As4'
_cell_volume   299.12348486
_cell_formula_units_Z   2
loop_
 _symmetry_equiv_pos_site_id
 _symmetry_equiv_pos_as_xyz
  1  'x, y, z'
loop_
 _atom_site_type_symbol
 _atom_site_label
 _atom_site_symmetry_multiplicity
 _atom_site_fract_x
 _atom_site_fract_y
 _atom_site_fract_z
 _atom_site_occupancy
  Na  Na0  1  0.31052454  0.62510433  0.62104907  1
  Na  Na1  1  0.68947546  0.37489567  0.37895093  1
  Na  Na2  1  0.18947546  0.00405526  0.37895093  1
  Na  Na3  1  0.81052454  0.99594474  0.62104907  1
  Na  Na4  1  0.25000000  0.50000000  0.00000000  1
  Na  Na5  1  0.75000000  0.50000000  0.00000000  1
  Al  Al6  1  0.75000000  0.00000000  0.00000000  1
  Al  Al7  1  0.25000000  0.00000000  0.00000000  1
  As  As8  1  0.89658527  0.69508138  0.79317054  1
  As  As9  1  0.10341473  0.30491862  0.20682946  1
  As  As10  1  0.60341473  0.90191084  0.20682946  1
  As  As11  1  0.39658527  0.09808916  0.79317054  1
