# generated using pymatgen
data_H4WNCl6
_symmetry_space_group_name_H-M   'P 1'
_cell_length_a   6.24565704
_cell_length_b   6.78917500
_cell_length_c   12.19932815
_cell_angle_alpha   80.26574700
_cell_angle_beta   90.00000000
_cell_angle_gamma   62.61471719
_symmetry_Int_Tables_number   1
_chemical_formula_structural   H4WNCl6
_chemical_formula_sum   'H8 W2 N2 Cl12'
_cell_volume   450.91188011
_cell_formula_units_Z   2
loop_
 _symmetry_equiv_pos_site_id
 _symmetry_equiv_pos_as_xyz
  1  'x, y, z'
loop_
 _atom_site_type_symbol
 _atom_site_label
 _atom_site_symmetry_multiplicity
 _atom_site_fract_x
 _atom_site_fract_y
 _atom_site_fract_z
 _atom_site_occupancy
  H  H0  1  0.01282439  0.98266820  0.82035340  1
  H  H1  1  0.88443889  0.85828275  0.75445412  1
  H  H2  1  0.00450741  0.98266820  0.32035340  1
  H  H3  1  0.25727837  0.85828275  0.25445412  1
  H  H4  1  0.74272163  0.14171725  0.74554588  1
  H  H5  1  0.99549259  0.01733180  0.67964660  1
  H  H6  1  0.11556111  0.14171725  0.24554588  1
  H  H7  1  0.98717561  0.01733180  0.17964660  1
  W  W8  1  0.00000000  0.50000000  0.50000000  1
  W  W9  1  0.50000000  0.50000000  0.00000000  1
  N  N10  1  0.90809774  0.00000000  0.75000000  1
  N  N11  1  0.09190226  0.00000000  0.25000000  1
  Cl  Cl12  1  0.47754828  0.83436523  0.89691631  1
  Cl  Cl13  1  0.68808548  0.83436523  0.39691631  1
  Cl  Cl14  1  0.20825544  0.70007450  0.53437486  1
  Cl  Cl15  1  0.80304741  0.57598544  0.66354961  1
  Cl  Cl16  1  0.37903285  0.42401456  0.83645039  1
  Cl  Cl17  1  0.09166906  0.70007450  0.03437486  1
  Cl  Cl18  1  0.90833094  0.29992550  0.96562514  1
  Cl  Cl19  1  0.62096715  0.57598544  0.16354961  1
  Cl  Cl20  1  0.19695259  0.42401456  0.33645039  1
  Cl  Cl21  1  0.79174456  0.29992550  0.46562514  1
  Cl  Cl22  1  0.31191452  0.16563477  0.60308369  1
  Cl  Cl23  1  0.52245172  0.16563477  0.10308369  1
