# generated using pymatgen
data_BaGa4O7
_symmetry_space_group_name_H-M   'P 1'
_cell_length_a   8.39577444
_cell_length_b   8.39577444
_cell_length_c   5.85965470
_cell_angle_alpha   77.98475985
_cell_angle_beta   102.01524015
_cell_angle_gamma   111.03602318
_symmetry_Int_Tables_number   1
_chemical_formula_structural   BaGa4O7
_chemical_formula_sum   'Ba2 Ga8 O14'
_cell_volume   373.01805986
_cell_formula_units_Z   2
loop_
 _symmetry_equiv_pos_site_id
 _symmetry_equiv_pos_as_xyz
  1  'x, y, z'
loop_
 _atom_site_type_symbol
 _atom_site_label
 _atom_site_symmetry_multiplicity
 _atom_site_fract_x
 _atom_site_fract_y
 _atom_site_fract_z
 _atom_site_occupancy
  Ba  Ba0  1  0.68998168  0.68998168  0.75000000  1
  Ba  Ba1  1  0.31001832  0.31001832  0.25000000  1
  Ga  Ga2  1  0.18461627  0.94432859  0.76836411  1
  Ga  Ga3  1  0.05567141  0.81538373  0.26836411  1
  Ga  Ga4  1  0.23967605  0.58700588  0.69896986  1
  Ga  Ga5  1  0.41299412  0.76032395  0.19896986  1
  Ga  Ga6  1  0.58700588  0.23967605  0.80103014  1
  Ga  Ga7  1  0.76032395  0.41299412  0.30103014  1
  Ga  Ga8  1  0.94432859  0.18461627  0.73163589  1
  Ga  Ga9  1  0.81538373  0.05567141  0.23163589  1
  O  O10  1  0.12842546  0.75604115  0.59739499  1
  O  O11  1  0.24395885  0.87157454  0.09739499  1
  O  O12  1  0.41623405  0.66063856  0.94691097  1
  O  O13  1  0.11769118  0.37032485  0.83307181  1
  O  O14  1  0.33936144  0.58376595  0.44691097  1
  O  O15  1  0.62967515  0.88230882  0.33307181  1
  O  O16  1  0.97657495  0.97657495  0.75000000  1
  O  O17  1  0.02342505  0.02342505  0.25000000  1
  O  O18  1  0.37032485  0.11769118  0.66692819  1
  O  O19  1  0.66063856  0.41623405  0.55308903  1
  O  O20  1  0.88230882  0.62967515  0.16692819  1
  O  O21  1  0.58376595  0.33936144  0.05308903  1
  O  O22  1  0.75604115  0.12842546  0.90260501  1
  O  O23  1  0.87157454  0.24395885  0.40260501  1
