# generated using pymatgen
data_KPHO3F
_symmetry_space_group_name_H-M   'P 1'
_cell_length_a   7.41671329
_cell_length_b   14.26686247
_cell_length_c   7.76217216
_cell_angle_alpha   90.00000000
_cell_angle_beta   89.70825019
_cell_angle_gamma   90.00000000
_symmetry_Int_Tables_number   1
_chemical_formula_structural   KPHO3F
_chemical_formula_sum   'K8 P8 H8 O24 F8'
_cell_volume   821.32984839
_cell_formula_units_Z   8
loop_
 _symmetry_equiv_pos_site_id
 _symmetry_equiv_pos_as_xyz
  1  'x, y, z'
loop_
 _atom_site_type_symbol
 _atom_site_label
 _atom_site_symmetry_multiplicity
 _atom_site_fract_x
 _atom_site_fract_y
 _atom_site_fract_z
 _atom_site_occupancy
  K  K0  1  0.12294163  0.17438079  0.07362947  1
  K  K1  1  0.19619270  0.64197163  0.40730850  1
  K  K2  1  0.19460759  0.40207029  0.71912946  1
  K  K3  1  0.49142191  0.90645944  0.81008979  1
  K  K4  1  0.50857809  0.40645944  0.18991021  1
  K  K5  1  0.80539241  0.90207029  0.28087054  1
  K  K6  1  0.80380730  0.14197163  0.59269150  1
  K  K7  1  0.87705837  0.67438079  0.92637053  1
  P  P8  1  0.05420760  0.41619806  0.21669241  1
  P  P9  1  0.30197689  0.15965444  0.59672493  1
  P  P10  1  0.29704554  0.89606182  0.28678466  1
  P  P11  1  0.35296205  0.64426324  0.87964665  1
  P  P12  1  0.64703795  0.14426324  0.12035335  1
  P  P13  1  0.70295446  0.39606182  0.71321534  1
  P  P14  1  0.69802311  0.65965444  0.40327507  1
  P  P15  1  0.94579240  0.91619806  0.78330759  1
  H  H16  1  0.12849437  0.85096404  0.58979056  1
  H  H17  1  0.31223485  0.75658437  0.07762666  1
  H  H18  1  0.42393022  0.99775993  0.48311624  1
  H  H19  1  0.45699130  0.22014998  0.37647991  1
  H  H20  1  0.54300870  0.72014998  0.62352009  1
  H  H21  1  0.57606978  0.49775993  0.51688376  1
  H  H22  1  0.68776515  0.25658437  0.92237334  1
  H  H23  1  0.87150563  0.35096404  0.41020944  1
  O  O24  1  0.10863105  0.85128759  0.72049412  1
  O  O25  1  0.14870214  0.37166566  0.06598612  1
  O  O26  1  0.16443072  0.45321303  0.36380098  1
  O  O27  1  0.16350733  0.83964454  0.39174251  1
  O  O28  1  0.19966472  0.20246769  0.74298094  1
  O  O29  1  0.21723237  0.60227101  0.76075797  1
  O  O30  1  0.25825370  0.69157634  0.04066026  1
  O  O31  1  0.38081350  0.84827101  0.13245867  1
  O  O32  1  0.40670244  0.06938489  0.62173451  1
  O  O33  1  0.42029285  0.23651667  0.50278490  1
  O  O34  1  0.44969075  0.94379844  0.39492052  1
  O  O35  1  0.49713662  0.20602445  0.19123937  1
  O  O36  1  0.50286338  0.70602445  0.80876063  1
  O  O37  1  0.55030925  0.44379844  0.60507948  1
  O  O38  1  0.57970715  0.73651667  0.49721510  1
  O  O39  1  0.59329756  0.56938489  0.37826549  1
  O  O40  1  0.61918650  0.34827101  0.86754133  1
  O  O41  1  0.74174630  0.19157634  0.95933974  1
  O  O42  1  0.78276763  0.10227101  0.23924203  1
  O  O43  1  0.80033528  0.70246769  0.25701906  1
  O  O44  1  0.83649267  0.33964454  0.60825749  1
  O  O45  1  0.83556928  0.95321303  0.63619902  1
  O  O46  1  0.85129786  0.87166566  0.93401388  1
  O  O47  1  0.89136895  0.35128759  0.27950588  1
  F  F48  1  0.05581465  0.00483056  0.85960282  1
  F  F49  1  0.15426521  0.13471717  0.44909765  1
  F  F50  1  0.18575496  0.98374579  0.21232499  1
  F  F51  1  0.45678869  0.55800314  0.97041412  1
  F  F52  1  0.54321131  0.05800314  0.02958588  1
  F  F53  1  0.81424504  0.48374579  0.78767501  1
  F  F54  1  0.84573479  0.63471717  0.55090235  1
  F  F55  1  0.94418535  0.50483056  0.14039718  1
