# generated using pymatgen
data_Li2Cr3(CoO6)2
_symmetry_space_group_name_H-M   'P 1'
_cell_length_a   12.64332718
_cell_length_b   9.14969934
_cell_length_c   9.17571227
_cell_angle_alpha   90.00000000
_cell_angle_beta   90.00000000
_cell_angle_gamma   90.00000000
_symmetry_Int_Tables_number   1
_chemical_formula_structural   Li2Cr3(CoO6)2
_chemical_formula_sum   'Li8 Cr12 Co8 O48'
_cell_volume   1061.47064088
_cell_formula_units_Z   4
loop_
 _symmetry_equiv_pos_site_id
 _symmetry_equiv_pos_as_xyz
  1  'x, y, z'
loop_
 _atom_site_type_symbol
 _atom_site_label
 _atom_site_symmetry_multiplicity
 _atom_site_fract_x
 _atom_site_fract_y
 _atom_site_fract_z
 _atom_site_occupancy
  Li  Li0  1  0.18689367  0.22044293  0.27174699  1
  Li  Li1  1  0.18689367  0.77955707  0.77174699  1
  Li  Li2  1  0.31310533  0.27955707  0.77174699  1
  Li  Li3  1  0.31310533  0.72044293  0.27174699  1
  Li  Li4  1  0.68689467  0.27955707  0.72825301  1
  Li  Li5  1  0.68689467  0.72044293  0.22825301  1
  Li  Li6  1  0.81310533  0.22044293  0.22825301  1
  Li  Li7  1  0.81310533  0.77955707  0.72825301  1
  Cr  Cr8  1  0.00000000  0.46268522  0.25000000  1
  Cr  Cr9  1  0.00000000  0.53731478  0.75000000  1
  Cr  Cr10  1  0.14337037  0.10053926  0.60577788  1
  Cr  Cr11  1  0.14337037  0.89946074  0.10577788  1
  Cr  Cr12  1  0.35662963  0.39946074  0.10577788  1
  Cr  Cr13  1  0.35662963  0.60053926  0.60577788  1
  Cr  Cr14  1  0.50000000  0.03731478  0.75000000  1
  Cr  Cr15  1  0.50000000  0.96268522  0.25000000  1
  Cr  Cr16  1  0.64337037  0.39946074  0.39422212  1
  Cr  Cr17  1  0.64337037  0.60053926  0.89422212  1
  Cr  Cr18  1  0.85662963  0.10053926  0.89422212  1
  Cr  Cr19  1  0.85662963  0.89946074  0.39422212  1
  Co  Co20  1  0.11912562  0.25316414  0.96697475  1
  Co  Co21  1  0.11912562  0.74683586  0.46697475  1
  Co  Co22  1  0.38087438  0.24683586  0.46697475  1
  Co  Co23  1  0.38087438  0.75316414  0.96697475  1
  Co  Co24  1  0.61912562  0.24683586  0.03302525  1
  Co  Co25  1  0.61912562  0.75316414  0.53302525  1
  Co  Co26  1  0.88087438  0.25316414  0.53302525  1
  Co  Co27  1  0.88087438  0.74683586  0.03302525  1
  O  O28  1  0.02086250  0.14363872  0.56797725  1
  O  O29  1  0.02086250  0.85636128  0.06797725  1
  O  O30  1  0.06438627  0.56514265  0.36838112  1
  O  O31  1  0.06438627  0.43485735  0.86838112  1
  O  O32  1  0.08858281  0.35430995  0.16504220  1
  O  O33  1  0.08858281  0.64569005  0.66504220  1
  O  O34  1  0.15934490  0.08244601  0.10717418  1
  O  O35  1  0.15934490  0.91755399  0.60717418  1
  O  O36  1  0.17608503  0.16716619  0.76946495  1
  O  O37  1  0.17608503  0.83283381  0.26946495  1
  O  O38  1  0.22267424  0.17309105  0.47671174  1
  O  O39  1  0.22267424  0.82690895  0.97671174  1
  O  O40  1  0.27732576  0.32690895  0.97671174  1
  O  O41  1  0.27732576  0.67309105  0.47671174  1
  O  O42  1  0.32391497  0.66716619  0.76946495  1
  O  O43  1  0.32391497  0.33283381  0.26946495  1
  O  O44  1  0.34065510  0.41755399  0.60717418  1
  O  O45  1  0.34065510  0.58244601  0.10717418  1
  O  O46  1  0.41141719  0.14569005  0.66504220  1
  O  O47  1  0.41141719  0.85430995  0.16504220  1
  O  O48  1  0.43561373  0.06514265  0.36838112  1
  O  O49  1  0.43561373  0.93485735  0.86838112  1
  O  O50  1  0.47913750  0.64363872  0.56797725  1
  O  O51  1  0.47913750  0.35636128  0.06797725  1
  O  O52  1  0.52086250  0.35636128  0.43202275  1
  O  O53  1  0.52086250  0.64363872  0.93202275  1
  O  O54  1  0.56438627  0.06514265  0.13161888  1
  O  O55  1  0.56438627  0.93485735  0.63161888  1
  O  O56  1  0.58858281  0.14569005  0.83495780  1
  O  O57  1  0.58858281  0.85430995  0.33495780  1
  O  O58  1  0.65934490  0.41755399  0.89282582  1
  O  O59  1  0.65934490  0.58244601  0.39282582  1
  O  O60  1  0.67608503  0.33283381  0.23053505  1
  O  O61  1  0.67608503  0.66716619  0.73053505  1
  O  O62  1  0.72267424  0.32690895  0.52328826  1
  O  O63  1  0.72267424  0.67309105  0.02328826  1
  O  O64  1  0.77732576  0.17309105  0.02328826  1
  O  O65  1  0.77732576  0.82690895  0.52328826  1
  O  O66  1  0.82391497  0.16716619  0.73053505  1
  O  O67  1  0.82391497  0.83283381  0.23053505  1
  O  O68  1  0.84065510  0.08244601  0.39282582  1
  O  O69  1  0.84065510  0.91755399  0.89282582  1
  O  O70  1  0.91141719  0.35430995  0.33495780  1
  O  O71  1  0.91141719  0.64569005  0.83495780  1
  O  O72  1  0.93561373  0.43485735  0.63161888  1
  O  O73  1  0.93561373  0.56514265  0.13161888  1
  O  O74  1  0.97913750  0.14363872  0.93202275  1
  O  O75  1  0.97913750  0.85636128  0.43202275  1
