# generated using pymatgen
data_NdH4S2NO8
_symmetry_space_group_name_H-M   'P 1'
_cell_length_a   8.93718212
_cell_length_b   7.25413038
_cell_length_c   10.89965611
_cell_angle_alpha   90.00000000
_cell_angle_beta   91.62081334
_cell_angle_gamma   90.00000000
_symmetry_Int_Tables_number   1
_chemical_formula_structural   NdH4S2NO8
_chemical_formula_sum   'Nd4 H16 S8 N4 O32'
_cell_volume   706.35816152
_cell_formula_units_Z   4
loop_
 _symmetry_equiv_pos_site_id
 _symmetry_equiv_pos_as_xyz
  1  'x, y, z'
loop_
 _atom_site_type_symbol
 _atom_site_label
 _atom_site_symmetry_multiplicity
 _atom_site_fract_x
 _atom_site_fract_y
 _atom_site_fract_z
 _atom_site_occupancy
  Nd  Nd0  1  0.05523700  0.67091294  0.85037347  1
  Nd  Nd1  1  0.05523700  0.82908706  0.35037347  1
  Nd  Nd2  1  0.94476300  0.17091294  0.64962653  1
  Nd  Nd3  1  0.94476300  0.32908706  0.14962653  1
  H  H4  1  0.32752468  0.40590590  0.64806544  1
  H  H5  1  0.32752468  0.09409410  0.14806544  1
  H  H6  1  0.45150031  0.30171619  0.74344599  1
  H  H7  1  0.44952810  0.25178213  0.59260256  1
  H  H8  1  0.45150031  0.19828381  0.24344599  1
  H  H9  1  0.44952810  0.24821787  0.09260256  1
  H  H10  1  0.48841004  0.95848407  0.85726611  1
  H  H11  1  0.51158996  0.45848407  0.64273389  1
  H  H12  1  0.48841004  0.54151593  0.35726611  1
  H  H13  1  0.51158996  0.04151593  0.14273389  1
  H  H14  1  0.55047190  0.75178213  0.90739744  1
  H  H15  1  0.54849969  0.80171619  0.75655401  1
  H  H16  1  0.55047190  0.74821787  0.40739744  1
  H  H17  1  0.54849969  0.69828381  0.25655401  1
  H  H18  1  0.67247532  0.90590590  0.85193456  1
  H  H19  1  0.67247532  0.59409410  0.35193456  1
  S  S20  1  0.17561777  0.16923556  0.88743068  1
  S  S21  1  0.17561777  0.33076444  0.38743068  1
  S  S22  1  0.26610186  0.83750845  0.58694625  1
  S  S23  1  0.26610186  0.66249155  0.08694625  1
  S  S24  1  0.73389814  0.33750845  0.91305375  1
  S  S25  1  0.73389814  0.16249155  0.41305375  1
  S  S26  1  0.82438223  0.66923556  0.61256932  1
  S  S27  1  0.82438223  0.83076444  0.11256932  1
  N  N28  1  0.43470336  0.35438940  0.65629283  1
  N  N29  1  0.43470336  0.14561060  0.15629283  1
  N  N30  1  0.56529664  0.85438940  0.84370717  1
  N  N31  1  0.56529664  0.64561060  0.34370717  1
  O  O32  1  0.09860662  0.01341046  0.81798357  1
  O  O33  1  0.09860662  0.48658954  0.31798357  1
  O  O34  1  0.11659422  0.32379640  0.51272845  1
  O  O35  1  0.12886164  0.33696820  0.81178305  1
  O  O36  1  0.12484233  0.94928216  0.55931233  1
  O  O37  1  0.11659422  0.17620360  0.01272845  1
  O  O38  1  0.12886164  0.16303180  0.31178305  1
  O  O39  1  0.12484233  0.55071784  0.05931233  1
  O  O40  1  0.23358832  0.69662484  0.68330544  1
  O  O41  1  0.23358832  0.80337516  0.18330544  1
  O  O42  1  0.29018530  0.75716184  0.96705563  1
  O  O43  1  0.29018530  0.74283816  0.46705563  1
  O  O44  1  0.33850970  0.15158352  0.89038337  1
  O  O45  1  0.33850970  0.34841648  0.39038337  1
  O  O46  1  0.39071493  0.95535399  0.62512404  1
  O  O47  1  0.39071493  0.54464601  0.12512404  1
  O  O48  1  0.60928507  0.45535399  0.87487596  1
  O  O49  1  0.60928507  0.04464601  0.37487596  1
  O  O50  1  0.66149030  0.65158352  0.60961663  1
  O  O51  1  0.66149030  0.84841648  0.10961663  1
  O  O52  1  0.70981470  0.25716184  0.53294437  1
  O  O53  1  0.70981470  0.24283816  0.03294437  1
  O  O54  1  0.76641168  0.19662484  0.81669456  1
  O  O55  1  0.76641168  0.30337516  0.31669456  1
  O  O56  1  0.87515767  0.44928216  0.94068767  1
  O  O57  1  0.87113836  0.83696820  0.68821695  1
  O  O58  1  0.88340578  0.82379640  0.98727155  1
  O  O59  1  0.87515767  0.05071784  0.44068767  1
  O  O60  1  0.87113836  0.66303180  0.18821695  1
  O  O61  1  0.88340578  0.67620360  0.48727155  1
  O  O62  1  0.90139338  0.51341046  0.68201643  1
  O  O63  1  0.90139338  0.98658954  0.18201643  1
