# generated using pymatgen
data_S(OF)2
_symmetry_space_group_name_H-M   'P 1'
_cell_length_a   5.39422234
_cell_length_b   5.39422234
_cell_length_c   12.09227032
_cell_angle_alpha   90.00000000
_cell_angle_beta   90.00000000
_cell_angle_gamma   90.00000000
_symmetry_Int_Tables_number   1
_chemical_formula_structural   S(OF)2
_chemical_formula_sum   'S4 O8 F8'
_cell_volume   351.85646390
_cell_formula_units_Z   4
loop_
 _symmetry_equiv_pos_site_id
 _symmetry_equiv_pos_as_xyz
  1  'x, y, z'
loop_
 _atom_site_type_symbol
 _atom_site_label
 _atom_site_symmetry_multiplicity
 _atom_site_fract_x
 _atom_site_fract_y
 _atom_site_fract_z
 _atom_site_occupancy
  O  O0  1  0.98838556  0.67991169  0.46356615  1
  O  O1  1  0.01161444  0.32008831  0.96356615  1
  O  O2  1  0.67991169  0.98838556  0.53643385  1
  O  O3  1  0.17991169  0.51161444  0.21356615  1
  O  O4  1  0.48838556  0.82008831  0.28643385  1
  O  O5  1  0.32008831  0.01161444  0.03643385  1
  O  O6  1  0.82008831  0.48838556  0.71356615  1
  O  O7  1  0.51161444  0.17991169  0.78643385  1
  F  F8  1  0.61145678  0.49493250  0.15971518  1
  F  F9  1  0.11145678  0.00506750  0.59028482  1
  F  F10  1  0.99493250  0.88854322  0.90971518  1
  F  F11  1  0.00506750  0.11145678  0.40971518  1
  F  F12  1  0.50506750  0.38854322  0.34028482  1
  F  F13  1  0.88854322  0.99493250  0.09028482  1
  F  F14  1  0.38854322  0.50506750  0.65971518  1
  F  F15  1  0.49493250  0.61145678  0.84028482  1
  S  S16  1  0.92008135  0.92008135  0.50000000  1
  S  S17  1  0.57991865  0.42008135  0.75000000  1
  S  S18  1  0.42008135  0.57991865  0.25000000  1
  S  S19  1  0.07991865  0.07991865  0.00000000  1
