# generated using pymatgen
data_Li7Mn2(CoO4)3
_symmetry_space_group_name_H-M   'P 1'
_cell_length_a   2.88570745
_cell_length_b   7.82805320
_cell_length_c   9.82263622
_cell_angle_alpha   80.60229624
_cell_angle_beta   90.00000000
_cell_angle_gamma   79.37860764
_symmetry_Int_Tables_number   1
_chemical_formula_structural   Li7Mn2(CoO4)3
_chemical_formula_sum   'Li7 Mn2 Co3 O12'
_cell_volume   215.05579695
_cell_formula_units_Z   1
loop_
 _symmetry_equiv_pos_site_id
 _symmetry_equiv_pos_as_xyz
  1  'x, y, z'
loop_
 _atom_site_type_symbol
 _atom_site_label
 _atom_site_symmetry_multiplicity
 _atom_site_fract_x
 _atom_site_fract_y
 _atom_site_fract_z
 _atom_site_occupancy
  Li  Li0  1  0.59306260  0.81387380  0.26724573  1
  Li  Li1  1  0.73827955  0.52344091  0.72898410  1
  Li  Li2  1  0.91563257  0.16873586  0.25951131  1
  Li  Li3  1  0.25493365  0.49013270  0.25586988  1
  Li  Li4  1  0.41335857  0.17328386  0.74348307  1
  Li  Li5  1  0.08581624  0.82836652  0.73820961  1
  Li  Li6  1  0.16566036  0.66868028  0.50194576  1
  Mn  Mn7  1  0.00003237  -0.00006475  0.00071674  1
  Mn  Mn8  1  0.50388472  0.99223056  0.50530539  1
  Co  Co9  1  0.33033229  0.33933441  0.00028905  1
  Co  Co10  1  0.66858986  0.66282127  -0.00112351  1
  Co  Co11  1  0.82087024  0.35825853  0.49292505  1
  O  O12  1  0.46316851  0.07366198  0.11146835  1
  O  O13  1  0.61404519  0.77190963  0.61608242  1
  O  O14  1  0.79688049  0.40624003  0.12053895  1
  O  O15  1  0.11871609  0.76256782  0.10700141  1
  O  O16  1  0.29608801  0.40782497  0.61688801  1
  O  O17  1  0.96166019  0.07667862  0.61144519  1
  O  O18  1  0.71698208  0.56603484  0.37626679  1
  O  O19  1  0.88195840  0.23608320  0.89164297  1
  O  O20  1  0.03568674  0.92862752  0.38799810  1
  O  O21  1  0.38052562  0.23894877  0.39500696  1
  O  O22  1  0.53393091  0.93213919  0.88838785  1
  O  O23  1  0.20990476  0.58018949  0.88391081  1
