# generated using pymatgen
data_RbAgO
_symmetry_space_group_name_H-M   'P 1'
_cell_length_a   5.90333548
_cell_length_b   7.81989081
_cell_length_c   7.81989080
_cell_angle_alpha   81.80900766
_cell_angle_beta   67.82378573
_cell_angle_gamma   67.82378573
_symmetry_Int_Tables_number   1
_chemical_formula_structural   RbAgO
_chemical_formula_sum   'Rb4 Ag4 O4'
_cell_volume   309.56117027
_cell_formula_units_Z   4
loop_
 _symmetry_equiv_pos_site_id
 _symmetry_equiv_pos_as_xyz
  1  'x, y, z'
loop_
 _atom_site_type_symbol
 _atom_site_label
 _atom_site_symmetry_multiplicity
 _atom_site_fract_x
 _atom_site_fract_y
 _atom_site_fract_z
 _atom_site_occupancy
  O  O0  1  0.46182940  0.78818584  0.78818584  1
  O  O1  1  0.74998476  0.78818584  0.21181416  1
  O  O2  1  0.74998476  0.21181416  0.78818584  1
  O  O3  1  0.03820107  0.21181416  0.21181416  1
  Rb  Rb4  1  0.93502490  0.81494618  0.81494618  1
  Rb  Rb5  1  0.25002892  0.81494618  0.18505382  1
  Rb  Rb6  1  0.25002892  0.18505382  0.81494618  1
  Rb  Rb7  1  0.56491727  0.18505382  0.18505382  1
  Ag  Ag8  1  0.89425084  0.50000000  0.21149831  1
  Ag  Ag9  1  0.89425084  0.21149831  0.50000000  1
  Ag  Ag10  1  0.60574916  0.78850169  0.50000000  1
  Ag  Ag11  1  0.60574916  0.50000000  0.78850169  1
