# generated using pymatgen
data_P3H30N7O12
_symmetry_space_group_name_H-M   'P 1'
_cell_length_a   10.48459651
_cell_length_b   6.33037595
_cell_length_c   14.03418290
_cell_angle_alpha   90.00000000
_cell_angle_beta   104.03436396
_cell_angle_gamma   90.00000000
_symmetry_Int_Tables_number   1
_chemical_formula_structural   P3H30N7O12
_chemical_formula_sum   'P6 H60 N14 O24'
_cell_volume   903.66497264
_cell_formula_units_Z   2
loop_
 _symmetry_equiv_pos_site_id
 _symmetry_equiv_pos_as_xyz
  1  'x, y, z'
loop_
 _atom_site_type_symbol
 _atom_site_label
 _atom_site_symmetry_multiplicity
 _atom_site_fract_x
 _atom_site_fract_y
 _atom_site_fract_z
 _atom_site_occupancy
  P  P0  1  0.06259655  0.70550380  0.69947403  1
  P  P1  1  0.26454920  0.80254385  0.02458384  1
  P  P2  1  0.50190667  0.20194861  0.66041174  1
  P  P3  1  0.49809333  0.70194861  0.33958826  1
  P  P4  1  0.73545080  0.30254385  0.97541616  1
  P  P5  1  0.93740345  0.20550380  0.30052597  1
  H  H6  1  0.05979157  0.22513453  0.51156701  1
  H  H7  1  0.10159092  0.29748017  0.63364326  1
  H  H8  1  0.10283879  0.03662409  0.59748455  1
  H  H9  1  0.19205887  0.86655242  0.83321592  1
  H  H10  1  0.20865159  0.37557527  0.81208095  1
  H  H11  1  0.05760788  0.83072730  0.25073925  1
  H  H12  1  0.27609633  0.18483017  0.89655811  1
  H  H13  1  0.00257469  0.22228471  0.02919218  1
  H  H14  1  0.08882860  0.56670717  0.25461846  1
  H  H15  1  0.22201268  0.20813537  0.58129247  1
  H  H16  1  0.07594688  0.26007107  0.15154850  1
  H  H17  1  0.32324053  0.44559783  0.91551763  1
  H  H18  1  0.22523392  0.72079876  0.56475643  1
  H  H19  1  0.13001948  0.71396327  0.16471645  1
  H  H20  1  0.36786951  0.30644931  0.82457931  1
  H  H21  1  0.12395679  0.40888135  0.06491941  1
  H  H22  1  0.21808470  0.73705075  0.28430417  1
  H  H23  1  0.16336052  0.14643107  0.07798157  1
  H  H24  1  0.22054433  0.23407070  0.34360747  1
  H  H25  1  0.35072292  0.54484372  0.57581761  1
  H  H26  1  0.33053080  0.72809242  0.48585313  1
  H  H27  1  0.44434774  0.77180605  0.91044481  1
  H  H28  1  0.38452674  0.80783408  0.60578496  1
  H  H29  1  0.34350314  0.22771143  0.45241352  1
  H  H30  1  0.34173813  0.04486465  0.36403796  1
  H  H31  1  0.48566978  0.86065480  0.80277000  1
  H  H32  1  0.37995765  0.30568614  0.34618181  1
  H  H33  1  0.56512094  0.95186046  0.91617193  1
  H  H34  1  0.58330631  0.69187011  0.88338704  1
  H  H35  1  0.58148134  0.37162712  0.81267010  1
  H  H36  1  0.41851866  0.87162712  0.18732990  1
  H  H37  1  0.41669369  0.19187011  0.11661296  1
  H  H38  1  0.43487906  0.45186046  0.08382807  1
  H  H39  1  0.62004235  0.80568614  0.65381819  1
  H  H40  1  0.51433022  0.36065480  0.19723000  1
  H  H41  1  0.65826187  0.54486465  0.63596204  1
  H  H42  1  0.65649686  0.72771143  0.54758648  1
  H  H43  1  0.61547326  0.30783408  0.39421504  1
  H  H44  1  0.55565226  0.27180605  0.08955519  1
  H  H45  1  0.66946920  0.22809242  0.51414687  1
  H  H46  1  0.64927708  0.04484372  0.42418239  1
  H  H47  1  0.77945567  0.73407070  0.65639253  1
  H  H48  1  0.83663948  0.64643107  0.92201843  1
  H  H49  1  0.78191530  0.23705075  0.71569583  1
  H  H50  1  0.87604321  0.90888135  0.93508059  1
  H  H51  1  0.63213049  0.80644931  0.17542069  1
  H  H52  1  0.86998052  0.21396327  0.83528355  1
  H  H53  1  0.77476608  0.22079876  0.43524357  1
  H  H54  1  0.67675947  0.94559783  0.08448237  1
  H  H55  1  0.92405312  0.76007107  0.84845150  1
  H  H56  1  0.77798732  0.70813537  0.41870753  1
  H  H57  1  0.91117140  0.06670717  0.74538154  1
  H  H58  1  0.99742531  0.72228471  0.97080782  1
  H  H59  1  0.72390367  0.68483017  0.10344189  1
  H  H60  1  0.94239212  0.33072730  0.74926075  1
  H  H61  1  0.79134841  0.87557527  0.18791905  1
  H  H62  1  0.80794113  0.36655242  0.16678408  1
  H  H63  1  0.89716121  0.53662409  0.40251545  1
  H  H64  1  0.89840908  0.79748017  0.36635674  1
  H  H65  1  0.94020843  0.72513453  0.48843299  1
  N  N66  1  0.12175319  0.19213445  0.58100664  1
  N  N67  1  0.29476246  0.32600142  0.86280328  1
  N  N68  1  0.12356379  0.71466413  0.23854279  1
  N  N69  1  0.09197010  0.25756469  0.08042595  1
  N  N70  1  0.32180307  0.70203117  0.55768281  1
  N  N71  1  0.32024221  0.20312414  0.37590924  1
  N  N72  1  0.51830810  0.81936641  0.87680294  1
  N  N73  1  0.48169190  0.31936641  0.12319706  1
  N  N74  1  0.67975779  0.70312414  0.62409076  1
  N  N75  1  0.67819693  0.20203117  0.44231719  1
  N  N76  1  0.90802990  0.75756469  0.91957405  1
  N  N77  1  0.87643621  0.21466413  0.76145721  1
  N  N78  1  0.70523754  0.82600142  0.13719672  1
  N  N79  1  0.87824681  0.69213445  0.41899336  1
  O  O80  1  0.07419403  0.46651761  0.72326974  1
  O  O81  1  0.06485791  0.75021999  0.59143089  1
  O  O82  1  0.21246066  0.95307177  0.93663512  1
  O  O83  1  0.19034577  0.82434653  0.76137335  1
  O  O84  1  0.06102968  0.29763585  0.27397496  1
  O  O85  1  0.14918735  0.67243106  0.04799522  1
  O  O86  1  0.38047020  0.26759540  0.57881074  1
  O  O87  1  0.36834603  0.76797934  0.36646158  1
  O  O88  1  0.49095595  0.33004946  0.75559936  1
  O  O89  1  0.32337922  0.94783946  0.11577297  1
  O  O90  1  0.49973422  0.96281052  0.68272915  1
  O  O91  1  0.62953381  0.14966606  0.99642806  1
  O  O92  1  0.37046619  0.64966606  0.00357194  1
  O  O93  1  0.50026578  0.46281052  0.31727085  1
  O  O94  1  0.67662078  0.44783946  0.88422703  1
  O  O95  1  0.50904405  0.83004946  0.24440064  1
  O  O96  1  0.63165397  0.26797934  0.63353842  1
  O  O97  1  0.61952980  0.76759540  0.42118926  1
  O  O98  1  0.85081265  0.17243106  0.95200478  1
  O  O99  1  0.93897032  0.79763585  0.72602504  1
  O  O100  1  0.80965423  0.32434653  0.23862665  1
  O  O101  1  0.78753934  0.45307177  0.06336488  1
  O  O102  1  0.93514209  0.25021999  0.40856911  1
  O  O103  1  0.92580597  0.96651761  0.27673026  1
