# generated using pymatgen
data_K2Mn3V2(HO5)2
_symmetry_space_group_name_H-M   'P 1'
_cell_length_a   6.26615634
_cell_length_b   8.27389309
_cell_length_c   5.48154679
_cell_angle_alpha   75.82018498
_cell_angle_beta   90.00000000
_cell_angle_gamma   67.74864956
_symmetry_Int_Tables_number   1
_chemical_formula_structural   K2Mn3V2(HO5)2
_chemical_formula_sum   'K2 Mn3 V2 H2 O10'
_cell_volume   253.64980227
_cell_formula_units_Z   1
loop_
 _symmetry_equiv_pos_site_id
 _symmetry_equiv_pos_as_xyz
  1  'x, y, z'
loop_
 _atom_site_type_symbol
 _atom_site_label
 _atom_site_symmetry_multiplicity
 _atom_site_fract_x
 _atom_site_fract_y
 _atom_site_fract_z
 _atom_site_occupancy
  K  K0  1  0.76245900  0.47508199  0.70160672  1
  K  K1  1  0.23754100  0.52491801  0.29839228  1
  Mn  Mn2  1  0.26232743  1.00000000  0.50000000  1
  Mn  Mn3  1  0.73767257  0.00000000  0.50000000  1
  Mn  Mn4  1  0.00000000  0.00000000  0.00000000  1
  V  V5  1  0.62076631  0.75846739  0.09069852  1
  V  V6  1  0.37923369  0.24153261  0.90930148  1
  H  H7  1  0.13906572  0.72186856  0.76003856  1
  H  H8  1  0.86093428  0.27813144  0.23996144  1
  O  O9  1  0.07219580  0.85560939  0.71915061  1
  O  O10  1  0.58388395  0.83223310  0.75471346  1
  O  O11  1  0.81720953  0.82981020  0.22173042  1
  O  O12  1  0.35298026  0.82981020  0.22173042  1
  O  O13  1  0.26299733  0.47400534  0.82153308  1
  O  O14  1  0.73700267  0.52599466  0.17846692  1
  O  O15  1  0.18279047  0.17018980  0.77826958  1
  O  O16  1  0.64701974  0.17018980  0.77826958  1
  O  O17  1  0.41611605  0.16776690  0.24528654  1
  O  O18  1  0.92780420  0.14439061  0.28084939  1
