# generated using pymatgen
data_K3Ti8O17
_symmetry_space_group_name_H-M   'P 1'
_cell_length_a   8.15197693
_cell_length_b   7.64912796
_cell_length_c   12.22026594
_cell_angle_alpha   89.98900540
_cell_angle_beta   95.15865080
_cell_angle_gamma   76.39254990
_symmetry_Int_Tables_number   1
_chemical_formula_structural   K3Ti8O17
_chemical_formula_sum   'K6 Ti16 O34'
_cell_volume   737.43274642
_cell_formula_units_Z   2
loop_
 _symmetry_equiv_pos_site_id
 _symmetry_equiv_pos_as_xyz
  1  'x, y, z'
loop_
 _atom_site_type_symbol
 _atom_site_label
 _atom_site_symmetry_multiplicity
 _atom_site_fract_x
 _atom_site_fract_y
 _atom_site_fract_z
 _atom_site_occupancy
  K  K0  1  0.02020085  0.74485282  0.53959524  1
  K  K1  1  0.11297999  0.22190831  0.82430031  1
  K  K2  1  0.11537310  0.72109741  0.83278567  1
  K  K3  1  0.88462690  0.27890259  0.16721433  1
  K  K4  1  0.88702001  0.77809169  0.17569969  1
  K  K5  1  0.97979915  0.25514718  0.46040476  1
  Ti  Ti6  1  0.22346553  0.44356673  0.07009069  1
  Ti  Ti7  1  0.22358038  0.94456462  0.06985667  1
  Ti  Ti8  1  0.30274779  0.92346712  0.32469437  1
  Ti  Ti9  1  0.30344808  0.42472554  0.32449177  1
  Ti  Ti10  1  0.39447244  0.90270713  0.57775629  1
  Ti  Ti11  1  0.39461520  0.39990265  0.57745069  1
  Ti  Ti12  1  0.48471677  0.37886264  0.83015614  1
  Ti  Ti13  1  0.48498736  0.87866941  0.83024754  1
  Ti  Ti14  1  0.51528323  0.62113736  0.16984386  1
  Ti  Ti15  1  0.51501264  0.12133059  0.16975246  1
  Ti  Ti16  1  0.60552756  0.09729287  0.42224371  1
  Ti  Ti17  1  0.60538480  0.60009735  0.42254931  1
  Ti  Ti18  1  0.69655192  0.57527446  0.67550823  1
  Ti  Ti19  1  0.69725221  0.07653288  0.67530563  1
  Ti  Ti20  1  0.77641962  0.05543538  0.93014333  1
  Ti  Ti21  1  0.77653447  0.55643327  0.92990931  1
  O  O22  1  0.00000000  0.00000000  0.00000000  1
  O  O23  1  0.00000000  0.50000000  0.00000000  1
  O  O24  1  0.12601989  0.46630718  0.22494275  1
  O  O25  1  0.12561868  0.97107098  0.22481492  1
  O  O26  1  0.21526069  0.44574779  0.46333193  1
  O  O27  1  0.21459326  0.94667515  0.46341619  1
  O  O28  1  0.29977441  0.42820401  0.70628819  1
  O  O29  1  0.29940414  0.92191577  0.70634505  1
  O  O30  1  0.34402532  0.41422069  0.93536722  1
  O  O31  1  0.34403417  0.91437943  0.93543956  1
  O  O32  1  0.27321413  0.68141781  0.08830878  1
  O  O33  1  0.27400693  0.18116042  0.08797296  1
  O  O34  1  0.36981729  0.15750370  0.32519662  1
  O  O35  1  0.36969537  0.65765374  0.32479862  1
  O  O36  1  0.45023208  0.13756710  0.56728898  1
  O  O37  1  0.44899670  0.63789123  0.56652617  1
  O  O38  1  0.54079128  0.11482748  0.81439032  1
  O  O39  1  0.54155675  0.61422396  0.81489571  1
  O  O40  1  0.45844325  0.38577604  0.18510429  1
  O  O41  1  0.45920872  0.88517252  0.18560968  1
  O  O42  1  0.55100330  0.36210877  0.43347383  1
  O  O43  1  0.54976792  0.86243290  0.43271102  1
  O  O44  1  0.63030463  0.34234626  0.67520138  1
  O  O45  1  0.63018271  0.84249630  0.67480438  1
  O  O46  1  0.72678587  0.31858219  0.91169122  1
  O  O47  1  0.72599307  0.81883958  0.91202704  1
  O  O48  1  0.65596583  0.08562057  0.06456044  1
  O  O49  1  0.65597468  0.58577931  0.06463278  1
  O  O50  1  0.70059586  0.07808423  0.29365495  1
  O  O51  1  0.70022559  0.57179599  0.29371181  1
  O  O52  1  0.78540674  0.05332485  0.53658381  1
  O  O53  1  0.78473931  0.55425221  0.53666807  1
  O  O54  1  0.87398011  0.53369282  0.77505725  1
  O  O55  1  0.87438132  0.02892902  0.77518508  1
