# generated using pymatgen
data_NaV3P2O13
_symmetry_space_group_name_H-M   'P 1'
_cell_length_a   10.22021113
_cell_length_b   12.08653838
_cell_length_c   8.46853581
_cell_angle_alpha   90.00000000
_cell_angle_beta   90.00000000
_cell_angle_gamma   90.00000000
_symmetry_Int_Tables_number   1
_chemical_formula_structural   NaV3P2O13
_chemical_formula_sum   'Na4 V12 P8 O52'
_cell_volume   1046.09260345
_cell_formula_units_Z   4
loop_
 _symmetry_equiv_pos_site_id
 _symmetry_equiv_pos_as_xyz
  1  'x, y, z'
loop_
 _atom_site_type_symbol
 _atom_site_label
 _atom_site_symmetry_multiplicity
 _atom_site_fract_x
 _atom_site_fract_y
 _atom_site_fract_z
 _atom_site_occupancy
  Na  Na0  1  0.28507440  0.04065670  0.60289008  1
  Na  Na1  1  0.28507440  0.45934330  0.10289008  1
  Na  Na2  1  0.78507440  0.95934330  0.89710992  1
  Na  Na3  1  0.78507440  0.54065670  0.39710992  1
  V  V4  1  0.02213534  0.36353195  0.25113576  1
  V  V5  1  0.02213534  0.13646805  0.75113576  1
  V  V6  1  0.24940051  0.75330822  0.06656916  1
  V  V7  1  0.24940051  0.74669178  0.56656916  1
  V  V8  1  0.47515191  0.36622556  0.74957857  1
  V  V9  1  0.47515191  0.13377444  0.24957857  1
  V  V10  1  0.52213534  0.86353195  0.74886424  1
  V  V11  1  0.52213534  0.63646805  0.24886424  1
  V  V12  1  0.74940051  0.24669178  0.43343084  1
  V  V13  1  0.74940051  0.25330822  0.93343084  1
  V  V14  1  0.97515191  0.86622556  0.25042143  1
  V  V15  1  0.97515191  0.63377444  0.75042143  1
  P  P16  1  0.01401489  0.11897220  0.36931548  1
  P  P17  1  0.01401489  0.38102780  0.86931548  1
  P  P18  1  0.48769121  0.37992207  0.37080831  1
  P  P19  1  0.48769121  0.12007793  0.87080831  1
  P  P20  1  0.51401489  0.88102780  0.13068452  1
  P  P21  1  0.51401489  0.61897220  0.63068452  1
  P  P22  1  0.98769121  0.87992207  0.62919169  1
  P  P23  1  0.98769121  0.62007793  0.12919169  1
  O  O24  1  0.05795076  0.20742620  0.24901417  1
  O  O25  1  0.05795076  0.29257380  0.74901417  1
  O  O26  1  0.05694380  0.00483525  0.30742281  1
  O  O27  1  0.05694380  0.49516475  0.80742281  1
  O  O28  1  0.08175218  0.13887000  0.53213094  1
  O  O29  1  0.08175218  0.36113000  0.03213094  1
  O  O30  1  0.10453603  0.66275277  0.61234822  1
  O  O31  1  0.10453603  0.83724723  0.11234822  1
  O  O32  1  0.13974528  0.62100513  0.11293277  1
  O  O33  1  0.13974528  0.87899487  0.61293277  1
  O  O34  1  0.14828954  0.09046648  0.84468574  1
  O  O35  1  0.14828954  0.40953352  0.34468574  1
  O  O36  1  0.24959812  0.74897687  0.37396111  1
  O  O37  1  0.24959812  0.75102313  0.87396111  1
  O  O38  1  0.35228403  0.41013093  0.85222744  1
  O  O39  1  0.35228403  0.08986907  0.35222744  1
  O  O40  1  0.36288713  0.62477567  0.61097196  1
  O  O41  1  0.36288713  0.87522433  0.11097196  1
  O  O42  1  0.39204282  0.84183229  0.61039135  1
  O  O43  1  0.39204282  0.65816771  0.11039135  1
  O  O44  1  0.42289081  0.14386575  0.03265990  1
  O  O45  1  0.42289081  0.35613425  0.53265990  1
  O  O46  1  0.44078644  0.00673153  0.80631053  1
  O  O47  1  0.44078644  0.49326847  0.30631053  1
  O  O48  1  0.44075981  0.20626249  0.74772342  1
  O  O49  1  0.44075981  0.29373751  0.24772342  1
  O  O50  1  0.55795076  0.79257380  0.25098583  1
  O  O51  1  0.55795076  0.70742620  0.75098583  1
  O  O52  1  0.55694380  0.50483525  0.69257719  1
  O  O53  1  0.55694380  0.99516475  0.19257719  1
  O  O54  1  0.58175218  0.63887000  0.46786906  1
  O  O55  1  0.58175218  0.86113000  0.96786906  1
  O  O56  1  0.60453603  0.16275277  0.38765178  1
  O  O57  1  0.60453603  0.33724723  0.88765178  1
  O  O58  1  0.63974528  0.37899487  0.38706723  1
  O  O59  1  0.63974528  0.12100513  0.88706723  1
  O  O60  1  0.64828954  0.90953352  0.65531426  1
  O  O61  1  0.64828954  0.59046648  0.15531426  1
  O  O62  1  0.74959812  0.25102313  0.12603889  1
  O  O63  1  0.74959812  0.24897687  0.62603889  1
  O  O64  1  0.85228403  0.91013093  0.14777256  1
  O  O65  1  0.85228403  0.58986907  0.64777256  1
  O  O66  1  0.86288713  0.12477567  0.38902804  1
  O  O67  1  0.86288713  0.37522433  0.88902804  1
  O  O68  1  0.89204282  0.15816771  0.88960865  1
  O  O69  1  0.89204282  0.34183229  0.38960865  1
  O  O70  1  0.92289081  0.85613425  0.46734010  1
  O  O71  1  0.92289081  0.64386575  0.96734010  1
  O  O72  1  0.94078644  0.99326847  0.69368947  1
  O  O73  1  0.94078644  0.50673153  0.19368947  1
  O  O74  1  0.94075981  0.79373751  0.75227658  1
  O  O75  1  0.94075981  0.70626249  0.25227658  1
