# generated using pymatgen
data_Na2CrAsCO7
_symmetry_space_group_name_H-M   'P 1'
_cell_length_a   9.10562708
_cell_length_b   6.73618982
_cell_length_c   5.30639730
_cell_angle_alpha   90.00000000
_cell_angle_beta   87.99615967
_cell_angle_gamma   90.00000000
_symmetry_Int_Tables_number   1
_chemical_formula_structural   Na2CrAsCO7
_chemical_formula_sum   'Na4 Cr2 As2 C2 O14'
_cell_volume   325.28068922
_cell_formula_units_Z   2
loop_
 _symmetry_equiv_pos_site_id
 _symmetry_equiv_pos_as_xyz
  1  'x, y, z'
loop_
 _atom_site_type_symbol
 _atom_site_label
 _atom_site_symmetry_multiplicity
 _atom_site_fract_x
 _atom_site_fract_y
 _atom_site_fract_z
 _atom_site_occupancy
  Na  Na0  1  0.22322655  0.00224710  0.23439317  1
  Na  Na1  1  0.22322655  0.49775290  0.23439317  1
  Na  Na2  1  0.77677345  0.50224710  0.76560683  1
  Na  Na3  1  0.77677345  0.99775290  0.76560683  1
  Cr  Cr4  1  0.34270059  0.75000000  0.78861134  1
  Cr  Cr5  1  0.65729941  0.25000000  0.21138866  1
  As  As6  1  0.42336504  0.25000000  0.71131470  1
  As  As7  1  0.57663496  0.75000000  0.28868530  1
  C  C8  1  0.07580459  0.75000000  0.72561244  1
  C  C9  1  0.92419541  0.25000000  0.27438756  1
  O  O10  1  0.05979505  0.25000000  0.30609147  1
  O  O11  1  0.13522371  0.75000000  0.94840788  1
  O  O12  1  0.17543379  0.75000000  0.53770781  1
  O  O13  1  0.31888645  0.04901503  0.79969453  1
  O  O14  1  0.31888645  0.45098497  0.79969453  1
  O  O15  1  0.40901146  0.75000000  0.14924019  1
  O  O16  1  0.45472719  0.25000000  0.38673158  1
  O  O17  1  0.54527281  0.75000000  0.61326842  1
  O  O18  1  0.59098854  0.25000000  0.85075981  1
  O  O19  1  0.68111355  0.54901503  0.20030547  1
  O  O20  1  0.68111355  0.95098497  0.20030547  1
  O  O21  1  0.82456621  0.25000000  0.46229219  1
  O  O22  1  0.86477629  0.25000000  0.05159212  1
  O  O23  1  0.94020495  0.75000000  0.69390853  1
