# generated using pymatgen
data_Mn2V3Fe(PO4)6
_symmetry_space_group_name_H-M   'P 1'
_cell_length_a   8.63311398
_cell_length_b   8.63826966
_cell_length_c   8.63826998
_cell_angle_alpha   59.99999571
_cell_angle_beta   59.98024390
_cell_angle_gamma   59.98024228
_symmetry_Int_Tables_number   1
_chemical_formula_structural   Mn2V3Fe(PO4)6
_chemical_formula_sum   'Mn2 V3 Fe1 P6 O24'
_cell_volume   455.38239576
_cell_formula_units_Z   1
loop_
 _symmetry_equiv_pos_site_id
 _symmetry_equiv_pos_as_xyz
  1  'x, y, z'
loop_
 _atom_site_type_symbol
 _atom_site_label
 _atom_site_symmetry_multiplicity
 _atom_site_fract_x
 _atom_site_fract_y
 _atom_site_fract_z
 _atom_site_occupancy
  Mn  Mn0  1  0.99634155  0.00121982  0.00121982  1
  Mn  Mn1  1  0.49905321  0.50031526  0.50031526  1
  V  V2  1  0.06678932  0.64440389  0.64440389  1
  V  V3  1  0.43052657  0.85649148  0.85649148  1
  V  V4  1  0.93250712  0.35583096  0.35583096  1
  Fe  Fe5  1  0.56407239  0.14530954  0.14530954  1
  P  P6  1  0.24996583  0.24962276  0.54279198  1
  P  P7  1  0.24996583  0.95761844  0.24962276  1
  P  P8  1  0.24996583  0.54279198  0.95761844  1
  P  P9  1  0.75097048  0.45867964  0.04099787  1
  P  P10  1  0.75097048  0.04099787  0.74935200  1
  P  P11  1  0.75097048  0.74935200  0.45867964  1
  O  O12  1  0.06834403  0.11905630  0.30708331  1
  O  O13  1  0.06834403  0.50551636  0.11905630  1
  O  O14  1  0.06834403  0.30708331  0.50551636  1
  O  O15  1  0.23630063  0.08598943  0.73755145  1
  O  O16  1  0.43180932  0.19363183  0.38439625  1
  O  O17  1  0.25800731  0.41583560  0.56251323  1
  O  O18  1  0.23630063  0.94015849  0.08598943  1
  O  O19  1  0.25800731  0.76364286  0.41583560  1
  O  O20  1  0.57013835  0.61940954  0.00421881  1
  O  O21  1  0.25800731  0.56251323  0.76364286  1
  O  O22  1  0.76825790  0.26553741  0.05438954  1
  O  O23  1  0.57013835  0.00421881  0.80623230  1
  O  O24  1  0.43180932  0.99016359  0.19363183  1
  O  O25  1  0.23630063  0.73755145  0.94015849  1
  O  O26  1  0.73828031  0.44253843  0.23527235  1
  O  O27  1  0.43180932  0.38439625  0.99016359  1
  O  O28  1  0.73828031  0.23527235  0.58390890  1
  O  O29  1  0.76825790  0.05438954  0.91181615  1
  O  O30  1  0.73828031  0.58390890  0.44253843  1
  O  O31  1  0.57013835  0.80623230  0.61940954  1
  O  O32  1  0.76825790  0.91181615  0.26553741  1
  O  O33  1  0.93149478  0.68603522  0.50101073  1
  O  O34  1  0.93149478  0.50101073  0.88145927  1
  O  O35  1  0.93149478  0.88145927  0.68603522  1
