# generated using pymatgen
data_Li4MnCo2O7
_symmetry_space_group_name_H-M   'P 1'
_cell_length_a   2.90674436
_cell_length_b   9.80015402
_cell_length_c   9.83756190
_cell_angle_alpha   65.69122494
_cell_angle_beta   82.13195006
_cell_angle_gamma   90.74736124
_symmetry_Int_Tables_number   1
_chemical_formula_structural   Li4MnCo2O7
_chemical_formula_sum   'Li8 Mn2 Co4 O14'
_cell_volume   252.23943320
_cell_formula_units_Z   2
loop_
 _symmetry_equiv_pos_site_id
 _symmetry_equiv_pos_as_xyz
  1  'x, y, z'
loop_
 _atom_site_type_symbol
 _atom_site_label
 _atom_site_symmetry_multiplicity
 _atom_site_fract_x
 _atom_site_fract_y
 _atom_site_fract_z
 _atom_site_occupancy
  Li  Li0  1  0.90965865  0.22444070  0.14814731  1
  Li  Li1  1  0.21663281  0.37500533  0.55187849  1
  Li  Li2  1  0.49197967  0.49644664  0.01282875  1
  Li  Li3  1  0.79426966  0.63866553  0.42557300  1
  Li  Li4  1  0.08314901  0.77423529  0.86023476  1
  Li  Li5  1  0.37258350  0.91944839  0.28696958  1
  Li  Li6  1  0.63658627  0.07436534  0.71291196  1
  Li  Li7  1  0.85726068  0.42606088  0.28146789  1
  Mn  Mn8  1  0.99890322  0.99691112  0.00231916  1
  Mn  Mn9  1  0.27681661  0.15270225  0.42129682  1
  Co  Co10  1  0.57602501  0.28970703  0.85308554  1
  Co  Co11  1  0.15100465  0.57105410  0.71409485  1
  Co  Co12  1  0.42107915  0.69048730  0.15937965  1
  Co  Co13  1  0.71608851  0.85715168  0.57548672  1
  O  O14  1  0.47358203  0.09499343  0.06221479  1
  O  O15  1  0.74539039  0.23730941  0.49300516  1
  O  O16  1  0.04142763  0.39540287  0.91658761  1
  O  O17  1  0.32689521  0.54797988  0.34749056  1
  O  O18  1  0.62320416  0.67814882  0.77638809  1
  O  O19  1  0.90567279  0.82920615  0.19498677  1
  O  O20  1  0.16570739  0.96762305  0.62900614  1
  O  O21  1  0.37414957  0.30428758  0.23072435  1
  O  O22  1  0.68346483  0.46575028  0.64854143  1
  O  O23  1  0.96102648  0.61735918  0.07262792  1
  O  O24  1  0.27397870  0.75428598  0.50991573  1
  O  O25  1  0.52533928  0.90506749  0.93857279  1
  O  O26  1  0.79828900  0.04504514  0.36944040  1
  O  O27  1  0.09983517  0.17085916  0.80482378  1
