# generated using pymatgen
data_Rb3InO3
_symmetry_space_group_name_H-M   'P 1'
_cell_length_a   11.57078326
_cell_length_b   7.17845292
_cell_length_c   7.89453781
_cell_angle_alpha   90.00000000
_cell_angle_beta   94.38902394
_cell_angle_gamma   90.00000000
_symmetry_Int_Tables_number   1
_chemical_formula_structural   Rb3InO3
_chemical_formula_sum   'Rb12 In4 O12'
_cell_volume   653.79990721
_cell_formula_units_Z   4
loop_
 _symmetry_equiv_pos_site_id
 _symmetry_equiv_pos_as_xyz
  1  'x, y, z'
loop_
 _atom_site_type_symbol
 _atom_site_label
 _atom_site_symmetry_multiplicity
 _atom_site_fract_x
 _atom_site_fract_y
 _atom_site_fract_z
 _atom_site_occupancy
  Rb  Rb0  1  0.07475710  0.31928563  0.63992394  1
  Rb  Rb1  1  0.15457753  0.62702755  0.05602470  1
  Rb  Rb2  1  0.19245045  0.80402750  0.63186977  1
  Rb  Rb3  1  0.30754955  0.30402750  0.36813023  1
  Rb  Rb4  1  0.34542247  0.12702755  0.94397530  1
  Rb  Rb5  1  0.42524290  0.81928563  0.36007606  1
  Rb  Rb6  1  0.57475710  0.18071437  0.63992394  1
  Rb  Rb7  1  0.65457753  0.87297245  0.05602470  1
  Rb  Rb8  1  0.69245045  0.69597250  0.63186977  1
  Rb  Rb9  1  0.80754955  0.19597250  0.36813023  1
  Rb  Rb10  1  0.84542247  0.37297245  0.94397530  1
  Rb  Rb11  1  0.92524290  0.68071437  0.36007606  1
  In  In12  1  0.06665333  0.08877482  0.16113306  1
  In  In13  1  0.43334667  0.58877482  0.83886694  1
  In  In14  1  0.56665333  0.41122518  0.16113306  1
  In  In15  1  0.93334667  0.91122518  0.83886694  1
  O  O16  1  0.03803368  0.35378721  0.25372399  1
  O  O17  1  0.10014120  0.04224335  0.89705505  1
  O  O18  1  0.18987699  0.93822227  0.30635061  1
  O  O19  1  0.31012301  0.43822227  0.69364939  1
  O  O20  1  0.39985880  0.54224335  0.10294495  1
  O  O21  1  0.46196632  0.85378721  0.74627601  1
  O  O22  1  0.53803368  0.14621279  0.25372399  1
  O  O23  1  0.60014120  0.45775665  0.89705505  1
  O  O24  1  0.68987699  0.56177773  0.30635061  1
  O  O25  1  0.81012301  0.06177773  0.69364939  1
  O  O26  1  0.89985880  0.95775665  0.10294495  1
  O  O27  1  0.96196632  0.64621279  0.74627601  1
