# generated using pymatgen
data_Li6Mn3CoO10
_symmetry_space_group_name_H-M   'P 1'
_cell_length_a   2.99057073
_cell_length_b   6.02013404
_cell_length_c   10.35546822
_cell_angle_alpha   97.39219943
_cell_angle_beta   96.80851143
_cell_angle_gamma   94.03256058
_symmetry_Int_Tables_number   1
_chemical_formula_structural   Li6Mn3CoO10
_chemical_formula_sum   'Li6 Mn3 Co1 O10'
_cell_volume   182.88813388
_cell_formula_units_Z   1
loop_
 _symmetry_equiv_pos_site_id
 _symmetry_equiv_pos_as_xyz
  1  'x, y, z'
loop_
 _atom_site_type_symbol
 _atom_site_label
 _atom_site_symmetry_multiplicity
 _atom_site_fract_x
 _atom_site_fract_y
 _atom_site_fract_z
 _atom_site_occupancy
  Li  Li0  1  0.99663004  0.49747680  0.99503109  1
  Li  Li1  1  0.59810515  0.30343056  0.20007099  1
  Li  Li2  1  0.39329564  0.68939831  0.78932639  1
  Li  Li3  1  0.80859087  0.88951674  0.60673997  1
  Li  Li4  1  0.20657072  0.10921344  0.40858017  1
  Li  Li5  1  0.79368481  0.41295495  0.60560290  1
  Mn  Mn6  1  0.99587609  0.00301975  0.99614425  1
  Mn  Mn7  1  0.20864741  0.59386333  0.40848436  1
  Mn  Mn8  1  0.60754853  0.79620442  0.19874204  1
  Co  Co9  1  0.38670022  0.20848857  0.78904276  1
  O  O10  1  0.46169110  0.24033359  0.98378422  1
  O  O11  1  0.06429900  0.04252216  0.19415426  1
  O  O12  1  0.86885062  0.42894052  0.79971300  1
  O  O13  1  0.28916315  0.64813628  0.58680110  1
  O  O14  1  0.72505120  0.81877026  0.39497911  1
  O  O15  1  0.53425066  0.76049716  0.00657520  1
  O  O16  1  0.14220903  0.55930773  0.20977582  1
  O  O17  1  0.92803930  0.96485623  0.80562486  1
  O  O18  1  0.31120965  0.15206701  0.61883602  1
  O  O19  1  0.67958682  0.38100220  0.40199149  1
