# generated using pymatgen
data_Li(CoO2)2
_symmetry_space_group_name_H-M   'P 1'
_cell_length_a   8.05765513
_cell_length_b   8.06588165
_cell_length_c   8.06780123
_cell_angle_alpha   90.05901731
_cell_angle_beta   90.02203501
_cell_angle_gamma   90.02985869
_symmetry_Int_Tables_number   1
_chemical_formula_structural   Li(CoO2)2
_chemical_formula_sum   'Li8 Co16 O32'
_cell_volume   524.34289655
_cell_formula_units_Z   8
loop_
 _symmetry_equiv_pos_site_id
 _symmetry_equiv_pos_as_xyz
  1  'x, y, z'
loop_
 _atom_site_type_symbol
 _atom_site_label
 _atom_site_symmetry_multiplicity
 _atom_site_fract_x
 _atom_site_fract_y
 _atom_site_fract_z
 _atom_site_occupancy
  Li  Li0  1  -0.00099160  -0.00287867  0.00035289  1
  Li  Li1  1  0.25177173  0.25082506  0.24791143  1
  Li  Li2  1  0.25207730  0.74957347  0.74880146  1
  Li  Li3  1  0.49920975  -0.00393316  0.50148991  1
  Li  Li4  1  0.49842691  0.50233442  0.00168524  1
  Li  Li5  1  0.74782226  0.24999519  0.75081783  1
  Li  Li6  1  0.74907867  0.75031545  0.24738064  1
  Li  Li7  1  0.00055164  0.50379379  0.50051404  1
  Co  Co8  1  0.12427613  0.12529478  0.62441677  1
  Co  Co9  1  0.12344003  0.37626594  0.87547250  1
  Co  Co10  1  0.12678215  0.87398658  0.37224391  1
  Co  Co11  1  0.12569946  0.62545776  0.12555803  1
  Co  Co12  1  0.37473159  0.37448769  0.62428447  1
  Co  Co13  1  0.37521701  0.12303921  0.87760971  1
  Co  Co14  1  0.37581154  0.62516397  0.37484518  1
  Co  Co15  1  0.37578202  0.87431209  0.12473072  1
  Co  Co16  1  0.62409401  0.37561508  0.37575728  1
  Co  Co17  1  0.62545569  0.12342554  0.12480890  1
  Co  Co18  1  0.62525653  0.62630644  0.62623809  1
  Co  Co19  1  0.62545306  0.87442137  0.87532720  1
  Co  Co20  1  0.87408656  0.12466347  0.37442205  1
  Co  Co21  1  0.87571701  0.37710513  0.12551754  1
  Co  Co22  1  0.87489216  0.87496168  0.62540551  1
  Co  Co23  1  0.87473600  0.62545407  0.87337276  1
  O  O24  1  0.10946416  0.11193214  0.38727357  1
  O  O25  1  0.11696290  0.89266123  0.60915094  1
  O  O26  1  0.11558537  0.60720473  0.88877285  1
  O  O27  1  0.13414005  0.14103523  0.86099345  1
  O  O28  1  0.10831486  0.38675743  0.11188210  1
  O  O29  1  0.13505126  0.35837187  0.63809063  1
  O  O30  1  0.13962028  0.64212821  0.36180172  1
  O  O31  1  0.13602070  0.86147272  0.14118163  1
  O  O32  1  0.35680463  0.13373709  0.64114765  1
  O  O33  1  0.35716552  0.36081045  0.86255181  1
  O  O34  1  0.36116312  0.63864100  0.13993798  1
  O  O35  1  0.39070120  0.60864749  0.61398114  1
  O  O36  1  0.35926612  0.86116753  0.36245094  1
  O  O37  1  0.39136189  0.38611592  0.38847682  1
  O  O38  1  0.39078485  0.11507548  0.10810317  1
  O  O39  1  0.38800634  0.89210645  0.88593792  1
  O  O40  1  0.61041143  0.38854418  0.60942302  1
  O  O41  1  0.61656168  0.60946834  0.39036314  1
  O  O42  1  0.61203528  0.88944130  0.11144452  1
  O  O43  1  0.64111827  0.36374555  0.14149443  1
  O  O44  1  0.60902958  0.11114499  0.88982515  1
  O  O45  1  0.63896159  0.14002512  0.36605639  1
  O  O46  1  0.64041722  0.85958584  0.63704402  1
  O  O47  1  0.63750270  0.63614491  0.85783513  1
  O  O48  1  0.86013333  0.36096099  0.36334755  1
  O  O49  1  0.86588861  0.14134810  0.14250959  1
  O  O50  1  0.86223630  0.86053477  0.85972066  1
  O  O51  1  0.88961264  0.89163382  0.38518833  1
  O  O52  1  0.85952537  0.64124430  0.63677699  1
  O  O53  1  0.89056490  0.11717691  0.60797637  1
  O  O54  1  0.89104812  0.38438181  0.89077936  1
  O  O55  1  0.88516512  0.60690977  0.10965593  1
