# generated using pymatgen
data_Li7Mn2(CoO4)3
_symmetry_space_group_name_H-M   'P 1'
_cell_length_a   2.91327375
_cell_length_b   8.32225406
_cell_length_c   9.75794946
_cell_angle_alpha   115.07776949
_cell_angle_beta   90.00000000
_cell_angle_gamma   90.00000000
_symmetry_Int_Tables_number   1
_chemical_formula_structural   Li7Mn2(CoO4)3
_chemical_formula_sum   'Li7 Mn2 Co3 O12'
_cell_volume   214.27977110
_cell_formula_units_Z   1
loop_
 _symmetry_equiv_pos_site_id
 _symmetry_equiv_pos_as_xyz
  1  'x, y, z'
loop_
 _atom_site_type_symbol
 _atom_site_label
 _atom_site_symmetry_multiplicity
 _atom_site_fract_x
 _atom_site_fract_y
 _atom_site_fract_z
 _atom_site_occupancy
  Li  Li0  1  0.00000000  0.85015174  0.66861629  1
  Li  Li1  1  0.00000000  0.48318126  0.99805071  1
  Li  Li2  1  0.00000000  0.16666700  0.33333300  1
  Li  Li3  1  0.50000000  0.33011719  0.15823096  1
  Li  Li4  1  0.50000000  0.00321581  0.50843604  1
  Li  Li5  1  0.50000000  0.66666700  0.83333300  1
  Li  Li6  1  0.50000000  0.16666700  0.83333300  1
  Mn  Mn7  1  0.00000000  0.00973663  0.99661161  1
  Mn  Mn8  1  0.00000000  0.32359637  0.67005539  1
  Co  Co9  1  -0.00000000  0.66666700  0.33333300  1
  Co  Co10  1  0.50000000  0.50314237  0.50248243  1
  Co  Co11  1  0.50000000  0.83019063  0.16418457  1
  O  O12  1  0.00000000  0.23193356  0.00307889  1
  O  O13  1  0.00000000  0.90594355  0.31861917  1
  O  O14  1  0.00000000  0.56594967  0.65653536  1
  O  O15  1  0.50000000  0.74171997  0.49090995  1
  O  O16  1  0.50000000  0.40854776  0.81488885  1
  O  O17  1  0.50000000  0.07127448  0.14905836  1
  O  O18  1  0.00000000  0.42738945  0.34804783  1
  O  O19  1  0.00000000  0.10140044  0.66358711  1
  O  O20  1  0.00000000  0.76738333  0.01013164  1
  O  O21  1  0.50000000  0.92478524  0.85177815  1
  O  O22  1  0.50000000  0.59161403  0.17575605  1
  O  O23  1  0.50000000  0.26205852  0.51760864  1
