# generated using pymatgen
data_Li7Mn2(CoO4)3
_symmetry_space_group_name_H-M   'P 1'
_cell_length_a   5.00892967
_cell_length_b   9.83456679
_cell_length_c   5.00594101
_cell_angle_alpha   93.28757691
_cell_angle_beta   62.23448561
_cell_angle_gamma   100.87264748
_symmetry_Int_Tables_number   1
_chemical_formula_structural   Li7Mn2(CoO4)3
_chemical_formula_sum   'Li7 Mn2 Co3 O12'
_cell_volume   214.15400391
_cell_formula_units_Z   1
loop_
 _symmetry_equiv_pos_site_id
 _symmetry_equiv_pos_as_xyz
  1  'x, y, z'
loop_
 _atom_site_type_symbol
 _atom_site_label
 _atom_site_symmetry_multiplicity
 _atom_site_fract_x
 _atom_site_fract_y
 _atom_site_fract_z
 _atom_site_occupancy
  Li  Li0  1  0.74347474  0.24666983  0.99413554  1
  Li  Li1  1  0.58064830  0.75265828  0.33686222  1
  Li  Li2  1  0.41888808  0.24682286  0.66630715  1
  Li  Li3  1  0.08376083  0.24370442  0.33964354  1
  Li  Li4  1  0.91405297  0.75292961  0.66517313  1
  Li  Li5  1  0.25962853  0.75705429  0.99859582  1
  Li  Li6  1  0.66780152  0.00006073  0.66743078  1
  Mn  Mn7  1  0.99480433  -0.00011170  0.00092130  1
  Mn  Mn8  1  0.83331355  0.49955167  0.33329527  1
  Co  Co9  1  0.50101103  0.50067415  0.99922761  1
  Co  Co10  1  0.33096662  0.00047303  0.33938226  1
  Co  Co11  1  0.16660050  0.49976075  0.66694689  1
  O  O12  1  0.06480202  0.11331151  0.66314208  1
  O  O13  1  0.85038352  0.61443039  0.01538835  1
  O  O14  1  0.71788427  0.11136250  0.29865768  1
  O  O15  1  0.34772804  0.11313487  0.02194757  1
  O  O16  1  0.18776085  0.61325662  0.35527875  1
  O  O17  1  0.51596962  0.61629662  0.68941820  1
  O  O18  1  0.47918887  0.38580829  0.31266692  1
  O  O19  1  0.26406457  0.89003428  0.67547301  1
  O  O20  1  0.15378529  0.38730915  0.97562814  1
  O  O21  1  0.81378562  0.38291578  0.65093050  1
  O  O22  1  0.62779694  0.88686288  0.02411782  1
  O  O23  1  0.98189938  0.88502917  0.30942947  1
