# generated using pymatgen
data_Li7Mn2(CoO4)3
_symmetry_space_group_name_H-M   'P 1'
_cell_length_a   2.89892794
_cell_length_b   8.32295615
_cell_length_c   9.83968254
_cell_angle_alpha   114.58502333
_cell_angle_beta   90.00000000
_cell_angle_gamma   90.00000000
_symmetry_Int_Tables_number   1
_chemical_formula_structural   Li7Mn2(CoO4)3
_chemical_formula_sum   'Li7 Mn2 Co3 O12'
_cell_volume   215.88613176
_cell_formula_units_Z   1
loop_
 _symmetry_equiv_pos_site_id
 _symmetry_equiv_pos_as_xyz
  1  'x, y, z'
loop_
 _atom_site_type_symbol
 _atom_site_label
 _atom_site_symmetry_multiplicity
 _atom_site_fract_x
 _atom_site_fract_y
 _atom_site_fract_z
 _atom_site_occupancy
  Li  Li0  1  -0.00000000  0.82841673  0.65476551  1
  Li  Li1  1  -0.00000000  0.50491627  0.01190149  1
  Li  Li2  1  -0.00000000  0.16666700  0.33333300  1
  Li  Li3  1  0.50000000  0.35421348  0.17872040  1
  Li  Li4  1  0.50000000  0.97911952  0.48794660  1
  Li  Li5  1  0.50000000  0.66666700  0.83333300  1
  Li  Li6  1  -0.00000000  0.66666700  0.33333300  1
  Mn  Mn7  1  0.00000000  0.00116157  0.00277418  1
  Mn  Mn8  1  -0.00000000  0.33217143  0.66389282  1
  Co  Co9  1  0.50000000  0.51824844  0.49185380  1
  Co  Co10  1  0.50000000  0.16666700  0.83333300  1
  Co  Co11  1  0.50000000  0.81508456  0.17481320  1
  O  O12  1  -0.00000000  0.23216425  0.99203956  1
  O  O13  1  0.00000000  0.91855300  0.31928487  1
  O  O14  1  0.00000000  0.55832977  0.65767994  1
  O  O15  1  0.50000000  0.73996066  0.50591694  1
  O  O16  1  0.50000000  0.40469355  0.81392812  1
  O  O17  1  0.50000000  0.07344415  0.14492888  1
  O  O18  1  -0.00000000  0.41478000  0.34738213  1
  O  O19  1  -0.00000000  0.10116975  0.67462644  1
  O  O20  1  -0.00000000  0.77500323  0.00898706  1
  O  O21  1  0.50000000  0.92863945  0.85273888  1
  O  O22  1  0.50000000  0.59337334  0.16074906  1
  O  O23  1  0.50000000  0.25988885  0.52173812  1
