# generated using pymatgen
data_Li7Mn2(CoO4)3
_symmetry_space_group_name_H-M   'P 1'
_cell_length_a   2.90889519
_cell_length_b   5.95685911
_cell_length_c   12.75956521
_cell_angle_alpha   102.79125973
_cell_angle_beta   90.11030161
_cell_angle_gamma   89.92285306
_symmetry_Int_Tables_number   1
_chemical_formula_structural   Li7Mn2(CoO4)3
_chemical_formula_sum   'Li7 Mn2 Co3 O12'
_cell_volume   215.60879084
_cell_formula_units_Z   1
loop_
 _symmetry_equiv_pos_site_id
 _symmetry_equiv_pos_as_xyz
  1  'x, y, z'
loop_
 _atom_site_type_symbol
 _atom_site_label
 _atom_site_symmetry_multiplicity
 _atom_site_fract_x
 _atom_site_fract_y
 _atom_site_fract_z
 _atom_site_occupancy
  Li  Li0  1  0.99911307  0.51429171  0.01503654  1
  Li  Li1  1  0.49929764  0.32694355  0.16780248  1
  Li  Li2  1  0.50028625  0.67521537  0.83682441  1
  Li  Li3  1  0.00188862  0.83383703  0.66791080  1
  Li  Li4  1  0.49318933  0.99586984  0.49616857  1
  Li  Li5  1  0.99911303  0.15088827  0.32088635  1
  Li  Li6  1  0.49664831  0.84009560  0.16878504  1
  Mn  Mn7  1  0.00003966  0.00070916  0.00729039  1
  Mn  Mn8  1  0.50341409  0.50080862  0.49879444  1
  Co  Co9  1  0.99905713  0.66826352  0.31563606  1
  Co  Co10  1  0.00489771  0.33235524  0.67220917  1
  Co  Co11  1  0.49735733  0.16419604  0.83157736  1
  O  O12  1  0.49970055  0.22183069  0.99685788  1
  O  O13  1  0.99926997  0.07793713  0.15407943  1
  O  O14  1  0.99210283  0.40820549  0.82684446  1
  O  O15  1  0.50620788  0.56603508  0.65707130  1
  O  O16  1  0.00281917  0.71709525  0.50002008  1
  O  O17  1  0.49894796  0.89796913  0.33731739  1
  O  O18  1  0.50021380  0.78093021  0.00007953  1
  O  O19  1  0.99716704  0.58069302  0.17362896  1
  O  O20  1  0.00320748  0.93357888  0.84099994  1
  O  O21  1  0.50144633  0.09576166  0.66481153  1
  O  O22  1  0.00418840  0.28047981  0.50381900  1
  O  O23  1  0.50042644  0.43600971  0.34554891  1
