# generated using pymatgen
data_InPH5NO5
_symmetry_space_group_name_H-M   'P 1'
_cell_length_a   9.48500750
_cell_length_b   9.48500750
_cell_length_c   11.42407101
_cell_angle_alpha   90.00000000
_cell_angle_beta   90.00000000
_cell_angle_gamma   90.00000000
_symmetry_Int_Tables_number   1
_chemical_formula_structural   InPH5NO5
_chemical_formula_sum   'In8 P8 H40 N8 O40'
_cell_volume   1027.77074419
_cell_formula_units_Z   8
loop_
 _symmetry_equiv_pos_site_id
 _symmetry_equiv_pos_as_xyz
  1  'x, y, z'
loop_
 _atom_site_type_symbol
 _atom_site_label
 _atom_site_symmetry_multiplicity
 _atom_site_fract_x
 _atom_site_fract_y
 _atom_site_fract_z
 _atom_site_occupancy
  In  In0  1  0.09475061  0.09475061  0.00000000  1
  In  In1  1  0.15200185  0.84799815  0.25000000  1
  In  In2  1  0.34799815  0.34799815  0.50000000  1
  In  In3  1  0.40524939  0.59475061  0.75000000  1
  In  In4  1  0.59475061  0.40524939  0.25000000  1
  In  In5  1  0.65200185  0.65200185  0.00000000  1
  In  In6  1  0.84799815  0.15200185  0.75000000  1
  In  In7  1  0.90524939  0.90524939  0.50000000  1
  P  P8  1  0.16562321  0.30668797  0.75684474  1
  P  P9  1  0.19331203  0.66562321  0.50684474  1
  P  P10  1  0.30668797  0.16562321  0.24315526  1
  P  P11  1  0.33437679  0.80668797  0.99315526  1
  P  P12  1  0.66562321  0.19331203  0.49315526  1
  P  P13  1  0.69331203  0.83437679  0.74315526  1
  P  P14  1  0.80668797  0.33437679  0.00684474  1
  P  P15  1  0.83437679  0.69331203  0.25684474  1
  H  H16  1  0.01017260  0.55821994  0.77749429  1
  H  H17  1  0.01928051  0.71740568  0.71364697  1
  H  H18  1  0.06227557  0.11337611  0.59990093  1
  H  H19  1  0.07496680  0.29966677  0.33634284  1
  H  H20  1  0.05821994  0.48982740  0.02749429  1
  H  H21  1  0.10919871  0.68517263  0.83869527  1
  H  H22  1  0.11337611  0.06227557  0.40009907  1
  H  H23  1  0.18517263  0.39080129  0.08869527  1
  H  H24  1  0.20033323  0.57496680  0.08634284  1
  H  H25  1  0.21740568  0.48071949  0.96364697  1
  H  H26  1  0.28259432  0.98071949  0.78635303  1
  H  H27  1  0.29966677  0.07496680  0.66365716  1
  H  H28  1  0.31482737  0.89080129  0.66130473  1
  H  H29  1  0.38662389  0.56227557  0.34990093  1
  H  H30  1  0.39080129  0.18517263  0.91130473  1
  H  H31  1  0.44178006  0.98982740  0.72250571  1
  H  H32  1  0.42503320  0.79966677  0.41365716  1
  H  H33  1  0.43772443  0.61337611  0.15009907  1
  H  H34  1  0.48071949  0.21740568  0.03635303  1
  H  H35  1  0.48982740  0.05821994  0.97250571  1
  H  H36  1  0.51017260  0.94178006  0.47250571  1
  H  H37  1  0.51928051  0.78259432  0.53635303  1
  H  H38  1  0.56227557  0.38662389  0.65009907  1
  H  H39  1  0.57496680  0.20033323  0.91365716  1
  H  H40  1  0.55821994  0.01017260  0.22250571  1
  H  H41  1  0.60919871  0.81482737  0.41130473  1
  H  H42  1  0.61337611  0.43772443  0.84990093  1
  H  H43  1  0.68517263  0.10919871  0.16130473  1
  H  H44  1  0.70033323  0.92503320  0.16365716  1
  H  H45  1  0.71740568  0.01928051  0.28635303  1
  H  H46  1  0.78259432  0.51928051  0.46364697  1
  H  H47  1  0.79966677  0.42503320  0.58634284  1
  H  H48  1  0.81482737  0.60919871  0.58869527  1
  H  H49  1  0.88662389  0.93772443  0.90009907  1
  H  H50  1  0.89080129  0.31482737  0.33869527  1
  H  H51  1  0.94178006  0.51017260  0.52749429  1
  H  H52  1  0.92503320  0.70033323  0.83634284  1
  H  H53  1  0.93772443  0.88662389  0.09990093  1
  H  H54  1  0.98071949  0.28259432  0.21364697  1
  H  H55  1  0.98982740  0.44178006  0.27749429  1
  N  N56  1  0.01591661  0.66522104  0.79317894  1
  N  N57  1  0.16522104  0.48408339  0.04317894  1
  N  N58  1  0.33477896  0.98408339  0.70682106  1
  N  N59  1  0.48408339  0.16522104  0.95682106  1
  N  N60  1  0.51591661  0.83477896  0.45682106  1
  N  N61  1  0.66522104  0.01591661  0.20682106  1
  N  N62  1  0.83477896  0.51591661  0.54317894  1
  N  N63  1  0.98408339  0.33477896  0.29317894  1
  O  O64  1  0.00300915  0.32506869  0.74998709  1
  O  O65  1  0.01159087  0.95140734  0.12620612  1
  O  O66  1  0.04711181  0.72933761  0.53167639  1
  O  O67  1  0.04859266  0.98840913  0.37379388  1
  O  O68  1  0.17493131  0.50300915  0.49998709  1
  O  O69  1  0.20806807  0.20527358  0.85874050  1
  O  O70  1  0.20527358  0.20806807  0.14125950  1
  O  O71  1  0.22933761  0.45288819  0.78167639  1
  O  O72  1  0.22444156  0.24054092  0.63975124  1
  O  O73  1  0.24054092  0.22444156  0.36024876  1
  O  O74  1  0.25945908  0.72444156  0.38975124  1
  O  O75  1  0.27555844  0.74054092  0.11024876  1
  O  O76  1  0.27066239  0.95288819  0.96832361  1
  O  O77  1  0.29472642  0.70806807  0.60874050  1
  O  O78  1  0.29193193  0.70527358  0.89125950  1
  O  O79  1  0.32506869  0.00300915  0.25001291  1
  O  O80  1  0.45140734  0.48840913  0.37620612  1
  O  O81  1  0.45288819  0.22933761  0.21832361  1
  O  O82  1  0.48840913  0.45140734  0.62379388  1
  O  O83  1  0.49699085  0.82506869  0.00001291  1
  O  O84  1  0.50300915  0.17493131  0.50001291  1
  O  O85  1  0.51159087  0.54859266  0.12379388  1
  O  O86  1  0.54711181  0.77066239  0.71832361  1
  O  O87  1  0.54859266  0.51159087  0.87620612  1
  O  O88  1  0.67493131  0.99699085  0.75001291  1
  O  O89  1  0.70806807  0.29472642  0.39125950  1
  O  O90  1  0.70527358  0.29193193  0.10874050  1
  O  O91  1  0.72933761  0.04711181  0.46832361  1
  O  O92  1  0.72444156  0.25945908  0.61024876  1
  O  O93  1  0.74054092  0.27555844  0.88975124  1
  O  O94  1  0.75945908  0.77555844  0.86024876  1
  O  O95  1  0.77555844  0.75945908  0.13975124  1
  O  O96  1  0.77066239  0.54711181  0.28167639  1
  O  O97  1  0.79472642  0.79193193  0.64125950  1
  O  O98  1  0.79193193  0.79472642  0.35874050  1
  O  O99  1  0.82506869  0.49699085  -0.00001291  1
  O  O100  1  0.95140734  0.01159087  0.87379388  1
  O  O101  1  0.95288819  0.27066239  0.03167639  1
  O  O102  1  0.98840913  0.04859266  0.62620612  1
  O  O103  1  0.99699085  0.67493131  0.24998709  1
