# generated using pymatgen
data_K2Sn2Se5
_symmetry_space_group_name_H-M   'P 1'
_cell_length_a   7.26747907
_cell_length_b   7.26747908
_cell_length_c   12.09066275
_cell_angle_alpha   75.50083580
_cell_angle_beta   75.50083578
_cell_angle_gamma   71.13934488
_symmetry_Int_Tables_number   1
_chemical_formula_structural   K2Sn2Se5
_chemical_formula_sum   'K4 Sn4 Se10'
_cell_volume   574.95877694
_cell_formula_units_Z   2
loop_
 _symmetry_equiv_pos_site_id
 _symmetry_equiv_pos_as_xyz
  1  'x, y, z'
loop_
 _atom_site_type_symbol
 _atom_site_label
 _atom_site_symmetry_multiplicity
 _atom_site_fract_x
 _atom_site_fract_y
 _atom_site_fract_z
 _atom_site_occupancy
  K  K0  1  0.55995858  0.90457595  0.68081574  1
  K  K1  1  0.09542405  0.44004142  0.81918426  1
  K  K2  1  0.44004142  0.09542405  0.31918426  1
  K  K3  1  0.90457595  0.55995858  0.18081574  1
  Se  Se4  1  0.31560693  0.68439307  0.25000000  1
  Se  Se5  1  0.68439307  0.31560693  0.75000000  1
  Se  Se6  1  0.74275975  0.64463955  0.46428949  1
  Se  Se7  1  0.87837162  0.15187938  0.37970256  1
  Se  Se8  1  0.35536045  0.25724025  0.03571051  1
  Se  Se9  1  0.25724025  0.35536045  0.53571051  1
  Se  Se10  1  0.64463955  0.74275975  0.96428949  1
  Se  Se11  1  0.12162838  0.84812062  0.62029744  1
  Se  Se12  1  0.15187938  0.87837162  0.87970256  1
  Se  Se13  1  0.84812062  0.12162838  0.12029744  1
  Sn  Sn14  1  0.75328802  0.05493283  0.94247498  1
  Sn  Sn15  1  0.05493283  0.75328802  0.44247498  1
  Sn  Sn16  1  0.24671198  0.94506717  0.05752502  1
  Sn  Sn17  1  0.94506717  0.24671198  0.55752502  1
