# generated using pymatgen
data_Rb2SnSe3
_symmetry_space_group_name_H-M   'P 1'
_cell_length_a   7.32105637
_cell_length_b   8.09231448
_cell_length_c   9.18673180
_cell_angle_alpha   74.84593200
_cell_angle_beta   71.70350589
_cell_angle_gamma   66.19095919
_symmetry_Int_Tables_number   1
_chemical_formula_structural   Rb2SnSe3
_chemical_formula_sum   'Rb4 Sn2 Se6'
_cell_volume   467.05153434
_cell_formula_units_Z   2
loop_
 _symmetry_equiv_pos_site_id
 _symmetry_equiv_pos_as_xyz
  1  'x, y, z'
loop_
 _atom_site_type_symbol
 _atom_site_label
 _atom_site_symmetry_multiplicity
 _atom_site_fract_x
 _atom_site_fract_y
 _atom_site_fract_z
 _atom_site_occupancy
  Se  Se0  1  0.26607622  0.96131325  0.47606825  1
  Se  Se1  1  0.73392378  0.03868675  0.52393175  1
  Se  Se2  1  0.37332571  0.81678923  0.92032711  1
  Se  Se3  1  0.62667429  0.18321077  0.07967289  1
  Se  Se4  1  0.16265871  0.38973113  0.71903463  1
  Se  Se5  1  0.83734129  0.61026887  0.28096537  1
  Rb  Rb6  1  0.65333539  0.46205663  0.68578768  1
  Rb  Rb7  1  0.34666461  0.53794337  0.31421232  1
  Rb  Rb8  1  0.90297745  0.79812625  0.88182967  1
  Rb  Rb9  1  0.09702255  0.20187375  0.11817033  1
  Sn  Sn10  1  0.63874441  0.93854722  0.31274232  1
  Sn  Sn11  1  0.36125559  0.06145278  0.68725768  1
