# generated using pymatgen
data_CeB2C
_symmetry_space_group_name_H-M   'P 1'
_cell_length_a   5.35745925
_cell_length_b   5.35745926
_cell_length_c   5.35745926
_cell_angle_alpha   76.21567103
_cell_angle_beta   76.21567104
_cell_angle_gamma   76.21567099
_symmetry_Int_Tables_number   1
_chemical_formula_structural   CeB2C
_chemical_formula_sum   'Ce3 B6 C3'
_cell_volume   142.33145790
_cell_formula_units_Z   3
loop_
 _symmetry_equiv_pos_site_id
 _symmetry_equiv_pos_as_xyz
  1  'x, y, z'
loop_
 _atom_site_type_symbol
 _atom_site_label
 _atom_site_symmetry_multiplicity
 _atom_site_fract_x
 _atom_site_fract_y
 _atom_site_fract_z
 _atom_site_occupancy
  B  B0  1  0.77486526  0.50000000  0.22513474  1
  B  B1  1  0.50000000  0.22513474  0.77486526  1
  B  B2  1  0.22513474  0.77486526  0.50000000  1
  B  B3  1  0.22513474  0.50000000  0.77486526  1
  B  B4  1  0.77486526  0.22513474  0.50000000  1
  B  B5  1  0.50000000  0.77486526  0.22513474  1
  C  C6  1  0.00000000  0.00000000  0.50000000  1
  C  C7  1  0.50000000  0.00000000  0.00000000  1
  C  C8  1  0.00000000  0.50000000  0.00000000  1
  Ce  Ce9  1  0.68642835  0.68642835  0.68642835  1
  Ce  Ce10  1  0.31357165  0.31357165  0.31357165  1
  Ce  Ce11  1  0.00000000  0.00000000  0.00000000  1
