# generated using pymatgen
data_KZn4(SbO4)3
_symmetry_space_group_name_H-M   'P 1'
_cell_length_a   6.84340687
_cell_length_b   6.84340687
_cell_length_c   6.84340604
_cell_angle_alpha   107.75692615
_cell_angle_beta   107.75692626
_cell_angle_gamma   107.75692540
_symmetry_Int_Tables_number   1
_chemical_formula_structural   KZn4(SbO4)3
_chemical_formula_sum   'K1 Zn4 Sb3 O12'
_cell_volume   261.20164752
_cell_formula_units_Z   1
loop_
 _symmetry_equiv_pos_site_id
 _symmetry_equiv_pos_as_xyz
  1  'x, y, z'
loop_
 _atom_site_type_symbol
 _atom_site_label
 _atom_site_symmetry_multiplicity
 _atom_site_fract_x
 _atom_site_fract_y
 _atom_site_fract_z
 _atom_site_occupancy
  K  K0  1  0.49568134  0.49568134  0.49568134  1
  Zn  Zn1  1  0.02525052  0.63884170  0.51077613  1
  Zn  Zn2  1  0.51077613  0.02525052  0.63884170  1
  Zn  Zn3  1  0.63884270  0.51077713  0.02524952  1
  Zn  Zn4  1  0.98192705  0.98192705  0.98192705  1
  Sb  Sb5  1  0.06829458  0.19560577  0.65441400  1
  Sb  Sb6  1  0.19560577  0.65441400  0.06829558  1
  Sb  Sb7  1  0.65441400  0.06829458  0.19560677  1
  O  O8  1  0.89438599  0.65476773  0.96223545  1
  O  O9  1  0.65476773  0.96223545  0.89438599  1
  O  O10  1  0.25110595  0.73126542  0.39084396  1
  O  O11  1  0.73126642  0.39084296  0.25110595  1
  O  O12  1  0.96223545  0.89438699  0.65476773  1
  O  O13  1  0.39084296  0.25110695  0.73126542  1
  O  O14  1  0.98566511  0.11755322  0.32143743  1
  O  O15  1  0.32143643  0.98566611  0.11755322  1
  O  O16  1  0.11755322  0.32143643  0.98566611  1
  O  O17  1  0.73601092  0.16425635  0.53580038  1
  O  O18  1  0.53580138  0.73601092  0.16425635  1
  O  O19  1  0.16425635  0.53580138  0.73601092  1
