# generated using pymatgen
data_CdP2
_symmetry_space_group_name_H-M   'P 1'
_cell_length_a   5.36388053
_cell_length_b   5.36388053
_cell_length_c   20.01252150
_cell_angle_alpha   90.00000000
_cell_angle_beta   90.00000000
_cell_angle_gamma   90.00000000
_symmetry_Int_Tables_number   1
_chemical_formula_structural   CdP2
_chemical_formula_sum   'Cd8 P16'
_cell_volume   575.78454556
_cell_formula_units_Z   8
loop_
 _symmetry_equiv_pos_site_id
 _symmetry_equiv_pos_as_xyz
  1  'x, y, z'
loop_
 _atom_site_type_symbol
 _atom_site_label
 _atom_site_symmetry_multiplicity
 _atom_site_fract_x
 _atom_site_fract_y
 _atom_site_fract_z
 _atom_site_occupancy
  P  P0  1  0.52415329  0.52046485  0.37412154  1
  P  P1  1  0.47584671  0.47953515  0.87412154  1
  P  P2  1  0.52046485  0.52415329  0.62587846  1
  P  P3  1  0.02046485  0.97584671  0.62412154  1
  P  P4  1  0.97953515  0.02415329  0.12412154  1
  P  P5  1  0.97584671  0.02046485  0.37587846  1
  P  P6  1  0.02415329  0.97953515  0.87587846  1
  P  P7  1  0.47953515  0.47584671  0.12587846  1
  P  P8  1  0.78581555  0.30752023  0.06547975  1
  P  P9  1  0.19247977  0.28581555  0.81547975  1
  P  P10  1  0.80752023  0.71418445  0.31547975  1
  P  P11  1  0.28581555  0.19247977  0.18452025  1
  P  P12  1  0.71418445  0.80752023  0.68452025  1
  P  P13  1  0.21418445  0.69247977  0.56547975  1
  P  P14  1  0.30752023  0.78581555  0.93452025  1
  P  P15  1  0.69247977  0.21418445  0.43452025  1
  Cd  Cd16  1  0.34712167  0.87350784  0.45153664  1
  Cd  Cd17  1  0.65287833  0.12649216  0.95153664  1
  Cd  Cd18  1  0.87350784  0.34712167  0.54846336  1
  Cd  Cd19  1  0.37350784  0.15287833  0.70153664  1
  Cd  Cd20  1  0.62649216  0.84712167  0.20153664  1
  Cd  Cd21  1  0.15287833  0.37350784  0.29846336  1
  Cd  Cd22  1  0.84712167  0.62649216  0.79846336  1
  Cd  Cd23  1  0.12649216  0.65287833  0.04846336  1
