# generated using pymatgen
data_KGaPO4F
_symmetry_space_group_name_H-M   'P 1'
_cell_length_a   6.38148429
_cell_length_b   10.59502504
_cell_length_c   12.91522421
_cell_angle_alpha   90.00000000
_cell_angle_beta   90.00000000
_cell_angle_gamma   90.00000000
_symmetry_Int_Tables_number   1
_chemical_formula_structural   KGaPO4F
_chemical_formula_sum   'K8 Ga8 P8 O32 F8'
_cell_volume   873.22395647
_cell_formula_units_Z   8
loop_
 _symmetry_equiv_pos_site_id
 _symmetry_equiv_pos_as_xyz
  1  'x, y, z'
loop_
 _atom_site_type_symbol
 _atom_site_label
 _atom_site_symmetry_multiplicity
 _atom_site_fract_x
 _atom_site_fract_y
 _atom_site_fract_z
 _atom_site_occupancy
  O  O0  1  0.54186964  0.63072607  0.25631317  1
  O  O1  1  0.31223099  0.24419749  0.09572001  1
  O  O2  1  0.81223099  0.74419749  0.40427999  1
  O  O3  1  0.18776901  0.24419749  0.59572001  1
  O  O4  1  0.69146001  0.78269507  0.09820221  1
  O  O5  1  0.30853999  0.28269507  0.90179779  1
  O  O6  1  0.80853999  0.78269507  0.59820221  1
  O  O7  1  0.19146001  0.28269507  0.40179779  1
  O  O8  1  0.95176026  0.90272656  0.24312657  1
  O  O9  1  0.04823974  0.40272656  0.75687343  1
  O  O10  1  0.54823974  0.90272656  0.74312657  1
  O  O11  1  0.45176026  0.40272656  0.25687343  1
  O  O12  1  0.04186964  0.13072607  0.24368683  1
  O  O13  1  0.95813036  0.63072607  0.75631317  1
  O  O14  1  0.45813036  0.13072607  0.74368683  1
  O  O15  1  0.68776901  0.74419749  0.90427999  1
  O  O16  1  0.19194808  0.98715992  0.38642488  1
  O  O17  1  0.80805192  0.48715992  0.61357512  1
  O  O18  1  0.30805192  0.98715992  0.88642488  1
  O  O19  1  0.96975968  0.88404160  0.98860765  1
  O  O20  1  0.80851186  0.04513157  0.38662375  1
  O  O21  1  0.19148814  0.54513157  0.61337625  1
  O  O22  1  0.69148814  0.04513157  0.88662375  1
  O  O23  1  0.30851186  0.54513157  0.11337625  1
  O  O24  1  0.48386042  0.15269036  0.48551002  1
  O  O25  1  0.51613958  0.65269036  0.51448998  1
  O  O26  1  0.01613958  0.15269036  0.98551002  1
  O  O27  1  0.98386042  0.65269036  0.01448998  1
  O  O28  1  0.46975968  0.38404160  0.51139235  1
  O  O29  1  0.53024032  0.88404160  0.48860765  1
  O  O30  1  0.03024032  0.38404160  0.01139235  1
  O  O31  1  0.69194808  0.48715992  0.11357512  1
  F  F32  1  0.48214462  0.14297412  0.27252538  1
  F  F33  1  0.51785538  0.64297412  0.72747462  1
  F  F34  1  0.01785538  0.14297412  0.77252538  1
  F  F35  1  0.98214462  0.64297412  0.22747462  1
  F  F36  1  0.02582469  0.39243698  0.22919183  1
  F  F37  1  0.97417531  0.89243698  0.77080817  1
  F  F38  1  0.47417531  0.39243698  0.72919183  1
  F  F39  1  0.52582469  0.89243698  0.27080817  1
  P  P40  1  0.00073381  0.01573188  0.31692074  1
  P  P41  1  0.99926619  0.51573188  0.68307926  1
  P  P42  1  0.49926619  0.01573188  0.81692074  1
  P  P43  1  0.50073381  0.51573188  0.18307926  1
  P  P44  1  0.82880488  0.76483895  0.00020577  1
  P  P45  1  0.17119512  0.26483895  0.99979423  1
  P  P46  1  0.67119512  0.76483895  0.50020577  1
  P  P47  1  0.32880488  0.26483895  0.49979423  1
  K  K48  1  0.22459398  0.81523690  0.62025975  1
  K  K49  1  0.72459398  0.31523690  0.87974025  1
  K  K50  1  0.27540602  0.81523690  0.12025975  1
  K  K51  1  0.69533677  0.07162742  0.10429016  1
  K  K52  1  0.19533677  0.57162742  0.39570984  1
  K  K53  1  0.30466323  0.57162742  0.89570984  1
  K  K54  1  0.80466323  0.07162742  0.60429016  1
  K  K55  1  0.77540602  0.31523690  0.37974025  1
  Ga  Ga56  1  0.49469868  0.01414089  0.38820915  1
  Ga  Ga57  1  0.50530132  0.51414089  0.61179085  1
  Ga  Ga58  1  0.00530132  0.01414089  0.88820915  1
  Ga  Ga59  1  0.25213962  0.26334421  0.24608013  1
  Ga  Ga60  1  0.74786038  0.76334421  0.75391987  1
  Ga  Ga61  1  0.24786038  0.26334421  0.74608013  1
  Ga  Ga62  1  0.75213962  0.76334421  0.25391987  1
  Ga  Ga63  1  0.99469868  0.51414089  0.11179085  1
