# generated using pymatgen
data_K2VAgS4
_symmetry_space_group_name_H-M   'P 1'
_cell_length_a   5.82956365
_cell_length_b   7.23697211
_cell_length_c   11.72828118
_cell_angle_alpha   84.25524680
_cell_angle_beta   75.60969932
_cell_angle_gamma   66.24900302
_symmetry_Int_Tables_number   1
_chemical_formula_structural   K2VAgS4
_chemical_formula_sum   'K4 V2 Ag2 S8'
_cell_volume   438.68085931
_cell_formula_units_Z   2
loop_
 _symmetry_equiv_pos_site_id
 _symmetry_equiv_pos_as_xyz
  1  'x, y, z'
loop_
 _atom_site_type_symbol
 _atom_site_label
 _atom_site_symmetry_multiplicity
 _atom_site_fract_x
 _atom_site_fract_y
 _atom_site_fract_z
 _atom_site_occupancy
  S  S0  1  0.87017276  0.55142264  0.86319044  1
  S  S1  1  0.57840460  0.55142264  0.63680956  1
  S  S2  1  0.78478584  0.94857736  0.63680956  1
  S  S3  1  0.26663679  0.94857736  0.86319044  1
  S  S4  1  0.12982724  0.44857736  0.13680956  1
  S  S5  1  0.21521416  0.05142264  0.36319044  1
  S  S6  1  0.42159540  0.44857736  0.36319044  1
  S  S7  1  0.73336321  0.05142264  0.13680956  1
  K  K8  1  0.55513441  0.25000000  0.88973118  1
  K  K9  1  0.44486559  0.75000000  0.11026882  1
  K  K10  1  0.19486559  0.25000000  0.61026882  1
  K  K11  1  0.80513441  0.75000000  0.38973118  1
  V  V12  1  0.62500000  0.75000000  0.75000000  1
  V  V13  1  0.37500000  0.25000000  0.25000000  1
  Ag  Ag14  1  0.12500000  0.75000000  0.75000000  1
  Ag  Ag15  1  0.87500000  0.25000000  0.25000000  1
