# generated using pymatgen
data_Li4ZrF8
_symmetry_space_group_name_H-M   'P 1'
_cell_length_a   5.75789696
_cell_length_b   9.73840140
_cell_length_c   9.74687883
_cell_angle_alpha   90.00000000
_cell_angle_beta   90.00000000
_cell_angle_gamma   90.00000000
_symmetry_Int_Tables_number   1
_chemical_formula_structural   Li4ZrF8
_chemical_formula_sum   'Li16 Zr4 F32'
_cell_volume   546.53392774
_cell_formula_units_Z   4
loop_
 _symmetry_equiv_pos_site_id
 _symmetry_equiv_pos_as_xyz
  1  'x, y, z'
loop_
 _atom_site_type_symbol
 _atom_site_label
 _atom_site_symmetry_multiplicity
 _atom_site_fract_x
 _atom_site_fract_y
 _atom_site_fract_z
 _atom_site_occupancy
  Li  Li0  1  0.11867449  0.36941016  0.05848199  1
  Li  Li1  1  0.61867449  0.13058984  0.94151801  1
  Li  Li2  1  0.38132551  0.86941016  0.44151801  1
  Li  Li3  1  0.88132551  0.63058984  0.55848199  1
  Li  Li4  1  0.88132551  0.63058984  0.94151801  1
  Li  Li5  1  0.38132551  0.86941016  0.05848199  1
  Li  Li6  1  0.61867449  0.13058984  0.55848199  1
  Li  Li7  1  0.11867449  0.36941016  0.44151801  1
  Li  Li8  1  0.63011736  0.39713402  0.08086619  1
  Li  Li9  1  0.13011736  0.10286598  0.91913381  1
  Li  Li10  1  0.86988264  0.89713402  0.41913381  1
  Li  Li11  1  0.36988264  0.60286598  0.58086619  1
  Li  Li12  1  0.36988264  0.60286598  0.91913381  1
  Li  Li13  1  0.86988264  0.89713402  0.08086619  1
  Li  Li14  1  0.13011736  0.10286598  0.58086619  1
  Li  Li15  1  0.63011736  0.39713402  0.41913381  1
  F  F16  1  0.85321227  0.98040541  0.61627865  1
  F  F17  1  0.38128974  0.71197877  0.75000000  1
  F  F18  1  0.88128974  0.78802123  0.25000000  1
  F  F19  1  0.11871026  0.21197877  0.75000000  1
  F  F20  1  0.14678773  0.01959459  0.11627865  1
  F  F21  1  0.64678773  0.48040541  0.88372135  1
  F  F22  1  0.35321227  0.51959459  0.38372135  1
  F  F23  1  0.64678773  0.48040541  0.61627865  1
  F  F24  1  0.85321227  0.98040541  0.88372135  1
  F  F25  1  0.35321227  0.51959459  0.11627865  1
  F  F26  1  0.10173728  0.47750882  0.62119007  1
  F  F27  1  0.14678773  0.01959459  0.38372135  1
  F  F28  1  0.60173728  0.02249118  0.12119007  1
  F  F29  1  0.10173728  0.47750882  0.87880993  1
  F  F30  1  0.89826272  0.52249118  0.37880993  1
  F  F31  1  0.39826272  0.97750882  0.62119007  1
  F  F32  1  0.39826272  0.97750882  0.87880993  1
  F  F33  1  0.89826272  0.52249118  0.12119007  1
  F  F34  1  0.87983408  0.71421047  0.75000000  1
  F  F35  1  0.60173728  0.02249118  0.37880993  1
  F  F36  1  0.37179362  0.23433467  0.46311266  1
  F  F37  1  0.87179362  0.26566533  0.53688734  1
  F  F38  1  0.12820638  0.73433467  0.03688734  1
  F  F39  1  0.62820638  0.76566533  0.96311266  1
  F  F40  1  0.62820638  0.76566533  0.53688734  1
  F  F41  1  0.12820638  0.73433467  0.46311266  1
  F  F42  1  0.87179362  0.26566533  0.96311266  1
  F  F43  1  0.37179362  0.23433467  0.03688734  1
  F  F44  1  0.12016592  0.28578953  0.25000000  1
  F  F45  1  0.62016592  0.21421047  0.75000000  1
  F  F46  1  0.37983408  0.78578953  0.25000000  1
  F  F47  1  0.61871026  0.28802123  0.25000000  1
  Zr  Zr48  1  0.37015148  0.13442276  0.25000000  1
  Zr  Zr49  1  0.62984852  0.86557724  0.75000000  1
  Zr  Zr50  1  0.12984852  0.63442276  0.25000000  1
  Zr  Zr51  1  0.87015148  0.36557724  0.75000000  1
