# generated using pymatgen
data_Er2Si5Ru3
_symmetry_space_group_name_H-M   'P 1'
_cell_length_a   5.58310198
_cell_length_b   8.22664147
_cell_length_c   8.22664147
_cell_angle_alpha   71.38573355
_cell_angle_beta   70.16390553
_cell_angle_gamma   70.16390560
_symmetry_Int_Tables_number   1
_chemical_formula_structural   Er2Si5Ru3
_chemical_formula_sum   'Er4 Si10 Ru6'
_cell_volume   325.33211415
_cell_formula_units_Z   2
loop_
 _symmetry_equiv_pos_site_id
 _symmetry_equiv_pos_as_xyz
  1  'x, y, z'
loop_
 _atom_site_type_symbol
 _atom_site_label
 _atom_site_symmetry_multiplicity
 _atom_site_fract_x
 _atom_site_fract_y
 _atom_site_fract_z
 _atom_site_occupancy
  Si  Si0  1  0.25000000  0.00000000  0.00000000  1
  Si  Si1  1  0.75000000  0.00000000  0.00000000  1
  Si  Si2  1  0.95720773  0.29279227  0.29279227  1
  Si  Si3  1  0.54279227  0.70720773  0.70720773  1
  Si  Si4  1  0.04279227  0.70720773  0.70720773  1
  Si  Si5  1  0.45720773  0.29279227  0.29279227  1
  Si  Si6  1  0.40497203  0.42502209  0.76503384  1
  Si  Si7  1  0.90497203  0.76503384  0.42502209  1
  Si  Si8  1  0.09502797  0.23496616  0.57497791  1
  Si  Si9  1  0.59502797  0.57497791  0.23496616  1
  Ru  Ru10  1  0.85340180  0.05436125  0.23883516  1
  Ru  Ru11  1  0.75000000  0.50000000  0.50000000  1
  Ru  Ru12  1  0.35340180  0.23883516  0.05436125  1
  Ru  Ru13  1  0.64659820  0.76116484  0.94563875  1
  Ru  Ru14  1  0.14659820  0.94563875  0.76116484  1
  Ru  Ru15  1  0.25000000  0.50000000  0.50000000  1
  Er  Er16  1  0.13594652  0.63173631  0.09637065  1
  Er  Er17  1  0.86405348  0.36826369  0.90362935  1
  Er  Er18  1  0.36405348  0.90362935  0.36826369  1
  Er  Er19  1  0.63594652  0.09637065  0.63173631  1
