# generated using pymatgen
data_K4UO5
_symmetry_space_group_name_H-M   'P 1'
_cell_length_a   6.55987088
_cell_length_b   6.55850025
_cell_length_c   9.84494641
_cell_angle_alpha   101.71859710
_cell_angle_beta   108.89391442
_cell_angle_gamma   102.18483704
_symmetry_Int_Tables_number   1
_chemical_formula_structural   K4UO5
_chemical_formula_sum   'K8 U2 O10'
_cell_volume   374.45495523
_cell_formula_units_Z   2
loop_
 _symmetry_equiv_pos_site_id
 _symmetry_equiv_pos_as_xyz
  1  'x, y, z'
loop_
 _atom_site_type_symbol
 _atom_site_label
 _atom_site_symmetry_multiplicity
 _atom_site_fract_x
 _atom_site_fract_y
 _atom_site_fract_z
 _atom_site_occupancy
  O  O0  1  0.21290237  0.19773790  0.84159041  1
  O  O1  1  0.78709763  0.80226210  0.15840959  1
  O  O2  1  0.90820142  0.78869699  0.61278198  1
  O  O3  1  0.09179858  0.21130301  0.38721802  1
  O  O4  1  0.40624008  0.20683287  0.23628094  1
  O  O5  1  0.59375992  0.79316713  0.76371906  1
  O  O6  1  0.06954518  0.82152275  0.96477182  1
  O  O7  1  0.93045482  0.17847725  0.03522818  1
  O  O8  1  0.24557223  0.80539675  0.30512356  1
  O  O9  1  0.75442777  0.19460325  0.69487644  1
  K  K10  1  0.69882603  0.48597877  0.90242735  1
  K  K11  1  0.89542412  0.50578905  0.30012657  1
  K  K12  1  0.69888214  0.00150173  0.40282373  1
  K  K13  1  0.30111786  0.99849827  0.59717627  1
  K  K14  1  0.30117397  0.51402123  0.09757265  1
  K  K15  1  0.50000000  0.50000000  0.50000000  1
  K  K16  1  0.50000000  0.00000000  0.00000000  1
  K  K17  1  0.10457588  0.49421095  0.69987343  1
  U  U18  1  0.90476129  0.99402847  0.80455126  1
  U  U19  1  0.09523871  0.00597153  0.19544874  1
