# generated using pymatgen
data_Li9Co7O16
_symmetry_space_group_name_H-M   'P 1'
_cell_length_a   2.92947283
_cell_length_b   10.65746858
_cell_length_c   10.10492163
_cell_angle_alpha   113.67183488
_cell_angle_beta   88.99324031
_cell_angle_gamma   83.68682395
_symmetry_Int_Tables_number   1
_chemical_formula_structural   Li9Co7O16
_chemical_formula_sum   'Li9 Co7 O16'
_cell_volume   286.52555120
_cell_formula_units_Z   1
loop_
 _symmetry_equiv_pos_site_id
 _symmetry_equiv_pos_as_xyz
  1  'x, y, z'
loop_
 _atom_site_type_symbol
 _atom_site_label
 _atom_site_symmetry_multiplicity
 _atom_site_fract_x
 _atom_site_fract_y
 _atom_site_fract_z
 _atom_site_occupancy
  Li  Li0  1  0.87419407  0.24878023  0.93606002  1
  Li  Li1  1  0.11760552  0.75876924  0.06661728  1
  Li  Li2  1  0.38397305  0.24713303  0.18603253  1
  Li  Li3  1  0.36308076  0.25280009  0.68478104  1
  Li  Li4  1  0.63691924  0.74719991  0.81521896  1
  Li  Li5  1  0.88239448  0.24123076  0.43338272  1
  Li  Li6  1  0.12580593  0.75121977  0.56393998  1
  Li  Li7  1  0.61602695  0.75286697  0.31396747  1
  Li  Li8  1  0.50000000  -0.00000000  0.25000000  1
  Co  Co9  1  0.00211293  0.00317240  0.01397606  1
  Co  Co10  1  -0.00211293  0.99682760  0.48602394  1
  Co  Co11  1  0.24162395  0.49785218  0.12240463  1
  Co  Co12  1  0.75837605  0.50214782  0.37759537  1
  Co  Co13  1  0.25527970  0.50399836  0.62744212  1
  Co  Co14  1  0.50000000  -0.00000000  0.75000000  1
  Co  Co15  1  0.74472030  0.49600164  0.87255788  1
  O  O16  1  0.42972887  0.10935574  0.95015139  1
  O  O17  1  0.66512462  0.61316972  0.08725410  1
  O  O18  1  0.94026859  0.12066180  0.20031147  1
  O  O19  1  0.96433920  0.10125959  0.71588020  1
  O  O20  1  0.19177070  0.61511707  0.83781520  1
  O  O21  1  0.42745337  0.11796822  0.47631998  1
  O  O22  1  0.70323280  0.61975482  0.59472386  1
  O  O23  1  0.18185820  0.61455437  0.34317529  1
  O  O24  1  0.29676720  0.38024518  0.90527614  1
  O  O25  1  0.57254663  0.88203178  0.02368002  1
  O  O26  1  0.81814180  0.38544563  0.15682471  1
  O  O27  1  0.80822930  0.38488293  0.66218480  1
  O  O28  1  0.03566080  0.89874041  0.78411980  1
  O  O29  1  0.33487538  0.38683028  0.41274590  1
  O  O30  1  0.57027113  0.89064426  0.54984861  1
  O  O31  1  0.05973141  0.87933820  0.29968853  1
