# generated using pymatgen
data_K2Te2Pt
_symmetry_space_group_name_H-M   'P 1'
_cell_length_a   4.03152757
_cell_length_b   6.88943981
_cell_length_c   6.88943981
_cell_angle_alpha   70.69906678
_cell_angle_beta   72.98707207
_cell_angle_gamma   72.98707206
_symmetry_Int_Tables_number   1
_chemical_formula_structural   K2Te2Pt
_chemical_formula_sum   'K2 Te2 Pt1'
_cell_volume   168.57912720
_cell_formula_units_Z   1
loop_
 _symmetry_equiv_pos_site_id
 _symmetry_equiv_pos_as_xyz
  1  'x, y, z'
loop_
 _atom_site_type_symbol
 _atom_site_label
 _atom_site_symmetry_multiplicity
 _atom_site_fract_x
 _atom_site_fract_y
 _atom_site_fract_z
 _atom_site_occupancy
  K  K0  1  0.20692073  0.29307927  0.29307927  1
  K  K1  1  0.79307927  0.70692073  0.70692073  1
  Te  Te2  1  0.50000000  0.77965280  0.22034720  1
  Te  Te3  1  0.50000000  0.22034720  0.77965280  1
  Pt  Pt4  1  0.00000000  0.00000000  0.00000000  1
