# generated using pymatgen
data_CdSe2O5
_symmetry_space_group_name_H-M   'P 1'
_cell_length_a   6.23840082
_cell_length_b   7.08509426
_cell_length_c   7.08509425
_cell_angle_alpha   108.47403108
_cell_angle_beta   105.82430045
_cell_angle_gamma   105.82430052
_symmetry_Int_Tables_number   1
_chemical_formula_structural   CdSe2O5
_chemical_formula_sum   'Cd2 Se4 O10'
_cell_volume   262.70781792
_cell_formula_units_Z   2
loop_
 _symmetry_equiv_pos_site_id
 _symmetry_equiv_pos_as_xyz
  1  'x, y, z'
loop_
 _atom_site_type_symbol
 _atom_site_label
 _atom_site_symmetry_multiplicity
 _atom_site_fract_x
 _atom_site_fract_y
 _atom_site_fract_z
 _atom_site_occupancy
  O  O0  1  0.75000000  0.08186665  0.91813335  1
  O  O1  1  0.25000000  0.91813335  0.08186665  1
  O  O2  1  0.67024148  0.72119586  0.59015231  1
  O  O3  1  0.82975852  0.40984769  0.27880414  1
  O  O4  1  0.32975852  0.27880414  0.40984769  1
  O  O5  1  0.17024148  0.59015231  0.72119586  1
  O  O6  1  0.26816899  0.52135621  0.07847890  1
  O  O7  1  0.23183101  0.92152110  0.47864379  1
  O  O8  1  0.73183101  0.47864379  0.92152110  1
  O  O9  1  0.76816899  0.07847890  0.52135621  1
  Se  Se10  1  0.86761739  0.98673015  0.70626932  1
  Se  Se11  1  0.63238261  0.29373068  0.01326985  1
  Se  Se12  1  0.13238261  0.01326985  0.29373068  1
  Se  Se13  1  0.36761739  0.70626932  0.98673015  1
  Cd  Cd14  1  0.25000000  0.58723113  0.41276887  1
  Cd  Cd15  1  0.75000000  0.41276887  0.58723113  1
