# generated using pymatgen
data_K2NbCuSe4
_symmetry_space_group_name_H-M   'P 1'
_cell_length_a   5.77661308
_cell_length_b   7.47172674
_cell_length_c   12.52731032
_cell_angle_alpha   84.88663208
_cell_angle_beta   76.66991010
_cell_angle_gamma   67.25908069
_symmetry_Int_Tables_number   1
_chemical_formula_structural   K2NbCuSe4
_chemical_formula_sum   'K4 Nb2 Cu2 Se8'
_cell_volume   485.22729309
_cell_formula_units_Z   2
loop_
 _symmetry_equiv_pos_site_id
 _symmetry_equiv_pos_as_xyz
  1  'x, y, z'
loop_
 _atom_site_type_symbol
 _atom_site_label
 _atom_site_symmetry_multiplicity
 _atom_site_fract_x
 _atom_site_fract_y
 _atom_site_fract_z
 _atom_site_occupancy
  K  K0  1  0.80462036  0.75000000  0.39075928  1
  K  K1  1  0.44537964  0.75000000  0.10924072  1
  K  K2  1  0.19537964  0.25000000  0.60924072  1
  K  K3  1  0.55462036  0.25000000  0.89075928  1
  Cu  Cu4  1  0.87500000  0.25000000  0.25000000  1
  Cu  Cu5  1  0.12500000  0.75000000  0.75000000  1
  Se  Se6  1  0.46101496  0.45478890  0.36385977  1
  Se  Se7  1  0.17512527  0.04521110  0.36385977  1
  Se  Se8  1  0.53898504  0.54521110  0.63614023  1
  Se  Se9  1  0.22033637  0.95478890  0.86385977  1
  Se  Se10  1  0.91580386  0.54521110  0.86385977  1
  Se  Se11  1  0.82487473  0.95478890  0.63614023  1
  Se  Se12  1  0.08419614  0.45478890  0.13614023  1
  Se  Se13  1  0.77966363  0.04521110  0.13614023  1
  Nb  Nb14  1  0.62500000  0.75000000  0.75000000  1
  Nb  Nb15  1  0.37500000  0.25000000  0.25000000  1
