# generated using pymatgen
data_BaCuP2O7
_symmetry_space_group_name_H-M   'P 1'
_cell_length_a   5.27706485
_cell_length_b   7.66752967
_cell_length_c   7.68067001
_cell_angle_alpha   103.60480847
_cell_angle_beta   91.67171161
_cell_angle_gamma   95.40162891
_symmetry_Int_Tables_number   1
_chemical_formula_structural   BaCuP2O7
_chemical_formula_sum   'Ba2 Cu2 P4 O14'
_cell_volume   300.29117468
_cell_formula_units_Z   2
loop_
 _symmetry_equiv_pos_site_id
 _symmetry_equiv_pos_as_xyz
  1  'x, y, z'
loop_
 _atom_site_type_symbol
 _atom_site_label
 _atom_site_symmetry_multiplicity
 _atom_site_fract_x
 _atom_site_fract_y
 _atom_site_fract_z
 _atom_site_occupancy
  O  O0  1  0.90729768  0.66415617  0.58425012  1
  O  O1  1  0.09270232  0.33584383  0.41574988  1
  O  O2  1  0.78699625  0.96763299  0.75482374  1
  O  O3  1  0.21300375  0.03236701  0.24517626  1
  O  O4  1  0.43672682  0.72246129  0.60445399  1
  O  O5  1  0.56327318  0.27753871  0.39554601  1
  O  O6  1  0.72842731  0.87572575  0.41434426  1
  O  O7  1  0.27157269  0.12427425  0.58565574  1
  O  O8  1  0.57401267  0.37564168  0.78835048  1
  O  O9  1  0.42598733  0.62435832  0.21164952  1
  O  O10  1  0.29872576  0.15778904  0.92282331  1
  O  O11  1  0.70127424  0.84221096  0.07717669  1
  O  O12  1  0.09029653  0.38872094  0.79505842  1
  O  O13  1  0.90970347  0.61127906  0.20494158  1
  P  P14  1  0.71316420  0.80814077  0.60035808  1
  P  P15  1  0.28683580  0.19185923  0.39964192  1
  P  P16  1  0.68899452  0.73380929  0.21953135  1
  P  P17  1  0.31100548  0.26619071  0.78046865  1
  Cu  Cu18  1  0.81969107  0.35601885  0.59696598  1
  Cu  Cu19  1  0.18030893  0.64398115  0.40303402  1
  Ba  Ba20  1  0.19322090  0.77687633  0.92891391  1
  Ba  Ba21  1  0.80677910  0.22312367  0.07108609  1
