# generated using pymatgen
data_TcS2
_symmetry_space_group_name_H-M   'P 1'
_cell_length_a   6.40802478
_cell_length_b   6.51724399
_cell_length_c   7.53992583
_cell_angle_alpha   66.78918350
_cell_angle_beta   77.82403044
_cell_angle_gamma   61.17458548
_symmetry_Int_Tables_number   1
_chemical_formula_structural   TcS2
_chemical_formula_sum   'Tc4 S8'
_cell_volume   253.45649737
_cell_formula_units_Z   4
loop_
 _symmetry_equiv_pos_site_id
 _symmetry_equiv_pos_as_xyz
  1  'x, y, z'
loop_
 _atom_site_type_symbol
 _atom_site_label
 _atom_site_symmetry_multiplicity
 _atom_site_fract_x
 _atom_site_fract_y
 _atom_site_fract_z
 _atom_site_occupancy
  S  S0  1  0.32258144  0.16996715  0.32965424  1
  S  S1  1  0.67741856  0.83003285  0.67034576  1
  S  S2  1  0.85921904  0.15158608  0.30679668  1
  S  S3  1  0.14078096  0.84841392  0.69320332  1
  S  S4  1  0.36265850  0.66935544  0.25073834  1
  S  S5  1  0.63734150  0.33064456  0.74926166  1
  S  S6  1  0.82494937  0.70092240  0.27494446  1
  S  S7  1  0.17505063  0.29907760  0.72505554  1
  Tc  Tc8  1  0.51144489  0.28545395  0.50211115  1
  Tc  Tc9  1  0.48855511  0.71454605  0.49788885  1
  Tc  Tc10  1  0.93810219  0.30941256  0.50777387  1
  Tc  Tc11  1  0.06189781  0.69058744  0.49222613  1
