# generated using pymatgen
data_K2Sn2S5
_symmetry_space_group_name_H-M   'P 1'
_cell_length_a   6.90994501
_cell_length_b   6.90994501
_cell_length_c   11.71380252
_cell_angle_alpha   75.31963173
_cell_angle_beta   75.31963175
_cell_angle_gamma   70.79873688
_symmetry_Int_Tables_number   1
_chemical_formula_structural   K2Sn2S5
_chemical_formula_sum   'K4 Sn4 S10'
_cell_volume   502.01249674
_cell_formula_units_Z   2
loop_
 _symmetry_equiv_pos_site_id
 _symmetry_equiv_pos_as_xyz
  1  'x, y, z'
loop_
 _atom_site_type_symbol
 _atom_site_label
 _atom_site_symmetry_multiplicity
 _atom_site_fract_x
 _atom_site_fract_y
 _atom_site_fract_z
 _atom_site_occupancy
  S  S0  1  0.25019096  0.35747346  0.03660664  1
  S  S1  1  0.64252654  0.74980904  0.46339336  1
  S  S2  1  0.74980904  0.64252654  0.96339336  1
  S  S3  1  0.35747346  0.25019096  0.53660664  1
  S  S4  1  0.68745258  0.31254742  0.25000000  1
  S  S5  1  0.31254742  0.68745258  0.75000000  1
  S  S6  1  0.88271693  0.14791107  0.88358711  1
  S  S7  1  0.85208893  0.11728307  0.61641289  1
  S  S8  1  0.14791107  0.88271693  0.38358711  1
  S  S9  1  0.11728307  0.85208893  0.11641289  1
  K  K10  1  0.55118583  0.88613513  0.18369867  1
  K  K11  1  0.11386487  0.44881417  0.31630133  1
  K  K12  1  0.44881417  0.11386487  0.81630133  1
  K  K13  1  0.88613513  0.55118583  0.68369867  1
  Sn  Sn14  1  0.93953124  0.24926172  0.05722474  1
  Sn  Sn15  1  0.75073828  0.06046876  0.44277526  1
  Sn  Sn16  1  0.06046876  0.75073828  0.94277526  1
  Sn  Sn17  1  0.24926172  0.93953124  0.55722474  1
