# generated using pymatgen
data_KF3
_symmetry_space_group_name_H-M   'P 1'
_cell_length_a   7.59648452
_cell_length_b   9.89794914
_cell_length_c   7.37124699
_cell_angle_alpha   90.00000000
_cell_angle_beta   90.00000000
_cell_angle_gamma   90.00000000
_symmetry_Int_Tables_number   1
_chemical_formula_structural   KF3
_chemical_formula_sum   'K8 F24'
_cell_volume   554.24124110
_cell_formula_units_Z   8
loop_
 _symmetry_equiv_pos_site_id
 _symmetry_equiv_pos_as_xyz
  1  'x, y, z'
loop_
 _atom_site_type_symbol
 _atom_site_label
 _atom_site_symmetry_multiplicity
 _atom_site_fract_x
 _atom_site_fract_y
 _atom_site_fract_z
 _atom_site_occupancy
  K  K0  1  0.77306478  0.64748225  0.42841269  1
  K  K1  1  0.72693522  0.35251775  0.92841269  1
  K  K2  1  0.27306478  0.85251775  0.57158731  1
  K  K3  1  0.22693522  0.14748225  0.07158731  1
  K  K4  1  0.82579293  0.12942315  0.46789159  1
  K  K5  1  0.67420707  0.87057685  0.96789159  1
  K  K6  1  0.32579293  0.37057685  0.53210841  1
  K  K7  1  0.17420707  0.62942315  0.03210841  1
  F  F8  1  0.69315062  0.62430441  0.78930892  1
  F  F9  1  0.80684938  0.37569559  0.28930892  1
  F  F10  1  0.19315062  0.87569559  0.21069108  1
  F  F11  1  0.30684938  0.12430441  0.71069108  1
  F  F12  1  0.79670365  0.61053109  0.03916251  1
  F  F13  1  0.70329635  0.38946891  0.53916251  1
  F  F14  1  0.29670365  0.88946891  0.96083749  1
  F  F15  1  0.20329635  0.11053109  0.46083749  1
  F  F16  1  0.93821584  0.87161869  0.26844467  1
  F  F17  1  0.56178416  0.12838131  0.76844467  1
  F  F18  1  0.43821584  0.62838131  0.73155533  1
  F  F19  1  0.06178416  0.37161869  0.23155533  1
  F  F20  1  0.96684916  0.00968250  0.76623685  1
  F  F21  1  0.53315084  -0.00968250  0.26623685  1
  F  F22  1  0.46684916  0.49031750  0.23376315  1
  F  F23  1  0.03315084  0.50968250  0.73376315  1
  F  F24  1  0.46325824  0.68941806  0.23461245  1
  F  F25  1  0.03674176  0.31058194  0.73461245  1
  F  F26  1  0.96325824  0.81058194  0.76538755  1
  F  F27  1  0.53674176  0.18941806  0.26538755  1
  F  F28  1  0.62125803  0.90535474  0.49306710  1
  F  F29  1  0.87874197  0.09464526  -0.00693290  1
  F  F30  1  0.12125803  0.59464526  0.50693290  1
  F  F31  1  0.37874197  0.40535474  0.00693290  1
