# generated using pymatgen
data_Li9Co7O16
_symmetry_space_group_name_H-M   'P 1'
_cell_length_a   3.00941100
_cell_length_b   15.68487646
_cell_length_c   6.37333213
_cell_angle_alpha   87.82923065
_cell_angle_beta   76.70109221
_cell_angle_gamma   80.16298702
_symmetry_Int_Tables_number   1
_chemical_formula_structural   Li9Co7O16
_chemical_formula_sum   'Li9 Co7 O16'
_cell_volume   288.46345073
_cell_formula_units_Z   1
loop_
 _symmetry_equiv_pos_site_id
 _symmetry_equiv_pos_as_xyz
  1  'x, y, z'
loop_
 _atom_site_type_symbol
 _atom_site_label
 _atom_site_symmetry_multiplicity
 _atom_site_fract_x
 _atom_site_fract_y
 _atom_site_fract_z
 _atom_site_occupancy
  Li  Li0  1  0.74972197  0.18776050  0.12698543  1
  Li  Li1  1  0.75040423  0.43747722  0.62469226  1
  Li  Li2  1  0.74526254  0.68847842  0.13013232  1
  Li  Li3  1  0.24959577  0.31252278  0.87530774  1
  Li  Li4  1  0.25027803  0.56223950  0.37301457  1
  Li  Li5  1  0.24267053  0.81363886  0.88090855  1
  Li  Li6  1  0.75732947  0.93636114  0.61909145  1
  Li  Li7  1  0.25473746  0.06152158  0.36986768  1
  Li  Li8  1  0.50000000  0.87500000  0.25000000  1
  Co  Co9  1  0.99951908  0.99450560  0.00754862  1
  Co  Co10  1  0.00048092  0.75549440  0.49245138  1
  Co  Co11  1  0.99805442  0.24976082  0.50350738  1
  Co  Co12  1  0.00194558  0.50023918  0.99649262  1
  Co  Co13  1  0.50000000  0.37500000  0.25000000  1
  Co  Co14  1  0.50078686  0.62660848  0.74801687  1
  Co  Co15  1  0.49921314  0.12339152  0.75198313  1
  O  O16  1  0.35095736  0.09007114  0.04557375  1
  O  O17  1  0.38689369  0.34137360  0.54974707  1
  O  O18  1  0.39230911  0.59202353  0.04595921  1
  O  O19  1  0.88088276  0.21610687  0.80075792  1
  O  O20  1  0.88965114  0.46649690  0.29655887  1
  O  O21  1  0.89339706  0.71761276  0.79096654  1
  O  O22  1  0.35882942  0.83492437  0.55831852  1
  O  O23  1  0.88260007  0.97352356  0.28301766  1
  O  O24  1  0.11034886  0.28350310  0.20344113  1
  O  O25  1  0.11911724  0.53389413  0.69924208  1
  O  O26  1  0.11739993  0.77647644  0.21698234  1
  O  O27  1  0.61310631  0.40862640  0.95025293  1
  O  O28  1  0.64904264  0.65992986  0.45442625  1
  O  O29  1  0.64117058  0.91507563  0.94168148  1
  O  O30  1  0.10660294  0.03238724  0.70903346  1
  O  O31  1  0.60769089  0.15797747  0.45404079  1
