# generated using pymatgen
data_PrI3
_symmetry_space_group_name_H-M   'P 1'
_cell_length_a   11.17099607
_cell_length_b   11.17099384
_cell_length_c   4.15128951
_cell_angle_alpha   90.00000000
_cell_angle_beta   90.00000000
_cell_angle_gamma   119.99998838
_symmetry_Int_Tables_number   1
_chemical_formula_structural   PrI3
_chemical_formula_sum   'Pr2 I6'
_cell_volume   448.63940502
_cell_formula_units_Z   2
loop_
 _symmetry_equiv_pos_site_id
 _symmetry_equiv_pos_as_xyz
  1  'x, y, z'
loop_
 _atom_site_type_symbol
 _atom_site_label
 _atom_site_symmetry_multiplicity
 _atom_site_fract_x
 _atom_site_fract_y
 _atom_site_fract_z
 _atom_site_occupancy
  Pr  Pr0  1  0.33333300  0.66666700  0.74999900  1
  Pr  Pr1  1  0.66666700  0.33333300  0.24999800  1
  I  I2  1  0.21015015  0.42030029  0.24999800  1
  I  I3  1  0.57969971  0.78984885  0.24999800  1
  I  I4  1  0.21014915  0.78984885  0.24999800  1
  I  I5  1  0.78984985  0.57969971  0.74999900  1
  I  I6  1  0.42030029  0.21015015  0.74999900  1
  I  I7  1  0.78985085  0.21015015  0.74999900  1
