# generated using pymatgen
data_RbBS3
_symmetry_space_group_name_H-M   'P 1'
_cell_length_a   5.87787479
_cell_length_b   7.25744326
_cell_length_c   12.10342509
_cell_angle_alpha   90.00000000
_cell_angle_beta   90.00000000
_cell_angle_gamma   104.54608240
_symmetry_Int_Tables_number   1
_chemical_formula_structural   RbBS3
_chemical_formula_sum   'Rb4 B4 S12'
_cell_volume   499.76216366
_cell_formula_units_Z   4
loop_
 _symmetry_equiv_pos_site_id
 _symmetry_equiv_pos_as_xyz
  1  'x, y, z'
loop_
 _atom_site_type_symbol
 _atom_site_label
 _atom_site_symmetry_multiplicity
 _atom_site_fract_x
 _atom_site_fract_y
 _atom_site_fract_z
 _atom_site_occupancy
  B  B0  1  0.69183534  0.71166812  0.23314649  1
  B  B1  1  0.80816466  0.28833188  0.73314649  1
  B  B2  1  0.30816466  0.28833188  0.76685351  1
  B  B3  1  0.19183534  0.71166812  0.26685351  1
  S  S4  1  0.17265181  0.93159217  0.17660162  1
  S  S5  1  0.32734819  0.06840783  0.67660162  1
  S  S6  1  0.82734819  0.06840783  0.82339838  1
  S  S7  1  0.67265181  0.93159217  0.32339838  1
  S  S8  1  0.35103528  0.81303099  0.40014607  1
  S  S9  1  0.14896472  0.18696901  0.90014607  1
  S  S10  1  0.64896472  0.18696901  0.59985393  1
  S  S11  1  0.85103528  0.81303099  0.09985393  1
  S  S12  1  0.38445295  0.56116703  0.19864471  1
  S  S13  1  0.11554705  0.43883297  0.69864471  1
  S  S14  1  0.61554705  0.43883297  0.80135529  1
  S  S15  1  0.88445295  0.56116703  0.30135529  1
  Rb  Rb16  1  0.70292720  0.25894960  0.08101073  1
  Rb  Rb17  1  0.79707280  0.74105040  0.58101073  1
  Rb  Rb18  1  0.29707280  0.74105040  0.91898927  1
  Rb  Rb19  1  0.20292720  0.25894960  0.41898927  1
