# generated using pymatgen
data_InH4NCl4
_symmetry_space_group_name_H-M   'P 1'
_cell_length_a   9.32151970
_cell_length_b   7.16438325
_cell_length_c   7.16438325
_cell_angle_alpha   90.00000000
_cell_angle_beta   112.59983831
_cell_angle_gamma   112.59983831
_symmetry_Int_Tables_number   1
_chemical_formula_structural   InH4NCl4
_chemical_formula_sum   'In2 H8 N2 Cl8'
_cell_volume   401.63119532
_cell_formula_units_Z   2
loop_
 _symmetry_equiv_pos_site_id
 _symmetry_equiv_pos_as_xyz
  1  'x, y, z'
loop_
 _atom_site_type_symbol
 _atom_site_label
 _atom_site_symmetry_multiplicity
 _atom_site_fract_x
 _atom_site_fract_y
 _atom_site_fract_z
 _atom_site_occupancy
  In  In0  1  0.75000000  0.87500000  0.12500000  1
  In  In1  1  0.25000000  0.12500000  0.87500000  1
  H  H2  1  0.32687154  0.66079811  0.29656430  1
  H  H3  1  0.17312846  0.70343570  0.33392656  1
  H  H4  1  0.17312846  0.46969076  0.33920189  1
  H  H5  1  0.67312846  0.33392656  0.46969276  1
  H  H6  1  0.32687154  0.66607344  0.53030724  1
  H  H7  1  0.82687154  0.53030724  0.66079811  1
  H  H8  1  0.82687154  0.29656430  0.66607344  1
  H  H9  1  0.67312846  0.33920189  0.70343570  1
  N  N10  1  0.25000000  0.62500000  0.37500000  1
  N  N11  1  0.75000000  0.37500000  0.62500000  1
  Cl  Cl12  1  0.91894641  0.19762535  0.06270695  1
  Cl  Cl13  1  0.41894541  0.35623946  0.19762535  1
  Cl  Cl14  1  0.58105459  0.93729405  0.27867993  1
  Cl  Cl15  1  0.91894641  0.72132107  0.35623946  1
  Cl  Cl16  1  0.08105459  0.27867993  0.64376054  1
  Cl  Cl17  1  0.41894541  0.06270595  0.72132007  1
  Cl  Cl18  1  0.58105459  0.64376054  0.80237465  1
  Cl  Cl19  1  0.08105459  0.80237565  0.93729405  1
