# generated using pymatgen
data_Li9Co7O16
_symmetry_space_group_name_H-M   'P 1'
_cell_length_a   2.98361971
_cell_length_b   10.11371039
_cell_length_c   9.74424445
_cell_angle_alpha   102.55052400
_cell_angle_beta   88.67283003
_cell_angle_gamma   90.81198646
_symmetry_Int_Tables_number   1
_chemical_formula_structural   Li9Co7O16
_chemical_formula_sum   'Li9 Co7 O16'
_cell_volume   286.92145334
_cell_formula_units_Z   1
loop_
 _symmetry_equiv_pos_site_id
 _symmetry_equiv_pos_as_xyz
  1  'x, y, z'
loop_
 _atom_site_type_symbol
 _atom_site_label
 _atom_site_symmetry_multiplicity
 _atom_site_fract_x
 _atom_site_fract_y
 _atom_site_fract_z
 _atom_site_occupancy
  Li  Li0  1  0.00286152  0.11921139  0.74977209  1
  Li  Li1  1  0.50217276  0.50216830  0.49895663  1
  Li  Li2  1  -0.00000000  0.87500000  0.25000000  1
  Li  Li3  1  0.49782724  0.24783170  0.00104337  1
  Li  Li4  1  0.49889528  0.99644123  0.49849626  1
  Li  Li5  1  -0.00000000  0.37500000  0.25000000  1
  Li  Li6  1  0.50110472  0.75355877  0.00150374  1
  Li  Li7  1  0.99713848  0.63078861  0.75022791  1
  Li  Li8  1  0.50000000  0.87500000  0.75000000  1
  Co  Co9  1  0.00171146  0.99573478  0.98959277  1
  Co  Co10  1  0.99828854  0.75426522  0.51040723  1
  Co  Co11  1  0.50000000  0.37500000  0.75000000  1
  Co  Co12  1  0.50303040  0.12436986  0.24724746  1
  Co  Co13  1  0.00249922  0.50536162  0.00075061  1
  Co  Co14  1  0.99750078  0.24463838  0.49924939  1
  Co  Co15  1  0.49696960  0.62563014  0.25275254  1
  O  O16  1  0.47001360  0.05766845  0.88408605  1
  O  O17  1  0.98795988  0.42508518  0.62705655  1
  O  O18  1  0.45889898  0.80093892  0.37575442  1
  O  O19  1  0.00872943  0.17109360  0.11963422  1
  O  O20  1  0.99749050  0.91946395  0.60988612  1
  O  O21  1  0.50323361  0.30198601  0.37236874  1
  O  O22  1  0.00128911  0.67918758  0.12809260  1
  O  O23  1  0.51246421  0.55884306  0.87964546  1
  O  O24  1  0.48753579  0.19115594  0.62035454  1
  O  O25  1  0.99127057  0.57890540  0.38036578  1
  O  O26  1  0.54110102  0.94906008  0.12424558  1
  O  O27  1  0.01204012  0.32491482  0.87294345  1
  O  O28  1  0.99871089  0.07081142  0.37190740  1
  O  O29  1  0.49676639  0.44801299  0.12763126  1
  O  O30  1  0.00250950  0.83053605  0.89011388  1
  O  O31  1  0.52998640  0.69233155  0.61591395  1
