# generated using pymatgen
data_K3AlO3
_symmetry_space_group_name_H-M   'P 1'
_cell_length_a   6.56091157
_cell_length_b   6.61418264
_cell_length_c   6.61418264
_cell_angle_alpha   115.74945096
_cell_angle_beta   96.63471724
_cell_angle_gamma   96.63471719
_symmetry_Int_Tables_number   1
_chemical_formula_structural   K3AlO3
_chemical_formula_sum   'K6 Al2 O6'
_cell_volume   252.34642347
_cell_formula_units_Z   2
loop_
 _symmetry_equiv_pos_site_id
 _symmetry_equiv_pos_as_xyz
  1  'x, y, z'
loop_
 _atom_site_type_symbol
 _atom_site_label
 _atom_site_symmetry_multiplicity
 _atom_site_fract_x
 _atom_site_fract_y
 _atom_site_fract_z
 _atom_site_occupancy
  O  O0  1  0.73787289  0.84880374  0.58819973  1
  O  O1  1  0.26212711  0.41180027  0.15119626  1
  O  O2  1  0.26212711  0.15119626  0.41180027  1
  O  O3  1  0.73787289  0.58819973  0.84880374  1
  O  O4  1  0.14277803  0.89828230  0.89828230  1
  O  O5  1  0.85722197  0.10171770  0.10171770  1
  Al  Al6  1  0.85382749  0.83871864  0.83871864  1
  Al  Al7  1  0.14617251  0.16128136  0.16128136  1
  K  K8  1  0.64864063  0.37172030  0.37172030  1
  K  K9  1  0.35135937  0.62827970  0.62827970  1
  K  K10  1  0.50000000  0.19861950  0.80138050  1
  K  K11  1  0.50000000  0.80138050  0.19861950  1
  K  K12  1  0.00000000  0.26439984  0.73560016  1
  K  K13  1  0.00000000  0.73560016  0.26439984  1
