# generated using pymatgen
data_K2CrH2F8
_symmetry_space_group_name_H-M   'P 1'
_cell_length_a   5.34859489
_cell_length_b   8.10116380
_cell_length_c   8.42657006
_cell_angle_alpha   90.00578969
_cell_angle_beta   92.67195892
_cell_angle_gamma   89.99792160
_symmetry_Int_Tables_number   1
_chemical_formula_structural   K2CrH2F8
_chemical_formula_sum   'K4 Cr2 H4 F16'
_cell_volume   364.72500123
_cell_formula_units_Z   2
loop_
 _symmetry_equiv_pos_site_id
 _symmetry_equiv_pos_as_xyz
  1  'x, y, z'
loop_
 _atom_site_type_symbol
 _atom_site_label
 _atom_site_symmetry_multiplicity
 _atom_site_fract_x
 _atom_site_fract_y
 _atom_site_fract_z
 _atom_site_occupancy
  K  K0  1  0.43386134  0.68689923  0.21850695  1
  K  K1  1  0.56613554  0.18682973  0.28156252  1
  K  K2  1  0.43385711  0.81308936  0.71849323  1
  K  K3  1  0.56610860  0.31316952  0.78156077  1
  Cr  Cr4  1  0.00002171  -0.00000469  0.99984743  1
  Cr  Cr5  1  0.99995179  0.49999482  0.50000299  1
  H  H6  1  0.12181220  0.34057728  0.04993558  1
  H  H7  1  0.87830102  0.84054472  0.45014291  1
  H  H8  1  0.12185865  0.15939761  0.54993199  1
  H  H9  1  0.87827334  0.65944201  0.95015034  1
  F  F10  1  0.90551552  0.22771597  0.03288304  1
  F  F11  1  0.28083562  0.40157358  0.05965339  1
  F  F12  1  0.70648242  0.92996133  0.08092063  1
  F  F13  1  0.15054304  0.99474949  0.20057196  1
  F  F14  1  0.84937121  0.49473015  0.29929773  1
  F  F15  1  0.29361651  0.42995180  0.41906917  1
  F  F16  1  0.71904224  0.90159717  0.44042310  1
  F  F17  1  0.09450099  0.72767112  0.46709486  1
  F  F18  1  0.90548227  0.27228004  0.53296858  1
  F  F19  1  0.28077499  0.09843034  0.55961846  1
  F  F20  1  0.70636040  0.57006835  0.58104042  1
  F  F21  1  0.15056698  0.50527940  0.70070335  1
  F  F22  1  0.84939349  0.00527450  0.79916193  1
  F  F23  1  0.29371295  0.07007176  0.91898312  1
  F  F24  1  0.71907387  0.59839134  0.94045685  1
  F  F25  1  0.09454220  0.77231307  0.96701571  1
