# generated using pymatgen
data_Sr(BS2)2
_symmetry_space_group_name_H-M   'P 1'
_cell_length_a   6.14649004
_cell_length_b   6.53900205
_cell_length_c   14.26157410
_cell_angle_alpha   90.00000000
_cell_angle_beta   90.00000000
_cell_angle_gamma   109.52441930
_symmetry_Int_Tables_number   1
_chemical_formula_structural   Sr(BS2)2
_chemical_formula_sum   'Sr4 B8 S16'
_cell_volume   540.24042726
_cell_formula_units_Z   4
loop_
 _symmetry_equiv_pos_site_id
 _symmetry_equiv_pos_as_xyz
  1  'x, y, z'
loop_
 _atom_site_type_symbol
 _atom_site_label
 _atom_site_symmetry_multiplicity
 _atom_site_fract_x
 _atom_site_fract_y
 _atom_site_fract_z
 _atom_site_occupancy
  B  B0  1  0.06886315  0.96551453  0.41617976  1
  B  B1  1  0.43113685  0.03448547  0.91617976  1
  B  B2  1  0.93113685  0.03448547  0.58382024  1
  B  B3  1  0.56886315  0.96551453  0.08382024  1
  B  B4  1  0.67884010  0.22837908  0.72781217  1
  B  B5  1  0.82115990  0.77162092  0.22781217  1
  B  B6  1  0.32115990  0.77162092  0.27218783  1
  B  B7  1  0.17884010  0.22837908  0.77218783  1
  S  S8  1  0.13897876  0.23068196  0.49212133  1
  S  S9  1  0.49112672  0.41264009  0.73932495  1
  S  S10  1  0.99112672  0.41264009  0.76067505  1
  S  S11  1  0.00887328  0.58735991  0.23932495  1
  S  S12  1  0.83135164  0.87255464  0.10015538  1
  S  S13  1  0.66864836  0.12744536  0.60015538  1
  S  S14  1  0.16864836  0.12744536  0.89984462  1
  S  S15  1  0.33135164  0.87255464  0.39984462  1
  S  S16  1  0.43832687  0.02644981  0.19564481  1
  S  S17  1  0.06167313  0.97355019  0.69564481  1
  S  S18  1  0.56167313  0.97355019  0.80435519  1
  S  S19  1  0.93832687  0.02644981  0.30435519  1
  S  S20  1  0.86102124  0.76931804  0.50787867  1
  S  S21  1  0.63897876  0.23068196  0.00787867  1
  S  S22  1  0.50887328  0.58735991  0.26067505  1
  S  S23  1  0.36102124  0.76931804  0.99212133  1
  Sr  Sr24  1  0.69645721  0.30968584  0.39630167  1
  Sr  Sr25  1  0.80354279  0.69031416  0.89630167  1
  Sr  Sr26  1  0.30354279  0.69031416  0.60369833  1
  Sr  Sr27  1  0.19645721  0.30968584  0.10369833  1
