# generated using pymatgen
data_Li9Co7O16
_symmetry_space_group_name_H-M   'P 1'
_cell_length_a   2.97186942
_cell_length_b   19.16368784
_cell_length_c   5.06022575
_cell_angle_alpha   92.89620641
_cell_angle_beta   90.75393543
_cell_angle_gamma   82.53466157
_symmetry_Int_Tables_number   1
_chemical_formula_structural   Li9Co7O16
_chemical_formula_sum   'Li9 Co7 O16'
_cell_volume   285.37575497
_cell_formula_units_Z   1
loop_
 _symmetry_equiv_pos_site_id
 _symmetry_equiv_pos_as_xyz
  1  'x, y, z'
loop_
 _atom_site_type_symbol
 _atom_site_label
 _atom_site_symmetry_multiplicity
 _atom_site_fract_x
 _atom_site_fract_y
 _atom_site_fract_z
 _atom_site_occupancy
  Li  Li0  1  0.87539347  0.12482469  0.37528550  1
  Li  Li1  1  0.25427243  0.25017197  0.24756516  1
  Li  Li2  1  0.62828538  0.37417732  0.12545557  1
  Li  Li3  1  0.00243738  0.49883064  -0.00043063  1
  Li  Li4  1  0.37568396  0.62446047  0.87357469  1
  Li  Li5  1  0.74654634  0.75161529  0.75136639  1
  Li  Li6  1  0.12581756  0.87592296  0.62403188  1
  Li  Li7  1  0.49665489  -0.00043438  0.50245915  1
  Li  Li8  1  0.37544488  0.12478493  0.87487409  1
  Co  Co9  1  0.99661184  0.00490522  0.99989335  1
  Co  Co10  1  0.75588503  0.24480970  0.75127496  1
  Co  Co11  1  0.13155211  0.37440225  0.62951057  1
  Co  Co12  1  0.50154711  0.49947561  0.50654534  1
  Co  Co13  1  0.86085187  0.62538393  0.37658790  1
  Co  Co14  1  0.24114630  0.75091035  0.24352861  1
  Co  Co15  1  0.63473276  0.87568775  0.11801201  1
  O  O16  1  0.41014185  0.05808679  0.17899046  1
  O  O17  1  0.80555863  0.19489286  0.03072829  1
  O  O18  1  0.14535907  0.31252308  0.91774535  1
  O  O19  1  0.57344679  0.43699842  0.79264147  1
  O  O20  1  0.90418788  0.55973344  0.67548507  1
  O  O21  1  0.28850283  0.68748210  0.53758225  1
  O  O22  1  0.72827955  0.81245673  0.41024021  1
  O  O23  1  0.07417650  0.93880422  0.27926095  1
  O  O24  1  0.34264334  0.19151077  0.57138034  1
  O  O25  1  0.68728974  0.31090139  0.47009814  1
  O  O26  1  0.11269769  0.43697848  0.33363288  1
  O  O27  1  0.43070424  0.56315013  0.21610892  1
  O  O28  1  0.75415115  0.69164431  0.08148897  1
  O  O29  1  0.19159191  0.81285907  0.95432882  1
  O  O30  1  0.60342660  0.93721605  0.83108756  1
  O  O31  1  0.94497091  0.05483549  0.71966078  1
