# generated using pymatgen
data_B5H15C3N
_symmetry_space_group_name_H-M   'P 1'
_cell_length_a   8.56770954
_cell_length_b   12.22476903
_cell_length_c   16.96814297
_cell_angle_alpha   90.00000000
_cell_angle_beta   90.00000000
_cell_angle_gamma   100.70295863
_symmetry_Int_Tables_number   1
_chemical_formula_structural   B5H15C3N
_chemical_formula_sum   'B40 H120 C24 N8'
_cell_volume   1746.29612361
_cell_formula_units_Z   8
loop_
 _symmetry_equiv_pos_site_id
 _symmetry_equiv_pos_as_xyz
  1  'x, y, z'
loop_
 _atom_site_type_symbol
 _atom_site_label
 _atom_site_symmetry_multiplicity
 _atom_site_fract_x
 _atom_site_fract_y
 _atom_site_fract_z
 _atom_site_occupancy
  B  B0  1  0.84604023  0.64210044  0.83132549  1
  B  B1  1  0.13227450  0.20932843  0.19213563  1
  B  B2  1  0.87117712  0.17622039  0.56402278  1
  B  B3  1  0.99916830  0.23940044  0.63428793  1
  B  B4  1  0.00083170  0.26059956  0.13428793  1
  B  B5  1  0.67478703  0.70183328  0.80632032  1
  B  B6  1  0.29299373  0.16977134  0.13649413  1
  B  B7  1  0.32521297  0.29816672  0.19367968  1
  B  B8  1  0.12882288  0.32377961  0.06402278  1
  B  B9  1  0.70700627  0.33022866  0.63649413  1
  B  B10  1  0.29048876  0.25052659  0.04518315  1
  B  B11  1  0.43790309  0.78026869  0.38657112  1
  B  B12  1  0.32293267  0.87957282  0.39696151  1
  B  B13  1  0.84604023  0.14210044  0.66867451  1
  B  B14  1  0.70951124  0.24947341  0.54518315  1
  B  B15  1  0.10807072  0.67516531  0.41237031  1
  B  B16  1  0.15395977  0.85789956  0.33132549  1
  B  B17  1  0.00083170  0.76059956  0.36571207  1
  B  B18  1  0.10807072  0.17516531  0.08762969  1
  B  B19  1  0.87117712  0.67622039  0.93597722  1
  B  B20  1  0.56209691  0.21973131  0.61342888  1
  B  B21  1  0.67706733  0.12042718  0.60303849  1
  B  B22  1  0.15395977  0.35789956  0.16867451  1
  B  B23  1  0.32293267  0.37957282  0.10303849  1
  B  B24  1  0.29048876  0.75052659  0.45481685  1
  B  B25  1  0.32521297  0.79816672  0.30632032  1
  B  B26  1  0.29299373  0.66977134  0.36350587  1
  B  B27  1  0.43790309  0.28026869  0.11342888  1
  B  B28  1  0.70951124  0.74947341  0.95481685  1
  B  B29  1  0.67478703  0.20183328  0.69367968  1
  B  B30  1  0.67706733  0.62042718  0.89696151  1
  B  B31  1  0.89192928  0.32483469  0.58762969  1
  B  B32  1  0.86772550  0.29067157  0.69213563  1
  B  B33  1  0.86772550  0.79067157  0.80786437  1
  B  B34  1  0.56209691  0.71973131  0.88657112  1
  B  B35  1  0.13227450  0.70932843  0.30786437  1
  B  B36  1  0.89192928  0.82483469  0.91237031  1
  B  B37  1  0.70700627  0.83022866  0.86350587  1
  B  B38  1  0.12882288  0.82377961  0.43597722  1
  B  B39  1  0.99916830  0.73940044  0.86571207  1
  H  H40  1  0.15378978  0.85511288  0.16113801  1
  H  H41  1  0.51165808  0.56921515  0.27210006  1
  H  H42  1  0.95315156  0.58855896  0.58453290  1
  H  H43  1  0.72882209  0.03605301  0.99716730  1
  H  H44  1  0.57878011  0.28452066  0.10791708  1
  H  H45  1  0.31898125  0.71512957  0.12400434  1
  H  H46  1  0.98550150  0.76922040  0.11475344  1
  H  H47  1  0.84775836  0.37017496  0.92258487  1
  H  H48  1  0.32324782  0.07919034  0.14962591  1
  H  H49  1  0.01449850  0.23077960  0.88524656  1
  H  H50  1  0.60754883  0.63614126  0.47391208  1
  H  H51  1  0.39870200  0.91654313  0.07310082  1
  H  H52  1  0.30890015  0.33802882  0.75789317  1
  H  H53  1  0.67675218  0.42080966  0.64962591  1
  H  H54  1  0.32175055  0.72949193  0.52191059  1
  H  H55  1  0.04684844  0.91144104  0.08453290  1
  H  H56  1  0.65475451  0.43717845  0.32005003  1
  H  H57  1  0.69109985  0.66197118  0.24210683  1
  H  H58  1  0.48834192  0.93078485  0.77210006  1
  H  H59  1  0.28087429  0.94742856  0.58770335  1
  H  H60  1  0.87932452  0.22056297  0.00532682  1
  H  H61  1  0.42096673  0.06822975  0.68400160  1
  H  H62  1  0.84458862  0.51905195  0.29364231  1
  H  H63  1  0.31898125  0.21512957  0.37599566  1
  H  H64  1  0.46479961  0.38469668  0.82771821  1
  H  H65  1  0.84621022  0.64488712  0.66113801  1
  H  H66  1  0.12067548  0.27943703  0.50532682  1
  H  H67  1  0.91124711  0.84231406  0.74901285  1
  H  H68  1  0.15378978  0.35511288  0.33886199  1
  H  H69  1  0.92138475  0.12718238  0.51072788  1
  H  H70  1  0.53520039  0.61530332  0.17228179  1
  H  H71  1  0.14032827  0.74558182  0.85951878  1
  H  H72  1  0.67675218  0.92080966  0.85037409  1
  H  H73  1  0.42096673  0.56822975  0.81599840  1
  H  H74  1  0.83171654  0.44953282  0.11981252  1
  H  H75  1  0.78948696  0.37903296  0.25761308  1
  H  H76  1  0.84775836  0.87017496  0.57741513  1
  H  H77  1  0.83171654  0.94953282  0.38018748  1
  H  H78  1  0.69109985  0.16197118  0.25789317  1
  H  H79  1  0.27117791  0.46394699  0.49716730  1
  H  H80  1  0.62067077  0.52531431  0.91261851  1
  H  H81  1  0.95315156  0.08855896  0.91546710  1
  H  H82  1  0.95895831  0.90733806  0.94599555  1
  H  H83  1  0.98550150  0.26922040  0.38524656  1
  H  H84  1  0.67824945  0.27050807  0.47808941  1
  H  H85  1  0.12774163  0.43572797  0.20641926  1
  H  H86  1  0.87225837  0.06427203  0.70641926  1
  H  H87  1  0.61234139  0.17928223  0.75710534  1
  H  H88  1  0.21051304  0.12096704  0.75761308  1
  H  H89  1  0.38765861  0.32071777  0.25710534  1
  H  H90  1  0.71912571  0.55257144  0.08770335  1
  H  H91  1  0.84458862  0.01905195  0.20635769  1
  H  H92  1  0.85967173  0.75441818  0.35951878  1
  H  H93  1  0.07861525  0.37281762  0.01072788  1
  H  H94  1  0.07861525  0.87281762  0.48927212  1
  H  H95  1  0.66941667  0.32322852  0.97796762  1
  H  H96  1  0.12031825  0.91029014  0.65646145  1
  H  H97  1  0.87968175  0.58970986  0.15646145  1
  H  H98  1  0.62067077  0.02531431  0.58738149  1
  H  H99  1  0.12031825  0.41029014  0.84353855  1
  H  H100  1  0.87968175  0.08970986  0.34353855  1
  H  H101  1  0.95895831  0.40733806  0.55400445  1
  H  H102  1  0.08875289  0.65768594  0.24901285  1
  H  H103  1  0.04104169  0.09266194  0.05400445  1
  H  H104  1  0.21051304  0.62096704  0.74238692  1
  H  H105  1  0.42121989  0.71547934  0.89208292  1
  H  H106  1  0.87225837  0.56427203  0.79358074  1
  H  H107  1  0.34524549  0.06282155  0.82005003  1
  H  H108  1  0.12774163  0.93572797  0.29358074  1
  H  H109  1  0.92138475  0.62718238  0.98927212  1
  H  H110  1  0.33058333  0.17677148  0.47796762  1
  H  H111  1  0.32175055  0.22949193  0.97808941  1
  H  H112  1  0.37932923  0.97468569  0.41261851  1
  H  H113  1  0.68101875  0.78487043  0.62400434  1
  H  H114  1  0.15224164  0.12982504  0.42258487  1
  H  H115  1  0.71912571  0.05257144  0.41229665  1
  H  H116  1  0.01449850  0.73077960  0.61475344  1
  H  H117  1  0.67824945  0.77050807  0.02191059  1
  H  H118  1  0.60754883  0.13614126  0.02608792  1
  H  H119  1  0.30890015  0.83802882  0.74210683  1
  H  H120  1  0.87932452  0.72056297  0.49467318  1
  H  H121  1  0.57878011  0.78452066  0.39208292  1
  H  H122  1  0.84621022  0.14488712  0.83886199  1
  H  H123  1  0.16828346  0.05046718  0.61981252  1
  H  H124  1  0.78948696  0.87903296  0.24238692  1
  H  H125  1  0.48834192  0.43078485  0.72789994  1
  H  H126  1  0.57903327  0.43177025  0.18400160  1
  H  H127  1  0.04104169  0.59266194  0.44599555  1
  H  H128  1  0.60129800  0.58345687  0.57310082  1
  H  H129  1  0.65475451  0.93717845  0.17994997  1
  H  H130  1  0.91124711  0.34231406  0.75098715  1
  H  H131  1  0.51165808  0.06921515  0.22789994  1
  H  H132  1  0.33058333  0.67677148  0.02203238  1
  H  H133  1  0.53520039  0.11530332  0.32771821  1
  H  H134  1  0.15541138  0.48094805  0.70635769  1
  H  H135  1  0.61234139  0.67928223  0.74289466  1
  H  H136  1  0.04684844  0.41144104  0.41546710  1
  H  H137  1  0.15541138  0.98094805  0.79364231  1
  H  H138  1  0.39870200  0.41654313  0.42689918  1
  H  H139  1  0.38765861  0.82071777  0.24289466  1
  H  H140  1  0.68101875  0.28487043  0.87599566  1
  H  H141  1  0.15224164  0.62982504  0.07741513  1
  H  H142  1  0.46479961  0.88469668  0.67228179  1
  H  H143  1  0.32324782  0.57919034  0.35037409  1
  H  H144  1  0.57903327  0.93177025  0.31599840  1
  H  H145  1  0.39245117  0.86385874  0.97391208  1
  H  H146  1  0.14032827  0.24558182  0.64048122  1
  H  H147  1  0.39245117  0.36385874  0.52608792  1
  H  H148  1  0.08875289  0.15768594  0.25098715  1
  H  H149  1  0.72882209  0.53605301  0.50283270  1
  H  H150  1  0.34524549  0.56282155  0.67994997  1
  H  H151  1  0.60129800  0.08345687  0.92689918  1
  H  H152  1  0.27117791  0.96394699  0.00283270  1
  H  H153  1  0.42121989  0.21547934  0.60791708  1
  H  H154  1  0.85967173  0.25441818  0.14048122  1
  H  H155  1  0.66941667  0.82322852  0.52203238  1
  H  H156  1  0.28087429  0.44742856  0.91229665  1
  H  H157  1  0.12067548  0.77943703  0.99467318  1
  H  H158  1  0.37932923  0.47468569  0.08738149  1
  H  H159  1  0.16828346  0.55046718  0.88018748  1
  C  C160  1  0.74575889  0.45433469  0.27407860  1
  C  C161  1  0.08725881  0.33688645  0.39385845  1
  C  C162  1  0.67648804  0.60716651  0.52147523  1
  C  C163  1  0.91274119  0.66311355  0.60614155  1
  C  C164  1  0.21628632  0.97688369  0.63659533  1
  C  C165  1  0.59715851  0.09273649  0.27564462  1
  C  C166  1  0.25316488  0.19814939  0.43127499  1
  C  C167  1  0.78371368  0.52311631  0.13659533  1
  C  C168  1  0.40284149  0.90726351  0.72435538  1
  C  C169  1  0.74683512  0.80185061  0.56872501  1
  C  C170  1  0.74683512  0.30185061  0.93127499  1
  C  C171  1  0.67648804  0.10716651  0.97852477  1
  C  C172  1  0.40284149  0.40726351  0.77564462  1
  C  C173  1  0.32351196  0.89283349  0.02147523  1
  C  C174  1  0.74575889  0.95433469  0.22592140  1
  C  C175  1  0.25316488  0.69814939  0.06872501  1
  C  C176  1  0.59715851  0.59273649  0.22435538  1
  C  C177  1  0.08725881  0.83688645  0.10614155  1
  C  C178  1  0.25424111  0.54566531  0.72592140  1
  C  C179  1  0.78371368  0.02311631  0.36340467  1
  C  C180  1  0.25424111  0.04566531  0.77407860  1
  C  C181  1  0.32351196  0.39283349  0.47852477  1
  C  C182  1  0.91274119  0.16311355  0.89385845  1
  C  C183  1  0.21628632  0.47688369  0.86340467  1
  N  N184  1  0.80843802  0.69982746  0.54431882  1
  N  N185  1  0.80843802  0.19982746  0.95568118  1
  N  N186  1  0.32962836  0.00475564  0.70350561  1
  N  N187  1  0.67037164  0.99524436  0.29649439  1
  N  N188  1  0.32962836  0.50475564  0.79649439  1
  N  N189  1  0.19156198  0.80017254  0.04431882  1
  N  N190  1  0.67037164  0.49524436  0.20350561  1
  N  N191  1  0.19156198  0.30017254  0.45568118  1
