# generated using pymatgen
data_Rb2Sn2Se5
_symmetry_space_group_name_H-M   'P 1'
_cell_length_a   7.35942582
_cell_length_b   7.35942582
_cell_length_c   12.27022024
_cell_angle_alpha   75.51484508
_cell_angle_beta   75.51484510
_cell_angle_gamma   73.41130246
_symmetry_Int_Tables_number   1
_chemical_formula_structural   Rb2Sn2Se5
_chemical_formula_sum   'Rb4 Sn4 Se10'
_cell_volume   605.11764551
_cell_formula_units_Z   2
loop_
 _symmetry_equiv_pos_site_id
 _symmetry_equiv_pos_as_xyz
  1  'x, y, z'
loop_
 _atom_site_type_symbol
 _atom_site_label
 _atom_site_symmetry_multiplicity
 _atom_site_fract_x
 _atom_site_fract_y
 _atom_site_fract_z
 _atom_site_occupancy
  Se  Se0  1  0.19834657  0.80165343  0.25000000  1
  Se  Se1  1  0.80165343  0.19834657  0.75000000  1
  Se  Se2  1  0.37563954  0.64262950  0.88504726  1
  Se  Se3  1  0.35737050  0.62436046  0.61495274  1
  Se  Se4  1  0.62436046  0.35737050  0.11495274  1
  Se  Se5  1  0.64262950  0.37563954  0.38504726  1
  Se  Se6  1  0.75147447  0.87140223  0.03098514  1
  Se  Se7  1  0.12859777  0.24852553  0.46901486  1
  Se  Se8  1  0.87140223  0.75147447  0.53098514  1
  Se  Se9  1  0.24852553  0.12859777  0.96901486  1
  Rb  Rb10  1  0.94156533  0.59185884  0.82044998  1
  Rb  Rb11  1  0.40814116  0.05843467  0.67955002  1
  Rb  Rb12  1  0.05843467  0.40814116  0.17955002  1
  Rb  Rb13  1  0.59185884  0.94156533  0.32044998  1
  Sn  Sn14  1  0.44848977  0.74535307  0.05618207  1
  Sn  Sn15  1  0.25464693  0.55151023  0.44381793  1
  Sn  Sn16  1  0.55151023  0.25464693  0.94381793  1
  Sn  Sn17  1  0.74535307  0.44848977  0.55618207  1
