# generated using pymatgen
data_CrSbS3
_symmetry_space_group_name_H-M   'P 1'
_cell_length_a   3.66086020
_cell_length_b   8.87906743
_cell_length_c   12.84671293
_cell_angle_alpha   90.00000000
_cell_angle_beta   90.00000000
_cell_angle_gamma   90.00000000
_symmetry_Int_Tables_number   1
_chemical_formula_structural   CrSbS3
_chemical_formula_sum   'Cr4 Sb4 S12'
_cell_volume   417.58271940
_cell_formula_units_Z   4
loop_
 _symmetry_equiv_pos_site_id
 _symmetry_equiv_pos_as_xyz
  1  'x, y, z'
loop_
 _atom_site_type_symbol
 _atom_site_label
 _atom_site_symmetry_multiplicity
 _atom_site_fract_x
 _atom_site_fract_y
 _atom_site_fract_z
 _atom_site_occupancy
  S  S0  1  0.75000000  0.71180546  0.79092460  1
  S  S1  1  0.25000000  0.67342432  0.01310082  1
  S  S2  1  0.75000000  0.82657568  0.51310082  1
  S  S3  1  0.25000000  0.17342432  0.48689918  1
  S  S4  1  0.25000000  0.99659380  0.89557987  1
  S  S5  1  0.75000000  0.00340620  0.10442013  1
  S  S6  1  0.25000000  0.49659380  0.60442013  1
  S  S7  1  0.25000000  0.28819454  0.20907540  1
  S  S8  1  0.75000000  0.21180546  0.70907540  1
  S  S9  1  0.25000000  0.78819454  0.29092460  1
  S  S10  1  0.75000000  0.50340620  0.39557987  1
  S  S11  1  0.75000000  0.32657568  0.98689918  1
  Cr  Cr12  1  0.75000000  0.84336451  0.95633951  1
  Cr  Cr13  1  0.25000000  0.15663549  0.04366049  1
  Cr  Cr14  1  0.75000000  0.34336451  0.54366049  1
  Cr  Cr15  1  0.25000000  0.65663549  0.45633951  1
  Sb  Sb16  1  0.75000000  0.47440219  0.15972209  1
  Sb  Sb17  1  0.25000000  0.52559781  0.84027791  1
  Sb  Sb18  1  0.75000000  0.97440219  0.34027791  1
  Sb  Sb19  1  0.25000000  0.02559781  0.65972209  1
