# generated using pymatgen
data_Tc2As3
_symmetry_space_group_name_H-M   'P 1'
_cell_length_a   6.66783968
_cell_length_b   6.69945225
_cell_length_c   8.06568567
_cell_angle_alpha   95.70183072
_cell_angle_beta   101.62995387
_cell_angle_gamma   104.46533687
_symmetry_Int_Tables_number   1
_chemical_formula_structural   Tc2As3
_chemical_formula_sum   'Tc8 As12'
_cell_volume   337.43275928
_cell_formula_units_Z   4
loop_
 _symmetry_equiv_pos_site_id
 _symmetry_equiv_pos_as_xyz
  1  'x, y, z'
loop_
 _atom_site_type_symbol
 _atom_site_label
 _atom_site_symmetry_multiplicity
 _atom_site_fract_x
 _atom_site_fract_y
 _atom_site_fract_z
 _atom_site_occupancy
  As  As0  1  0.73629914  0.59212493  0.34694224  1
  As  As1  1  0.26370086  0.40787507  0.65305776  1
  As  As2  1  0.23577019  0.56594250  0.38546052  1
  As  As3  1  0.76422981  0.43405750  0.61453948  1
  As  As4  1  0.85940237  0.12905326  0.31401526  1
  As  As5  1  0.14059763  0.87094674  0.68598474  1
  As  As6  1  0.37211261  0.15511256  0.32044231  1
  As  As7  1  0.62788739  0.84488744  0.67955769  1
  As  As8  1  0.54512800  0.20605281  0.96375564  1
  As  As9  1  0.45487200  0.79394719  0.03624436  1
  As  As10  1  0.03267826  0.19008362  0.95027794  1
  As  As11  1  0.96732174  0.80991638  0.04972206  1
  Tc  Tc12  1  0.91535467  0.42603781  0.14193658  1
  Tc  Tc13  1  0.08464533  0.57396219  0.85806342  1
  Tc  Tc14  1  0.36837488  0.42864557  0.13288300  1
  Tc  Tc15  1  0.63162512  0.57135443  0.86711700  1
  Tc  Tc16  1  0.53117000  0.86429921  0.36468268  1
  Tc  Tc17  1  0.46883000  0.13570079  0.63531732  1
  Tc  Tc18  1  0.08881752  0.87591436  0.37513844  1
  Tc  Tc19  1  0.91118248  0.12408564  0.62486156  1
