# generated using pymatgen
data_Lu4Ni13C4
_symmetry_space_group_name_H-M   'P 1'
_cell_length_a   8.28439857
_cell_length_b   8.28439857
_cell_length_c   3.80545416
_cell_angle_alpha   90.00000000
_cell_angle_beta   90.00000000
_cell_angle_gamma   91.32644565
_symmetry_Int_Tables_number   1
_chemical_formula_structural   Lu4Ni13C4
_chemical_formula_sum   'Lu4 Ni13 C4'
_cell_volume   261.10312667
_cell_formula_units_Z   1
loop_
 _symmetry_equiv_pos_site_id
 _symmetry_equiv_pos_as_xyz
  1  'x, y, z'
loop_
 _atom_site_type_symbol
 _atom_site_label
 _atom_site_symmetry_multiplicity
 _atom_site_fract_x
 _atom_site_fract_y
 _atom_site_fract_z
 _atom_site_occupancy
  Lu  Lu0  1  0.18607697  0.81392203  0.50000100  1
  Lu  Lu1  1  0.81392203  0.18607697  0.50000100  1
  Lu  Lu2  1  0.34839416  0.34839416  0.50000100  1
  Lu  Lu3  1  0.65160584  0.65160584  0.50000100  1
  Ni  Ni4  1  0.00000000  0.00000000  0.00000000  1
  Ni  Ni5  1  0.57039117  0.21580973  0.00000000  1
  Ni  Ni6  1  0.42960783  0.78419027  0.00000000  1
  Ni  Ni7  1  0.78419027  0.42960783  0.00000000  1
  Ni  Ni8  1  0.21580973  0.57039117  0.00000000  1
  Ni  Ni9  1  0.50000100  0.00000000  0.50000100  1
  Ni  Ni10  1  0.00000000  0.50000100  0.50000100  1
  Ni  Ni11  1  0.29139095  0.07492653  0.00000000  1
  Ni  Ni12  1  0.70860905  0.92507347  0.00000000  1
  Ni  Ni13  1  0.92507347  0.70860905  0.00000000  1
  Ni  Ni14  1  0.07492653  0.29139095  0.00000000  1
  Ni  Ni15  1  0.12406545  0.12406545  0.50000100  1
  Ni  Ni16  1  0.87593455  0.87593455  0.50000100  1
  C  C17  1  0.50000100  0.00000000  0.00000000  1
  C  C18  1  0.00000000  0.50000100  0.00000000  1
  C  C19  1  0.55710421  0.44289479  0.00000000  1
  C  C20  1  0.44289479  0.55710421  0.00000000  1
