# generated using pymatgen
data_K2PtSe2
_symmetry_space_group_name_H-M   'P 1'
_cell_length_a   3.81232401
_cell_length_b   6.48231138
_cell_length_c   6.48231137
_cell_angle_alpha   70.09813368
_cell_angle_beta   72.89906546
_cell_angle_gamma   72.89906552
_symmetry_Int_Tables_number   1
_chemical_formula_structural   K2PtSe2
_chemical_formula_sum   'K2 Pt1 Se2'
_cell_volume   140.57557462
_cell_formula_units_Z   1
loop_
 _symmetry_equiv_pos_site_id
 _symmetry_equiv_pos_as_xyz
  1  'x, y, z'
loop_
 _atom_site_type_symbol
 _atom_site_label
 _atom_site_symmetry_multiplicity
 _atom_site_fract_x
 _atom_site_fract_y
 _atom_site_fract_z
 _atom_site_occupancy
  K  K0  1  0.20059197  0.29940803  0.29940803  1
  K  K1  1  0.79940803  0.70059197  0.70059197  1
  Se  Se2  1  0.50000000  0.78031519  0.21968481  1
  Se  Se3  1  0.50000000  0.21968481  0.78031519  1
  Pt  Pt4  1  0.00000000  0.00000000  0.00000000  1
