# generated using pymatgen
data_Li7Mn4CoO12
_symmetry_space_group_name_H-M   'P 1'
_cell_length_a   2.98975641
_cell_length_b   5.07989310
_cell_length_c   14.74016388
_cell_angle_alpha   98.07097883
_cell_angle_beta   86.44730589
_cell_angle_gamma   93.34290932
_symmetry_Int_Tables_number   1
_chemical_formula_structural   Li7Mn4CoO12
_chemical_formula_sum   'Li7 Mn4 Co1 O12'
_cell_volume   220.94597320
_cell_formula_units_Z   1
loop_
 _symmetry_equiv_pos_site_id
 _symmetry_equiv_pos_as_xyz
  1  'x, y, z'
loop_
 _atom_site_type_symbol
 _atom_site_label
 _atom_site_symmetry_multiplicity
 _atom_site_fract_x
 _atom_site_fract_y
 _atom_site_fract_z
 _atom_site_occupancy
  Li  Li0  1  0.91473890  0.42420175  0.15537054  1
  Li  Li1  1  0.24697224  0.75392545  0.50017720  1
  Li  Li2  1  0.57369803  0.09205108  0.84033312  1
  Li  Li3  1  0.42625798  0.90884372  0.15812081  1
  Li  Li4  1  0.74953021  0.24795420  0.50161937  1
  Li  Li5  1  0.08695661  0.57296065  0.84519249  1
  Li  Li6  1  0.49992656  0.50014141  0.00002793  1
  Mn  Mn7  1  0.99997187  -0.00022317  0.99940253  1
  Mn  Mn8  1  0.83743585  0.83217501  0.33256330  1
  Mn  Mn9  1  0.33709914  0.33242827  0.33325102  1
  Mn  Mn10  1  0.66277041  0.66764928  0.66734665  1
  Co  Co11  1  0.16379477  0.16779749  0.66756806  1
  O  O12  1  0.49187880  0.18141187  0.07188542  1
  O  O13  1  0.76600608  0.54960865  0.41225452  1
  O  O14  1  0.11393835  0.87718968  0.74004307  1
  O  O15  1  0.95356699  0.73046216  0.07842972  1
  O  O16  1  0.26348703  0.04891225  0.41229733  1
  O  O17  1  0.59798917  0.37532231  0.74159709  1
  O  O18  1  0.40182723  0.61703444  0.25588304  1
  O  O19  1  0.73659271  0.95748696  0.59082867  1
  O  O20  1  0.04658068  0.26964416  0.92044829  1
  O  O21  1  0.89778292  0.12225515  0.25776803  1
  O  O22  1  0.22203271  0.45315043  0.59098259  1
  O  O23  1  0.50916477  0.81761678  0.92660923  1
