# generated using pymatgen
data_Al2Te5
_symmetry_space_group_name_H-M   'P 1'
_cell_length_a   4.19346672
_cell_length_b   7.79765603
_cell_length_c   8.49258015
_cell_angle_alpha   80.63503451
_cell_angle_beta   75.70644383
_cell_angle_gamma   74.40160894
_symmetry_Int_Tables_number   1
_chemical_formula_structural   Al2Te5
_chemical_formula_sum   'Al2 Te5'
_cell_volume   257.80864052
_cell_formula_units_Z   1
loop_
 _symmetry_equiv_pos_site_id
 _symmetry_equiv_pos_as_xyz
  1  'x, y, z'
loop_
 _atom_site_type_symbol
 _atom_site_label
 _atom_site_symmetry_multiplicity
 _atom_site_fract_x
 _atom_site_fract_y
 _atom_site_fract_z
 _atom_site_occupancy
  Al  Al0  1  0.36611978  0.86688992  0.40087052  1
  Al  Al1  1  0.63388022  0.13311008  0.59912948  1
  Te  Te2  1  0.57361980  0.72705023  0.12571017  1
  Te  Te3  1  0.42638020  0.27294977  0.87428983  1
  Te  Te4  1  0.00000000  0.00000000  0.00000000  1
  Te  Te5  1  0.18766201  0.22513115  0.39954484  1
  Te  Te6  1  0.81233799  0.77486885  0.60045516  1
