# generated using pymatgen
data_Sr2LiFe2N3
_symmetry_space_group_name_H-M   'P 1'
_cell_length_a   6.53908782
_cell_length_b   6.50931341
_cell_length_c   6.55091201
_cell_angle_alpha   88.89951158
_cell_angle_beta   87.80864536
_cell_angle_gamma   59.84857343
_symmetry_Int_Tables_number   1
_chemical_formula_structural   Sr2LiFe2N3
_chemical_formula_sum   'Sr4 Li2 Fe4 N6'
_cell_volume   240.93635169
_cell_formula_units_Z   2
loop_
 _symmetry_equiv_pos_site_id
 _symmetry_equiv_pos_as_xyz
  1  'x, y, z'
loop_
 _atom_site_type_symbol
 _atom_site_label
 _atom_site_symmetry_multiplicity
 _atom_site_fract_x
 _atom_site_fract_y
 _atom_site_fract_z
 _atom_site_occupancy
  Li  Li0  1  0.19277562  0.61444875  0.75000000  1
  Li  Li1  1  0.80722438  0.38555125  0.25000000  1
  N  N2  1  0.58961096  0.82077809  0.75000000  1
  N  N3  1  0.41038904  0.17922191  0.25000000  1
  N  N4  1  0.71908212  0.28076177  0.51590314  1
  N  N5  1  0.99984389  0.71923823  0.01590314  1
  N  N6  1  0.28091788  0.71923823  0.48409686  1
  N  N7  1  0.00015611  0.28076177  0.98409686  1
  Fe  Fe8  1  0.16439429  0.40694638  0.10311249  1
  Fe  Fe9  1  0.83560571  0.59305362  0.89688751  1
  Fe  Fe10  1  0.42865933  0.40694638  0.39688751  1
  Fe  Fe11  1  0.57134067  0.59305362  0.60311249  1
  Sr  Sr12  1  0.68195892  0.14075037  0.90068458  1
  Sr  Sr13  1  0.17729071  0.14075037  0.59931542  1
  Sr  Sr14  1  0.31804108  0.85924963  0.09931542  1
  Sr  Sr15  1  0.82270929  0.85924963  0.40068458  1
