# generated using pymatgen
data_Tb2S3
_symmetry_space_group_name_H-M   'P 1'
_cell_length_a   3.89589511
_cell_length_b   10.50653886
_cell_length_c   10.70462637
_cell_angle_alpha   90.00000000
_cell_angle_beta   90.00000000
_cell_angle_gamma   90.00000000
_symmetry_Int_Tables_number   1
_chemical_formula_structural   Tb2S3
_chemical_formula_sum   'Tb8 S12'
_cell_volume   438.16576334
_cell_formula_units_Z   4
loop_
 _symmetry_equiv_pos_site_id
 _symmetry_equiv_pos_as_xyz
  1  'x, y, z'
loop_
 _atom_site_type_symbol
 _atom_site_label
 _atom_site_symmetry_multiplicity
 _atom_site_fract_x
 _atom_site_fract_y
 _atom_site_fract_z
 _atom_site_occupancy
  S  S0  1  0.25000000  0.30352672  0.72810888  1
  S  S1  1  0.75000000  0.69647328  0.27189112  1
  S  S2  1  0.75000000  0.80352672  0.77189112  1
  S  S3  1  0.25000000  0.19647328  0.22810888  1
  S  S4  1  0.25000000  0.94452855  0.38034178  1
  S  S5  1  0.75000000  0.05547145  0.61965822  1
  S  S6  1  0.75000000  0.44452855  0.11965822  1
  S  S7  1  0.25000000  0.55547145  0.88034178  1
  S  S8  1  0.25000000  0.87336424  0.04574642  1
  S  S9  1  0.75000000  0.12663576  0.95425358  1
  S  S10  1  0.75000000  0.37336424  0.45425358  1
  S  S11  1  0.25000000  0.62663576  0.54574642  1
  Tb  Tb12  1  0.25000000  0.99618016  0.80793358  1
  Tb  Tb13  1  0.75000000  0.00381984  0.19206642  1
  Tb  Tb14  1  0.75000000  0.49618016  0.69206642  1
  Tb  Tb15  1  0.25000000  0.50381984  0.30793358  1
  Tb  Tb16  1  0.25000000  0.18665977  0.49021343  1
  Tb  Tb17  1  0.75000000  0.81334023  0.50978657  1
  Tb  Tb18  1  0.75000000  0.68665977  0.00978657  1
  Tb  Tb19  1  0.25000000  0.31334023  0.99021343  1
