# generated using pymatgen
data_LiGaGeO4
_symmetry_space_group_name_H-M   'P 1'
_cell_length_a   8.76076171
_cell_length_b   8.76076170
_cell_length_c   8.76076171
_cell_angle_alpha   107.84939187
_cell_angle_beta   107.84939191
_cell_angle_gamma   107.84939196
_symmetry_Int_Tables_number   1
_chemical_formula_structural   LiGaGeO4
_chemical_formula_sum   'Li6 Ga6 Ge6 O24'
_cell_volume   546.48454075
_cell_formula_units_Z   6
loop_
 _symmetry_equiv_pos_site_id
 _symmetry_equiv_pos_as_xyz
  1  'x, y, z'
loop_
 _atom_site_type_symbol
 _atom_site_label
 _atom_site_symmetry_multiplicity
 _atom_site_fract_x
 _atom_site_fract_y
 _atom_site_fract_z
 _atom_site_occupancy
  Li  Li0  1  0.46464905  0.23324680  0.06376452  1
  Li  Li1  1  0.06376452  0.46464905  0.23324680  1
  Li  Li2  1  0.23324680  0.06376452  0.46464905  1
  Li  Li3  1  0.53535095  0.76675320  0.93623548  1
  Li  Li4  1  0.93623548  0.53535095  0.76675320  1
  Li  Li5  1  0.76675320  0.93623548  0.53535095  1
  O  O6  1  0.69894494  0.35326503  0.66760115  1
  O  O7  1  0.32187547  0.37048403  0.03925785  1
  O  O8  1  0.37048403  0.03925785  0.32187547  1
  O  O9  1  0.03925785  0.32187547  0.37048403  1
  O  O10  1  0.67812453  0.62951597  0.96074215  1
  O  O11  1  0.62951597  0.96074215  0.67812453  1
  O  O12  1  0.96074215  0.67812453  0.62951597  1
  O  O13  1  0.66760115  0.69894494  0.35326503  1
  O  O14  1  0.39567175  0.74275418  0.07254917  1
  O  O15  1  0.35326503  0.66760115  0.69894494  1
  O  O16  1  0.33239885  0.30105506  0.64673497  1
  O  O17  1  0.30105506  0.64673497  0.33239885  1
  O  O18  1  0.60432825  0.25724582  0.92745083  1
  O  O19  1  0.92745083  0.60432825  0.25724582  1
  O  O20  1  0.25724582  0.92745083  0.60432825  1
  O  O21  1  0.27676162  0.97439786  0.95724921  1
  O  O22  1  0.07254917  0.39567175  0.74275418  1
  O  O23  1  0.74275418  0.07254917  0.39567175  1
  O  O24  1  0.02560214  0.04275079  0.72323838  1
  O  O25  1  0.95724921  0.27676162  0.97439786  1
  O  O26  1  0.97439786  0.95724921  0.27676162  1
  O  O27  1  0.72323838  0.02560214  0.04275079  1
  O  O28  1  0.04275079  0.72323838  0.02560214  1
  O  O29  1  0.64673497  0.33239885  0.30105506  1
  Ga  Ga30  1  0.79160458  0.56783729  0.38539071  1
  Ga  Ga31  1  0.56783729  0.38539071  0.79160458  1
  Ga  Ga32  1  0.20839542  0.43216271  0.61460929  1
  Ga  Ga33  1  0.61460929  0.20839542  0.43216271  1
  Ga  Ga34  1  0.43216271  0.61460929  0.20839542  1
  Ga  Ga35  1  0.38539071  0.79160458  0.56783729  1
  Ge  Ge36  1  0.72490158  0.13337328  0.89561096  1
  Ge  Ge37  1  0.89561096  0.72490158  0.13337328  1
  Ge  Ge38  1  0.86662672  0.10438904  0.27509842  1
  Ge  Ge39  1  0.27509842  0.86662672  0.10438904  1
  Ge  Ge40  1  0.10438904  0.27509842  0.86662672  1
  Ge  Ge41  1  0.13337328  0.89561096  0.72490158  1
