# generated using pymatgen
data_Li9Co7O16
_symmetry_space_group_name_H-M   'P 1'
_cell_length_a   2.93391234
_cell_length_b   8.17014619
_cell_length_c   11.76433405
_cell_angle_alpha   89.07527429
_cell_angle_beta   90.00000000
_cell_angle_gamma   90.00000000
_symmetry_Int_Tables_number   1
_chemical_formula_structural   Li9Co7O16
_chemical_formula_sum   'Li9 Co7 O16'
_cell_volume   281.96015675
_cell_formula_units_Z   1
loop_
 _symmetry_equiv_pos_site_id
 _symmetry_equiv_pos_as_xyz
  1  'x, y, z'
loop_
 _atom_site_type_symbol
 _atom_site_label
 _atom_site_symmetry_multiplicity
 _atom_site_fract_x
 _atom_site_fract_y
 _atom_site_fract_z
 _atom_site_occupancy
  Li  Li0  1  0.50000000  0.24823180  0.11725700  1
  Li  Li1  1  0.50000000  0.75000000  0.37500000  1
  Li  Li2  1  0.50000000  0.25176820  0.63274300  1
  Li  Li3  1  0.00000000  0.48666782  0.99734950  1
  Li  Li4  1  -0.00000000  0.00072721  0.25132893  1
  Li  Li5  1  0.00000000  0.49927279  0.49867107  1
  Li  Li6  1  0.50000000  0.75000000  0.87500000  1
  Li  Li7  1  0.00000000  0.01333218  0.75265050  1
  Li  Li8  1  0.50000000  0.25000000  0.87500000  1
  Co  Co9  1  -0.00000000  0.00703253  0.99658236  1
  Co  Co10  1  0.00000000  0.49296747  0.75341764  1
  Co  Co11  1  -0.00000000  0.50233724  0.24984911  1
  Co  Co12  1  0.00000000  -0.00233724  0.50015089  1
  Co  Co13  1  0.50000000  0.74879611  0.12123894  1
  Co  Co14  1  0.50000000  0.25000000  0.37500000  1
  Co  Co15  1  0.50000000  0.75120389  0.62876106  1
  O  O16  1  0.50000000  0.99304465  0.10949704  1
  O  O17  1  0.50000000  0.49507722  0.37096442  1
  O  O18  1  0.50000000  0.99082408  0.62308082  1
  O  O19  1  0.00000000  0.22558353  0.00186539  1
  O  O20  1  0.00000000  0.74415649  0.24277415  1
  O  O21  1  0.00000000  0.24099745  0.49315327  1
  O  O22  1  0.50000000  0.50026748  0.85806539  1
  O  O23  1  -0.00000000  0.73519006  0.74438427  1
  O  O24  1  0.50000000  0.50917592  0.12691918  1
  O  O25  1  0.50000000  0.00492278  0.37903558  1
  O  O26  1  0.50000000  0.50695535  0.64050296  1
  O  O27  1  -0.00000000  0.76480994  0.00561573  1
  O  O28  1  0.00000000  0.25900255  0.25684673  1
  O  O29  1  0.00000000  0.75584351  0.50722585  1
  O  O30  1  0.50000000  -0.00026748  0.89193461  1
  O  O31  1  0.00000000  0.27441647  0.74813461  1
