# generated using pymatgen
data_Na5TaO5
_symmetry_space_group_name_H-M   'P 1'
_cell_length_a   6.07537621
_cell_length_b   6.07537621
_cell_length_c   10.12679693
_cell_angle_alpha   98.58338194
_cell_angle_beta   98.58338196
_cell_angle_gamma   116.95278824
_symmetry_Int_Tables_number   1
_chemical_formula_structural   Na5TaO5
_chemical_formula_sum   'Na10 Ta2 O10'
_cell_volume   319.31926266
_cell_formula_units_Z   2
loop_
 _symmetry_equiv_pos_site_id
 _symmetry_equiv_pos_as_xyz
  1  'x, y, z'
loop_
 _atom_site_type_symbol
 _atom_site_label
 _atom_site_symmetry_multiplicity
 _atom_site_fract_x
 _atom_site_fract_y
 _atom_site_fract_z
 _atom_site_occupancy
  O  O0  1  0.90818597  0.09181403  0.25000000  1
  O  O1  1  0.09181403  0.90818597  0.75000000  1
  O  O2  1  0.03980983  0.69619746  0.38086222  1
  O  O3  1  0.30380254  0.96019017  0.11913778  1
  O  O4  1  0.81171619  0.59802416  0.10516793  1
  O  O5  1  0.40197584  0.18828381  0.39483207  1
  O  O6  1  0.18828381  0.40197584  0.89483207  1
  O  O7  1  0.59802416  0.81171619  0.60516793  1
  O  O8  1  0.96019017  0.30380254  0.61913778  1
  O  O9  1  0.69619746  0.03980983  0.88086222  1
  Na  Na10  1  0.99484604  0.67783427  0.92237299  1
  Na  Na11  1  0.32216573  0.00515396  0.57762701  1
  Na  Na12  1  0.78467531  0.55596311  0.55023104  1
  Na  Na13  1  0.44403689  0.21532469  0.94976896  1
  Na  Na14  1  0.21532469  0.44403689  0.44976896  1
  Na  Na15  1  0.55596311  0.78467531  0.05023104  1
  Na  Na16  1  0.66858530  0.33141470  0.25000000  1
  Na  Na17  1  0.33141470  0.66858530  0.75000000  1
  Na  Na18  1  0.67783427  0.99484604  0.42237299  1
  Na  Na19  1  0.00515396  0.32216573  0.07762701  1
  Ta  Ta20  1  0.09279043  0.90720957  0.25000000  1
  Ta  Ta21  1  0.90720957  0.09279043  0.75000000  1
