# generated using pymatgen
data_U2Si4Mo3
_symmetry_space_group_name_H-M   'P 1'
_cell_length_a   6.75451155
_cell_length_b   6.85811068
_cell_length_c   6.86480986
_cell_angle_alpha   90.00000000
_cell_angle_beta   90.00000000
_cell_angle_gamma   109.99597901
_symmetry_Int_Tables_number   1
_chemical_formula_structural   U2Si4Mo3
_chemical_formula_sum   'U4 Si8 Mo6'
_cell_volume   298.82976954
_cell_formula_units_Z   2
loop_
 _symmetry_equiv_pos_site_id
 _symmetry_equiv_pos_as_xyz
  1  'x, y, z'
loop_
 _atom_site_type_symbol
 _atom_site_label
 _atom_site_symmetry_multiplicity
 _atom_site_fract_x
 _atom_site_fract_y
 _atom_site_fract_z
 _atom_site_occupancy
  Si  Si0  1  0.86544286  0.50046030  0.13330879  1
  Si  Si1  1  0.63455714  0.49953970  0.63330879  1
  Si  Si2  1  0.13455714  0.49953970  0.86669121  1
  Si  Si3  1  0.36544286  0.50046030  0.36669121  1
  Si  Si4  1  0.12940978  0.91131371  0.45566832  1
  Si  Si5  1  0.37059022  0.08868629  0.95566832  1
  Si  Si6  1  0.62940978  0.91131371  0.04433168  1
  Si  Si7  1  0.87059022  0.08868629  0.54433168  1
  Mo  Mo8  1  0.74561177  0.75638167  0.33602514  1
  Mo  Mo9  1  0.75438823  0.24361833  0.83602514  1
  Mo  Mo10  1  0.00000000  0.50000000  0.50000000  1
  Mo  Mo11  1  0.50000000  0.50000000  0.00000000  1
  Mo  Mo12  1  0.25438823  0.24361833  0.66397486  1
  Mo  Mo13  1  0.24561177  0.75638167  0.16397486  1
  U  U14  1  0.55611019  0.18430223  0.33765523  1
  U  U15  1  0.94388981  0.81569777  0.83765523  1
  U  U16  1  0.44388981  0.81569777  0.66234477  1
  U  U17  1  0.05611019  0.18430223  0.16234477  1
