# generated using pymatgen
data_Na2P2PdO7
_symmetry_space_group_name_H-M   'P 1'
_cell_length_a   5.99067747
_cell_length_b   8.01374779
_cell_length_c   8.05775234
_cell_angle_alpha   112.36594511
_cell_angle_beta   90.00000000
_cell_angle_gamma   111.94862181
_symmetry_Int_Tables_number   1
_chemical_formula_structural   Na2P2PdO7
_chemical_formula_sum   'Na4 P4 Pd2 O14'
_cell_volume   327.21196729
_cell_formula_units_Z   2
loop_
 _symmetry_equiv_pos_site_id
 _symmetry_equiv_pos_as_xyz
  1  'x, y, z'
loop_
 _atom_site_type_symbol
 _atom_site_label
 _atom_site_symmetry_multiplicity
 _atom_site_fract_x
 _atom_site_fract_y
 _atom_site_fract_z
 _atom_site_occupancy
  O  O0  1  0.88703221  0.21357501  0.01160086  1
  O  O1  1  0.67345720  0.78642499  0.48839914  1
  O  O2  1  0.11296779  0.78642499  0.98839914  1
  O  O3  1  0.32654280  0.21357501  0.51160086  1
  O  O4  1  0.06481377  0.77367407  0.30313205  1
  O  O5  1  0.29113970  0.22632593  0.19686795  1
  O  O6  1  0.93518623  0.22632593  0.69686795  1
  O  O7  1  0.70886030  0.77367407  0.80313205  1
  O  O8  1  0.46766659  0.00000000  0.25000000  1
  O  O9  1  0.53233341  0.00000000  0.75000000  1
  O  O10  1  0.29903341  0.62677134  0.60641355  1
  O  O11  1  0.67226207  0.37322866  0.89358645  1
  O  O12  1  0.70096659  0.37322866  0.39358645  1
  O  O13  1  0.32773793  0.62677134  0.10641355  1
  Na  Na14  1  0.08932783  0.45353434  0.30269666  1
  Na  Na15  1  0.63579349  0.54646566  0.19730334  1
  Na  Na16  1  0.91067217  0.54646566  0.69730334  1
  Na  Na17  1  0.36420651  0.45353434  0.80269666  1
  P  P18  1  0.44761610  0.21162944  0.34147816  1
  P  P19  1  0.23598666  0.78837056  0.15852184  1
  P  P20  1  0.55238390  0.78837056  0.65852184  1
  P  P21  1  0.76401334  0.21162944  0.84147816  1
  Pd  Pd22  1  0.00000000  0.00000000  0.50000000  1
  Pd  Pd23  1  0.00000000  0.00000000  0.00000000  1
