# generated using pymatgen
data_Cs2VAgS4
_symmetry_space_group_name_H-M   'P 1'
_cell_length_a   5.87592704
_cell_length_b   7.77633597
_cell_length_c   12.76447833
_cell_angle_alpha   85.01131349
_cell_angle_beta   76.69308766
_cell_angle_gamma   67.80201636
_symmetry_Int_Tables_number   1
_chemical_formula_structural   Cs2VAgS4
_chemical_formula_sum   'Cs4 V2 Ag2 S8'
_cell_volume   525.52246703
_cell_formula_units_Z   2
loop_
 _symmetry_equiv_pos_site_id
 _symmetry_equiv_pos_as_xyz
  1  'x, y, z'
loop_
 _atom_site_type_symbol
 _atom_site_label
 _atom_site_symmetry_multiplicity
 _atom_site_fract_x
 _atom_site_fract_y
 _atom_site_fract_z
 _atom_site_occupancy
  S  S0  1  0.22024547  0.06871249  0.14638543  1
  S  S1  1  0.93534339  0.43128751  0.35361457  1
  S  S2  1  0.71104204  0.06871249  0.35361457  1
  S  S3  1  0.63336909  0.43128751  0.14638543  1
  S  S4  1  0.36663091  0.56871249  0.85361457  1
  S  S5  1  0.06465661  0.56871249  0.64638543  1
  S  S6  1  0.28895796  0.93128751  0.64638543  1
  S  S7  1  0.77975453  0.93128751  0.85361457  1
  V  V8  1  0.87500000  0.25000000  0.25000000  1
  V  V9  1  0.12500000  0.75000000  0.75000000  1
  Ag  Ag10  1  0.62500000  0.75000000  0.75000000  1
  Ag  Ag11  1  0.37500000  0.25000000  0.25000000  1
  Cs  Cs12  1  0.94690402  0.75000000  0.10619195  1
  Cs  Cs13  1  0.30309598  0.75000000  0.39380805  1
  Cs  Cs14  1  0.69690402  0.25000000  0.60619195  1
  Cs  Cs15  1  0.05309598  0.25000000  0.89380805  1
