# generated using pymatgen
data_CsCaCO3F
_symmetry_space_group_name_H-M   'P 1'
_cell_length_a   9.39267909
_cell_length_b   9.39108689
_cell_length_c   4.60276179
_cell_angle_alpha   90.00000000
_cell_angle_beta   90.00000000
_cell_angle_gamma   120.00560858
_symmetry_Int_Tables_number   1
_chemical_formula_structural   CsCaCO3F
_chemical_formula_sum   'Cs3 Ca3 C3 O9 F3'
_cell_volume   351.58466717
_cell_formula_units_Z   3
loop_
 _symmetry_equiv_pos_site_id
 _symmetry_equiv_pos_as_xyz
  1  'x, y, z'
loop_
 _atom_site_type_symbol
 _atom_site_label
 _atom_site_symmetry_multiplicity
 _atom_site_fract_x
 _atom_site_fract_y
 _atom_site_fract_z
 _atom_site_occupancy
  Cs  Cs0  1  0.27642416  0.00000000  0.50000000  1
  Cs  Cs1  1  0.00000916  0.27647138  0.50000000  1
  Cs  Cs2  1  0.72353778  0.72352962  0.50000000  1
  Ca  Ca3  1  0.00003411  0.61051712  0.00000000  1
  Ca  Ca4  1  0.38951599  0.38948388  0.00000000  1
  Ca  Ca5  1  0.61051143  0.00000000  0.00000000  1
  C  C6  1  0.00002451  0.00000000  0.00000000  1
  C  C7  1  0.66663378  0.33333143  0.00000000  1
  C  C8  1  0.33330235  0.66666857  0.00000000  1
  O  O9  1  0.69115321  0.48255671  0.00000000  1
  O  O10  1  0.51748422  0.20858611  0.00000000  1
  O  O11  1  0.79144126  0.30886754  0.00000000  1
  O  O12  1  0.20859650  0.51744229  0.00000000  1
  O  O13  1  0.30889810  0.79141289  0.00000000  1
  O  O14  1  0.48257172  0.69113146  0.00000000  1
  O  O15  1  0.99996349  0.86178557  0.00000000  1
  O  O16  1  0.13817692  0.13821443  0.00000000  1
  O  O17  1  0.86174757  0.00000000  0.00000000  1
  F  F18  1  0.00007790  0.61136670  0.50000000  1
  F  F19  1  0.38871221  0.38863330  0.50000000  1
  F  F20  1  0.61128361  0.00000000  0.50000000  1
