# generated using pymatgen
data_HfSnS3
_symmetry_space_group_name_H-M   'P 1'
_cell_length_a   3.71703667
_cell_length_b   9.50240027
_cell_length_c   14.26097291
_cell_angle_alpha   90.00000000
_cell_angle_beta   90.00000000
_cell_angle_gamma   90.00000000
_symmetry_Int_Tables_number   1
_chemical_formula_structural   HfSnS3
_chemical_formula_sum   'Hf4 Sn4 S12'
_cell_volume   503.70854779
_cell_formula_units_Z   4
loop_
 _symmetry_equiv_pos_site_id
 _symmetry_equiv_pos_as_xyz
  1  'x, y, z'
loop_
 _atom_site_type_symbol
 _atom_site_label
 _atom_site_symmetry_multiplicity
 _atom_site_fract_x
 _atom_site_fract_y
 _atom_site_fract_z
 _atom_site_occupancy
  S  S0  1  0.25000000  0.51394484  0.60447774  1
  S  S1  1  0.75000000  0.48605516  0.39552226  1
  S  S2  1  0.25000000  0.01394484  0.89552226  1
  S  S3  1  0.75000000  0.98605516  0.10447774  1
  S  S4  1  0.25000000  0.67990303  0.00552960  1
  S  S5  1  0.75000000  0.32009697  0.99447040  1
  S  S6  1  0.25000000  0.17990303  0.49447040  1
  S  S7  1  0.75000000  0.82009697  0.50552960  1
  S  S8  1  0.75000000  0.73815475  0.78838094  1
  S  S9  1  0.25000000  0.26184525  0.21161906  1
  S  S10  1  0.75000000  0.23815475  0.71161906  1
  S  S11  1  0.25000000  0.76184525  0.28838094  1
  Sn  Sn12  1  0.75000000  0.44361437  0.16620592  1
  Sn  Sn13  1  0.25000000  0.55638563  0.83379408  1
  Sn  Sn14  1  0.75000000  0.94361437  0.33379408  1
  Sn  Sn15  1  0.25000000  0.05638563  0.66620592  1
  Hf  Hf16  1  0.75000000  0.84458270  0.95085055  1
  Hf  Hf17  1  0.25000000  0.15541730  0.04914945  1
  Hf  Hf18  1  0.75000000  0.34458270  0.54914945  1
  Hf  Hf19  1  0.25000000  0.65541730  0.45085055  1
