# generated using pymatgen
data_BaYbCdSb2
_symmetry_space_group_name_H-M   'P 1'
_cell_length_a   4.77738950
_cell_length_b   7.46459786
_cell_length_c   9.73928111
_cell_angle_alpha   90.00000000
_cell_angle_beta   75.80256896
_cell_angle_gamma   90.00000000
_symmetry_Int_Tables_number   1
_chemical_formula_structural   BaYbCdSb2
_chemical_formula_sum   'Ba2 Yb2 Cd2 Sb4'
_cell_volume   336.70706287
_cell_formula_units_Z   2
loop_
 _symmetry_equiv_pos_site_id
 _symmetry_equiv_pos_as_xyz
  1  'x, y, z'
loop_
 _atom_site_type_symbol
 _atom_site_label
 _atom_site_symmetry_multiplicity
 _atom_site_fract_x
 _atom_site_fract_y
 _atom_site_fract_z
 _atom_site_occupancy
  Yb  Yb0  1  0.48023488  0.22350090  0.03953224  1
  Yb  Yb1  1  0.51976512  0.72350190  0.96046776  1
  Ba  Ba2  1  0.30244206  0.52467468  0.39511787  1
  Ba  Ba3  1  0.69755794  0.02467368  0.60488213  1
  Cd  Cd4  1  0.90677645  0.89363937  0.18644510  1
  Cd  Cd5  1  0.09322355  0.39363937  0.81355390  1
  Sb  Sb6  1  0.94101661  0.50329971  0.11796578  1
  Sb  Sb7  1  0.33396293  0.01074634  0.33207614  1
  Sb  Sb8  1  0.66603807  0.51074634  0.66792286  1
  Sb  Sb9  1  0.05898439  0.00329871  0.88203322  1
