# generated using pymatgen
data_Ba2YC2(O2F)3
_symmetry_space_group_name_H-M   'P 1'
_cell_length_a   7.08692235
_cell_length_b   9.60169047
_cell_length_c   11.91070339
_cell_angle_alpha   90.00000000
_cell_angle_beta   90.00000000
_cell_angle_gamma   90.00000000
_symmetry_Int_Tables_number   1
_chemical_formula_structural   Ba2YC2(O2F)3
_chemical_formula_sum   'Ba8 Y4 C8 O24 F12'
_cell_volume   810.48090153
_cell_formula_units_Z   4
loop_
 _symmetry_equiv_pos_site_id
 _symmetry_equiv_pos_as_xyz
  1  'x, y, z'
loop_
 _atom_site_type_symbol
 _atom_site_label
 _atom_site_symmetry_multiplicity
 _atom_site_fract_x
 _atom_site_fract_y
 _atom_site_fract_z
 _atom_site_occupancy
  C  C0  1  0.52053174  0.30590665  0.82017646  1
  C  C1  1  0.52053174  0.69409335  0.67982354  1
  C  C2  1  0.97946826  0.80590665  0.17982354  1
  C  C3  1  0.97946826  0.19409335  0.32017646  1
  C  C4  1  0.47946826  0.69409335  0.17982354  1
  C  C5  1  0.47946826  0.30590665  0.32017646  1
  C  C6  1  0.02053174  0.19409335  0.82017646  1
  C  C7  1  0.02053174  0.80590665  0.67982354  1
  O  O8  1  0.62005705  0.20253842  0.85368395  1
  O  O9  1  0.62005705  0.79746158  0.64631605  1
  O  O10  1  0.87994295  0.70253842  0.14631605  1
  O  O11  1  0.87994295  0.29746158  0.35368395  1
  O  O12  1  0.37994295  0.79746158  0.14631605  1
  O  O13  1  0.37994295  0.20253842  0.35368395  1
  O  O14  1  0.12005705  0.29746158  0.85368395  1
  O  O15  1  0.12005705  0.70253842  0.64631605  1
  O  O16  1  0.47830319  0.40866153  0.88732744  1
  O  O17  1  0.47830319  0.59133847  0.61267256  1
  O  O18  1  0.02169681  0.90866153  0.11267256  1
  O  O19  1  0.02169681  0.09133847  0.38732744  1
  O  O20  1  0.52169681  0.59133847  0.11267256  1
  O  O21  1  0.52169681  0.40866153  0.38732744  1
  O  O22  1  0.97830319  0.09133847  0.88732744  1
  O  O23  1  0.97830319  0.90866153  0.61267256  1
  O  O24  1  0.95737730  0.81493361  0.78298623  1
  O  O25  1  0.95737730  0.18506639  0.71701377  1
  O  O26  1  0.54262270  0.31493361  0.21701377  1
  O  O27  1  0.54262270  0.68506639  0.28298623  1
  O  O28  1  0.04262270  0.18506639  0.21701377  1
  O  O29  1  0.04262270  0.81493361  0.28298623  1
  O  O30  1  0.45737730  0.68506639  0.78298623  1
  O  O31  1  0.45737730  0.31493361  0.71701377  1
  F  F32  1  0.90181141  0.50000000  0.75000000  1
  F  F33  1  0.59818859  0.00000000  0.25000000  1
  F  F34  1  0.09818859  0.50000000  0.25000000  1
  F  F35  1  0.40181141  0.00000000  0.75000000  1
  F  F36  1  0.65031029  0.90606141  0.92206734  1
  F  F37  1  0.65031029  0.09393859  0.57793266  1
  F  F38  1  0.84968971  0.40606141  0.07793266  1
  F  F39  1  0.84968971  0.59393859  0.42206734  1
  F  F40  1  0.34968971  0.09393859  0.07793266  1
  F  F41  1  0.34968971  0.90606141  0.42206734  1
  F  F42  1  0.15031029  0.59393859  0.92206734  1
  F  F43  1  0.15031029  0.40606141  0.57793266  1
  Y  Y44  1  0.22817799  0.50000000  0.75000000  1
  Y  Y45  1  0.27182201  0.00000000  0.25000000  1
  Y  Y46  1  0.77182201  0.50000000  0.25000000  1
  Y  Y47  1  0.72817799  0.00000000  0.75000000  1
  Ba  Ba48  1  0.26255040  0.87980141  0.92878269  1
  Ba  Ba49  1  0.26255040  0.12019859  0.57121731  1
  Ba  Ba50  1  0.23744960  0.37980141  0.07121731  1
  Ba  Ba51  1  0.23744960  0.62019859  0.42878269  1
  Ba  Ba52  1  0.73744960  0.12019859  0.07121731  1
  Ba  Ba53  1  0.73744960  0.87980141  0.42878269  1
  Ba  Ba54  1  0.76255040  0.62019859  0.92878269  1
  Ba  Ba55  1  0.76255040  0.37980141  0.57121731  1
