# generated using pymatgen
data_Li9Co7O16
_symmetry_space_group_name_H-M   'P 1'
_cell_length_a   2.92743618
_cell_length_b   9.74655683
_cell_length_c   10.16183426
_cell_angle_alpha   102.34017806
_cell_angle_beta   90.00000000
_cell_angle_gamma   90.00000000
_symmetry_Int_Tables_number   1
_chemical_formula_structural   Li9Co7O16
_chemical_formula_sum   'Li9 Co7 O16'
_cell_volume   283.24292549
_cell_formula_units_Z   1
loop_
 _symmetry_equiv_pos_site_id
 _symmetry_equiv_pos_as_xyz
  1  'x, y, z'
loop_
 _atom_site_type_symbol
 _atom_site_label
 _atom_site_symmetry_multiplicity
 _atom_site_fract_x
 _atom_site_fract_y
 _atom_site_fract_z
 _atom_site_occupancy
  Li  Li0  1  0.50000000  0.00333914  0.24586130  1
  Li  Li1  1  0.50000000  -0.00126194  0.75179259  1
  Li  Li2  1  -0.00000000  0.24847731  0.36790689  1
  Li  Li3  1  0.00000000  0.25152269  0.88209311  1
  Li  Li4  1  0.50000000  0.50126194  0.49820741  1
  Li  Li5  1  0.50000000  0.49666086  0.00413870  1
  Li  Li6  1  -0.00000000  0.75000000  0.12500000  1
  Li  Li7  1  -0.00000000  0.75000000  0.62500000  1
  Li  Li8  1  0.50000000  0.25000000  0.12500000  1
  Co  Co9  1  -0.00000000  0.00562506  0.00492253  1
  Co  Co10  1  0.00000000  0.49437494  0.24507747  1
  Co  Co11  1  -0.00000000  0.00082794  0.49881752  1
  Co  Co12  1  0.50000000  0.25000000  0.62500000  1
  Co  Co13  1  0.00000000  0.49917206  0.75118248  1
  Co  Co14  1  0.50000000  0.74785795  0.37852227  1
  Co  Co15  1  0.50000000  0.75214205  0.87147773  1
  O  O16  1  0.50000000  0.88673451  0.04951772  1
  O  O17  1  0.50000000  0.87291965  0.55397661  1
  O  O18  1  0.00000000  0.11225072  0.17226335  1
  O  O19  1  -0.00000000  0.12532336  0.67687459  1
  O  O20  1  0.50000000  0.39399642  0.30299945  1
  O  O21  1  0.50000000  0.37122486  0.80032921  1
  O  O22  1  -0.00000000  0.62833443  0.92962730  1
  O  O23  1  0.00000000  0.62272295  0.42477348  1
  O  O24  1  0.50000000  0.12877514  0.44967079  1
  O  O25  1  0.50000000  0.10600358  0.94700055  1
  O  O26  1  0.00000000  0.37467664  0.57312541  1
  O  O27  1  -0.00000000  0.38774928  0.07773665  1
  O  O28  1  0.50000000  0.62708035  0.69602339  1
  O  O29  1  0.50000000  0.61326549  0.20048228  1
  O  O30  1  0.00000000  0.87166557  0.32037270  1
  O  O31  1  0.00000000  0.87727705  0.82522652  1
