# generated using pymatgen
data_LuAlB4
_symmetry_space_group_name_H-M   'P 1'
_cell_length_a   3.51211738
_cell_length_b   5.90125786
_cell_length_c   11.43137345
_cell_angle_alpha   90.00000000
_cell_angle_beta   90.00000000
_cell_angle_gamma   90.00000000
_symmetry_Int_Tables_number   1
_chemical_formula_structural   LuAlB4
_chemical_formula_sum   'Lu4 Al4 B16'
_cell_volume   236.92562066
_cell_formula_units_Z   4
loop_
 _symmetry_equiv_pos_site_id
 _symmetry_equiv_pos_as_xyz
  1  'x, y, z'
loop_
 _atom_site_type_symbol
 _atom_site_label
 _atom_site_symmetry_multiplicity
 _atom_site_fract_x
 _atom_site_fract_y
 _atom_site_fract_z
 _atom_site_occupancy
  B  B0  1  0.50000000  0.02584212  0.69337139  1
  B  B1  1  0.50000000  0.97415788  0.30662861  1
  B  B2  1  0.50000000  0.52584212  0.80662861  1
  B  B3  1  0.50000000  0.47415788  0.19337139  1
  B  B4  1  0.50000000  0.11424074  0.54742420  1
  B  B5  1  0.50000000  0.88575926  0.45257580  1
  B  B6  1  0.50000000  0.61424074  0.95257580  1
  B  B7  1  0.50000000  0.38575926  0.04742420  1
  B  B8  1  0.50000000  0.29123050  0.31257720  1
  B  B9  1  0.50000000  0.70876950  0.68742280  1
  B  B10  1  0.50000000  0.79123050  0.18742280  1
  B  B11  1  0.50000000  0.20876950  0.81257720  1
  B  B12  1  0.50000000  0.36742865  0.46940525  1
  B  B13  1  0.50000000  0.63257135  0.53059475  1
  B  B14  1  0.50000000  0.86742865  0.03059475  1
  B  B15  1  0.50000000  0.13257135  0.96940525  1
  Al  Al16  1  0.00000000  0.36209420  0.91027834  1
  Al  Al17  1  0.00000000  0.63790580  0.08972166  1
  Al  Al18  1  0.00000000  0.86209420  0.58972166  1
  Al  Al19  1  0.00000000  0.13790580  0.41027834  1
  Lu  Lu20  1  0.00000000  0.37014923  0.65009885  1
  Lu  Lu21  1  0.00000000  0.62985077  0.34990115  1
  Lu  Lu22  1  0.00000000  0.87014923  0.84990115  1
  Lu  Lu23  1  0.00000000  0.12985077  0.15009885  1
