# generated using pymatgen
data_CaP3
_symmetry_space_group_name_H-M   'P 1'
_cell_length_a   5.60947223
_cell_length_b   5.63901585
_cell_length_c   5.69460527
_cell_angle_alpha   70.07614886
_cell_angle_beta   79.62722172
_cell_angle_gamma   74.68433950
_symmetry_Int_Tables_number   1
_chemical_formula_structural   CaP3
_chemical_formula_sum   'Ca2 P6'
_cell_volume   162.52798956
_cell_formula_units_Z   2
loop_
 _symmetry_equiv_pos_site_id
 _symmetry_equiv_pos_as_xyz
  1  'x, y, z'
loop_
 _atom_site_type_symbol
 _atom_site_label
 _atom_site_symmetry_multiplicity
 _atom_site_fract_x
 _atom_site_fract_y
 _atom_site_fract_z
 _atom_site_occupancy
  P  P0  1  0.59892760  0.80001403  0.10156561  1
  P  P1  1  0.40107240  0.19998597  0.89843439  1
  P  P2  1  0.00483010  0.19942676  0.99948310  1
  P  P3  1  0.99516990  0.80057324  0.00051690  1
  P  P4  1  0.12711248  0.82234535  0.60578067  1
  P  P5  1  0.87288752  0.17765465  0.39421933  1
  Ca  Ca6  1  0.67571340  0.64283859  0.64789806  1
  Ca  Ca7  1  0.32428660  0.35716141  0.35210194  1
