# generated using pymatgen
data_PmI3
_symmetry_space_group_name_H-M   'P 1'
_cell_length_a   11.49968492
_cell_length_b   11.49968411
_cell_length_c   4.10335843
_cell_angle_alpha   90.00000000
_cell_angle_beta   90.00000000
_cell_angle_gamma   119.99999461
_symmetry_Int_Tables_number   1
_chemical_formula_structural   PmI3
_chemical_formula_sum   'Pm2 I6'
_cell_volume   469.93951208
_cell_formula_units_Z   2
loop_
 _symmetry_equiv_pos_site_id
 _symmetry_equiv_pos_as_xyz
  1  'x, y, z'
loop_
 _atom_site_type_symbol
 _atom_site_label
 _atom_site_symmetry_multiplicity
 _atom_site_fract_x
 _atom_site_fract_y
 _atom_site_fract_z
 _atom_site_occupancy
  Pm  Pm0  1  0.33333300  0.66666500  0.74999861  1
  Pm  Pm1  1  0.66666700  0.33333300  0.25000039  1
  I  I2  1  0.21442346  0.42884691  0.24999944  1
  I  I3  1  0.57115209  0.78557554  0.24999944  1
  I  I4  1  0.21442246  0.78557554  0.24999944  1
  I  I5  1  0.78557754  0.57115409  0.74999956  1
  I  I6  1  0.42884591  0.21442346  0.74999956  1
  I  I7  1  0.78557554  0.21442346  0.74999956  1
