# generated using pymatgen
data_Pr3AgGeS7
_symmetry_space_group_name_H-M   'P 1'
_cell_length_a   10.37398628
_cell_length_b   10.37394544
_cell_length_c   5.88615497
_cell_angle_alpha   90.00000000
_cell_angle_beta   90.00000000
_cell_angle_gamma   120.00705741
_symmetry_Int_Tables_number   1
_chemical_formula_structural   Pr3AgGeS7
_chemical_formula_sum   'Pr6 Ag2 Ge2 S14'
_cell_volume   548.55611787
_cell_formula_units_Z   2
loop_
 _symmetry_equiv_pos_site_id
 _symmetry_equiv_pos_as_xyz
  1  'x, y, z'
loop_
 _atom_site_type_symbol
 _atom_site_label
 _atom_site_symmetry_multiplicity
 _atom_site_fract_x
 _atom_site_fract_y
 _atom_site_fract_z
 _atom_site_occupancy
  Pr  Pr0  1  0.12991153  0.35977697  0.25408652  1
  Pr  Pr1  1  0.87008747  0.64022303  0.75408652  1
  Pr  Pr2  1  0.64022632  0.77010020  0.25409600  1
  Pr  Pr3  1  0.22988242  0.87011193  0.25412531  1
  Pr  Pr4  1  0.77011758  0.12988807  0.75412631  1
  Pr  Pr5  1  0.35977268  0.22989980  0.75409600  1
  Ag  Ag6  1  0.99999777  0.99998373  0.31431871  1
  Ag  Ag7  1  0.00000223  0.00001727  0.81431971  1
  Ge  Ge8  1  0.33331569  0.66668930  0.67158917  1
  Ge  Ge9  1  0.66668531  0.33331170  0.17159017  1
  S  S10  1  0.33333477  0.66668589  0.04698981  1
  S  S11  1  0.66666523  0.33331411  0.54698981  1
  S  S12  1  0.41592779  0.52265080  0.51748727  1
  S  S13  1  0.58407221  0.47734920  0.01748627  1
  S  S14  1  0.47739211  0.89333563  0.51743547  1
  S  S15  1  0.10665130  0.58402519  0.51746962  1
  S  S16  1  0.89334970  0.41597481  0.01746862  1
  S  S17  1  0.52260889  0.10666537  0.01743547  1
  S  S18  1  0.09815161  0.26962979  0.77443498  1
  S  S19  1  0.90184839  0.73036921  0.27443498  1
  S  S20  1  0.73037708  0.82851745  0.77446151  1
  S  S21  1  0.17145912  0.90186877  0.77450262  1
  S  S22  1  0.82854088  0.09813323  0.27450262  1
  S  S23  1  0.26962192  0.17148255  0.27446151  1
