# generated using pymatgen
data_Rb2VAgS4
_symmetry_space_group_name_H-M   'P 1'
_cell_length_a   5.85069107
_cell_length_b   7.46734355
_cell_length_c   12.22083833
_cell_angle_alpha   84.61918055
_cell_angle_beta   76.15042988
_cell_angle_gamma   66.93645237
_symmetry_Int_Tables_number   1
_chemical_formula_structural   Rb2VAgS4
_chemical_formula_sum   'Rb4 V2 Ag2 S8'
_cell_volume   476.96051338
_cell_formula_units_Z   2
loop_
 _symmetry_equiv_pos_site_id
 _symmetry_equiv_pos_as_xyz
  1  'x, y, z'
loop_
 _atom_site_type_symbol
 _atom_site_label
 _atom_site_symmetry_multiplicity
 _atom_site_fract_x
 _atom_site_fract_y
 _atom_site_fract_z
 _atom_site_occupancy
  S  S0  1  0.86890196  0.55934274  0.85849544  1
  S  S1  1  0.27260260  0.94065726  0.85849544  1
  S  S2  1  0.57175530  0.55934274  0.64150456  1
  S  S3  1  0.78674014  0.94065726  0.64150456  1
  S  S4  1  0.42824470  0.44065726  0.35849544  1
  S  S5  1  0.21325986  0.05934274  0.35849544  1
  S  S6  1  0.72739740  0.05934274  0.14150456  1
  S  S7  1  0.13109804  0.44065726  0.14150456  1
  V  V8  1  0.62500000  0.75000000  0.75000000  1
  V  V9  1  0.37500000  0.25000000  0.25000000  1
  Rb  Rb10  1  0.44580203  0.75000000  0.10839595  1
  Rb  Rb11  1  0.19580203  0.25000000  0.60839595  1
  Rb  Rb12  1  0.80419797  0.75000000  0.39160405  1
  Rb  Rb13  1  0.55419797  0.25000000  0.89160405  1
  Ag  Ag14  1  0.12500000  0.75000000  0.75000000  1
  Ag  Ag15  1  0.87500000  0.25000000  0.25000000  1
