# generated using pymatgen
data_Li7Mn2(CoO4)3
_symmetry_space_group_name_H-M   'P 1'
_cell_length_a   2.88738535
_cell_length_b   7.82319065
_cell_length_c   9.82673908
_cell_angle_alpha   86.30318808
_cell_angle_beta   81.55182679
_cell_angle_gamma   100.63432558
_symmetry_Int_Tables_number   1
_chemical_formula_structural   Li7Mn2(CoO4)3
_chemical_formula_sum   'Li7 Mn2 Co3 O12'
_cell_volume   214.83256038
_cell_formula_units_Z   1
loop_
 _symmetry_equiv_pos_site_id
 _symmetry_equiv_pos_as_xyz
  1  'x, y, z'
loop_
 _atom_site_type_symbol
 _atom_site_label
 _atom_site_symmetry_multiplicity
 _atom_site_fract_x
 _atom_site_fract_y
 _atom_site_fract_z
 _atom_site_occupancy
  Li  Li0  1  0.57418737  0.91042062  0.76204488  1
  Li  Li1  1  0.42409978  0.08774775  0.23954919  1
  Li  Li2  1  0.24907277  0.26296385  0.76481831  1
  Li  Li3  1  0.09413788  0.41701559  0.22873883  1
  Li  Li4  1  0.74886647  0.74093236  0.24319942  1
  Li  Li5  1  0.91334308  0.58452647  0.75784131  1
  Li  Li6  1  0.66497168  0.33193925  0.00199690  1
  Mn  Mn7  1  0.00118792  0.00703448  0.00465864  1
  Mn  Mn8  1  0.83171188  0.16782094  0.50439618  1
  Co  Co9  1  0.50522606  0.50580402  0.49535191  1
  Co  Co10  1  0.32647527  0.64405870  0.99110716  1
  Co  Co11  1  0.16422657  0.83016422  0.50171209  1
  O  O12  1  0.38743591  0.88661134  0.11174052  1
  O  O13  1  0.22282378  0.06187271  0.61622515  1
  O  O14  1  0.03633680  0.18998289  0.11730828  1
  O  O15  1  0.87971543  0.36904035  0.60961049  1
  O  O16  1  0.55067469  0.71370848  0.61235809  1
  O  O17  1  0.71963023  0.55339002  0.11412956  1
  O  O18  1  0.78060287  0.96078645  0.39958071  1
  O  O19  1  0.61024297  0.10947460  0.88898767  1
  O  O20  1  0.44148651  0.27381569  0.39084367  1
  O  O21  1  0.29955862  0.47393557  0.87481833  1
  O  O22  1  0.95291988  0.79759202  0.89175326  1
  O  O23  1  0.12106560  0.61936165  0.37722946  1
