# generated using pymatgen
data_NbNiTe5
_symmetry_space_group_name_H-M   'P 1'
_cell_length_a   3.70803607
_cell_length_b   7.12449831
_cell_length_c   15.27028883
_cell_angle_alpha   90.00000000
_cell_angle_beta   90.00000000
_cell_angle_gamma   105.08379187
_symmetry_Int_Tables_number   1
_chemical_formula_structural   NbNiTe5
_chemical_formula_sum   'Nb2 Ni2 Te10'
_cell_volume   389.50997763
_cell_formula_units_Z   2
loop_
 _symmetry_equiv_pos_site_id
 _symmetry_equiv_pos_as_xyz
  1  'x, y, z'
loop_
 _atom_site_type_symbol
 _atom_site_label
 _atom_site_symmetry_multiplicity
 _atom_site_fract_x
 _atom_site_fract_y
 _atom_site_fract_z
 _atom_site_occupancy
  Ni  Ni0  1  0.00000000  0.00000000  0.50000000  1
  Ni  Ni1  1  0.00000000  0.00000000  0.00000000  1
  Nb  Nb2  1  0.50941092  0.01882184  0.25000000  1
  Nb  Nb3  1  0.49058908  0.98117816  0.75000000  1
  Te  Te4  1  0.60012257  0.20024514  0.42385072  1
  Te  Te5  1  0.39987743  0.79975486  0.57614928  1
  Te  Te6  1  0.39987743  0.79975486  0.92385072  1
  Te  Te7  1  0.60012257  0.20024514  0.07614928  1
  Te  Te8  1  0.16723128  0.33446255  0.25000000  1
  Te  Te9  1  0.83276872  0.66553745  0.75000000  1
  Te  Te10  1  0.09922964  0.19845928  0.64514676  1
  Te  Te11  1  0.90077036  0.80154072  0.35485324  1
  Te  Te12  1  0.90077036  0.80154072  0.14514676  1
  Te  Te13  1  0.09922964  0.19845928  0.85485324  1
