# generated using pymatgen
data_PmBr3
_symmetry_space_group_name_H-M   'P 1'
_cell_length_a   10.53808761
_cell_length_b   10.53808783
_cell_length_c   3.87198678
_cell_angle_alpha   90.00000000
_cell_angle_beta   90.00000000
_cell_angle_gamma   120.00000878
_symmetry_Int_Tables_number   1
_chemical_formula_structural   PmBr3
_chemical_formula_sum   'Pm2 Br6'
_cell_volume   372.38148354
_cell_formula_units_Z   2
loop_
 _symmetry_equiv_pos_site_id
 _symmetry_equiv_pos_as_xyz
  1  'x, y, z'
loop_
 _atom_site_type_symbol
 _atom_site_label
 _atom_site_symmetry_multiplicity
 _atom_site_fract_x
 _atom_site_fract_y
 _atom_site_fract_z
 _atom_site_occupancy
  Pm  Pm0  1  0.66666600  0.33333400  0.24999900  1
  Pm  Pm1  1  0.33333400  0.66666800  0.75000000  1
  Br  Br2  1  0.78506699  0.21493501  0.75000000  1
  Br  Br3  1  0.42986702  0.21493501  0.75000000  1
  Br  Br4  1  0.78506599  0.57013398  0.75000000  1
  Br  Br5  1  0.21493301  0.78506599  0.24999900  1
  Br  Br6  1  0.57013298  0.78506599  0.24999900  1
  Br  Br7  1  0.21493401  0.42986902  0.24999900  1
