# generated using pymatgen
data_Mn2VGe
_symmetry_space_group_name_H-M   'P 1'
_cell_length_a   4.07603364
_cell_length_b   4.07717294
_cell_length_c   4.07764062
_cell_angle_alpha   60.00344943
_cell_angle_beta   60.01983242
_cell_angle_gamma   60.02000467
_symmetry_Int_Tables_number   1
_chemical_formula_structural   Mn2VGe
_chemical_formula_sum   'Mn2 V1 Ge1'
_cell_volume   47.93280612
_cell_formula_units_Z   1
loop_
 _symmetry_equiv_pos_site_id
 _symmetry_equiv_pos_as_xyz
  1  'x, y, z'
loop_
 _atom_site_type_symbol
 _atom_site_label
 _atom_site_symmetry_multiplicity
 _atom_site_fract_x
 _atom_site_fract_y
 _atom_site_fract_z
 _atom_site_occupancy
  Mn  Mn0  1  0.00003682  0.00008646  0.00002331  1
  Mn  Mn1  1  0.49993501  0.49993355  0.50001622  1
  V  V2  1  0.75000466  0.74997812  0.74996075  1
  Ge  Ge3  1  0.25002151  0.24999987  0.24999772  1
