# generated using pymatgen
data_CsBeAsO4
_symmetry_space_group_name_H-M   'P 1'
_cell_length_a   5.23421111
_cell_length_b   8.98364104
_cell_length_c   9.55200168
_cell_angle_alpha   90.00000000
_cell_angle_beta   90.00000000
_cell_angle_gamma   90.00000000
_symmetry_Int_Tables_number   1
_chemical_formula_structural   CsBeAsO4
_chemical_formula_sum   'Cs4 Be4 As4 O16'
_cell_volume   449.15683776
_cell_formula_units_Z   4
loop_
 _symmetry_equiv_pos_site_id
 _symmetry_equiv_pos_as_xyz
  1  'x, y, z'
loop_
 _atom_site_type_symbol
 _atom_site_label
 _atom_site_symmetry_multiplicity
 _atom_site_fract_x
 _atom_site_fract_y
 _atom_site_fract_z
 _atom_site_occupancy
  Be  Be0  1  0.99844936  0.09626695  0.66921817  1
  Be  Be1  1  0.49844936  0.59626695  0.83078183  1
  Be  Be2  1  0.99844936  0.40373305  0.16921817  1
  Be  Be3  1  0.49844936  0.90373305  0.33078183  1
  O  O4  1  0.01673460  0.12768653  0.50029972  1
  O  O5  1  0.51673460  0.62768653  0.99970028  1
  O  O6  1  0.01673460  0.37231347  0.00029972  1
  O  O7  1  0.51673460  0.87231347  0.49970028  1
  O  O8  1  0.69549023  0.46377854  0.77702580  1
  O  O9  1  0.19549023  0.53622146  0.22297420  1
  O  O10  1  0.69549023  0.03622146  0.27702580  1
  O  O11  1  0.19549023  0.96377854  0.72297420  1
  O  O12  1  0.58972552  0.75639492  0.76066256  1
  O  O13  1  0.08972552  0.24360508  0.23933744  1
  O  O14  1  0.58972552  0.74360508  0.26066256  1
  O  O15  1  0.08972552  0.25639492  0.73933744  1
  O  O16  1  0.70685523  0.44499303  0.22138007  1
  O  O17  1  0.20685523  0.55500697  0.77861993  1
  O  O18  1  0.70685523  0.05500697  0.72138007  1
  O  O19  1  0.20685523  0.94499303  0.27861993  1
  As  As20  1  0.50006133  0.91439549  0.67380968  1
  As  As21  1  0.00006133  0.08560451  0.32619032  1
  As  As22  1  0.50006133  0.58560451  0.17380968  1
  As  As23  1  0.00006133  0.41439549  0.82619032  1
  Cs  Cs24  1  0.49868372  0.31823897  0.50701946  1
  Cs  Cs25  1  0.99868372  0.68176103  0.49298054  1
  Cs  Cs26  1  0.49868372  0.18176103  0.00701946  1
  Cs  Cs27  1  0.99868372  0.81823897  0.99298054  1
