# generated using pymatgen
data_PrBS3
_symmetry_space_group_name_H-M   'P 1'
_cell_length_a   7.67603232
_cell_length_b   6.03267374
_cell_length_c   8.99600094
_cell_angle_alpha   90.00000000
_cell_angle_beta   90.00000000
_cell_angle_gamma   90.00000000
_symmetry_Int_Tables_number   1
_chemical_formula_structural   PrBS3
_chemical_formula_sum   'Pr4 B4 S12'
_cell_volume   416.57780297
_cell_formula_units_Z   4
loop_
 _symmetry_equiv_pos_site_id
 _symmetry_equiv_pos_as_xyz
  1  'x, y, z'
loop_
 _atom_site_type_symbol
 _atom_site_label
 _atom_site_symmetry_multiplicity
 _atom_site_fract_x
 _atom_site_fract_y
 _atom_site_fract_z
 _atom_site_occupancy
  Pr  Pr0  1  0.88595569  0.07079592  0.43320525  1
  Pr  Pr1  1  0.11404431  0.92920408  0.93320425  1
  Pr  Pr2  1  0.61404531  0.57079592  0.93320425  1
  Pr  Pr3  1  0.38595469  0.42920408  0.43320525  1
  B  B4  1  0.85377272  0.59622147  0.60438679  1
  B  B5  1  0.14622628  0.40378053  0.10438579  1
  B  B6  1  0.64622628  0.09622147  0.10438579  1
  B  B7  1  0.35377372  0.90378053  0.60438679  1
  S  S8  1  0.82688612  0.83463502  0.72659332  1
  S  S9  1  0.17311388  0.16536498  0.22659332  1
  S  S10  1  0.67311288  0.33463502  0.22659332  1
  S  S11  1  0.32688712  0.66536498  0.72659332  1
  S  S12  1  0.20426973  0.13406298  0.63555894  1
  S  S13  1  0.79573127  0.86593502  0.13555894  1
  S  S14  1  0.29573127  0.63406298  0.13555894  1
  S  S15  1  0.70426873  0.36593702  0.63555894  1
  S  S16  1  0.99796864  0.59568800  0.44607569  1
  S  S17  1  0.00203036  0.40431300  0.94607469  1
  S  S18  1  0.50203136  0.09568800  0.94607469  1
  S  S19  1  0.49796964  0.90431300  0.44607569  1
