# generated using pymatgen
data_Ho2S3
_symmetry_space_group_name_H-M   'P 1'
_cell_length_a   4.01428142
_cell_length_b   10.15995695
_cell_length_c   17.60158648
_cell_angle_alpha   98.61127621
_cell_angle_beta   90.00000000
_cell_angle_gamma   90.00000000
_symmetry_Int_Tables_number   1
_chemical_formula_structural   Ho2S3
_chemical_formula_sum   'Ho12 S18'
_cell_volume   709.78670602
_cell_formula_units_Z   6
loop_
 _symmetry_equiv_pos_site_id
 _symmetry_equiv_pos_as_xyz
  1  'x, y, z'
loop_
 _atom_site_type_symbol
 _atom_site_label
 _atom_site_symmetry_multiplicity
 _atom_site_fract_x
 _atom_site_fract_y
 _atom_site_fract_z
 _atom_site_occupancy
  S  S0  1  0.75000000  0.63260193  0.46858402  1
  S  S1  1  0.25000000  0.36739807  0.53141598  1
  S  S2  1  0.75000000  0.68125816  0.81860210  1
  S  S3  1  0.25000000  0.31874184  0.18139790  1
  S  S4  1  0.75000000  0.04875338  0.07571440  1
  S  S5  1  0.25000000  0.95124662  0.92428560  1
  S  S6  1  0.75000000  0.28981834  0.36890398  1
  S  S7  1  0.25000000  0.71018166  0.63109602  1
  S  S8  1  0.75000000  0.99263029  0.73177142  1
  S  S9  1  0.25000000  0.00736971  0.26822858  1
  S  S10  1  0.75000000  0.36240555  0.71814680  1
  S  S11  1  0.25000000  0.63759445  0.28185320  1
  S  S12  1  0.25000000  0.05207429  0.57519756  1
  S  S13  1  0.75000000  0.94792571  0.42480244  1
  S  S14  1  0.25000000  0.26876162  0.87304547  1
  S  S15  1  0.75000000  0.73123838  0.12695453  1
  S  S16  1  0.25000000  0.61528949  0.96727756  1
  S  S17  1  0.75000000  0.38471051  0.03272244  1
  Ho  Ho18  1  0.75000000  0.45091111  0.88535144  1
  Ho  Ho19  1  0.25000000  0.54908889  0.11464856  1
  Ho  Ho20  1  0.75000000  0.51324404  0.60067879  1
  Ho  Ho21  1  0.25000000  0.48675596  0.39932121  1
  Ho  Ho22  1  0.75000000  0.81214270  0.27932053  1
  Ho  Ho23  1  0.25000000  0.18785730  0.72067947  1
  Ho  Ho24  1  0.75000000  0.17036941  0.21838244  1
  Ho  Ho25  1  0.25000000  0.82963059  0.78161756  1
  Ho  Ho26  1  0.75000000  0.87604213  0.57012753  1
  Ho  Ho27  1  0.25000000  0.12395787  0.42987247  1
  Ho  Ho28  1  0.75000000  0.81107671  0.97951015  1
  Ho  Ho29  1  0.25000000  0.18892329  0.02048985  1
