# generated using pymatgen
data_KAlAs2O7
_symmetry_space_group_name_H-M   'P 1'
_cell_length_a   6.30575944
_cell_length_b   6.39044153
_cell_length_c   8.32499702
_cell_angle_alpha   96.79877936
_cell_angle_beta   104.57823046
_cell_angle_gamma   102.49408929
_symmetry_Int_Tables_number   1
_chemical_formula_structural   KAlAs2O7
_chemical_formula_sum   'K2 Al2 As4 O14'
_cell_volume   311.63183763
_cell_formula_units_Z   2
loop_
 _symmetry_equiv_pos_site_id
 _symmetry_equiv_pos_as_xyz
  1  'x, y, z'
loop_
 _atom_site_type_symbol
 _atom_site_label
 _atom_site_symmetry_multiplicity
 _atom_site_fract_x
 _atom_site_fract_y
 _atom_site_fract_z
 _atom_site_occupancy
  O  O0  1  0.90630644  0.31256085  0.72258877  1
  O  O1  1  0.09369356  0.68743915  0.27741123  1
  O  O2  1  0.33761782  0.28858543  0.81599518  1
  O  O3  1  0.66238218  0.71141457  0.18400482  1
  O  O4  1  0.21751453  0.64942785  0.99019697  1
  O  O5  1  0.78248547  0.35057215  0.00980303  1
  O  O6  1  0.22224687  0.63708912  0.65522735  1
  O  O7  1  0.77775313  0.36291088  0.34477265  1
  O  O8  1  0.41383756  0.98974203  0.22064566  1
  O  O9  1  0.58616244  0.01025797  0.77935434  1
  O  O10  1  0.45875812  0.24787420  0.53332966  1
  O  O11  1  0.54124188  0.75212580  0.46667034  1
  O  O12  1  0.31991122  0.38122230  0.21983228  1
  O  O13  1  0.68008878  0.61877770  0.78016772  1
  Al  Al14  1  0.62530052  0.31119920  0.77216025  1
  Al  Al15  1  0.37469948  0.68880080  0.22783975  1
  K  K16  1  0.00000000  0.00000000  0.50000000  1
  K  K17  1  0.00000000  0.00000000  0.00000000  1
  As  As18  1  0.17547297  0.47039732  0.81186135  1
  As  As19  1  0.82452703  0.52960268  0.18813865  1
  As  As20  1  0.51241371  0.75629440  0.66406743  1
  As  As21  1  0.48758629  0.24370560  0.33593257  1
