# generated using pymatgen
data_Ba2GdC2(O2F)3
_symmetry_space_group_name_H-M   'P 1'
_cell_length_a   7.10297672
_cell_length_b   9.65597358
_cell_length_c   11.95948181
_cell_angle_alpha   90.00000000
_cell_angle_beta   90.00000000
_cell_angle_gamma   90.00000000
_symmetry_Int_Tables_number   1
_chemical_formula_structural   Ba2GdC2(O2F)3
_chemical_formula_sum   'Ba8 Gd4 C8 O24 F12'
_cell_volume   820.25487969
_cell_formula_units_Z   4
loop_
 _symmetry_equiv_pos_site_id
 _symmetry_equiv_pos_as_xyz
  1  'x, y, z'
loop_
 _atom_site_type_symbol
 _atom_site_label
 _atom_site_symmetry_multiplicity
 _atom_site_fract_x
 _atom_site_fract_y
 _atom_site_fract_z
 _atom_site_occupancy
  C  C0  1  0.52064087  0.30585856  0.82134113  1
  C  C1  1  0.52064087  0.69414144  0.67865887  1
  C  C2  1  0.97935913  0.80585856  0.17865887  1
  C  C3  1  0.97935913  0.19414144  0.32134113  1
  C  C4  1  0.47935913  0.69414144  0.17865887  1
  C  C5  1  0.47935913  0.30585856  0.32134113  1
  C  C6  1  0.02064087  0.19414144  0.82134113  1
  C  C7  1  0.02064087  0.80585856  0.67865887  1
  O  O8  1  0.61854655  0.20310751  0.85615109  1
  O  O9  1  0.61854655  0.79689249  0.64384891  1
  O  O10  1  0.88145345  0.70310751  0.14384891  1
  O  O11  1  0.88145345  0.29689249  0.35615109  1
  O  O12  1  0.38145345  0.79689249  0.14384891  1
  O  O13  1  0.38145345  0.20310751  0.35615109  1
  O  O14  1  0.11854655  0.29689249  0.85615109  1
  O  O15  1  0.11854655  0.70310751  0.64384891  1
  O  O16  1  0.47851046  0.40911228  0.88725169  1
  O  O17  1  0.47851046  0.59088772  0.61274831  1
  O  O18  1  0.02148954  0.90911228  0.11274831  1
  O  O19  1  0.02148954  0.09088772  0.38725169  1
  O  O20  1  0.52148954  0.59088772  0.11274831  1
  O  O21  1  0.52148954  0.40911228  0.38725169  1
  O  O22  1  0.97851046  0.09088772  0.88725169  1
  O  O23  1  0.97851046  0.90911228  0.61274831  1
  O  O24  1  0.95924304  0.81328961  0.78185020  1
  O  O25  1  0.95924304  0.18671039  0.71814980  1
  O  O26  1  0.54075696  0.31328961  0.21814980  1
  O  O27  1  0.54075696  0.68671039  0.28185020  1
  O  O28  1  0.04075696  0.18671039  0.21814980  1
  O  O29  1  0.04075696  0.81328961  0.28185020  1
  O  O30  1  0.45924304  0.68671039  0.78185020  1
  O  O31  1  0.45924304  0.31328961  0.71814980  1
  F  F32  1  0.89722489  0.50000000  0.75000000  1
  F  F33  1  0.60277511  0.00000000  0.25000000  1
  F  F34  1  0.10277511  0.50000000  0.25000000  1
  F  F35  1  0.39722489  0.00000000  0.75000000  1
  F  F36  1  0.64918485  0.90476344  0.92427563  1
  F  F37  1  0.64918485  0.09523656  0.57572437  1
  F  F38  1  0.85081515  0.40476344  0.07572437  1
  F  F39  1  0.85081515  0.59523656  0.42427563  1
  F  F40  1  0.35081515  0.09523656  0.07572437  1
  F  F41  1  0.35081515  0.90476344  0.42427563  1
  F  F42  1  0.14918485  0.59523656  0.92427563  1
  F  F43  1  0.14918485  0.40476344  0.57572437  1
  Ba  Ba44  1  0.76172093  0.37997012  0.57130729  1
  Ba  Ba45  1  0.76172093  0.62002988  0.92869271  1
  Ba  Ba46  1  0.73827907  0.87997012  0.42869271  1
  Ba  Ba47  1  0.73827907  0.12002988  0.07130729  1
  Ba  Ba48  1  0.26172093  0.87997012  0.92869271  1
  Ba  Ba49  1  0.26172093  0.12002988  0.57130729  1
  Ba  Ba50  1  0.23827907  0.37997012  0.07130729  1
  Ba  Ba51  1  0.23827907  0.62002988  0.42869271  1
  Gd  Gd52  1  0.72744421  0.00000000  0.75000000  1
  Gd  Gd53  1  0.77255579  0.50000000  0.25000000  1
  Gd  Gd54  1  0.27255579  0.00000000  0.25000000  1
  Gd  Gd55  1  0.22744421  0.50000000  0.75000000  1
