# generated using pymatgen
data_La10Se19
_symmetry_space_group_name_H-M   'P 1'
_cell_length_a   9.50443777
_cell_length_b   9.50443777
_cell_length_c   17.22101829
_cell_angle_alpha   90.00000000
_cell_angle_beta   90.00000000
_cell_angle_gamma   90.00000000
_symmetry_Int_Tables_number   1
_chemical_formula_structural   La10Se19
_chemical_formula_sum   'La20 Se38'
_cell_volume   1555.64927527
_cell_formula_units_Z   2
loop_
 _symmetry_equiv_pos_site_id
 _symmetry_equiv_pos_as_xyz
  1  'x, y, z'
loop_
 _atom_site_type_symbol
 _atom_site_label
 _atom_site_symmetry_multiplicity
 _atom_site_fract_x
 _atom_site_fract_y
 _atom_site_fract_z
 _atom_site_occupancy
  Se  Se0  1  0.75000000  0.25000000  0.06591327  1
  Se  Se1  1  0.75000000  0.25000000  0.56591327  1
  Se  Se2  1  0.25000000  0.75000000  0.93408673  1
  Se  Se3  1  0.25000000  0.75000000  0.43408673  1
  Se  Se4  1  0.85085814  0.55247365  0.93611489  1
  Se  Se5  1  0.44752635  0.35085814  0.43611489  1
  Se  Se6  1  0.05247365  0.14914186  0.43611489  1
  Se  Se7  1  0.64914186  0.94752635  0.93611489  1
  Se  Se8  1  0.14914186  0.44752635  0.06388511  1
  Se  Se9  1  0.55247365  0.64914186  0.56388511  1
  Se  Se10  1  0.94752635  0.85085814  0.56388511  1
  Se  Se11  1  0.35085814  0.05247365  0.06388511  1
  Se  Se12  1  0.45156213  0.34786364  0.92675911  1
  Se  Se13  1  0.65213636  0.95156213  0.42675911  1
  Se  Se14  1  0.84786364  0.54843787  0.42675911  1
  Se  Se15  1  0.04843787  0.15213636  0.92675911  1
  Se  Se16  1  0.54843787  0.65213636  0.07324089  1
  Se  Se17  1  0.34786364  0.04843787  0.57324089  1
  Se  Se18  1  0.15213636  0.45156213  0.57324089  1
  Se  Se19  1  0.95156213  0.84786364  0.07324089  1
  Se  Se20  1  0.88570046  0.06902772  0.24899195  1
  Se  Se21  1  0.93097228  0.38570046  0.74899195  1
  Se  Se22  1  0.56902772  0.11429954  0.74899195  1
  Se  Se23  1  0.61429954  0.43097228  0.24899195  1
  Se  Se24  1  0.11429954  0.93097228  0.75100805  1
  Se  Se25  1  0.06902772  0.61429954  0.25100805  1
  Se  Se26  1  0.43097228  0.88570046  0.25100805  1
  Se  Se27  1  0.38570046  0.56902772  0.75100805  1
  Se  Se28  1  0.97083662  0.32523831  0.25040194  1
  Se  Se29  1  0.67476169  0.47083662  0.75040194  1
  Se  Se30  1  0.82523831  0.02916338  0.75040194  1
  Se  Se31  1  0.52916338  0.17476169  0.25040194  1
  Se  Se32  1  0.02916338  0.67476169  0.74959806  1
  Se  Se33  1  0.32523831  0.52916338  0.24959806  1
  Se  Se34  1  0.17476169  0.97083662  0.24959806  1
  Se  Se35  1  0.47083662  0.82523831  0.74959806  1
  Se  Se36  1  0.75000000  0.75000000  0.25000000  1
  Se  Se37  1  0.25000000  0.25000000  0.75000000  1
  La  La38  1  0.25000000  0.75000000  0.11563841  1
  La  La39  1  0.25000000  0.75000000  0.61563841  1
  La  La40  1  0.75000000  0.25000000  0.88436159  1
  La  La41  1  0.75000000  0.25000000  0.38436159  1
  La  La42  1  0.55350279  0.64871683  0.89611521  1
  La  La43  1  0.35128317  0.05350279  0.39611521  1
  La  La44  1  0.14871683  0.44649721  0.39611521  1
  La  La45  1  0.94649721  0.85128317  0.89611521  1
  La  La46  1  0.44649721  0.35128317  0.10388479  1
  La  La47  1  0.64871683  0.94649721  0.60388479  1
  La  La48  1  0.85128317  0.55350279  0.60388479  1
  La  La49  1  0.05350279  0.14871683  0.10388479  1
  La  La50  1  0.45616365  0.34690984  0.61969120  1
  La  La51  1  0.65309016  0.95616365  0.11969120  1
  La  La52  1  0.84690984  0.54383635  0.11969120  1
  La  La53  1  0.04383635  0.15309016  0.61969120  1
  La  La54  1  0.54383635  0.65309016  0.38030880  1
  La  La55  1  0.34690984  0.04383635  0.88030880  1
  La  La56  1  0.15309016  0.45616365  0.88030880  1
  La  La57  1  0.95616365  0.84690984  0.38030880  1
