# generated using pymatgen
data_Hg3(AsO4)2
_symmetry_space_group_name_H-M   'P 1'
_cell_length_a   6.67688442
_cell_length_b   10.37951419
_cell_length_c   12.03452952
_cell_angle_alpha   90.00000000
_cell_angle_beta   90.00000000
_cell_angle_gamma   99.34029864
_symmetry_Int_Tables_number   1
_chemical_formula_structural   Hg3(AsO4)2
_chemical_formula_sum   'Hg12 As8 O32'
_cell_volume   822.96910589
_cell_formula_units_Z   4
loop_
 _symmetry_equiv_pos_site_id
 _symmetry_equiv_pos_as_xyz
  1  'x, y, z'
loop_
 _atom_site_type_symbol
 _atom_site_label
 _atom_site_symmetry_multiplicity
 _atom_site_fract_x
 _atom_site_fract_y
 _atom_site_fract_z
 _atom_site_occupancy
  O  O0  1  0.88049632  0.87049213  0.55439393  1
  O  O1  1  0.61950368  0.12950787  0.05439393  1
  O  O2  1  0.11950368  0.12950787  0.44560607  1
  O  O3  1  0.38049632  0.87049213  0.94560607  1
  O  O4  1  0.31919939  0.91402337  0.55786435  1
  O  O5  1  0.18080061  0.08597663  0.05786435  1
  O  O6  1  0.68080061  0.08597663  0.44213565  1
  O  O7  1  0.81919939  0.91402337  0.94213565  1
  O  O8  1  0.13053562  0.77964428  0.72682057  1
  O  O9  1  0.36946438  0.22035572  0.22682057  1
  O  O10  1  0.86946438  0.22035572  0.27317943  1
  O  O11  1  0.63053562  0.77964428  0.77317943  1
  O  O12  1  0.08468768  0.04443560  0.70897561  1
  O  O13  1  0.41531232  0.95556440  0.20897561  1
  O  O14  1  0.91531232  0.95556440  0.29102439  1
  O  O15  1  0.58468768  0.04443560  0.79102439  1
  O  O16  1  0.81815011  0.48382989  0.18632281  1
  O  O17  1  0.68184989  0.51617011  0.68632281  1
  O  O18  1  0.18184989  0.51617011  0.81367719  1
  O  O19  1  0.31815011  0.48382989  0.31367719  1
  O  O20  1  0.23858906  0.54719281  0.53869390  1
  O  O21  1  0.26141094  0.45280719  0.03869390  1
  O  O22  1  0.76141094  0.45280719  0.46130610  1
  O  O23  1  0.73858906  0.54719281  0.96130610  1
  O  O24  1  0.51921659  0.72326242  0.41731013  1
  O  O25  1  0.98078341  0.27673758  0.91731013  1
  O  O26  1  0.48078341  0.27673758  0.58268987  1
  O  O27  1  0.01921659  0.72326242  0.08268987  1
  O  O28  1  0.13279046  0.70634485  0.35690703  1
  O  O29  1  0.36720954  0.29365515  0.85690703  1
  O  O30  1  0.86720954  0.29365515  0.64309297  1
  O  O31  1  0.63279046  0.70634485  0.14309297  1
  As  As32  1  0.09391044  0.90187490  0.63304438  1
  As  As33  1  0.40608956  0.09812510  0.13304438  1
  As  As34  1  0.90608956  0.09812510  0.36695562  1
  As  As35  1  0.59391044  0.90187490  0.86695562  1
  As  As36  1  0.80126466  0.60602414  0.09477984  1
  As  As37  1  0.69873534  0.39397586  0.59477984  1
  As  As38  1  0.19873534  0.39397586  0.90522016  1
  As  As39  1  0.30126466  0.60602414  0.40522016  1
  Hg  Hg40  1  0.91083457  0.65801832  0.82885141  1
  Hg  Hg41  1  0.58916543  0.34198168  0.32885141  1
  Hg  Hg42  1  0.08916543  0.34198168  0.17114859  1
  Hg  Hg43  1  0.41083457  0.65801832  0.67114859  1
  Hg  Hg44  1  0.32417932  0.70095960  0.10206572  1
  Hg  Hg45  1  0.17582068  0.29904040  0.60206572  1
  Hg  Hg46  1  0.67582068  0.29904040  0.89793428  1
  Hg  Hg47  1  0.82417932  0.70095960  0.39793428  1
  Hg  Hg48  1  0.16975389  0.04556622  0.88101754  1
  Hg  Hg49  1  0.33024611  0.95443378  0.38101754  1
  Hg  Hg50  1  0.83024611  0.95443378  0.11898246  1
  Hg  Hg51  1  0.66975389  0.04556622  0.61898246  1
