# generated using pymatgen
data_Rb2SnAs2
_symmetry_space_group_name_H-M   'P 1'
_cell_length_a   7.06619277
_cell_length_b   7.60097289
_cell_length_c   8.79794772
_cell_angle_alpha   115.59291340
_cell_angle_beta   113.67710673
_cell_angle_gamma   89.99999997
_symmetry_Int_Tables_number   1
_chemical_formula_structural   Rb2SnAs2
_chemical_formula_sum   'Rb4 Sn2 As4'
_cell_volume   381.59548323
_cell_formula_units_Z   2
loop_
 _symmetry_equiv_pos_site_id
 _symmetry_equiv_pos_as_xyz
  1  'x, y, z'
loop_
 _atom_site_type_symbol
 _atom_site_label
 _atom_site_symmetry_multiplicity
 _atom_site_fract_x
 _atom_site_fract_y
 _atom_site_fract_z
 _atom_site_occupancy
  As  As0  1  0.39654168  0.21631969  0.79308336  1
  As  As1  1  0.10345832  0.42323634  0.20691664  1
  As  As2  1  0.60345832  0.78368031  0.20691664  1
  As  As3  1  0.89654168  0.57676366  0.79308336  1
  Rb  Rb4  1  0.85552860  0.01555160  0.71105719  1
  Rb  Rb5  1  0.64447140  0.30449441  0.28894281  1
  Rb  Rb6  1  0.14447140  0.98444840  0.28894281  1
  Rb  Rb7  1  0.35552860  0.69550559  0.71105719  1
  Sn  Sn8  1  0.25000000  0.50000000  0.00000000  1
  Sn  Sn9  1  0.75000000  0.50000000  0.00000000  1
