# generated using pymatgen
data_SrZn2(PO4)2
_symmetry_space_group_name_H-M   'P 1'
_cell_length_a   8.44752414
_cell_length_b   9.14225623
_cell_length_c   9.64712661
_cell_angle_alpha   90.00000000
_cell_angle_beta   90.00000000
_cell_angle_gamma   92.10376877
_symmetry_Int_Tables_number   1
_chemical_formula_structural   SrZn2(PO4)2
_chemical_formula_sum   'Sr4 Zn8 P8 O32'
_cell_volume   744.53991901
_cell_formula_units_Z   4
loop_
 _symmetry_equiv_pos_site_id
 _symmetry_equiv_pos_as_xyz
  1  'x, y, z'
loop_
 _atom_site_type_symbol
 _atom_site_label
 _atom_site_symmetry_multiplicity
 _atom_site_fract_x
 _atom_site_fract_y
 _atom_site_fract_z
 _atom_site_occupancy
  O  O0  1  0.05133384  0.62312327  0.87285009  1
  O  O1  1  0.94866616  0.87687673  0.37285009  1
  O  O2  1  0.94866616  0.37687673  0.12714991  1
  O  O3  1  0.05133384  0.12312327  0.62714991  1
  O  O4  1  0.29891326  0.50759059  0.64358296  1
  O  O5  1  0.70108674  0.99240941  0.14358296  1
  O  O6  1  0.70108674  0.49240941  0.35641704  1
  O  O7  1  0.29891326  0.00759059  0.85641704  1
  O  O8  1  0.43369572  0.12320518  0.64232212  1
  O  O9  1  0.56630428  0.37679482  0.14232212  1
  O  O10  1  0.56630428  0.87679482  0.35767788  1
  O  O11  1  0.43369572  0.62320518  0.85767788  1
  O  O12  1  0.93591382  0.87267839  0.80465486  1
  O  O13  1  0.06408618  0.62732161  0.30465486  1
  O  O14  1  0.06408618  0.12732161  0.19534514  1
  O  O15  1  0.93591382  0.37267839  0.69534514  1
  O  O16  1  0.98421707  0.18951299  0.94789970  1
  O  O17  1  0.01578293  0.31048701  0.44789970  1
  O  O18  1  0.01578293  0.81048701  0.05210030  1
  O  O19  1  0.98421707  0.68951299  0.55210030  1
  O  O20  1  0.52297290  0.69618338  0.61168650  1
  O  O21  1  0.47702710  0.80381662  0.11168650  1
  O  O22  1  0.47702710  0.30381662  0.38831350  1
  O  O23  1  0.52297290  0.19618338  0.88831350  1
  O  O24  1  0.58086469  0.94784236  0.79192083  1
  O  O25  1  0.41913531  0.55215764  0.29192083  1
  O  O26  1  0.41913531  0.05215764  0.20807917  1
  O  O27  1  0.58086469  0.44784236  0.70807917  1
  O  O28  1  0.77321436  0.67933807  0.93467447  1
  O  O29  1  0.22678564  0.82066193  0.43467447  1
  O  O30  1  0.22678564  0.32066193  0.06532553  1
  O  O31  1  0.77321436  0.17933807  0.56532553  1
  P  P32  1  0.94236291  0.24997504  0.58480981  1
  P  P33  1  0.05763709  0.25002496  0.08480981  1
  P  P34  1  0.05763709  0.75002496  0.41519019  1
  P  P35  1  0.94236291  0.74997504  0.91519019  1
  P  P36  1  0.45566234  0.06912737  0.79399467  1
  P  P37  1  0.54433766  0.43087263  0.29399467  1
  P  P38  1  0.54433766  0.93087263  0.20600533  1
  P  P39  1  0.45566234  0.56912737  0.70600533  1
  Zn  Zn40  1  0.08066963  0.05033947  0.81892439  1
  Zn  Zn41  1  0.91933037  0.44966053  0.31892439  1
  Zn  Zn42  1  0.91933037  0.94966053  0.18107561  1
  Zn  Zn43  1  0.08066963  0.55033947  0.68107561  1
  Zn  Zn44  1  0.42481472  0.21054181  0.07278476  1
  Zn  Zn45  1  0.57518528  0.28945819  0.57278476  1
  Zn  Zn46  1  0.57518528  0.78945819  0.92721524  1
  Zn  Zn47  1  0.42481472  0.71054181  0.42721524  1
  Sr  Sr48  1  0.75334990  0.88992963  0.58157931  1
  Sr  Sr49  1  0.24665010  0.61007037  0.08157931  1
  Sr  Sr50  1  0.24665010  0.11007037  0.41842069  1
  Sr  Sr51  1  0.75334990  0.38992963  0.91842069  1
