# generated using pymatgen
data_HfMnRh2
_symmetry_space_group_name_H-M   'P 1'
_cell_length_a   4.48076141
_cell_length_b   4.48075558
_cell_length_c   4.48076068
_cell_angle_alpha   59.99983337
_cell_angle_beta   59.99998115
_cell_angle_gamma   59.99985493
_symmetry_Int_Tables_number   1
_chemical_formula_structural   HfMnRh2
_chemical_formula_sum   'Hf1 Mn1 Rh2'
_cell_volume   63.61195458
_cell_formula_units_Z   1
loop_
 _symmetry_equiv_pos_site_id
 _symmetry_equiv_pos_as_xyz
  1  'x, y, z'
loop_
 _atom_site_type_symbol
 _atom_site_label
 _atom_site_symmetry_multiplicity
 _atom_site_fract_x
 _atom_site_fract_y
 _atom_site_fract_z
 _atom_site_occupancy
  Hf  Hf0  1  0.25000025  0.25000052  0.25000030  1
  Mn  Mn1  1  0.75000023  0.75000099  0.74999968  1
  Rh  Rh2  1  0.00000110  0.99999834  0.00000041  1
  Rh  Rh3  1  0.49999941  0.50000115  0.50000061  1
