# generated using pymatgen
data_KSeO2F
_symmetry_space_group_name_H-M   'P 1'
_cell_length_a   4.56979350
_cell_length_b   6.17178042
_cell_length_c   7.41713112
_cell_angle_alpha   90.00000000
_cell_angle_beta   108.47062462
_cell_angle_gamma   90.00000000
_symmetry_Int_Tables_number   1
_chemical_formula_structural   KSeO2F
_chemical_formula_sum   'K2 Se2 O4 F2'
_cell_volume   198.41478037
_cell_formula_units_Z   2
loop_
 _symmetry_equiv_pos_site_id
 _symmetry_equiv_pos_as_xyz
  1  'x, y, z'
loop_
 _atom_site_type_symbol
 _atom_site_label
 _atom_site_symmetry_multiplicity
 _atom_site_fract_x
 _atom_site_fract_y
 _atom_site_fract_z
 _atom_site_occupancy
  O  O0  1  0.65503882  0.53275370  0.30118686  1
  O  O1  1  0.34496118  0.03275370  0.69881314  1
  O  O2  1  0.34496118  0.46724630  0.69881314  1
  O  O3  1  0.65503882  0.96724630  0.30118686  1
  F  F4  1  0.86016997  0.25000000  0.91606298  1
  F  F5  1  0.13983003  0.75000000  0.08393702  1
  K  K6  1  0.16724778  0.25000000  0.32539267  1
  K  K7  1  0.83275222  0.75000000  0.67460733  1
  Se  Se8  1  0.41237929  0.25000000  0.83998714  1
  Se  Se9  1  0.58762071  0.75000000  0.16001286  1
