# generated using pymatgen
data_Li7Mn4CoO12
_symmetry_space_group_name_H-M   'P 1'
_cell_length_a   2.98904597
_cell_length_b   14.63411967
_cell_length_c   5.08511485
_cell_angle_alpha   92.21466457
_cell_angle_beta   86.61419290
_cell_angle_gamma   92.81357878
_symmetry_Int_Tables_number   1
_chemical_formula_structural   Li7Mn4CoO12
_chemical_formula_sum   'Li7 Mn4 Co1 O12'
_cell_volume   221.63488795
_cell_formula_units_Z   1
loop_
 _symmetry_equiv_pos_site_id
 _symmetry_equiv_pos_as_xyz
  1  'x, y, z'
loop_
 _atom_site_type_symbol
 _atom_site_label
 _atom_site_symmetry_multiplicity
 _atom_site_fract_x
 _atom_site_fract_y
 _atom_site_fract_z
 _atom_site_occupancy
  Li  Li0  1  0.99224784  0.15505159  0.65319570  1
  Li  Li1  1  0.49718705  0.50079838  0.49641253  1
  Li  Li2  1  0.00724658  0.84300952  0.34419605  1
  Li  Li3  1  0.50547860  0.15820335  0.17013629  1
  Li  Li4  1  0.00044302  0.50218569  0.00251477  1
  Li  Li5  1  0.49766082  0.84161601  0.83199354  1
  Li  Li6  1  0.49989304  0.99940893  0.50013159  1
  Mn  Mn7  1  0.99980581  0.99969817  0.99988652  1
  Mn  Mn8  1  0.99694386  0.66766143  0.66609395  1
  Mn  Mn9  1  0.50359779  0.33327697  0.83405506  1
  Mn  Mn10  1  0.00323315  0.33270025  0.33411843  1
  Co  Co11  1  0.49707370  0.66703796  0.16613210  1
  O  O12  1  0.52836079  0.07179312  0.85406555  1
  O  O13  1  0.97323468  0.41171174  0.65745899  1
  O  O14  1  0.48171183  0.74156204  0.49067688  1
  O  O15  1  0.99226447  0.07874477  0.30858028  1
  O  O16  1  0.46982604  0.41195129  0.15790042  1
  O  O17  1  0.96710885  0.73964357  0.99953533  1
  O  O18  1  0.53032927  0.25638128  0.51062486  1
  O  O19  1  0.03145598  0.59094222  0.33845033  1
  O  O20  1  0.47043111  0.92754908  0.14571810  1
  O  O21  1  0.02637091  0.25834598  0.00624297  1
  O  O22  1  0.51981951  0.59075083  0.84069755  1
  O  O23  1  0.00827530  0.91997584  0.69118220  1
