# generated using pymatgen
data_Gd2SCl4
_symmetry_space_group_name_H-M   'P 1'
_cell_length_a   6.40719197
_cell_length_b   6.96031987
_cell_length_c   8.29962146
_cell_angle_alpha   97.35154720
_cell_angle_beta   112.70540229
_cell_angle_gamma   90.00000000
_symmetry_Int_Tables_number   1
_chemical_formula_structural   Gd2SCl4
_chemical_formula_sum   'Gd4 S2 Cl8'
_cell_volume   338.14571031
_cell_formula_units_Z   2
loop_
 _symmetry_equiv_pos_site_id
 _symmetry_equiv_pos_as_xyz
  1  'x, y, z'
loop_
 _atom_site_type_symbol
 _atom_site_label
 _atom_site_symmetry_multiplicity
 _atom_site_fract_x
 _atom_site_fract_y
 _atom_site_fract_z
 _atom_site_occupancy
  Gd  Gd0  1  0.90183370  0.07773976  0.21494520  1
  Gd  Gd1  1  0.31311050  0.57773976  0.21494620  1
  Gd  Gd2  1  0.09816530  0.92226024  0.78505380  1
  Gd  Gd3  1  0.68688850  0.42226024  0.78505380  1
  S  S4  1  0.06366373  0.25000000  0.00000000  1
  S  S5  1  0.93633527  0.74999900  0.00000000  1
  Cl  Cl6  1  0.69043766  0.42243076  0.17925283  1
  Cl  Cl7  1  0.48881517  0.92243176  0.17925383  1
  Cl  Cl8  1  0.30009386  0.31901031  0.43753650  1
  Cl  Cl9  1  0.13744264  0.81900931  0.43753650  1
  Cl  Cl10  1  0.86255636  0.18099069  0.56246250  1
  Cl  Cl11  1  0.69990614  0.68098969  0.56246250  1
  Cl  Cl12  1  0.51118383  0.07756724  0.82074617  1
  Cl  Cl13  1  0.30956334  0.57756924  0.82074717  1
