# generated using pymatgen
data_Li9Co7O16
_symmetry_space_group_name_H-M   'P 1'
_cell_length_a   3.01815742
_cell_length_b   15.45848675
_cell_length_c   6.39939899
_cell_angle_alpha   89.77258900
_cell_angle_beta   76.36028148
_cell_angle_gamma   90.00000209
_symmetry_Int_Tables_number   1
_chemical_formula_structural   Li9Co7O16
_chemical_formula_sum   'Li9 Co7 O16'
_cell_volume   290.14849757
_cell_formula_units_Z   1
loop_
 _symmetry_equiv_pos_site_id
 _symmetry_equiv_pos_as_xyz
  1  'x, y, z'
loop_
 _atom_site_type_symbol
 _atom_site_label
 _atom_site_symmetry_multiplicity
 _atom_site_fract_x
 _atom_site_fract_y
 _atom_site_fract_z
 _atom_site_occupancy
  Li  Li0  1  0.31179760  0.06536209  0.37640480  1
  Li  Li1  1  0.93820240  0.18463791  0.12359520  1
  Li  Li2  1  0.56682724  0.31239096  0.86634552  1
  Li  Li3  1  0.68317276  0.93760904  0.63365448  1
  Li  Li4  1  0.06414130  0.81229475  0.87171741  1
  Li  Li5  1  0.43787986  0.68781063  0.12424028  1
  Li  Li6  1  0.18585870  0.43770525  0.62828259  1
  Li  Li7  1  0.81212014  0.56218937  0.37575972  1
  Li  Li8  1  0.62500000  0.12500000  0.75000000  1
  Co  Co9  1  0.00306126  0.00657617  0.99387748  1
  Co  Co10  1  0.24693874  0.24342383  0.50612252  1
  Co  Co11  1  0.87207293  0.37351820  0.25585415  1
  Co  Co12  1  0.49818084  0.49953768  0.00363832  1
  Co  Co13  1  0.12500000  0.62500000  0.75000000  1
  Co  Co14  1  0.75181916  0.75046232  0.49636168  1
  Co  Co15  1  0.37792707  0.87648180  0.24414585  1
  O  O16  1  0.47134903  0.08625641  0.05730193  1
  O  O17  1  0.10952359  0.22349760  0.78095282  1
  O  O18  1  0.72632495  0.34113079  0.54735011  1
  O  O19  1  0.85657785  0.96826683  0.28684430  1
  O  O20  1  0.22847292  0.84264651  0.54305417  1
  O  O21  1  0.60247450  0.71641979  0.79505100  1
  O  O22  1  0.34947320  0.46577277  0.30105360  1
  O  O23  1  0.97561501  0.59088845  0.04876999  1
  O  O24  1  0.14047641  0.02650240  0.71904718  1
  O  O25  1  0.77865097  0.16374359  0.44269807  1
  O  O26  1  0.39342215  0.28173317  0.21315570  1
  O  O27  1  0.52367505  0.90886921  0.95264989  1
  O  O28  1  0.90052680  0.78422723  0.19894640  1
  O  O29  1  0.27438499  0.65911155  0.45123001  1
  O  O30  1  0.02152708  0.40735349  0.95694583  1
  O  O31  1  0.64752550  0.53358021  0.70494900  1
