# generated using pymatgen
data_K2MnTe2
_symmetry_space_group_name_H-M   'P 1'
_cell_length_a   7.00604225
_cell_length_b   7.49967045
_cell_length_c   8.80378625
_cell_angle_alpha   115.20982085
_cell_angle_beta   113.44692429
_cell_angle_gamma   90.00000005
_symmetry_Int_Tables_number   1
_chemical_formula_structural   K2MnTe2
_chemical_formula_sum   'K4 Mn2 Te4'
_cell_volume   375.87253714
_cell_formula_units_Z   2
loop_
 _symmetry_equiv_pos_site_id
 _symmetry_equiv_pos_as_xyz
  1  'x, y, z'
loop_
 _atom_site_type_symbol
 _atom_site_label
 _atom_site_symmetry_multiplicity
 _atom_site_fract_x
 _atom_site_fract_y
 _atom_site_fract_z
 _atom_site_occupancy
  K  K0  1  0.14264587  0.46532764  0.28529175  1
  K  K1  1  0.85735413  0.53467236  0.71470825  1
  K  K2  1  0.35735413  0.18003589  0.71470825  1
  K  K3  1  0.64264587  0.81996411  0.28529175  1
  Mn  Mn4  1  0.25000000  0.00000000  0.00000000  1
  Mn  Mn5  1  0.75000000  0.00000000  0.00000000  1
  Te  Te6  1  0.89242579  0.08982339  0.78485157  1
  Te  Te7  1  0.10757421  0.91017661  0.21514843  1
  Te  Te8  1  0.60757421  0.30497182  0.21514843  1
  Te  Te9  1  0.39242579  0.69502818  0.78485157  1
