# generated using pymatgen
data_Y5(In2Pd)2
_symmetry_space_group_name_H-M   'P 1'
_cell_length_a   18.36984706
_cell_length_b   8.12204910
_cell_length_c   3.66229266
_cell_angle_alpha   90.00000000
_cell_angle_beta   90.00000000
_cell_angle_gamma   90.00000000
_symmetry_Int_Tables_number   1
_chemical_formula_structural   Y5(In2Pd)2
_chemical_formula_sum   'Y10 In8 Pd4'
_cell_volume   546.41699390
_cell_formula_units_Z   2
loop_
 _symmetry_equiv_pos_site_id
 _symmetry_equiv_pos_as_xyz
  1  'x, y, z'
loop_
 _atom_site_type_symbol
 _atom_site_label
 _atom_site_symmetry_multiplicity
 _atom_site_fract_x
 _atom_site_fract_y
 _atom_site_fract_z
 _atom_site_occupancy
  Y  Y0  1  0.28164676  0.74034983  0.00000000  1
  Y  Y1  1  0.71835324  0.25965017  0.00000000  1
  Y  Y2  1  0.78164676  0.75964917  0.00000000  1
  Y  Y3  1  0.21835324  0.24034983  0.00000000  1
  Y  Y4  1  0.08138466  0.61945961  0.00000000  1
  Y  Y5  1  0.91861534  0.38054139  0.00000000  1
  Y  Y6  1  0.58138466  0.88054039  0.00000000  1
  Y  Y7  1  0.41861534  0.11946061  0.00000000  1
  Y  Y8  1  0.50000000  0.49999900  0.00000000  1
  Y  Y9  1  0.00000000  0.00000000  0.00000000  1
  In  In10  1  0.65030815  0.57892893  0.50000200  1
  In  In11  1  0.34969185  0.42107107  0.50000200  1
  In  In12  1  0.15030815  0.92107207  0.50000200  1
  In  In13  1  0.84969085  0.07892793  0.50000200  1
  In  In14  1  0.93176549  0.70962327  0.50000200  1
  In  In15  1  0.06823451  0.29037773  0.50000200  1
  In  In16  1  0.43176549  0.79037773  0.50000200  1
  In  In17  1  0.56823451  0.20962327  0.50000200  1
  Pd  Pd18  1  0.19501323  0.52621995  0.50000200  1
  Pd  Pd19  1  0.80498577  0.47377905  0.50000200  1
  Pd  Pd20  1  0.69501323  0.97378005  0.50000200  1
  Pd  Pd21  1  0.30498677  0.02621995  0.50000200  1
