# generated using pymatgen
data_SmAl
_symmetry_space_group_name_H-M   'P 1'
_cell_length_a   5.93882174
_cell_length_b   11.68770641
_cell_length_c   5.70806659
_cell_angle_alpha   90.00000000
_cell_angle_beta   90.00000000
_cell_angle_gamma   90.00000000
_symmetry_Int_Tables_number   1
_chemical_formula_structural   SmAl
_chemical_formula_sum   'Sm8 Al8'
_cell_volume   396.20377977
_cell_formula_units_Z   8
loop_
 _symmetry_equiv_pos_site_id
 _symmetry_equiv_pos_as_xyz
  1  'x, y, z'
loop_
 _atom_site_type_symbol
 _atom_site_label
 _atom_site_symmetry_multiplicity
 _atom_site_fract_x
 _atom_site_fract_y
 _atom_site_fract_z
 _atom_site_occupancy
  Sm  Sm0  1  0.16304249  0.01265263  0.25000000  1
  Sm  Sm1  1  0.40363783  0.33321423  0.25000000  1
  Sm  Sm2  1  0.83695751  0.51265263  0.25000000  1
  Sm  Sm3  1  0.59636117  0.83321423  0.25000000  1
  Sm  Sm4  1  0.40363783  0.16678577  0.75000100  1
  Sm  Sm5  1  0.16304249  0.48734737  0.75000100  1
  Sm  Sm6  1  0.59636117  0.66678577  0.75000100  1
  Sm  Sm7  1  0.83695751  0.98734637  0.75000100  1
  Al  Al8  1  0.92971209  0.25000000  0.00000000  1
  Al  Al9  1  0.07028891  0.75000000  0.00000000  1
  Al  Al10  1  0.66498365  0.10049988  0.25000000  1
  Al  Al11  1  0.33501535  0.60049988  0.25000000  1
  Al  Al12  1  0.92971209  0.25000000  0.49999900  1
  Al  Al13  1  0.07028891  0.75000000  0.49999900  1
  Al  Al14  1  0.66498365  0.39950012  0.75000100  1
  Al  Al15  1  0.33501535  0.89950012  0.75000100  1
