# generated using pymatgen
data_Ba3NaIrO6
_symmetry_space_group_name_H-M   'P 1'
_cell_length_a   7.15828489
_cell_length_b   7.15828490
_cell_length_c   7.15828489
_cell_angle_alpha   91.48784690
_cell_angle_beta   91.48784690
_cell_angle_gamma   91.48784692
_symmetry_Int_Tables_number   1
_chemical_formula_structural   Ba3NaIrO6
_chemical_formula_sum   'Ba6 Na2 Ir2 O12'
_cell_volume   366.42043674
_cell_formula_units_Z   2
loop_
 _symmetry_equiv_pos_site_id
 _symmetry_equiv_pos_as_xyz
  1  'x, y, z'
loop_
 _atom_site_type_symbol
 _atom_site_label
 _atom_site_symmetry_multiplicity
 _atom_site_fract_x
 _atom_site_fract_y
 _atom_site_fract_z
 _atom_site_occupancy
  O  O0  1  0.76639261  0.44876660  0.58178720  1
  O  O1  1  0.44876660  0.58178720  0.76639261  1
  O  O2  1  0.58178720  0.76639261  0.44876660  1
  O  O3  1  0.91821280  0.05123340  0.73360739  1
  O  O4  1  0.05123340  0.73360739  0.91821280  1
  O  O5  1  0.73360739  0.91821280  0.05123340  1
  O  O6  1  0.23360739  0.55123340  0.41821280  1
  O  O7  1  0.55123340  0.41821280  0.23360739  1
  O  O8  1  0.41821280  0.23360739  0.55123340  1
  O  O9  1  0.08178720  0.94876660  0.26639261  1
  O  O10  1  0.26639261  0.08178720  0.94876660  1
  O  O11  1  0.94876660  0.26639261  0.08178720  1
  Na  Na12  1  0.25000000  0.25000000  0.25000000  1
  Na  Na13  1  0.75000000  0.75000000  0.75000000  1
  Ba  Ba14  1  0.39381520  0.75000000  0.10618480  1
  Ba  Ba15  1  0.75000000  0.10618480  0.39381520  1
  Ba  Ba16  1  0.10618480  0.39381520  0.75000000  1
  Ba  Ba17  1  0.60618480  0.25000000  0.89381520  1
  Ba  Ba18  1  0.25000000  0.89381520  0.60618480  1
  Ba  Ba19  1  0.89381520  0.60618480  0.25000000  1
  Ir  Ir20  1  0.00000000  0.00000000  0.00000000  1
  Ir  Ir21  1  0.50000000  0.50000000  0.50000000  1
