# generated using pymatgen
data_K2NbCuS4
_symmetry_space_group_name_H-M   'P 1'
_cell_length_a   5.58222631
_cell_length_b   7.24178145
_cell_length_c   12.06708864
_cell_angle_alpha   84.88546068
_cell_angle_beta   76.62640151
_cell_angle_gamma   67.33030540
_symmetry_Int_Tables_number   1
_chemical_formula_structural   K2NbCuS4
_chemical_formula_sum   'K4 Nb2 Cu2 S8'
_cell_volume   437.92133181
_cell_formula_units_Z   2
loop_
 _symmetry_equiv_pos_site_id
 _symmetry_equiv_pos_as_xyz
  1  'x, y, z'
loop_
 _atom_site_type_symbol
 _atom_site_label
 _atom_site_symmetry_multiplicity
 _atom_site_fract_x
 _atom_site_fract_y
 _atom_site_fract_z
 _atom_site_occupancy
  S  S0  1  0.72627720  0.94911460  0.86060765  1
  S  S1  1  0.03599945  0.55088540  0.63939235  1
  S  S2  1  0.67539180  0.05088540  0.36060765  1
  S  S3  1  0.58688485  0.44911460  0.13939235  1
  S  S4  1  0.27372280  0.05088540  0.13939235  1
  S  S5  1  0.96400055  0.44911460  0.36060765  1
  S  S6  1  0.32460820  0.94911460  0.63939235  1
  S  S7  1  0.41311515  0.55088540  0.86060765  1
  K  K8  1  0.94647770  0.75000000  0.10704461  1
  K  K9  1  0.30352230  0.75000000  0.39295539  1
  K  K10  1  0.05352230  0.25000000  0.89295539  1
  K  K11  1  0.69647770  0.25000000  0.60704461  1
  Cu  Cu12  1  0.62500000  0.75000000  0.75000000  1
  Cu  Cu13  1  0.37500000  0.25000000  0.25000000  1
  Nb  Nb14  1  0.12500000  0.75000000  0.75000000  1
  Nb  Nb15  1  0.87500000  0.25000000  0.25000000  1
