# generated using pymatgen
data_Ni9S8
_symmetry_space_group_name_H-M   'P 1'
_cell_length_a   7.23504807
_cell_length_b   7.23504807
_cell_length_c   9.35497437
_cell_angle_alpha   90.00000000
_cell_angle_beta   90.00000000
_cell_angle_gamma   79.23625101
_symmetry_Int_Tables_number   1
_chemical_formula_structural   Ni9S8
_chemical_formula_sum   'Ni18 S16'
_cell_volume   481.07886487
_cell_formula_units_Z   2
loop_
 _symmetry_equiv_pos_site_id
 _symmetry_equiv_pos_as_xyz
  1  'x, y, z'
loop_
 _atom_site_type_symbol
 _atom_site_label
 _atom_site_symmetry_multiplicity
 _atom_site_fract_x
 _atom_site_fract_y
 _atom_site_fract_z
 _atom_site_occupancy
  Ni  Ni0  1  0.70905262  0.45927704  0.37498670  1
  Ni  Ni1  1  0.29094738  0.54072296  0.37498670  1
  Ni  Ni2  1  0.54072296  0.29094738  0.62501330  1
  Ni  Ni3  1  0.45927704  0.70905262  0.62501330  1
  Ni  Ni4  1  0.50000100  0.50000100  0.00000000  1
  Ni  Ni5  1  0.00000000  0.00000000  0.21516287  1
  Ni  Ni6  1  0.00000000  0.00000000  0.78483713  1
  Ni  Ni7  1  0.22187577  0.77812623  0.00000000  1
  Ni  Ni8  1  0.77812623  0.22187577  0.00000000  1
  Ni  Ni9  1  0.00000000  0.00000000  0.50000100  1
  Ni  Ni10  1  0.05736563  0.31367367  0.12308079  1
  Ni  Ni11  1  0.94263337  0.68632633  0.12308079  1
  Ni  Ni12  1  0.68632633  0.94263337  0.87691921  1
  Ni  Ni13  1  0.31367367  0.05736563  0.87691921  1
  Ni  Ni14  1  0.50000000  0.00000100  0.26871698  1
  Ni  Ni15  1  0.00000100  0.50000000  0.73128402  1
  Ni  Ni16  1  0.23609554  0.23609554  0.50000100  1
  Ni  Ni17  1  0.76390446  0.76390446  0.50000100  1
  S  S18  1  0.73042444  0.96498755  0.11820979  1
  S  S19  1  0.26957456  0.03501245  0.11820979  1
  S  S20  1  0.03501245  0.26957456  0.88179121  1
  S  S21  1  0.96498755  0.73042444  0.88179121  1
  S  S22  1  0.98147515  0.25001025  0.36092294  1
  S  S23  1  0.01852585  0.74998975  0.36092294  1
  S  S24  1  0.74998975  0.01852585  0.63907606  1
  S  S25  1  0.25001025  0.98147515  0.63907606  1
  S  S26  1  0.74683272  0.48419979  0.13637439  1
  S  S27  1  0.25316728  0.51579921  0.13637439  1
  S  S28  1  0.51579921  0.25316728  0.86362561  1
  S  S29  1  0.48419979  0.74683272  0.86362561  1
  S  S30  1  0.49888866  0.25779930  0.38505655  1
  S  S31  1  0.50111034  0.74219970  0.38505655  1
  S  S32  1  0.74219970  0.50111034  0.61494345  1
  S  S33  1  0.25779930  0.49888866  0.61494345  1
