# generated using pymatgen
data_Lu2Mo2C3
_symmetry_space_group_name_H-M   'P 1'
_cell_length_a   5.87162255
_cell_length_b   5.87162255
_cell_length_c   5.59872652
_cell_angle_alpha   71.64221184
_cell_angle_beta   108.35778816
_cell_angle_gamma   146.92871819
_symmetry_Int_Tables_number   1
_chemical_formula_structural   Lu2Mo2C3
_chemical_formula_sum   'Lu2 Mo2 C3'
_cell_volume   99.48164970
_cell_formula_units_Z   1
loop_
 _symmetry_equiv_pos_site_id
 _symmetry_equiv_pos_as_xyz
  1  'x, y, z'
loop_
 _atom_site_type_symbol
 _atom_site_label
 _atom_site_symmetry_multiplicity
 _atom_site_fract_x
 _atom_site_fract_y
 _atom_site_fract_z
 _atom_site_occupancy
  Lu  Lu0  1  0.61604821  0.38394979  0.81764361  1
  Lu  Lu1  1  0.38394979  0.61604921  0.18235739  1
  Mo  Mo2  1  0.85241496  0.14758304  0.63395312  1
  Mo  Mo3  1  0.14758304  0.85241496  0.36604588  1
  C  C4  1  0.26855680  0.73144120  0.74715959  1
  C  C5  1  0.73144220  0.26855580  0.25284141  1
  C  C6  1  0.99999900  0.99999900  0.50000000  1
