# generated using pymatgen
data_Te6RhCl3
_symmetry_space_group_name_H-M   'P 1'
_cell_length_a   9.11152515
_cell_length_b   9.11152515
_cell_length_c   9.11152422
_cell_angle_alpha   107.63928604
_cell_angle_beta   107.63928604
_cell_angle_gamma   107.63929636
_symmetry_Int_Tables_number   1
_chemical_formula_structural   Te6RhCl3
_chemical_formula_sum   'Te12 Rh2 Cl6'
_cell_volume   618.65379631
_cell_formula_units_Z   2
loop_
 _symmetry_equiv_pos_site_id
 _symmetry_equiv_pos_as_xyz
  1  'x, y, z'
loop_
 _atom_site_type_symbol
 _atom_site_label
 _atom_site_symmetry_multiplicity
 _atom_site_fract_x
 _atom_site_fract_y
 _atom_site_fract_z
 _atom_site_occupancy
  Te  Te0  1  0.81203468  0.82532226  0.07898873  1
  Te  Te1  1  0.07898873  0.81203468  0.82532226  1
  Te  Te2  1  0.82532226  0.07898873  0.81203468  1
  Te  Te3  1  0.67467674  0.68796432  0.42101027  1
  Te  Te4  1  0.68796532  0.42101027  0.67467674  1
  Te  Te5  1  0.42101027  0.67467774  0.68796432  1
  Te  Te6  1  0.18796532  0.17467774  0.92101027  1
  Te  Te7  1  0.92101127  0.18796532  0.17467774  1
  Te  Te8  1  0.17467774  0.92101127  0.18796432  1
  Te  Te9  1  0.32532226  0.31203468  0.57898873  1
  Te  Te10  1  0.31203468  0.57898873  0.32532326  1
  Te  Te11  1  0.57898873  0.32532226  0.31203568  1
  Rh  Rh12  1  0.75000000  0.75000000  0.75000000  1
  Rh  Rh13  1  0.25000000  0.25000000  0.25000000  1
  Cl  Cl14  1  0.01483153  0.75000000  0.48516647  1
  Cl  Cl15  1  0.75000000  0.48516747  0.01483153  1
  Cl  Cl16  1  0.48516647  0.01483153  0.75000000  1
  Cl  Cl17  1  0.98516847  0.25000000  0.51483253  1
  Cl  Cl18  1  0.25000000  0.51483253  0.98516847  1
  Cl  Cl19  1  0.51483253  0.98516847  0.24999900  1
