# generated using pymatgen
data_Li9Mn2Co5O16
_symmetry_space_group_name_H-M   'P 1'
_cell_length_a   5.02634801
_cell_length_b   9.88565281
_cell_length_c   5.86307731
_cell_angle_alpha   88.12616849
_cell_angle_beta   91.91417580
_cell_angle_gamma   99.60392976
_symmetry_Int_Tables_number   1
_chemical_formula_structural   Li9Mn2Co5O16
_chemical_formula_sum   'Li9 Mn2 Co5 O16'
_cell_volume   286.97670631
_cell_formula_units_Z   1
loop_
 _symmetry_equiv_pos_site_id
 _symmetry_equiv_pos_as_xyz
  1  'x, y, z'
loop_
 _atom_site_type_symbol
 _atom_site_label
 _atom_site_symmetry_multiplicity
 _atom_site_fract_x
 _atom_site_fract_y
 _atom_site_fract_z
 _atom_site_occupancy
  Li  Li0  1  0.75348287  0.25882267  -0.00107800  1
  Li  Li1  1  0.73678473  0.73104840  0.25295097  1
  Li  Li2  1  0.73980646  0.26150953  0.50593389  1
  Li  Li3  1  0.25746418  0.26687959  0.25770032  1
  Li  Li4  1  0.26019354  0.73849047  0.49406611  1
  Li  Li5  1  0.26321527  0.26895160  0.74704903  1
  Li  Li6  1  0.74253582  0.73312041  0.74229968  1
  Li  Li7  1  0.24651713  0.74117733  0.00107800  1
  Li  Li8  1  0.50000000  0.50000000  0.50000000  1
  Mn  Mn9  1  -0.00000000  -0.00000000  0.00000000  1
  Mn  Mn10  1  -0.00000000  -0.00000000  0.50000000  1
  Co  Co11  1  0.01814461  0.50329246  0.25965596  1
  Co  Co12  1  0.98185539  0.49670754  0.74034404  1
  Co  Co13  1  0.50015683  0.00123835  0.75177675  1
  Co  Co14  1  0.50000000  0.50000000  0.00000000  1
  Co  Co15  1  0.49984317  0.99876165  0.24822325  1
  O  O16  1  0.85462429  0.11215268  0.76866333  1
  O  O17  1  0.86350256  0.61580977  0.00253836  1
  O  O18  1  0.87050962  0.10458819  0.24333701  1
  O  O19  1  0.36705628  0.10449766  0.99401521  1
  O  O20  1  0.36225815  0.61997320  0.24573886  1
  O  O21  1  0.37816170  0.10610442  0.48993147  1
  O  O22  1  0.89799076  0.62428939  0.50849388  1
  O  O23  1  0.37679990  0.61067028  0.77560188  1
  O  O24  1  0.62320010  0.38932972  0.22439812  1
  O  O25  1  0.62183830  0.89389558  0.51006853  1
  O  O26  1  0.63774185  0.38002680  0.75426114  1
  O  O27  1  0.10200924  0.37571061  0.49150612  1
  O  O28  1  0.12949038  0.89541181  0.75666299  1
  O  O29  1  0.13649744  0.38419023  0.99746164  1
  O  O30  1  0.63294372  0.89550234  0.00598479  1
  O  O31  1  0.14537571  0.88784732  0.23133667  1
