# generated using pymatgen
data_Sm2ReC2
_symmetry_space_group_name_H-M   'P 1'
_cell_length_a   6.66977259
_cell_length_b   5.27804551
_cell_length_c   10.06624272
_cell_angle_alpha   89.99969432
_cell_angle_beta   90.00045989
_cell_angle_gamma   89.99972001
_symmetry_Int_Tables_number   1
_chemical_formula_structural   Sm2ReC2
_chemical_formula_sum   'Sm8 Re4 C8'
_cell_volume   354.36559924
_cell_formula_units_Z   4
loop_
 _symmetry_equiv_pos_site_id
 _symmetry_equiv_pos_as_xyz
  1  'x, y, z'
loop_
 _atom_site_type_symbol
 _atom_site_label
 _atom_site_symmetry_multiplicity
 _atom_site_fract_x
 _atom_site_fract_y
 _atom_site_fract_z
 _atom_site_occupancy
  Sm  Sm0  1  0.47285005  0.24999971  0.78508296  1
  Sm  Sm1  1  0.02714952  0.75000000  0.28507457  1
  Sm  Sm2  1  0.97287322  0.25000156  0.71491649  1
  Sm  Sm3  1  0.52712817  0.74999996  0.21490950  1
  Sm  Sm4  1  0.81391075  0.25001116  0.05242578  1
  Sm  Sm5  1  0.18609267  0.74998996  0.94758260  1
  Sm  Sm6  1  0.31390871  0.25000390  0.44757872  1
  Sm  Sm7  1  0.68607243  0.75000009  0.55242069  1
  Re  Re8  1  0.77252448  0.24999161  0.36117351  1
  Re  Re9  1  0.72748797  0.75000636  0.86117715  1
  Re  Re10  1  0.22748493  0.74998573  0.63883293  1
  Re  Re11  1  0.27252178  0.24999754  0.13883133  1
  C  C12  1  0.96205699  0.74999948  0.74166609  1
  C  C13  1  0.53794187  0.24999936  0.24166505  1
  C  C14  1  0.46205714  0.75000162  0.75833151  1
  C  C15  1  0.03794018  0.25000224  0.25833183  1
  C  C16  1  0.31699702  0.74999860  0.45716569  1
  C  C17  1  0.18300150  0.24999982  0.95716148  1
  C  C18  1  0.81699757  0.74999918  0.04283774  1
  C  C19  1  0.68300005  0.25000211  0.54283440  1
