# generated using pymatgen
data_LiAlSiH2O5
_symmetry_space_group_name_H-M   'P 1'
_cell_length_a   5.00755609
_cell_length_b   8.44461269
_cell_length_c   12.02677737
_cell_angle_alpha   90.00000000
_cell_angle_beta   90.00000000
_cell_angle_gamma   90.00000000
_symmetry_Int_Tables_number   1
_chemical_formula_structural   LiAlSiH2O5
_chemical_formula_sum   'Li4 Al4 Si4 H8 O20'
_cell_volume   508.57479165
_cell_formula_units_Z   4
loop_
 _symmetry_equiv_pos_site_id
 _symmetry_equiv_pos_as_xyz
  1  'x, y, z'
loop_
 _atom_site_type_symbol
 _atom_site_label
 _atom_site_symmetry_multiplicity
 _atom_site_fract_x
 _atom_site_fract_y
 _atom_site_fract_z
 _atom_site_occupancy
  Li  Li0  1  0.92973209  0.96939150  0.61398840  1
  Li  Li1  1  0.92973209  0.53060850  0.11398840  1
  Li  Li2  1  0.42973209  0.03060850  0.38601160  1
  Li  Li3  1  0.42973209  0.46939150  0.88601160  1
  Al  Al4  1  0.44702493  0.69018480  0.26415118  1
  Al  Al5  1  0.94702493  0.19018480  0.23584882  1
  Al  Al6  1  0.44702493  0.80981520  0.76415118  1
  Al  Al7  1  0.94702493  0.30981520  0.73584882  1
  Si  Si8  1  0.85722636  0.66481464  0.71382271  1
  Si  Si9  1  0.35722636  0.33518536  0.28617729  1
  Si  Si10  1  0.35722636  0.16481464  0.78617729  1
  Si  Si11  1  0.85722636  0.83518536  0.21382271  1
  H  H12  1  0.23001705  0.79528592  0.50117239  1
  H  H13  1  0.46730558  0.15545693  0.56385081  1
  H  H14  1  0.96730558  0.84454307  0.43614919  1
  H  H15  1  0.73001705  0.29528592  0.99882761  1
  H  H16  1  0.73001705  0.20471408  0.49882761  1
  H  H17  1  0.46730558  0.34454307  0.06385081  1
  H  H18  1  0.96730558  0.65545693  0.93614919  1
  H  H19  1  0.23001705  0.70471408  0.00117239  1
  O  O20  1  0.65498871  0.71700021  0.14147719  1
  O  O21  1  0.15796207  0.34316176  0.17209579  1
  O  O22  1  0.65796207  0.65683824  0.82790421  1
  O  O23  1  0.65498871  0.78299979  0.64147719  1
  O  O24  1  0.12749941  0.61383652  0.97528912  1
  O  O25  1  0.61687912  0.27563360  0.76611393  1
  O  O26  1  0.11687912  0.77563360  0.73388607  1
  O  O27  1  0.15498871  0.21700021  0.35852281  1
  O  O28  1  0.45126369  0.50668635  0.32983828  1
  O  O29  1  0.15498871  0.28299979  0.85852281  1
  O  O30  1  0.45126369  0.99331365  0.82983828  1
  O  O31  1  0.11687912  0.72436640  0.23388607  1
  O  O32  1  0.95126369  0.00668635  0.17016172  1
  O  O33  1  0.62749941  0.11383652  0.52471088  1
  O  O34  1  0.65796207  0.84316176  0.32790421  1
  O  O35  1  0.61687912  0.22436640  0.26611393  1
  O  O36  1  0.15796207  0.15683824  0.67209579  1
  O  O37  1  0.12749941  0.88616348  0.47528912  1
  O  O38  1  0.62749941  0.38616348  0.02471088  1
  O  O39  1  0.95126369  0.49331365  0.67016172  1
