# generated using pymatgen
data_KHfCuS3
_symmetry_space_group_name_H-M   'P 1'
_cell_length_a   3.73226406
_cell_length_b   7.39057345
_cell_length_c   9.76200861
_cell_angle_alpha   90.00000000
_cell_angle_beta   90.00000000
_cell_angle_gamma   104.62559677
_symmetry_Int_Tables_number   1
_chemical_formula_structural   KHfCuS3
_chemical_formula_sum   'K2 Hf2 Cu2 S6'
_cell_volume   260.54572926
_cell_formula_units_Z   2
loop_
 _symmetry_equiv_pos_site_id
 _symmetry_equiv_pos_as_xyz
  1  'x, y, z'
loop_
 _atom_site_type_symbol
 _atom_site_label
 _atom_site_symmetry_multiplicity
 _atom_site_fract_x
 _atom_site_fract_y
 _atom_site_fract_z
 _atom_site_occupancy
  S  S0  1  0.38062421  0.76124842  0.55118604  1
  S  S1  1  0.61937579  0.23875158  0.44881396  1
  S  S2  1  0.61937579  0.23875158  0.05118604  1
  S  S3  1  0.06310847  0.12621694  0.75000000  1
  S  S4  1  0.93689153  0.87378306  0.25000000  1
  S  S5  1  0.38062421  0.76124842  0.94881396  1
  K  K6  1  0.25468163  0.50936326  0.25000000  1
  K  K7  1  0.74531837  0.49063674  0.75000000  1
  Cu  Cu8  1  0.53455210  0.06910420  0.25000000  1
  Cu  Cu9  1  0.46544790  0.93089580  0.75000000  1
  Hf  Hf10  1  0.00000000  0.00000000  0.00000000  1
  Hf  Hf11  1  0.00000000  0.00000000  0.50000000  1
