# generated using pymatgen
data_SbPO5
_symmetry_space_group_name_H-M   'P 1'
_cell_length_a   5.35197064
_cell_length_b   5.35197064
_cell_length_c   7.14300476
_cell_angle_alpha   106.57235137
_cell_angle_beta   106.57235138
_cell_angle_gamma   99.72047312
_symmetry_Int_Tables_number   1
_chemical_formula_structural   SbPO5
_chemical_formula_sum   'Sb2 P2 O10'
_cell_volume   180.85100887
_cell_formula_units_Z   2
loop_
 _symmetry_equiv_pos_site_id
 _symmetry_equiv_pos_as_xyz
  1  'x, y, z'
loop_
 _atom_site_type_symbol
 _atom_site_label
 _atom_site_symmetry_multiplicity
 _atom_site_fract_x
 _atom_site_fract_y
 _atom_site_fract_z
 _atom_site_occupancy
  O  O0  1  0.25917581  0.37462029  0.09747135  1
  O  O1  1  0.62537971  0.74082419  0.40252865  1
  O  O2  1  0.74082419  0.62537971  0.90252865  1
  O  O3  1  0.37462029  0.25917581  0.59747135  1
  O  O4  1  0.09356133  0.90643867  0.75000000  1
  O  O5  1  0.90643867  0.09356133  0.25000000  1
  O  O6  1  0.13338761  0.68581361  0.37232548  1
  O  O7  1  0.31418639  0.86661239  0.12767452  1
  O  O8  1  0.86661239  0.31418639  0.62767452  1
  O  O9  1  0.68581361  0.13338761  0.87232548  1
  P  P10  1  0.33186261  0.66813739  0.25000000  1
  P  P11  1  0.66813739  0.33186261  0.75000000  1
  Sb  Sb12  1  0.00000000  0.00000000  0.50000000  1
  Sb  Sb13  1  0.00000000  0.00000000  0.00000000  1
