# generated using pymatgen
data_Rb6AlSb3
_symmetry_space_group_name_H-M   'P 1'
_cell_length_a   6.33232486
_cell_length_b   10.91245478
_cell_length_c   12.54157954
_cell_angle_alpha   100.84162762
_cell_angle_beta   90.00000000
_cell_angle_gamma   90.00000000
_symmetry_Int_Tables_number   1
_chemical_formula_structural   Rb6AlSb3
_chemical_formula_sum   'Rb12 Al2 Sb6'
_cell_volume   851.16954930
_cell_formula_units_Z   2
loop_
 _symmetry_equiv_pos_site_id
 _symmetry_equiv_pos_as_xyz
  1  'x, y, z'
loop_
 _atom_site_type_symbol
 _atom_site_label
 _atom_site_symmetry_multiplicity
 _atom_site_fract_x
 _atom_site_fract_y
 _atom_site_fract_z
 _atom_site_occupancy
  Al  Al0  1  0.75000000  0.32099440  0.72048687  1
  Al  Al1  1  0.25000000  0.67900560  0.27951313  1
  Rb  Rb2  1  0.75000000  0.87662402  0.32193393  1
  Rb  Rb3  1  0.25000000  0.12337598  0.67806607  1
  Rb  Rb4  1  0.75000000  0.86468908  0.97720094  1
  Rb  Rb5  1  0.25000000  0.13531092  0.02279906  1
  Rb  Rb6  1  0.75000000  0.56158517  0.46035462  1
  Rb  Rb7  1  0.25000000  0.43841483  0.53964538  1
  Rb  Rb8  1  0.75000000  0.54210412  0.07805089  1
  Rb  Rb9  1  0.25000000  0.45789588  0.92194911  1
  Rb  Rb10  1  0.75000000  0.26028237  0.22430859  1
  Rb  Rb11  1  0.25000000  0.73971763  0.77569141  1
  Rb  Rb12  1  0.75000000  0.91571527  0.63086288  1
  Rb  Rb13  1  0.25000000  0.08428473  0.36913712  1
  Sb  Sb14  1  0.75000000  0.56687421  0.77381495  1
  Sb  Sb15  1  0.25000000  0.43312579  0.22618505  1
  Sb  Sb16  1  0.75000000  0.21345427  0.51172629  1
  Sb  Sb17  1  0.25000000  0.78654573  0.48827371  1
  Sb  Sb18  1  0.75000000  0.17869340  0.87564149  1
  Sb  Sb19  1  0.25000000  0.82130660  0.12435851  1
