# generated using pymatgen
data_Cs6GaSb3
_symmetry_space_group_name_H-M   'P 1'
_cell_length_a   6.58832382
_cell_length_b   11.22801767
_cell_length_c   13.00268474
_cell_angle_alpha   101.34309071
_cell_angle_beta   90.00000000
_cell_angle_gamma   90.00000000
_symmetry_Int_Tables_number   1
_chemical_formula_structural   Cs6GaSb3
_chemical_formula_sum   'Cs12 Ga2 Sb6'
_cell_volume   943.07024994
_cell_formula_units_Z   2
loop_
 _symmetry_equiv_pos_site_id
 _symmetry_equiv_pos_as_xyz
  1  'x, y, z'
loop_
 _atom_site_type_symbol
 _atom_site_label
 _atom_site_symmetry_multiplicity
 _atom_site_fract_x
 _atom_site_fract_y
 _atom_site_fract_z
 _atom_site_occupancy
  Ga  Ga0  1  0.75000000  0.32248330  0.72060041  1
  Ga  Ga1  1  0.25000000  0.67751670  0.27939959  1
  Sb  Sb2  1  0.25000000  0.78462940  0.48282847  1
  Sb  Sb3  1  0.75000000  0.21537060  0.51717153  1
  Sb  Sb4  1  0.25000000  0.43625889  0.23080889  1
  Sb  Sb5  1  0.75000000  0.56374111  0.76919111  1
  Sb  Sb6  1  0.75000000  0.18927864  0.87469724  1
  Sb  Sb7  1  0.25000000  0.81072136  0.12530276  1
  Cs  Cs8  1  0.75000000  0.54097240  0.07841815  1
  Cs  Cs9  1  0.25000000  0.45902760  0.92158185  1
  Cs  Cs10  1  0.75000000  0.25685367  0.22646160  1
  Cs  Cs11  1  0.25000000  0.74314633  0.77353840  1
  Cs  Cs12  1  0.25000000  0.43927416  0.54462683  1
  Cs  Cs13  1  0.75000000  0.56072584  0.45537317  1
  Cs  Cs14  1  0.25000000  0.13723119  0.02244781  1
  Cs  Cs15  1  0.75000000  0.86276881  0.97755219  1
  Cs  Cs16  1  0.25000000  0.12747990  0.67903226  1
  Cs  Cs17  1  0.75000000  0.87252010  0.32096774  1
  Cs  Cs18  1  0.25000000  0.08410886  0.36856286  1
  Cs  Cs19  1  0.75000000  0.91589114  0.63143714  1
