# generated using pymatgen
data_Sn5O6
_symmetry_space_group_name_H-M   'P 1'
_cell_length_a   4.95304383
_cell_length_b   13.75520914
_cell_length_c   5.90577961
_cell_angle_alpha   92.41675457
_cell_angle_beta   90.00000000
_cell_angle_gamma   90.00000000
_symmetry_Int_Tables_number   1
_chemical_formula_structural   Sn5O6
_chemical_formula_sum   'Sn10 O12'
_cell_volume   402.00378883
_cell_formula_units_Z   2
loop_
 _symmetry_equiv_pos_site_id
 _symmetry_equiv_pos_as_xyz
  1  'x, y, z'
loop_
 _atom_site_type_symbol
 _atom_site_label
 _atom_site_symmetry_multiplicity
 _atom_site_fract_x
 _atom_site_fract_y
 _atom_site_fract_z
 _atom_site_occupancy
  Sn  Sn0  1  0.00033333  0.90193793  0.82011520  1
  Sn  Sn1  1  -0.00036817  0.69424873  0.34822607  1
  Sn  Sn2  1  0.49966667  0.90193793  0.32011520  1
  Sn  Sn3  1  0.50033333  0.09806207  0.67988480  1
  Sn  Sn4  1  0.49963183  0.30575127  0.15177393  1
  Sn  Sn5  1  -0.00033333  0.09806207  0.17988480  1
  Sn  Sn6  1  0.00036817  0.30575127  0.65177393  1
  Sn  Sn7  1  0.50000000  0.50000000  0.50000000  1
  Sn  Sn8  1  0.50036817  0.69424873  0.84822707  1
  Sn  Sn9  1  0.00000000  0.50000000  -0.00000000  1
  O  O10  1  0.82491217  0.63943294  0.03622748  1
  O  O11  1  0.17508783  0.36056706  0.96377252  1
  O  O12  1  0.32491217  0.36056706  0.46377252  1
  O  O13  1  0.80250147  0.44257396  0.70926715  1
  O  O14  1  0.19749853  0.55742604  0.29073285  1
  O  O15  1  0.67720430  0.04470145  0.36944762  1
  O  O16  1  0.82279570  0.04470145  0.86944762  1
  O  O17  1  0.67508783  0.63943294  0.53622748  1
  O  O18  1  0.32279570  0.95529855  0.63055238  1
  O  O19  1  0.17720430  0.95529855  0.13055238  1
  O  O20  1  0.30250147  0.55742604  0.79073285  1
  O  O21  1  0.69749853  0.44257396  0.20926715  1
