# generated using pymatgen
data_Pr3(CuSn)4
_symmetry_space_group_name_H-M   'P 1'
_cell_length_a   4.61598069
_cell_length_b   7.05891881
_cell_length_c   8.66471650
_cell_angle_alpha   114.03765718
_cell_angle_beta   105.44816376
_cell_angle_gamma   90.00000000
_symmetry_Int_Tables_number   1
_chemical_formula_structural   Pr3(CuSn)4
_chemical_formula_sum   'Pr3 Cu4 Sn4'
_cell_volume   246.63488798
_cell_formula_units_Z   1
loop_
 _symmetry_equiv_pos_site_id
 _symmetry_equiv_pos_as_xyz
  1  'x, y, z'
loop_
 _atom_site_type_symbol
 _atom_site_label
 _atom_site_symmetry_multiplicity
 _atom_site_fract_x
 _atom_site_fract_y
 _atom_site_fract_z
 _atom_site_occupancy
  Pr  Pr0  1  0.00000000  0.50000000  -0.00000000  1
  Pr  Pr1  1  0.13292676  0.13292676  0.26585352  1
  Pr  Pr2  1  0.86707324  0.86707424  0.73414648  1
  Cu  Cu3  1  0.66797368  0.48508797  0.33594736  1
  Cu  Cu4  1  0.66797368  0.85086038  0.33594736  1
  Cu  Cu5  1  0.33202632  0.14913962  0.66405264  1
  Cu  Cu6  1  0.33202632  0.51491303  0.66405264  1
  Sn  Sn7  1  0.50000000  0.20029016  -0.00000000  1
  Sn  Sn8  1  0.50000000  0.79971084  0.00000000  1
  Sn  Sn9  1  0.21668977  0.71669077  0.43338054  1
  Sn  Sn10  1  0.78331023  0.28331023  0.56661946  1
