# generated using pymatgen
data_PrGeRu
_symmetry_space_group_name_H-M   'P 1'
_cell_length_a   4.31941546
_cell_length_b   4.31940148
_cell_length_c   6.97662105
_cell_angle_alpha   90.00015770
_cell_angle_beta   89.99991364
_cell_angle_gamma   89.99993726
_symmetry_Int_Tables_number   1
_chemical_formula_structural   PrGeRu
_chemical_formula_sum   'Pr2 Ge2 Ru2'
_cell_volume   130.16483888
_cell_formula_units_Z   2
loop_
 _symmetry_equiv_pos_site_id
 _symmetry_equiv_pos_as_xyz
  1  'x, y, z'
loop_
 _atom_site_type_symbol
 _atom_site_label
 _atom_site_symmetry_multiplicity
 _atom_site_fract_x
 _atom_site_fract_y
 _atom_site_fract_z
 _atom_site_occupancy
  Pr  Pr0  1  0.24999988  0.24999945  0.68472654  1
  Pr  Pr1  1  0.75000037  0.75000001  0.31527333  1
  Ge  Ge2  1  0.24999996  0.25000037  0.18955629  1
  Ge  Ge3  1  0.74999973  0.74999961  0.81044396  1
  Ru  Ru4  1  0.75000010  0.25000026  0.00000030  1
  Ru  Ru5  1  0.24999995  0.75000030  0.00000057  1
