# generated using pymatgen
data_NdB2HF10
_symmetry_space_group_name_H-M   'P 1'
_cell_length_a   7.07791171
_cell_length_b   5.88628133
_cell_length_c   8.81546700
_cell_angle_alpha   90.00000000
_cell_angle_beta   112.54300669
_cell_angle_gamma   90.00000000
_symmetry_Int_Tables_number   1
_chemical_formula_structural   NdB2HF10
_chemical_formula_sum   'Nd2 B4 H2 F20'
_cell_volume   339.21234997
_cell_formula_units_Z   2
loop_
 _symmetry_equiv_pos_site_id
 _symmetry_equiv_pos_as_xyz
  1  'x, y, z'
loop_
 _atom_site_type_symbol
 _atom_site_label
 _atom_site_symmetry_multiplicity
 _atom_site_fract_x
 _atom_site_fract_y
 _atom_site_fract_z
 _atom_site_occupancy
  Nd  Nd0  1  0.76737170  0.25000100  0.34351582  1
  Nd  Nd1  1  0.23262967  0.75000000  0.65648639  1
  B  B2  1  0.74825483  0.75000000  0.04944032  1
  B  B3  1  0.41394185  0.75000000  0.30508467  1
  B  B4  1  0.58605834  0.25000100  0.69491707  1
  B  B5  1  0.25174533  0.25000100  0.95055920  1
  H  H6  1  0.07202392  0.25000100  0.15273819  1
  H  H7  1  0.92797746  0.75000000  0.84726321  1
  F  F8  1  0.92811496  0.75000000  0.01507641  1
  F  F9  1  0.42342111  0.25000100  0.10027919  1
  F  F10  1  0.33418935  0.75000000  0.13641108  1
  F  F11  1  0.74711189  0.55450729  0.14298149  1
  F  F12  1  0.74711189  0.94549371  0.14298149  1
  F  F13  1  0.07205745  0.25000100  0.26349686  1
  F  F14  1  0.26028386  0.75000000  0.37247840  1
  F  F15  1  0.54087905  0.55282330  0.36636060  1
  F  F16  1  0.54087905  0.94717770  0.36636060  1
  F  F17  1  0.00000051  0.00000000  0.50000114  1
  F  F18  1  0.00000051  0.50000000  0.50000114  1
  F  F19  1  0.45912033  0.05282446  0.63364081  1
  F  F20  1  0.45912033  0.44717654  0.63364081  1
  F  F21  1  0.73971553  0.25000100  0.62752229  1
  F  F22  1  0.92794395  0.75000000  0.73650459  1
  F  F23  1  0.25288328  0.05451007  0.85701351  1
  F  F24  1  0.25288328  0.44549093  0.85701351  1
  F  F25  1  0.66581191  0.25000100  0.86359028  1
  F  F26  1  0.57657805  0.75000000  0.89972067  1
  F  F27  1  0.07188660  0.25000100  0.98492426  1
