# generated using pymatgen
data_K2AsAuS4
_symmetry_space_group_name_H-M   'P 1'
_cell_length_a   6.80854147
_cell_length_b   7.03688663
_cell_length_c   9.71565862
_cell_angle_alpha   90.00000000
_cell_angle_beta   93.30188104
_cell_angle_gamma   90.00000000
_symmetry_Int_Tables_number   1
_chemical_formula_structural   K2AsAuS4
_chemical_formula_sum   'K4 As2 Au2 S8'
_cell_volume   464.71354174
_cell_formula_units_Z   2
loop_
 _symmetry_equiv_pos_site_id
 _symmetry_equiv_pos_as_xyz
  1  'x, y, z'
loop_
 _atom_site_type_symbol
 _atom_site_label
 _atom_site_symmetry_multiplicity
 _atom_site_fract_x
 _atom_site_fract_y
 _atom_site_fract_z
 _atom_site_occupancy
  S  S0  1  0.69488251  0.75000000  0.49740809  1
  S  S1  1  0.30511749  0.25000000  0.50259191  1
  S  S2  1  0.45572166  0.75000000  0.82526063  1
  S  S3  1  0.54427834  0.25000000  0.17473937  1
  S  S4  1  0.90357908  0.48777456  0.76743063  1
  S  S5  1  0.90357908  0.01222544  0.76743063  1
  S  S6  1  0.09642092  0.51222544  0.23256937  1
  S  S7  1  0.09642092  0.98777456  0.23256937  1
  K  K8  1  0.20118202  0.75000000  0.53626287  1
  K  K9  1  0.47888433  0.25000000  0.84112891  1
  K  K10  1  0.79881798  0.25000000  0.46373713  1
  K  K11  1  0.52111567  0.75000000  0.15887109  1
  As  As12  1  0.27347217  0.25000000  0.28021258  1
  As  As13  1  0.72652783  0.75000000  0.71978742  1
  Au  Au14  1  0.00000000  0.00000000  0.00000000  1
  Au  Au15  1  0.00000000  0.50000000  0.00000000  1
