# generated using pymatgen
data_Li9Mn2Co5O16
_symmetry_space_group_name_H-M   'P 1'
_cell_length_a   5.90380450
_cell_length_b   8.63389274
_cell_length_c   5.86121558
_cell_angle_alpha   70.66050129
_cell_angle_beta   87.29762821
_cell_angle_gamma   88.58054432
_symmetry_Int_Tables_number   1
_chemical_formula_structural   Li9Mn2Co5O16
_chemical_formula_sum   'Li9 Mn2 Co5 O16'
_cell_volume   281.57754724
_cell_formula_units_Z   1
loop_
 _symmetry_equiv_pos_site_id
 _symmetry_equiv_pos_as_xyz
  1  'x, y, z'
loop_
 _atom_site_type_symbol
 _atom_site_label
 _atom_site_symmetry_multiplicity
 _atom_site_fract_x
 _atom_site_fract_y
 _atom_site_fract_z
 _atom_site_occupancy
  Li  Li0  1  0.25908228  0.26648138  0.11904966  1
  Li  Li1  1  0.00000000  0.50000000  0.25000000  1
  Li  Li2  1  0.25860927  0.26697028  0.60992683  1
  Li  Li3  1  -0.00000000  0.50000000  0.75000000  1
  Li  Li4  1  0.74139073  0.73302972  0.89007317  1
  Li  Li5  1  0.74091772  0.73351862  0.38095034  1
  Li  Li6  1  0.50186377  0.99383985  0.50449319  1
  Li  Li7  1  0.49813623  0.00616015  0.99550681  1
  Li  Li8  1  0.50000000  0.50000000  0.25000000  1
  Mn  Mn9  1  0.99841449  0.99739653  0.00014408  1
  Mn  Mn10  1  0.00158551  0.00260347  0.49985592  1
  Co  Co11  1  0.74449418  0.25520878  0.12300459  1
  Co  Co12  1  0.25550582  0.74479122  0.37699541  1
  Co  Co13  1  0.74179406  0.25877827  0.61175746  1
  Co  Co14  1  0.50000000  0.50000000  0.75000000  1
  Co  Co15  1  0.25820594  0.74122173  0.88824254  1
  O  O16  1  0.98098163  0.23234734  0.89386013  1
  O  O17  1  0.72696380  0.48268487  0.98621806  1
  O  O18  1  0.99683124  0.23995666  0.39582921  1
  O  O19  1  0.74332626  0.48656262  0.51791485  1
  O  O20  1  0.49480907  0.73926461  0.65449552  1
  O  O21  1  0.47891244  0.75965963  0.13443542  1
  O  O22  1  0.22009887  0.99431581  0.24309971  1
  O  O23  1  0.22207139  0.99229749  0.74648735  1
  O  O24  1  0.52108756  0.24034037  0.36556458  1
  O  O25  1  0.27303620  0.51731513  0.51378194  1
  O  O26  1  0.50519093  0.26073539  0.84550448  1
  O  O27  1  0.25667374  0.51343738  0.98208615  1
  O  O28  1  0.00316876  0.76004334  0.10417079  1
  O  O29  1  0.01901837  0.76765266  0.60613887  1
  O  O30  1  0.77792861  0.00770251  0.75351165  1
  O  O31  1  0.77990113  0.00568419  0.25689929  1
