# generated using pymatgen
data_ZrInAu
_symmetry_space_group_name_H-M   'P 1'
_cell_length_a   4.61408375
_cell_length_b   4.61407767
_cell_length_c   4.61408167
_cell_angle_alpha   60.00003075
_cell_angle_beta   59.99999881
_cell_angle_gamma   60.00004640
_symmetry_Int_Tables_number   1
_chemical_formula_structural   ZrInAu
_chemical_formula_sum   'Zr1 In1 Au1'
_cell_volume   69.46097951
_cell_formula_units_Z   1
loop_
 _symmetry_equiv_pos_site_id
 _symmetry_equiv_pos_as_xyz
  1  'x, y, z'
loop_
 _atom_site_type_symbol
 _atom_site_label
 _atom_site_symmetry_multiplicity
 _atom_site_fract_x
 _atom_site_fract_y
 _atom_site_fract_z
 _atom_site_occupancy
  Zr  Zr0  1  0.50000004  0.50000007  0.50000001  1
  In  In1  1  0.99999995  0.99999999  0.00000002  1
  Au  Au2  1  0.25000001  0.24999994  0.24999998  1
