# generated using pymatgen
data_CaAlH5
_symmetry_space_group_name_H-M   'P 1'
_cell_length_a   9.69804559
_cell_length_b   6.92599097
_cell_length_c   12.39634949
_cell_angle_alpha   90.00000000
_cell_angle_beta   137.75141289
_cell_angle_gamma   90.00000000
_symmetry_Int_Tables_number   1
_chemical_formula_structural   CaAlH5
_chemical_formula_sum   'Ca8 Al8 H40'
_cell_volume   559.82775944
_cell_formula_units_Z   8
loop_
 _symmetry_equiv_pos_site_id
 _symmetry_equiv_pos_as_xyz
  1  'x, y, z'
loop_
 _atom_site_type_symbol
 _atom_site_label
 _atom_site_symmetry_multiplicity
 _atom_site_fract_x
 _atom_site_fract_y
 _atom_site_fract_z
 _atom_site_occupancy
  Ca  Ca0  1  0.78652858  0.26954680  0.24130468  1
  Ca  Ca1  1  0.21347242  0.76954680  0.25869532  1
  Ca  Ca2  1  0.21347342  0.73045320  0.75869632  1
  Ca  Ca3  1  0.78652758  0.23045420  0.74130468  1
  Ca  Ca4  1  0.34535743  0.22942118  0.69244111  1
  Ca  Ca5  1  0.65464157  0.72941918  0.80755889  1
  Ca  Ca6  1  0.65464057  0.77057982  0.30755889  1
  Ca  Ca7  1  0.34535843  0.27057882  0.19244111  1
  Al  Al8  1  0.21918106  0.27871549  0.37414052  1
  Al  Al9  1  0.78081994  0.77871449  0.12585948  1
  Al  Al10  1  0.78081994  0.72128451  0.62585948  1
  Al  Al11  1  0.21917906  0.22128551  0.87414052  1
  Al  Al12  1  0.80771287  0.19123719  0.99646784  1
  Al  Al13  1  0.19228713  0.69123819  0.50353316  1
  Al  Al14  1  0.19228613  0.80876181  0.00353216  1
  Al  Al15  1  0.80771287  0.30876181  0.49646684  1
  H  H16  1  0.99932139  0.19738755  0.01463245  1
  H  H17  1  0.00067761  0.69738855  0.48536755  1
  H  H18  1  0.00067761  0.80261145  0.98536755  1
  H  H19  1  0.99932139  0.30261245  0.51463245  1
  H  H20  1  0.61208800  0.20806108  0.97327871  1
  H  H21  1  0.38791200  0.70806208  0.52672029  1
  H  H22  1  0.38791200  0.79193692  0.02672129  1
  H  H23  1  0.61208600  0.29193792  0.47327771  1
  H  H24  1  0.69335733  0.11396847  0.35765060  1
  H  H25  1  0.30664367  0.61396947  0.14234940  1
  H  H26  1  0.30664267  0.88603153  0.64234940  1
  H  H27  1  0.69335733  0.38603153  0.85765060  1
  H  H28  1  0.11545107  0.13891394  0.41452315  1
  H  H29  1  0.88454893  0.63891494  0.08547785  1
  H  H30  1  0.88454993  0.86108606  0.58547785  1
  H  H31  1  0.11545107  0.36108506  0.91452315  1
  H  H32  1  0.11186960  0.46755244  0.40223494  1
  H  H33  1  0.88813140  0.96755044  0.09776506  1
  H  H34  1  0.88813240  0.53244956  0.59776606  1
  H  H35  1  0.11186960  0.03244856  0.90223594  1
  H  H36  1  0.28007306  0.09741603  0.32109013  1
  H  H37  1  0.71992794  0.59741703  0.17891087  1
  H  H38  1  0.71992694  0.90258297  0.67890987  1
  H  H39  1  0.28007306  0.40258297  0.82108913  1
  H  H40  1  0.26917563  0.44413195  0.30537792  1
  H  H41  1  0.73082337  0.94413095  0.19462208  1
  H  H42  1  0.73082437  0.55587005  0.69462208  1
  H  H43  1  0.26917463  0.05586905  0.80537792  1
  H  H44  1  0.65197749  0.06367837  0.81515291  1
  H  H45  1  0.34802151  0.56367837  0.68484709  1
  H  H46  1  0.34802251  0.93632163  0.18484709  1
  H  H47  1  0.65197849  0.43632063  0.31515291  1
  H  H48  1  0.44305394  0.28934007  0.57223055  1
  H  H49  1  0.55694606  0.78934107  0.92776845  1
  H  H50  1  0.55694606  0.71065993  0.42776945  1
  H  H51  1  0.44305394  0.21066093  0.07223055  1
  H  H52  1  0.95636987  0.30538526  0.17835210  1
  H  H53  1  0.04363013  0.80538626  0.32164790  1
  H  H54  1  0.04363013  0.69461474  0.82164690  1
  H  H55  1  0.95637087  0.19461574  0.67835210  1
