# generated using pymatgen
data_Na3DyCl6
_symmetry_space_group_name_H-M   'P 1'
_cell_length_a   6.85566980
_cell_length_b   7.34579751
_cell_length_c   10.34802560
_cell_angle_alpha   90.00000000
_cell_angle_beta   91.05021267
_cell_angle_gamma   90.00000000
_symmetry_Int_Tables_number   1
_chemical_formula_structural   Na3DyCl6
_chemical_formula_sum   'Na6 Dy2 Cl12'
_cell_volume   521.04277536
_cell_formula_units_Z   2
loop_
 _symmetry_equiv_pos_site_id
 _symmetry_equiv_pos_as_xyz
  1  'x, y, z'
loop_
 _atom_site_type_symbol
 _atom_site_label
 _atom_site_symmetry_multiplicity
 _atom_site_fract_x
 _atom_site_fract_y
 _atom_site_fract_z
 _atom_site_occupancy
  Na  Na0  1  0.53920975  0.90490560  0.24445530  1
  Na  Na1  1  0.96079125  0.40490660  0.25554470  1
  Na  Na2  1  0.46079225  0.09509240  0.75554470  1
  Na  Na3  1  0.03920875  0.59509340  0.74445530  1
  Na  Na4  1  0.99999900  0.00000000  0.50000100  1
  Na  Na5  1  0.50000000  0.50000100  0.99999900  1
  Dy  Dy6  1  0.00000000  0.00000000  0.00000000  1
  Dy  Dy7  1  0.49999900  0.50000100  0.49999900  1
  Cl  Cl8  1  0.35555288  0.55806033  0.26285062  1
  Cl  Cl9  1  0.14444612  0.05805933  0.23714838  1
  Cl  Cl10  1  0.85555288  0.94194067  0.76285062  1
  Cl  Cl11  1  0.64444812  0.44194067  0.73714938  1
  Cl  Cl12  1  0.68475323  0.17709826  0.07194094  1
  Cl  Cl13  1  0.81524577  0.67709726  0.42805906  1
  Cl  Cl14  1  0.31524477  0.82290374  0.92805906  1
  Cl  Cl15  1  0.18475423  0.32290274  0.57194094  1
  Cl  Cl16  1  0.16673521  0.30696498  0.92298099  1
  Cl  Cl17  1  0.33326479  0.80696598  0.57702001  1
  Cl  Cl18  1  0.83326479  0.69303402  0.07701901  1
  Cl  Cl19  1  0.66673521  0.19303602  0.42298099  1
