# generated using pymatgen
data_Rb2NbAgSe4
_symmetry_space_group_name_H-M   'P 1'
_cell_length_a   6.15552901
_cell_length_b   7.81512111
_cell_length_c   12.84197512
_cell_angle_alpha   84.58407293
_cell_angle_beta   76.13326505
_cell_angle_gamma   66.80749144
_symmetry_Int_Tables_number   1
_chemical_formula_structural   Rb2NbAgSe4
_chemical_formula_sum   'Rb4 Nb2 Ag2 Se8'
_cell_volume   551.30437929
_cell_formula_units_Z   2
loop_
 _symmetry_equiv_pos_site_id
 _symmetry_equiv_pos_as_xyz
  1  'x, y, z'
loop_
 _atom_site_type_symbol
 _atom_site_label
 _atom_site_symmetry_multiplicity
 _atom_site_fract_x
 _atom_site_fract_y
 _atom_site_fract_z
 _atom_site_occupancy
  Se  Se0  1  0.75268325  0.04770216  0.13552402  1
  Se  Se1  1  0.56409057  0.54770216  0.63552402  1
  Se  Se2  1  0.88820727  0.54770216  0.86447598  1
  Se  Se3  1  0.80038541  0.95229784  0.63552402  1
  Se  Se4  1  0.43590943  0.45229784  0.36447598  1
  Se  Se5  1  0.19961459  0.04770216  0.36447598  1
  Se  Se6  1  0.11179273  0.45229784  0.13552402  1
  Se  Se7  1  0.24731675  0.95229784  0.86447598  1
  Rb  Rb8  1  0.80545319  0.75000000  0.38909363  1
  Rb  Rb9  1  0.19454681  0.25000000  0.61090637  1
  Rb  Rb10  1  0.44454681  0.75000000  0.11090637  1
  Rb  Rb11  1  0.55545319  0.25000000  0.88909363  1
  Nb  Nb12  1  0.37500000  0.25000000  0.25000000  1
  Nb  Nb13  1  0.62500000  0.75000000  0.75000000  1
  Ag  Ag14  1  0.87500000  0.25000000  0.25000000  1
  Ag  Ag15  1  0.12500000  0.75000000  0.75000000  1
