# generated using pymatgen
data_La(ErS2)3
_symmetry_space_group_name_H-M   'P 1'
_cell_length_a   11.32970611
_cell_length_b   11.07134481
_cell_length_c   3.99774159
_cell_angle_alpha   90.00000000
_cell_angle_beta   90.00000000
_cell_angle_gamma   108.77344542
_symmetry_Int_Tables_number   1
_chemical_formula_structural   La(ErS2)3
_chemical_formula_sum   'La2 Er6 S12'
_cell_volume   474.77878941
_cell_formula_units_Z   2
loop_
 _symmetry_equiv_pos_site_id
 _symmetry_equiv_pos_as_xyz
  1  'x, y, z'
loop_
 _atom_site_type_symbol
 _atom_site_label
 _atom_site_symmetry_multiplicity
 _atom_site_fract_x
 _atom_site_fract_y
 _atom_site_fract_z
 _atom_site_occupancy
  La  La0  1  0.19483639  0.54942936  0.25000000  1
  La  La1  1  0.80516361  0.45057064  0.75000100  1
  Er  Er2  1  0.99976088  0.82224269  0.75000100  1
  Er  Er3  1  0.33378623  0.94300679  0.25000000  1
  Er  Er4  1  0.66621377  0.05699321  0.75000100  1
  Er  Er5  1  0.58785212  0.66088801  0.25000000  1
  Er  Er6  1  0.41214788  0.33911199  0.75000100  1
  Er  Er7  1  0.00023912  0.17775731  0.25000000  1
  S  S8  1  0.55819225  0.89398401  0.25000000  1
  S  S9  1  0.44180775  0.10601599  0.75000100  1
  S  S10  1  0.25109801  0.30108995  0.25000000  1
  S  S11  1  0.74890199  0.69891005  0.75000100  1
  S  S12  1  0.11228209  0.97931323  0.25000000  1
  S  S13  1  0.88771791  0.02068577  0.75000100  1
  S  S14  1  0.96359997  0.62232036  0.25000000  1
  S  S15  1  0.03640103  0.37767964  0.75000100  1
  S  S16  1  0.77009591  0.23168633  0.25000000  1
  S  S17  1  0.22990309  0.76831267  0.75000100  1
  S  S18  1  0.59225600  0.41768744  0.25000000  1
  S  S19  1  0.40774400  0.58231256  0.75000100  1
