# generated using pymatgen
data_ErCrB4
_symmetry_space_group_name_H-M   'P 1'
_cell_length_a   5.88903917
_cell_length_b   11.37877457
_cell_length_c   3.41092338
_cell_angle_alpha   90.00011003
_cell_angle_beta   90.00001399
_cell_angle_gamma   90.00043517
_symmetry_Int_Tables_number   1
_chemical_formula_structural   ErCrB4
_chemical_formula_sum   'Er4 Cr4 B16'
_cell_volume   228.56614333
_cell_formula_units_Z   4
loop_
 _symmetry_equiv_pos_site_id
 _symmetry_equiv_pos_as_xyz
  1  'x, y, z'
loop_
 _atom_site_type_symbol
 _atom_site_label
 _atom_site_symmetry_multiplicity
 _atom_site_fract_x
 _atom_site_fract_y
 _atom_site_fract_z
 _atom_site_occupancy
  Er  Er0  1  0.12473139  0.15076750  0.00001079  1
  Er  Er1  1  0.87522823  0.84939164  0.00000015  1
  Er  Er2  1  0.62467442  0.34927214  0.99999134  1
  Er  Er3  1  0.37519362  0.65061607  0.99998400  1
  Cr  Cr4  1  0.12462216  0.41887184  0.00000683  1
  Cr  Cr5  1  0.87546890  0.58100084  0.99999735  1
  Cr  Cr6  1  0.62461517  0.08109493  0.00000242  1
  Cr  Cr7  1  0.37549393  0.91901980  0.00000209  1
  B  B8  1  0.47520661  0.19201169  0.50000223  1
  B  B9  1  0.52483806  0.80796764  0.49999879  1
  B  B10  1  0.97517171  0.30797246  0.49999930  1
  B  B11  1  0.02485497  0.69204067  0.50000207  1
  B  B12  1  0.28161795  0.31563638  0.50000312  1
  B  B13  1  0.71831106  0.68438624  0.49999984  1
  B  B14  1  0.78160459  0.18434360  0.49999812  1
  B  B15  1  0.21833788  0.81562600  0.50000388  1
  B  B16  1  0.36330459  0.46756699  0.49999935  1
  B  B17  1  0.63663977  0.53238811  0.50000024  1
  B  B18  1  0.86330875  0.03242514  0.50000044  1
  B  B19  1  0.13664281  0.96761497  0.50000029  1
  B  B20  1  0.38634650  0.04711846  0.50000039  1
  B  B21  1  0.61372959  0.95295055  0.50000012  1
  B  B22  1  0.88634142  0.45286576  0.49999845  1
  B  B23  1  0.11371791  0.54704959  0.49999839  1
