# generated using pymatgen
data_Ba2Si3Ag
_symmetry_space_group_name_H-M   'P 1'
_cell_length_a   8.66331088
_cell_length_b   8.67036560
_cell_length_c   10.87550061
_cell_angle_alpha   78.52236771
_cell_angle_beta   66.52837806
_cell_angle_gamma   60.02691195
_symmetry_Int_Tables_number   1
_chemical_formula_structural   Ba2Si3Ag
_chemical_formula_sum   'Ba8 Si12 Ag4'
_cell_volume   649.09783388
_cell_formula_units_Z   4
loop_
 _symmetry_equiv_pos_site_id
 _symmetry_equiv_pos_as_xyz
  1  'x, y, z'
loop_
 _atom_site_type_symbol
 _atom_site_label
 _atom_site_symmetry_multiplicity
 _atom_site_fract_x
 _atom_site_fract_y
 _atom_site_fract_z
 _atom_site_occupancy
  Si  Si0  1  0.28726781  0.90934340  0.74407068  1
  Si  Si1  1  0.44068189  0.59065660  0.75592932  1
  Si  Si2  1  0.80338879  0.90934340  0.75592932  1
  Si  Si3  1  0.96866151  0.59065660  0.74407068  1
  Si  Si4  1  0.71273219  0.09065660  0.25592932  1
  Si  Si5  1  0.55931811  0.40934340  0.24407068  1
  Si  Si6  1  0.19661121  0.09065660  0.24407068  1
  Si  Si7  1  0.71537766  0.56924468  0.25000000  1
  Si  Si8  1  0.96537766  0.06924468  0.75000000  1
  Si  Si9  1  0.28462234  0.43075532  0.75000000  1
  Si  Si10  1  0.03462234  0.93075532  0.25000000  1
  Si  Si11  1  0.03133849  0.40934340  0.25592932  1
  Ag  Ag12  1  0.54196717  0.91606566  0.25000000  1
  Ag  Ag13  1  0.45803283  0.08393434  0.75000000  1
  Ag  Ag14  1  0.20803283  0.58393434  0.25000000  1
  Ag  Ag15  1  0.79196717  0.41606566  0.75000000  1
  Ba  Ba16  1  0.49941221  0.25000000  0.00117558  1
  Ba  Ba17  1  0.74941221  0.75000000  0.50117558  1
  Ba  Ba18  1  0.50058779  0.75000000  0.99882442  1
  Ba  Ba19  1  0.25058779  0.25000000  0.49882442  1
  Ba  Ba20  1  0.00079677  0.75000000  0.99840646  1
  Ba  Ba21  1  0.24920323  0.75000000  0.50159354  1
  Ba  Ba22  1  0.99920323  0.25000000  0.00159354  1
  Ba  Ba23  1  0.75079677  0.25000000  0.49840646  1
