# generated using pymatgen
data_SiAs2
_symmetry_space_group_name_H-M   'P 1'
_cell_length_a   15.22215628
_cell_length_b   10.35096290
_cell_length_c   3.69351732
_cell_angle_alpha   90.00000000
_cell_angle_beta   90.00000000
_cell_angle_gamma   90.00000000
_symmetry_Int_Tables_number   1
_chemical_formula_structural   SiAs2
_chemical_formula_sum   'Si8 As16'
_cell_volume   581.96527035
_cell_formula_units_Z   8
loop_
 _symmetry_equiv_pos_site_id
 _symmetry_equiv_pos_as_xyz
  1  'x, y, z'
loop_
 _atom_site_type_symbol
 _atom_site_label
 _atom_site_symmetry_multiplicity
 _atom_site_fract_x
 _atom_site_fract_y
 _atom_site_fract_z
 _atom_site_occupancy
  Si  Si0  1  0.26509991  0.20023953  0.50000100  1
  Si  Si1  1  0.73490109  0.79975947  0.50000100  1
  Si  Si2  1  0.76509891  0.29976047  0.50000100  1
  Si  Si3  1  0.23490109  0.70023953  0.50000100  1
  Si  Si4  1  0.14738219  0.41701510  0.00000000  1
  Si  Si5  1  0.85261881  0.58298390  0.00000000  1
  Si  Si6  1  0.64738119  0.08298390  0.00000000  1
  Si  Si7  1  0.35261781  0.91701510  0.00000000  1
  As  As8  1  0.11585428  0.10884545  0.50000100  1
  As  As9  1  0.88414572  0.89115555  0.50000100  1
  As  As10  1  0.61585428  0.39115455  0.50000100  1
  As  As11  1  0.38414472  0.60884545  0.50000100  1
  As  As12  1  0.04615276  0.23775902  0.00000000  1
  As  As13  1  0.95384724  0.76224098  0.00000000  1
  As  As14  1  0.54615176  0.26224198  0.00000000  1
  As  As15  1  0.45384724  0.73775902  0.00000000  1
  As  As16  1  0.38980960  0.05529551  0.50000100  1
  As  As17  1  0.61018940  0.94470349  0.50000100  1
  As  As18  1  0.88980960  0.44470449  0.50000100  1
  As  As19  1  0.11019040  0.55529451  0.50000100  1
  As  As20  1  0.29570409  0.34294199  0.00000000  1
  As  As21  1  0.70429491  0.65705901  0.00000000  1
  As  As22  1  0.79570409  0.15705901  0.00000000  1
  As  As23  1  0.20429591  0.84294099  0.00000000  1
