# generated using pymatgen
data_SrPS3
_symmetry_space_group_name_H-M   'P 1'
_cell_length_a   6.78859550
_cell_length_b   7.67932055
_cell_length_c   9.49580299
_cell_angle_alpha   90.00000000
_cell_angle_beta   91.89713012
_cell_angle_gamma   90.00000000
_symmetry_Int_Tables_number   1
_chemical_formula_structural   SrPS3
_chemical_formula_sum   'Sr4 P4 S12'
_cell_volume   494.76197154
_cell_formula_units_Z   4
loop_
 _symmetry_equiv_pos_site_id
 _symmetry_equiv_pos_as_xyz
  1  'x, y, z'
loop_
 _atom_site_type_symbol
 _atom_site_label
 _atom_site_symmetry_multiplicity
 _atom_site_fract_x
 _atom_site_fract_y
 _atom_site_fract_z
 _atom_site_occupancy
  P  P0  1  0.56289564  0.60690942  0.93432149  1
  P  P1  1  0.93710436  0.10690942  0.56567851  1
  P  P2  1  0.43710436  0.39309058  0.06567851  1
  P  P3  1  0.06289564  0.89309058  0.43432149  1
  S  S4  1  0.85318903  0.70283656  0.44057874  1
  S  S5  1  0.64681097  0.20283656  0.05942126  1
  S  S6  1  0.14681097  0.29716344  0.55942126  1
  S  S7  1  0.35318903  0.79716344  0.94057874  1
  S  S8  1  0.10214970  0.99614333  0.24104522  1
  S  S9  1  0.39785030  0.49614333  0.25895478  1
  S  S10  1  0.89785030  0.00385667  0.75895478  1
  S  S11  1  0.60214970  0.50385667  0.74104522  1
  S  S12  1  0.31440219  0.81195728  0.53747646  1
  S  S13  1  0.18559781  0.31195728  0.96252354  1
  S  S14  1  0.68559781  0.18804272  0.46252354  1
  S  S15  1  0.81440219  0.68804272  0.03747646  1
  Sr  Sr16  1  0.03813219  0.61408357  0.74978628  1
  Sr  Sr17  1  0.46186781  0.11408357  0.75021372  1
  Sr  Sr18  1  0.96186781  0.38591643  0.25021372  1
  Sr  Sr19  1  0.53813219  0.88591643  0.24978628  1
