# generated using pymatgen
data_YB2C
_symmetry_space_group_name_H-M   'P 1'
_cell_length_a   6.80219657
_cell_length_b   6.80219657
_cell_length_c   7.49690635
_cell_angle_alpha   90.00000000
_cell_angle_beta   90.00000000
_cell_angle_gamma   90.00000000
_symmetry_Int_Tables_number   1
_chemical_formula_structural   YB2C
_chemical_formula_sum   'Y8 B16 C8'
_cell_volume   346.88094352
_cell_formula_units_Z   8
loop_
 _symmetry_equiv_pos_site_id
 _symmetry_equiv_pos_as_xyz
  1  'x, y, z'
loop_
 _atom_site_type_symbol
 _atom_site_label
 _atom_site_symmetry_multiplicity
 _atom_site_fract_x
 _atom_site_fract_y
 _atom_site_fract_z
 _atom_site_occupancy
  B  B0  1  0.15168291  0.03466422  0.00000000  1
  B  B1  1  0.53466422  0.65168291  0.50000000  1
  B  B2  1  0.84831709  0.96533578  0.00000000  1
  B  B3  1  0.34831709  0.53466422  0.00000000  1
  B  B4  1  0.65168291  0.46533578  0.00000000  1
  B  B5  1  0.03466422  0.84831709  0.50000000  1
  B  B6  1  0.96533578  0.15168291  0.50000000  1
  B  B7  1  0.46533578  0.34831709  0.50000000  1
  B  B8  1  0.09704588  0.59510865  0.00000000  1
  B  B9  1  0.40489135  0.09704588  0.50000000  1
  B  B10  1  0.59510865  0.90295412  0.50000000  1
  B  B11  1  0.59704588  0.90489135  0.00000000  1
  B  B12  1  0.40295412  0.09510865  0.00000000  1
  B  B13  1  0.90295412  0.40489135  0.00000000  1
  B  B14  1  0.09510865  0.59704588  0.50000000  1
  B  B15  1  0.90489135  0.40295412  0.50000000  1
  C  C16  1  0.17718491  0.04051412  0.50000000  1
  C  C17  1  0.67718491  0.45948588  0.50000000  1
  C  C18  1  0.32281509  0.54051412  0.50000000  1
  C  C19  1  0.95948588  0.17718491  0.00000000  1
  C  C20  1  0.04051412  0.82281509  0.00000000  1
  C  C21  1  0.54051412  0.67718491  0.00000000  1
  C  C22  1  0.82281509  0.95948588  0.50000000  1
  C  C23  1  0.45948588  0.32281509  0.00000000  1
  Y  Y24  1  0.30960478  0.80960478  0.75000000  1
  Y  Y25  1  0.19039522  0.30960478  0.25000000  1
  Y  Y26  1  0.80960478  0.69039522  0.25000000  1
  Y  Y27  1  0.69039522  0.19039522  0.75000000  1
  Y  Y28  1  0.69039522  0.19039522  0.25000000  1
  Y  Y29  1  0.80960478  0.69039522  0.75000000  1
  Y  Y30  1  0.19039522  0.30960478  0.75000000  1
  Y  Y31  1  0.30960478  0.80960478  0.25000000  1
