# generated using pymatgen
data_Rb2NaAsF6
_symmetry_space_group_name_H-M   'P 1'
_cell_length_a   6.23203081
_cell_length_b   6.23203087
_cell_length_c   6.23203086
_cell_angle_alpha   59.99999968
_cell_angle_beta   59.99999957
_cell_angle_gamma   59.99999958
_symmetry_Int_Tables_number   1
_chemical_formula_structural   Rb2NaAsF6
_chemical_formula_sum   'Rb2 Na1 As1 F6'
_cell_volume   171.14876961
_cell_formula_units_Z   1
loop_
 _symmetry_equiv_pos_site_id
 _symmetry_equiv_pos_as_xyz
  1  'x, y, z'
loop_
 _atom_site_type_symbol
 _atom_site_label
 _atom_site_symmetry_multiplicity
 _atom_site_fract_x
 _atom_site_fract_y
 _atom_site_fract_z
 _atom_site_occupancy
  Rb  Rb0  1  0.25000000  0.25000000  0.25000000  1
  Rb  Rb1  1  0.75000000  0.75000000  0.75000000  1
  Na  Na2  1  0.50000000  0.50000000  0.50000000  1
  As  As3  1  -0.00000000  0.00000000  0.00000000  1
  F  F4  1  0.23584485  0.76415514  0.23584486  1
  F  F5  1  0.76415515  0.76415514  0.23584486  1
  F  F6  1  0.76415515  0.23584486  0.76415514  1
  F  F7  1  0.76415515  0.23584486  0.23584486  1
  F  F8  1  0.23584485  0.76415514  0.76415514  1
  F  F9  1  0.23584485  0.23584486  0.76415514  1
