# generated using pymatgen
data_Bi2Rh3S2
_symmetry_space_group_name_H-M   'P 1'
_cell_length_a   7.12141387
_cell_length_b   7.12141387
_cell_length_c   7.25083499
_cell_angle_alpha   109.04953465
_cell_angle_beta   111.12638973
_cell_angle_gamma   107.50002777
_symmetry_Int_Tables_number   1
_chemical_formula_structural   Bi2Rh3S2
_chemical_formula_sum   'Bi4 Rh6 S4'
_cell_volume   285.40402870
_cell_formula_units_Z   2
loop_
 _symmetry_equiv_pos_site_id
 _symmetry_equiv_pos_as_xyz
  1  'x, y, z'
loop_
 _atom_site_type_symbol
 _atom_site_label
 _atom_site_symmetry_multiplicity
 _atom_site_fract_x
 _atom_site_fract_y
 _atom_site_fract_z
 _atom_site_occupancy
  Bi  Bi0  1  0.25152969  0.99279028  0.24431797  1
  Bi  Bi1  1  0.74910152  0.49882021  0.24791973  1
  Bi  Bi2  1  0.25089848  0.50118079  0.75208027  1
  Bi  Bi3  1  0.74847131  0.00720972  0.75568203  1
  Rh  Rh4  1  0.00000000  0.49999900  0.00000000  1
  Rh  Rh5  1  0.24827361  0.24827361  0.00000000  1
  Rh  Rh6  1  0.75172639  0.75172639  0.00000000  1
  Rh  Rh7  1  0.50000000  0.00000100  0.00000000  1
  Rh  Rh8  1  0.99708143  0.24382300  0.24090343  1
  Rh  Rh9  1  0.00291957  0.75617700  0.75909657  1
  S  S10  1  0.30314995  0.54522771  0.30683859  1
  S  S11  1  0.76161187  0.00368964  0.30683859  1
  S  S12  1  0.69685005  0.45477329  0.69316041  1
  S  S13  1  0.23838813  0.99631136  0.69316141  1
