# generated using pymatgen
data_Sm2(CuAs)3
_symmetry_space_group_name_H-M   'P 1'
_cell_length_a   13.41960799
_cell_length_b   4.03825331
_cell_length_c   11.07319115
_cell_angle_alpha   90.00000000
_cell_angle_beta   90.00000000
_cell_angle_gamma   90.00000000
_symmetry_Int_Tables_number   1
_chemical_formula_structural   Sm2(CuAs)3
_chemical_formula_sum   'Sm8 Cu12 As12'
_cell_volume   600.07589866
_cell_formula_units_Z   4
loop_
 _symmetry_equiv_pos_site_id
 _symmetry_equiv_pos_as_xyz
  1  'x, y, z'
loop_
 _atom_site_type_symbol
 _atom_site_label
 _atom_site_symmetry_multiplicity
 _atom_site_fract_x
 _atom_site_fract_y
 _atom_site_fract_z
 _atom_site_occupancy
  Sm  Sm0  1  0.79689625  0.24999900  0.93045841  1
  Sm  Sm1  1  0.70310475  0.75000100  0.43045941  1
  Sm  Sm2  1  0.29689625  0.24999900  0.56954159  1
  Sm  Sm3  1  0.20310375  0.75000100  0.06954159  1
  Sm  Sm4  1  0.50369382  0.24999900  0.84210859  1
  Sm  Sm5  1  0.99630618  0.75000100  0.34210959  1
  Sm  Sm6  1  0.00369382  0.24999900  0.65789041  1
  Sm  Sm7  1  0.49630518  0.75000100  0.15788941  1
  Cu  Cu8  1  0.51338367  0.24999900  0.39298662  1
  Cu  Cu9  1  0.98661633  0.75000100  0.89298562  1
  Cu  Cu10  1  0.01338367  0.24999900  0.10701338  1
  Cu  Cu11  1  0.48661633  0.75000100  0.60701438  1
  Cu  Cu12  1  0.33330199  0.24999900  0.27622314  1
  Cu  Cu13  1  0.16669701  0.75000100  0.77622314  1
  Cu  Cu14  1  0.83330199  0.24999900  0.22377686  1
  Cu  Cu15  1  0.66669801  0.75000100  0.72377786  1
  Cu  Cu16  1  0.27593974  0.24999900  0.85821919  1
  Cu  Cu17  1  0.22406026  0.75000100  0.35822019  1
  Cu  Cu18  1  0.77594074  0.24999900  0.64177981  1
  Cu  Cu19  1  0.72406026  0.75000100  0.14178081  1
  As  As20  1  0.64471794  0.24999900  0.23483566  1
  As  As21  1  0.85528206  0.75000100  0.73483566  1
  As  As22  1  0.14471794  0.24999900  0.26516434  1
  As  As23  1  0.35528206  0.75000100  0.76516434  1
  As  As24  1  0.59636228  0.24999900  0.59989807  1
  As  As25  1  0.90363772  0.75000100  0.09989907  1
  As  As26  1  0.09636228  0.24999900  0.90010093  1
  As  As27  1  0.40363772  0.75000100  0.40010093  1
  As  As28  1  0.36588186  0.24999900  0.05708064  1
  As  As29  1  0.13411714  0.75000100  0.55708164  1
  As  As30  1  0.86588186  0.24999900  0.44291836  1
  As  As31  1  0.63411814  0.75000100  0.94291736  1
