# generated using pymatgen
data_Na4SnO4
_symmetry_space_group_name_H-M   'P 1'
_cell_length_a   5.95337791
_cell_length_b   5.96644453
_cell_length_c   8.96496266
_cell_angle_alpha   82.35887541
_cell_angle_beta   71.11966926
_cell_angle_gamma   68.56214405
_symmetry_Int_Tables_number   1
_chemical_formula_structural   Na4SnO4
_chemical_formula_sum   'Na8 Sn2 O8'
_cell_volume   280.42166270
_cell_formula_units_Z   2
loop_
 _symmetry_equiv_pos_site_id
 _symmetry_equiv_pos_as_xyz
  1  'x, y, z'
loop_
 _atom_site_type_symbol
 _atom_site_label
 _atom_site_symmetry_multiplicity
 _atom_site_fract_x
 _atom_site_fract_y
 _atom_site_fract_z
 _atom_site_occupancy
  O  O0  1  0.12671633  0.51700117  0.80490391  1
  O  O1  1  0.87328367  0.48299883  0.19509609  1
  O  O2  1  0.79927699  0.01456675  0.37874297  1
  O  O3  1  0.20072301  0.98543325  0.62125703  1
  O  O4  1  0.32086063  0.47735775  0.37099469  1
  O  O5  1  0.67913937  0.52264225  0.62900531  1
  O  O6  1  0.35103502  0.84049561  0.95687870  1
  O  O7  1  0.64896498  0.15950439  0.04312130  1
  Na  Na8  1  0.25536128  0.24316242  0.00758199  1
  Na  Na9  1  0.74463872  0.75683758  0.99241801  1
  Na  Na10  1  0.01841247  0.26389538  0.43581138  1
  Na  Na11  1  0.98158753  0.73610462  0.56418862  1
  Na  Na12  1  0.43606183  0.24907268  0.59536808  1
  Na  Na13  1  0.56393817  0.75092732  0.40463192  1
  Na  Na14  1  0.11276632  0.71989374  0.19462547  1
  Na  Na15  1  0.88723368  0.28010626  0.80537453  1
  Sn  Sn16  1  0.34097915  0.72191901  0.76511643  1
  Sn  Sn17  1  0.65902085  0.27808099  0.23488357  1
