# generated using pymatgen
data_Na2NbF6
_symmetry_space_group_name_H-M   'P 1'
_cell_length_a   5.12204784
_cell_length_b   5.12204784
_cell_length_c   10.46344021
_cell_angle_alpha   90.00000000
_cell_angle_beta   90.00000000
_cell_angle_gamma   90.00000000
_symmetry_Int_Tables_number   1
_chemical_formula_structural   Na2NbF6
_chemical_formula_sum   'Na4 Nb2 F12'
_cell_volume   274.51226802
_cell_formula_units_Z   2
loop_
 _symmetry_equiv_pos_site_id
 _symmetry_equiv_pos_as_xyz
  1  'x, y, z'
loop_
 _atom_site_type_symbol
 _atom_site_label
 _atom_site_symmetry_multiplicity
 _atom_site_fract_x
 _atom_site_fract_y
 _atom_site_fract_z
 _atom_site_occupancy
  F  F0  1  0.68553142  0.68553142  0.64718407  1
  F  F1  1  0.31446858  0.31446858  0.64718407  1
  F  F2  1  0.68553142  0.68553142  0.35281593  1
  F  F3  1  0.18553142  0.81446858  0.14718407  1
  F  F4  1  0.81446858  0.18553142  0.14718407  1
  F  F5  1  0.81446858  0.18553142  0.85281593  1
  F  F6  1  0.27255994  0.27255994  0.00000000  1
  F  F7  1  0.22744006  0.77255994  0.50000000  1
  F  F8  1  0.77255994  0.22744006  0.50000000  1
  F  F9  1  0.72744006  0.72744006  0.00000000  1
  F  F10  1  0.31446858  0.31446858  0.35281593  1
  F  F11  1  0.18553142  0.81446858  0.85281593  1
  Na  Na12  1  0.00000000  0.00000000  0.33242103  1
  Na  Na13  1  0.50000000  0.50000000  0.83242103  1
  Na  Na14  1  0.00000000  0.00000000  0.66757897  1
  Na  Na15  1  0.50000000  0.50000000  0.16757897  1
  Nb  Nb16  1  0.00000000  0.00000000  0.00000000  1
  Nb  Nb17  1  0.50000000  0.50000000  0.50000000  1
