# generated using pymatgen
data_NbCo3
_symmetry_space_group_name_H-M   'P 1'
_cell_length_a   5.20150049
_cell_length_b   5.20136314
_cell_length_c   4.16075233
_cell_angle_alpha   90.00000000
_cell_angle_beta   90.00000000
_cell_angle_gamma   119.99588737
_symmetry_Int_Tables_number   1
_chemical_formula_structural   NbCo3
_chemical_formula_sum   'Nb2 Co6'
_cell_volume   97.49140125
_cell_formula_units_Z   2
loop_
 _symmetry_equiv_pos_site_id
 _symmetry_equiv_pos_as_xyz
  1  'x, y, z'
loop_
 _atom_site_type_symbol
 _atom_site_label
 _atom_site_symmetry_multiplicity
 _atom_site_fract_x
 _atom_site_fract_y
 _atom_site_fract_z
 _atom_site_occupancy
  Nb  Nb0  1  0.66669317  0.33335486  0.25000000  1
  Nb  Nb1  1  0.33338429  0.66669793  0.74999900  1
  Co  Co2  1  0.31495072  0.15749698  0.74999900  1
  Co  Co3  1  0.84248898  0.68500363  0.74999900  1
  Co  Co4  1  0.15746602  0.84254249  0.25000000  1
  Co  Co5  1  0.68504648  0.84253750  0.25000000  1
  Co  Co6  1  0.15743610  0.31488535  0.25000000  1
  Co  Co7  1  0.84253823  0.15748326  0.74999900  1
