# generated using pymatgen
data_K2PAuS4
_symmetry_space_group_name_H-M   'P 1'
_cell_length_a   6.74274694
_cell_length_b   6.88299779
_cell_length_c   9.58434330
_cell_angle_alpha   90.00000000
_cell_angle_beta   93.18310093
_cell_angle_gamma   90.00000000
_symmetry_Int_Tables_number   1
_chemical_formula_structural   K2PAuS4
_chemical_formula_sum   'K4 P2 Au2 S8'
_cell_volume   444.12610265
_cell_formula_units_Z   2
loop_
 _symmetry_equiv_pos_site_id
 _symmetry_equiv_pos_as_xyz
  1  'x, y, z'
loop_
 _atom_site_type_symbol
 _atom_site_label
 _atom_site_symmetry_multiplicity
 _atom_site_fract_x
 _atom_site_fract_y
 _atom_site_fract_z
 _atom_site_occupancy
  P  P0  1  0.26751918  0.25000000  0.27990762  1
  P  P1  1  0.73248082  0.75000000  0.72009238  1
  S  S2  1  0.69578243  0.75000000  0.50894761  1
  S  S3  1  0.30421757  0.25000000  0.49105239  1
  S  S4  1  0.47877212  0.75000000  0.82360899  1
  S  S5  1  0.52122788  0.25000000  0.17639101  1
  S  S6  1  0.90164886  0.49908154  0.76361632  1
  S  S7  1  0.09835114  0.99908154  0.23638368  1
  S  S8  1  0.90164886  0.00091846  0.76361632  1
  S  S9  1  0.09835114  0.50091846  0.23638368  1
  K  K10  1  0.51951103  0.75000000  0.16295386  1
  K  K11  1  0.48048897  0.25000000  0.83704614  1
  K  K12  1  0.20341110  0.75000000  0.53932809  1
  K  K13  1  0.79658890  0.25000000  0.46067191  1
  Au  Au14  1  0.00000000  0.00000000  0.00000000  1
  Au  Au15  1  0.00000000  0.50000000  0.00000000  1
