# generated using pymatgen
data_K3Gd(PO4)2
_symmetry_space_group_name_H-M   'P 1'
_cell_length_a   7.51437137
_cell_length_b   5.67612993
_cell_length_c   9.53462269
_cell_angle_alpha   90.00000000
_cell_angle_beta   91.40212941
_cell_angle_gamma   90.00000000
_symmetry_Int_Tables_number   1
_chemical_formula_structural   K3Gd(PO4)2
_chemical_formula_sum   'K6 Gd2 P4 O16'
_cell_volume   406.55418796
_cell_formula_units_Z   2
loop_
 _symmetry_equiv_pos_site_id
 _symmetry_equiv_pos_as_xyz
  1  'x, y, z'
loop_
 _atom_site_type_symbol
 _atom_site_label
 _atom_site_symmetry_multiplicity
 _atom_site_fract_x
 _atom_site_fract_y
 _atom_site_fract_z
 _atom_site_occupancy
  K  K0  1  0.36334207  0.25000000  0.59198515  1
  K  K1  1  0.63665793  0.75000100  0.40801485  1
  K  K2  1  0.50660185  0.25000000  0.18942467  1
  K  K3  1  0.49339715  0.75000100  0.81057433  1
  K  K4  1  0.19915138  0.75000100  0.08268485  1
  K  K5  1  0.80084762  0.25000000  0.91731415  1
  Gd  Gd6  1  0.00617045  0.25000000  0.29173268  1
  Gd  Gd7  1  0.99383055  0.75000100  0.70826732  1
  P  P8  1  0.23104984  0.25000000  0.91086236  1
  P  P9  1  0.76895116  0.75000100  0.08913664  1
  P  P10  1  0.81007993  0.25000000  0.57231208  1
  P  P11  1  0.18992107  0.75000100  0.42768792  1
  O  O12  1  0.17484487  0.25000000  0.06741508  1
  O  O13  1  0.82515413  0.75000100  0.93258492  1
  O  O14  1  0.43457307  0.25000000  0.89781258  1
  O  O15  1  0.56542693  0.75000100  0.10218742  1
  O  O16  1  0.84838415  0.97411741  0.16360280  1
  O  O17  1  0.15161585  0.47411841  0.83639720  1
  O  O18  1  0.15161585  0.02588159  0.83639720  1
  O  O19  1  0.84838415  0.52588259  0.16360280  1
  O  O20  1  0.71745802  0.25000000  0.42369097  1
  O  O21  1  0.28254198  0.75000100  0.57631003  1
  O  O22  1  0.75594348  0.47418298  0.65630982  1
  O  O23  1  0.24405752  0.97418198  0.34369018  1
  O  O24  1  0.24405752  0.52581702  0.34369018  1
  O  O25  1  0.75594348  0.02581802  0.65630982  1
  O  O26  1  0.01325493  0.25000000  0.54683556  1
  O  O27  1  0.98674507  0.75000100  0.45316544  1
