# generated using pymatgen
data_Li9Co7O16
_symmetry_space_group_name_H-M   'P 1'
_cell_length_a   3.00249740
_cell_length_b   5.17076324
_cell_length_c   19.79340843
_cell_angle_alpha   101.72963343
_cell_angle_beta   89.99999880
_cell_angle_gamma   73.12205112
_symmetry_Int_Tables_number   1
_chemical_formula_structural   Li9Co7O16
_chemical_formula_sum   'Li9 Co7 O16'
_cell_volume   287.34752298
_cell_formula_units_Z   1
loop_
 _symmetry_equiv_pos_site_id
 _symmetry_equiv_pos_as_xyz
  1  'x, y, z'
loop_
 _atom_site_type_symbol
 _atom_site_label
 _atom_site_symmetry_multiplicity
 _atom_site_fract_x
 _atom_site_fract_y
 _atom_site_fract_z
 _atom_site_occupancy
  Li  Li0  1  0.24814542  0.50370916  0.06321006  1
  Li  Li1  1  0.75185458  0.49629084  0.18678994  1
  Li  Li2  1  0.25168530  0.49662940  0.31201722  1
  Li  Li3  1  0.75003166  0.49993668  0.43733098  1
  Li  Li4  1  0.24870702  0.50258597  0.56266078  1
  Li  Li5  1  0.75129298  0.49741403  0.68733922  1
  Li  Li6  1  0.24996834  0.50006332  0.81266902  1
  Li  Li7  1  0.74831470  0.50337060  0.93798278  1
  Li  Li8  1  0.50000000  -0.00000000  0.12500000  1
  Co  Co9  1  0.00087318  -0.00174637  0.00506179  1
  Co  Co10  1  -0.00087318  0.00174637  0.24493821  1
  Co  Co11  1  0.49977546  0.00044908  0.37402662  1
  Co  Co12  1  0.00092613  0.99814774  0.50029878  1
  Co  Co13  1  0.50000000  -0.00000000  0.62500000  1
  Co  Co14  1  0.99907387  0.00185226  0.74970122  1
  Co  Co15  1  0.50022454  0.99955092  0.87597338  1
  O  O16  1  0.38685457  0.22629085  0.96583086  1
  O  O17  1  0.88346997  0.23306006  0.08409934  1
  O  O18  1  0.38619292  0.22761416  0.22133518  1
  O  O19  1  0.88865220  0.22269561  0.33822310  1
  O  O20  1  0.38353791  0.23292419  0.46550642  1
  O  O21  1  0.88568990  0.22862019  0.59166820  1
  O  O22  1  0.38630757  0.22738486  0.71480957  1
  O  O23  1  0.88357900  0.23284200  0.84064519  1
  O  O24  1  0.11653003  0.76693994  0.16590066  1
  O  O25  1  0.61314543  0.77370915  0.28416914  1
  O  O26  1  0.11642100  0.76715800  0.40935481  1
  O  O27  1  0.61369243  0.77261514  0.53519043  1
  O  O28  1  0.11431010  0.77137981  0.65833180  1
  O  O29  1  0.61646209  0.76707581  0.78449358  1
  O  O30  1  0.11134780  0.77730439  0.91177690  1
  O  O31  1  0.61380708  0.77238584  0.02866482  1
