# generated using pymatgen
data_Sm2(ReB2)3
_symmetry_space_group_name_H-M   'P 1'
_cell_length_a   6.28562571
_cell_length_b   6.28544826
_cell_length_c   7.56871496
_cell_angle_alpha   89.46580951
_cell_angle_beta   90.53263584
_cell_angle_gamma   65.55917585
_symmetry_Int_Tables_number   1
_chemical_formula_structural   Sm2(ReB2)3
_chemical_formula_sum   'Sm4 Re6 B12'
_cell_volume   272.18848562
_cell_formula_units_Z   2
loop_
 _symmetry_equiv_pos_site_id
 _symmetry_equiv_pos_as_xyz
  1  'x, y, z'
loop_
 _atom_site_type_symbol
 _atom_site_label
 _atom_site_symmetry_multiplicity
 _atom_site_fract_x
 _atom_site_fract_y
 _atom_site_fract_z
 _atom_site_occupancy
  Sm  Sm0  1  0.55827646  0.09524821  0.17549462  1
  Sm  Sm1  1  0.09522414  0.55833043  0.32450871  1
  Sm  Sm2  1  0.44167484  0.90478195  0.82451559  1
  Sm  Sm3  1  0.90476249  0.44171748  0.67549162  1
  Re  Re4  1  0.19451856  0.98990796  0.41232662  1
  Re  Re5  1  0.98995909  0.19449130  0.08768183  1
  Re  Re6  1  0.80550000  0.01002121  0.58766798  1
  Re  Re7  1  0.01007982  0.80549979  0.91232460  1
  Re  Re8  1  0.58561431  0.58559802  0.24998545  1
  Re  Re9  1  0.41440388  0.41439532  0.74997457  1
  B  B10  1  0.84681772  0.24522429  0.36847568  1
  B  B11  1  0.24522192  0.84683914  0.13152204  1
  B  B12  1  0.15315604  0.75478581  0.63151610  1
  B  B13  1  0.75477637  0.15318413  0.86847075  1
  B  B14  1  0.83994889  0.58762790  0.02004785  1
  B  B15  1  0.58763005  0.83995501  0.47996200  1
  B  B16  1  0.16005031  0.41235918  0.97997202  1
  B  B17  1  0.41238396  0.16004807  0.52004381  1
  B  B18  1  0.65016071  0.44271095  0.96534152  1
  B  B19  1  0.44271359  0.65015432  0.53466447  1
  B  B20  1  0.34984650  0.55728187  0.03467096  1
  B  B21  1  0.55728037  0.34983766  0.46533722  1
