# generated using pymatgen
data_Ba3NaRuO6
_symmetry_space_group_name_H-M   'P 1'
_cell_length_a   7.15853871
_cell_length_b   7.15853871
_cell_length_c   7.15853871
_cell_angle_alpha   91.51151388
_cell_angle_beta   91.51151393
_cell_angle_gamma   91.51151388
_symmetry_Int_Tables_number   1
_chemical_formula_structural   Ba3NaRuO6
_chemical_formula_sum   'Ba6 Na2 Ru2 O12'
_cell_volume   366.44719788
_cell_formula_units_Z   2
loop_
 _symmetry_equiv_pos_site_id
 _symmetry_equiv_pos_as_xyz
  1  'x, y, z'
loop_
 _atom_site_type_symbol
 _atom_site_label
 _atom_site_symmetry_multiplicity
 _atom_site_fract_x
 _atom_site_fract_y
 _atom_site_fract_z
 _atom_site_occupancy
  O  O0  1  0.76554033  0.44853491  0.58061173  1
  O  O1  1  0.44853491  0.58061173  0.76554033  1
  O  O2  1  0.58061173  0.76554033  0.44853491  1
  O  O3  1  0.91938827  0.05146509  0.73445967  1
  O  O4  1  0.05146509  0.73445967  0.91938827  1
  O  O5  1  0.73445967  0.91938827  0.05146509  1
  O  O6  1  0.23445967  0.55146509  0.41938827  1
  O  O7  1  0.55146509  0.41938827  0.23445967  1
  O  O8  1  0.41938827  0.23445967  0.55146509  1
  O  O9  1  0.08061173  0.94853491  0.26554033  1
  O  O10  1  0.26554033  0.08061173  0.94853491  1
  O  O11  1  0.94853491  0.26554033  0.08061173  1
  Na  Na12  1  0.25000000  0.25000000  0.25000000  1
  Na  Na13  1  0.75000000  0.75000000  0.75000000  1
  Ru  Ru14  1  0.00000000  0.00000000  0.00000000  1
  Ru  Ru15  1  0.50000000  0.50000000  0.50000000  1
  Ba  Ba16  1  0.75000000  0.10693001  0.39306999  1
  Ba  Ba17  1  0.10693001  0.39306999  0.75000000  1
  Ba  Ba18  1  0.25000000  0.89306999  0.60693001  1
  Ba  Ba19  1  0.89306999  0.60693001  0.25000000  1
  Ba  Ba20  1  0.39306999  0.75000000  0.10693001  1
  Ba  Ba21  1  0.60693001  0.25000000  0.89306999  1
