# generated using pymatgen
data_Sm(BRu)2
_symmetry_space_group_name_H-M   'P 1'
_cell_length_a   5.60336720
_cell_length_b   5.60336720
_cell_length_c   5.95159049
_cell_angle_alpha   108.88530564
_cell_angle_beta   108.88530564
_cell_angle_gamma   108.20517311
_symmetry_Int_Tables_number   1
_chemical_formula_structural   Sm(BRu)2
_chemical_formula_sum   'Sm2 B4 Ru4'
_cell_volume   148.01433101
_cell_formula_units_Z   2
loop_
 _symmetry_equiv_pos_site_id
 _symmetry_equiv_pos_as_xyz
  1  'x, y, z'
loop_
 _atom_site_type_symbol
 _atom_site_label
 _atom_site_symmetry_multiplicity
 _atom_site_fract_x
 _atom_site_fract_y
 _atom_site_fract_z
 _atom_site_occupancy
  Sm  Sm0  1  0.00000000  0.00000000  0.00000000  1
  Sm  Sm1  1  0.25000000  0.75000000  0.49999900  1
  B  B2  1  0.68497609  0.31502391  0.00000000  1
  B  B3  1  0.31502391  0.68497609  0.00000000  1
  B  B4  1  0.93516914  0.06483086  0.49999900  1
  B  B5  1  0.56483186  0.43516914  0.49999900  1
  Ru  Ru6  1  0.61281764  0.11281764  0.22563427  1
  Ru  Ru7  1  0.63727384  0.63727384  0.27454769  1
  Ru  Ru8  1  0.36272616  0.36272616  0.72545331  1
  Ru  Ru9  1  0.88718236  0.38718236  0.77436373  1
