# generated using pymatgen
data_KDy(CO3)2
_symmetry_space_group_name_H-M   'P 1'
_cell_length_a   6.42229722
_cell_length_b   6.42229723
_cell_length_c   7.06981122
_cell_angle_alpha   103.36569008
_cell_angle_beta   103.36569005
_cell_angle_gamma   97.16809937
_symmetry_Int_Tables_number   1
_chemical_formula_structural   KDy(CO3)2
_chemical_formula_sum   'K2 Dy2 C4 O12'
_cell_volume   271.08189896
_cell_formula_units_Z   2
loop_
 _symmetry_equiv_pos_site_id
 _symmetry_equiv_pos_as_xyz
  1  'x, y, z'
loop_
 _atom_site_type_symbol
 _atom_site_label
 _atom_site_symmetry_multiplicity
 _atom_site_fract_x
 _atom_site_fract_y
 _atom_site_fract_z
 _atom_site_occupancy
  C  C0  1  0.14387380  0.39665624  0.25120874  1
  C  C1  1  0.60334376  0.85612620  0.24879126  1
  C  C2  1  0.85612620  0.60334376  0.74879126  1
  C  C3  1  0.39665624  0.14387380  0.75120874  1
  O  O4  1  0.40790814  0.94372514  0.73406589  1
  O  O5  1  0.05627486  0.59209186  0.76593411  1
  O  O6  1  0.59209186  0.05627486  0.26593411  1
  O  O7  1  0.94372514  0.40790814  0.23406589  1
  O  O8  1  0.25744498  0.20772660  0.62301393  1
  O  O9  1  0.79227340  0.74255502  0.87698607  1
  O  O10  1  0.74255502  0.79227340  0.37698607  1
  O  O11  1  0.20772660  0.25744498  0.12301393  1
  O  O12  1  0.53408915  0.30017207  0.89888965  1
  O  O13  1  0.69982793  0.46591085  0.60111035  1
  O  O14  1  0.46591085  0.69982793  0.10111035  1
  O  O15  1  0.30017207  0.53408915  0.39888965  1
  K  K16  1  0.88060892  0.11939108  0.75000000  1
  K  K17  1  0.11939108  0.88060892  0.25000000  1
  Dy  Dy18  1  0.40757598  0.59242402  0.75000000  1
  Dy  Dy19  1  0.59242402  0.40757598  0.25000000  1
