# generated using pymatgen
data_Li9Mn2Co5O16
_symmetry_space_group_name_H-M   'P 1'
_cell_length_a   5.16695195
_cell_length_b   7.73049255
_cell_length_c   7.73049246
_cell_angle_alpha   95.49590072
_cell_angle_beta   75.40960280
_cell_angle_gamma   75.40960553
_symmetry_Int_Tables_number   1
_chemical_formula_structural   Li9Mn2Co5O16
_chemical_formula_sum   'Li9 Mn2 Co5 O16'
_cell_volume   284.97500615
_cell_formula_units_Z   1
loop_
 _symmetry_equiv_pos_site_id
 _symmetry_equiv_pos_as_xyz
  1  'x, y, z'
loop_
 _atom_site_type_symbol
 _atom_site_label
 _atom_site_symmetry_multiplicity
 _atom_site_fract_x
 _atom_site_fract_y
 _atom_site_fract_z
 _atom_site_occupancy
  Li  Li0  1  0.99079086  0.13219870  0.37833966  1
  Li  Li1  1  0.00920914  0.62166034  0.86780130  1
  Li  Li2  1  0.50969217  0.00363527  0.50505234  1
  Li  Li3  1  0.49030783  0.49494766  0.99636473  1
  Li  Li4  1  0.99446878  0.86815410  0.62229484  1
  Li  Li5  1  0.00553122  0.37770516  0.13184590  1
  Li  Li6  1  0.51603389  0.74142707  0.73911842  1
  Li  Li7  1  0.48396611  0.26088158  0.25857293  1
  Li  Li8  1  0.00000000  0.50156777  0.49843223  1
  Mn  Mn9  1  1.00000000  0.00050430  0.99949570  1
  Mn  Mn10  1  0.00000000  0.74588868  0.25411132  1
  Co  Co11  1  0.50000000  0.87463216  0.12536784  1
  Co  Co12  1  0.50000000  0.37423129  0.62576871  1
  Co  Co13  1  1.00000000  0.25410694  0.74589306  1
  Co  Co14  1  0.50000000  0.61977727  0.38022273  1
  Co  Co15  1  0.50000000  0.12718705  0.87281295  1
  O  O16  1  0.77206450  0.98962704  0.24005034  1
  O  O17  1  0.74372699  0.47208160  0.73642231  1
  O  O18  1  0.25304940  0.85332744  0.35574309  1
  O  O19  1  0.27423685  0.37068934  0.86226127  1
  O  O20  1  0.76238529  0.75313621  0.48461393  1
  O  O21  1  0.76870030  0.23956839  0.98319402  1
  O  O22  1  0.28686506  0.60941028  0.61441888  1
  O  O23  1  0.27799848  0.11419119  0.12383300  1
  O  O24  1  0.25627301  0.26357769  0.52791840  1
  O  O25  1  0.22793550  0.75994966  0.01037296  1
  O  O26  1  0.72576315  0.13773873  0.62931066  1
  O  O27  1  0.74695060  0.64425691  0.14667256  1
  O  O28  1  0.23129970  0.01680598  0.76043161  1
  O  O29  1  0.23761471  0.51538607  0.24686379  1
  O  O30  1  0.72200152  0.87616700  0.88580881  1
  O  O31  1  0.71313494  0.38558112  0.39058972  1
