# generated using pymatgen
data_KHo(CO3)2
_symmetry_space_group_name_H-M   'P 1'
_cell_length_a   6.40036062
_cell_length_b   6.40036062
_cell_length_c   7.04820293
_cell_angle_alpha   103.36639235
_cell_angle_beta   103.36639240
_cell_angle_gamma   97.03228492
_symmetry_Int_Tables_number   1
_chemical_formula_structural   KHo(CO3)2
_chemical_formula_sum   'K2 Ho2 C4 O12'
_cell_volume   268.53769438
_cell_formula_units_Z   2
loop_
 _symmetry_equiv_pos_site_id
 _symmetry_equiv_pos_as_xyz
  1  'x, y, z'
loop_
 _atom_site_type_symbol
 _atom_site_label
 _atom_site_symmetry_multiplicity
 _atom_site_fract_x
 _atom_site_fract_y
 _atom_site_fract_z
 _atom_site_occupancy
  C  C0  1  0.14383038  0.39746976  0.25187325  1
  C  C1  1  0.60253024  0.85616962  0.24812675  1
  C  C2  1  0.85616962  0.60253024  0.74812675  1
  C  C3  1  0.39746976  0.14383038  0.75187325  1
  O  O4  1  0.40797625  0.94291372  0.73492603  1
  O  O5  1  0.05708628  0.59202375  0.76507397  1
  O  O6  1  0.59202375  0.05708628  0.26507397  1
  O  O7  1  0.94291372  0.40797625  0.23492603  1
  O  O8  1  0.25855098  0.20858270  0.62303047  1
  O  O9  1  0.79141730  0.74144902  0.87696953  1
  O  O10  1  0.74144902  0.79141730  0.37696953  1
  O  O11  1  0.20858270  0.25855098  0.12303047  1
  O  O12  1  0.53522529  0.30039137  0.89987810  1
  O  O13  1  0.69960863  0.46477471  0.60012190  1
  O  O14  1  0.46477471  0.69960863  0.10012190  1
  O  O15  1  0.30039137  0.53522529  0.39987810  1
  K  K16  1  0.88163607  0.11836393  0.75000000  1
  K  K17  1  0.11836393  0.88163607  0.25000000  1
  Ho  Ho18  1  0.40789878  0.59210122  0.75000000  1
  Ho  Ho19  1  0.59210122  0.40789878  0.25000000  1
