# generated using pymatgen
data_TmGePd
_symmetry_space_group_name_H-M   'P 1'
_cell_length_a   11.24253918
_cell_length_b   11.24253918
_cell_length_c   11.24253918
_cell_angle_alpha   157.37408948
_cell_angle_beta   45.93960711
_cell_angle_gamma   140.56808301
_symmetry_Int_Tables_number   1
_chemical_formula_structural   TmGePd
_chemical_formula_sum   'Tm6 Ge6 Pd6'
_cell_volume   346.33357228
_cell_formula_units_Z   6
loop_
 _symmetry_equiv_pos_site_id
 _symmetry_equiv_pos_as_xyz
  1  'x, y, z'
loop_
 _atom_site_type_symbol
 _atom_site_label
 _atom_site_symmetry_multiplicity
 _atom_site_fract_x
 _atom_site_fract_y
 _atom_site_fract_z
 _atom_site_occupancy
  Tm  Tm0  1  0.46700300  0.46700300  0.00000000  1
  Tm  Tm1  1  0.13203164  0.46484986  0.66718178  1
  Tm  Tm2  1  0.79766708  0.46484986  0.33281722  1
  Tm  Tm3  1  0.04821855  0.54821855  0.50000000  1
  Tm  Tm4  1  0.37648237  0.54290766  0.83357470  1
  Tm  Tm5  1  0.70933296  0.54290766  0.16642530  1
  Ge  Ge6  1  0.43711754  0.84429854  0.59282000  1
  Ge  Ge7  1  0.25147853  0.84429854  0.40718000  1
  Ge  Ge8  1  0.92358410  0.16055377  0.76303033  1
  Ge  Ge9  1  0.39752344  0.16055377  0.23696967  1
  Ge  Ge10  1  0.78148957  0.84663290  0.93485667  1
  Ge  Ge11  1  0.91177723  0.84663390  0.06514333  1
  Pd  Pd12  1  0.75099448  0.17827128  0.57272320  1
  Pd  Pd13  1  0.60554808  0.17827128  0.42727680  1
  Pd  Pd14  1  0.56306845  0.83160471  0.73146374  1
  Pd  Pd15  1  0.10014097  0.83160471  0.26853626  1
  Pd  Pd16  1  0.07016147  0.17527050  0.89489097  1
  Pd  Pd17  1  0.28038153  0.17527150  0.10511003  1
