# generated using pymatgen
data_Ce3(SiRh)2
_symmetry_space_group_name_H-M   'P 1'
_cell_length_a   5.54733063
_cell_length_b   7.95276427
_cell_length_c   13.17382137
_cell_angle_alpha   90.00355160
_cell_angle_beta   89.98990753
_cell_angle_gamma   90.01141628
_symmetry_Int_Tables_number   1
_chemical_formula_structural   Ce3(SiRh)2
_chemical_formula_sum   'Ce12 Si8 Rh8'
_cell_volume   581.18435521
_cell_formula_units_Z   4
loop_
 _symmetry_equiv_pos_site_id
 _symmetry_equiv_pos_as_xyz
  1  'x, y, z'
loop_
 _atom_site_type_symbol
 _atom_site_label
 _atom_site_symmetry_multiplicity
 _atom_site_fract_x
 _atom_site_fract_y
 _atom_site_fract_z
 _atom_site_occupancy
  Ce  Ce0  1  0.64420333  0.24149567  0.25010898  1
  Ce  Ce1  1  0.35568337  0.75870431  0.74992258  1
  Ce  Ce2  1  0.64413932  0.25846330  0.74988090  1
  Ce  Ce3  1  0.35577771  0.74133197  0.25008696  1
  Ce  Ce4  1  0.14181778  0.38854874  0.09940560  1
  Ce  Ce5  1  0.85830177  0.61140046  0.59946198  1
  Ce  Ce6  1  0.14192014  0.11133773  0.90038307  1
  Ce  Ce7  1  0.85834090  0.88869912  0.40079176  1
  Ce  Ce8  1  0.85819042  0.61127920  0.90039774  1
  Ce  Ce9  1  0.14163349  0.38850740  0.40073300  1
  Ce  Ce10  1  0.85821718  0.88874261  0.09931493  1
  Ce  Ce11  1  0.14175765  0.11136578  0.59947071  1
  Si  Si12  1  0.64652048  0.25004451  0.99996792  1
  Si  Si13  1  0.35338583  0.75000221  0.50006504  1
  Si  Si14  1  0.35343983  0.74997794  0.99993311  1
  Si  Si15  1  0.64660224  0.25002508  0.50005538  1
  Si  Si16  1  0.14553504  0.09610217  0.25003648  1
  Si  Si17  1  0.85444866  0.90402899  0.74993015  1
  Si  Si18  1  0.14560484  0.40389254  0.74994432  1
  Si  Si19  1  0.85443106  0.59593340  0.25004006  1
  Rh  Rh20  1  0.37742295  0.03429471  0.09256558  1
  Rh  Rh21  1  0.62256141  0.96577019  0.59255628  1
  Rh  Rh22  1  0.37747942  0.46566427  0.90738047  1
  Rh  Rh23  1  0.62259811  0.53435096  0.40753319  1
  Rh  Rh24  1  0.62269879  0.96567121  0.90741628  1
  Rh  Rh25  1  0.37727683  0.03437229  0.40755870  1
  Rh  Rh26  1  0.62264470  0.53440046  0.09253061  1
  Rh  Rh27  1  0.37736473  0.46558677  0.59252623  1
