# generated using pymatgen
data_KAg3Se2
_symmetry_space_group_name_H-M   'P 1'
_cell_length_a   4.43077935
_cell_length_b   8.66652466
_cell_length_c   8.97282495
_cell_angle_alpha   114.55575187
_cell_angle_beta   90.00000000
_cell_angle_gamma   104.81068611
_symmetry_Int_Tables_number   1
_chemical_formula_structural   KAg3Se2
_chemical_formula_sum   'K2 Ag6 Se4'
_cell_volume   300.75820449
_cell_formula_units_Z   2
loop_
 _symmetry_equiv_pos_site_id
 _symmetry_equiv_pos_as_xyz
  1  'x, y, z'
loop_
 _atom_site_type_symbol
 _atom_site_label
 _atom_site_symmetry_multiplicity
 _atom_site_fract_x
 _atom_site_fract_y
 _atom_site_fract_z
 _atom_site_occupancy
  K  K0  1  0.86389106  0.72778212  0.94869781  1
  K  K1  1  0.13610894  0.27221788  0.05130219  1
  Se  Se2  1  0.51394056  0.02788113  0.20867987  1
  Se  Se3  1  0.48605944  0.97211887  0.79132013  1
  Se  Se4  1  0.79801827  0.59603654  0.29577343  1
  Se  Se5  1  0.20198173  0.40396346  0.70422657  1
  Ag  Ag6  1  0.94380647  0.88761293  0.59966410  1
  Ag  Ag7  1  0.05619353  0.11238707  0.40033590  1
  Ag  Ag8  1  0.31336637  0.62673274  0.56757138  1
  Ag  Ag9  1  0.68663363  0.37326726  0.43242862  1
  Ag  Ag10  1  0.40637781  0.81275562  0.35283195  1
  Ag  Ag11  1  0.59362219  0.18724438  0.64716805  1
