# generated using pymatgen
data_Rb2GeSe3
_symmetry_space_group_name_H-M   'P 1'
_cell_length_a   7.26125839
_cell_length_b   8.03971682
_cell_length_c   9.31383366
_cell_angle_alpha   72.97303283
_cell_angle_beta   67.05729773
_cell_angle_gamma   63.15446931
_symmetry_Int_Tables_number   1
_chemical_formula_structural   Rb2GeSe3
_chemical_formula_sum   'Rb4 Ge2 Se6'
_cell_volume   442.21624466
_cell_formula_units_Z   2
loop_
 _symmetry_equiv_pos_site_id
 _symmetry_equiv_pos_as_xyz
  1  'x, y, z'
loop_
 _atom_site_type_symbol
 _atom_site_label
 _atom_site_symmetry_multiplicity
 _atom_site_fract_x
 _atom_site_fract_y
 _atom_site_fract_z
 _atom_site_occupancy
  Ge  Ge0  1  0.88095180  0.05576164  0.18233476  1
  Ge  Ge1  1  0.11904820  0.94423836  0.81766524  1
  Se  Se2  1  0.29722288  0.62910218  0.77645205  1
  Se  Se3  1  0.70277712  0.37089782  0.22354795  1
  Se  Se4  1  0.25007930  0.00000000  0.00000000  1
  Se  Se5  1  0.74992070  0.00000000  0.00000000  1
  Se  Se6  1  0.88727889  0.82349024  0.40195198  1
  Se  Se7  1  0.11272111  0.17650976  0.59804802  1
  Rb  Rb8  1  0.81301955  0.55284867  0.82111222  1
  Rb  Rb9  1  0.18698045  0.44715133  0.17888778  1
  Rb  Rb10  1  0.58908272  0.19760184  0.62423272  1
  Rb  Rb11  1  0.41091728  0.80239816  0.37576728  1
