# generated using pymatgen
data_KSbSe2
_symmetry_space_group_name_H-M   'P 1'
_cell_length_a   6.65986335
_cell_length_b   6.59547152
_cell_length_c   12.60733538
_cell_angle_alpha   89.95963109
_cell_angle_beta   96.87910985
_cell_angle_gamma   89.94825051
_symmetry_Int_Tables_number   1
_chemical_formula_structural   KSbSe2
_chemical_formula_sum   'K4 Sb4 Se8'
_cell_volume   549.78943671
_cell_formula_units_Z   4
loop_
 _symmetry_equiv_pos_site_id
 _symmetry_equiv_pos_as_xyz
  1  'x, y, z'
loop_
 _atom_site_type_symbol
 _atom_site_label
 _atom_site_symmetry_multiplicity
 _atom_site_fract_x
 _atom_site_fract_y
 _atom_site_fract_z
 _atom_site_occupancy
  K  K0  1  0.51602059  0.73791800  0.87977845  1
  K  K1  1  0.48397941  0.26208200  0.12022155  1
  K  K2  1  0.98474753  0.73748100  0.62032529  1
  K  K3  1  0.01525247  0.26251900  0.37967471  1
  Sb  Sb4  1  0.04008045  0.79804442  0.12117784  1
  Sb  Sb5  1  0.95991955  0.20195558  0.87882216  1
  Sb  Sb6  1  0.45994877  0.79805686  0.37898500  1
  Sb  Sb7  1  0.54005123  0.20194314  0.62101500  1
  Se  Se8  1  0.51496673  0.18959181  0.38583643  1
  Se  Se9  1  0.48503327  0.81040819  0.61416357  1
  Se  Se10  1  0.98439589  0.18958734  0.11391814  1
  Se  Se11  1  0.01560411  0.81041266  0.88608186  1
  Se  Se12  1  0.93276102  0.22917503  0.64499753  1
  Se  Se13  1  0.06723898  0.77082497  0.35500247  1
  Se  Se14  1  0.56719673  0.22952533  0.85479940  1
  Se  Se15  1  0.43280327  0.77047467  0.14520060  1
