# generated using pymatgen
data_S
_symmetry_space_group_name_H-M   'P 1'
_cell_length_a   9.24805411
_cell_length_b   9.72109676
_cell_length_c   13.64206067
_cell_angle_alpha   90.00000000
_cell_angle_beta   90.00000000
_cell_angle_gamma   109.92842285
_symmetry_Int_Tables_number   1
_chemical_formula_structural   S
_chemical_formula_sum   S32
_cell_volume   1152.99787664
_cell_formula_units_Z   32
loop_
 _symmetry_equiv_pos_site_id
 _symmetry_equiv_pos_as_xyz
  1  'x, y, z'
loop_
 _atom_site_type_symbol
 _atom_site_label
 _atom_site_symmetry_multiplicity
 _atom_site_fract_x
 _atom_site_fract_y
 _atom_site_fract_z
 _atom_site_occupancy
  S  S0  1  0.31502161  0.68223525  0.65040968  1
  S  S1  1  0.18497839  0.81776475  0.65040968  1
  S  S2  1  0.68497839  0.31776475  0.34959032  1
  S  S3  1  0.81502161  0.18223525  0.34959032  1
  S  S4  1  0.44370395  0.65949853  0.42273748  1
  S  S5  1  0.05629605  0.84050147  0.42273748  1
  S  S6  1  0.55629605  0.34050147  0.57726252  1
  S  S7  1  0.94370395  0.15949853  0.57726252  1
  S  S8  1  0.49824251  0.76511147  0.55583144  1
  S  S9  1  0.00175749  0.73488853  0.55583144  1
  S  S10  1  0.50175749  0.23488853  0.44416856  1
  S  S11  1  0.99824251  0.26511147  0.44416856  1
  S  S12  1  0.36852250  0.78607699  0.32774724  1
  S  S13  1  0.13147750  0.71392301  0.32774724  1
  S  S14  1  0.63147750  0.21392301  0.67225276  1
  S  S15  1  0.86852250  0.28607699  0.67225276  1
  S  S16  1  0.21999921  0.13761468  0.20183488  1
  S  S17  1  0.28000079  0.36238532  0.20183488  1
  S  S18  1  0.78000079  0.86238532  0.79816512  1
  S  S19  1  0.71999921  0.63761468  0.79816512  1
  S  S20  1  0.25382525  0.01971626  0.97408227  1
  S  S21  1  0.24617475  0.48028374  0.97408227  1
  S  S22  1  0.74617475  0.98028374  0.02591773  1
  S  S23  1  0.75382525  0.51971626  0.02591773  1
  S  S24  1  0.36293563  0.07857893  0.10733179  1
  S  S25  1  0.13706437  0.42142107  0.10733179  1
  S  S26  1  0.63706437  0.92142107  0.89266821  1
  S  S27  1  0.86293563  0.57857893  0.89266821  1
  S  S28  1  0.32823184  0.19553036  0.87959396  1
  S  S29  1  0.17176816  0.30446964  0.87959396  1
  S  S30  1  0.67176816  0.80446964  0.12040604  1
  S  S31  1  0.82823184  0.69553036  0.12040604  1
