# generated using pymatgen
data_Cs5Tl11Cd2
_symmetry_space_group_name_H-M   'P 1'
_cell_length_a   5.89596059
_cell_length_b   11.51842094
_cell_length_c   11.51842094
_cell_angle_alpha   72.44968304
_cell_angle_beta   90.00000000
_cell_angle_gamma   90.00000000
_symmetry_Int_Tables_number   1
_chemical_formula_structural   Cs5Tl11Cd2
_chemical_formula_sum   'Cs5 Tl11 Cd2'
_cell_volume   745.82944872
_cell_formula_units_Z   1
loop_
 _symmetry_equiv_pos_site_id
 _symmetry_equiv_pos_as_xyz
  1  'x, y, z'
loop_
 _atom_site_type_symbol
 _atom_site_label
 _atom_site_symmetry_multiplicity
 _atom_site_fract_x
 _atom_site_fract_y
 _atom_site_fract_z
 _atom_site_occupancy
  Cs  Cs0  1  0.00000000  0.39197862  0.22664408  1
  Cs  Cs1  1  0.49999900  0.10485014  0.51383789  1
  Cs  Cs2  1  0.00000000  0.77335592  0.60802138  1
  Cs  Cs3  1  0.00000000  0.36856773  0.63143227  1
  Cs  Cs4  1  0.49999900  0.48616311  0.89514986  1
  Tl  Tl5  1  0.49999900  0.66249528  0.13776786  1
  Tl  Tl6  1  0.49999900  0.15730421  0.14732986  1
  Tl  Tl7  1  0.00000000  0.71596955  0.28402945  1
  Tl  Tl8  1  0.00000000  0.02268793  0.28746359  1
  Tl  Tl9  1  0.49999900  0.86223214  0.33750472  1
  Tl  Tl10  1  0.49999900  0.57017010  0.42982990  1
  Tl  Tl11  1  0.00000000  0.01338883  0.79484581  1
  Tl  Tl12  1  0.49999900  0.16305977  0.83693923  1
  Tl  Tl13  1  0.49999900  0.85267014  0.84269579  1
  Tl  Tl14  1  0.00000000  0.71253541  0.97731207  1
  Tl  Tl15  1  0.00000000  0.20515419  0.98661117  1
  Cd  Cd16  1  0.25013523  0.93725847  0.06274153  1
  Cd  Cd17  1  0.74986377  0.93725847  0.06274153  1
