# generated using pymatgen
data_Na(BH)6
_symmetry_space_group_name_H-M   'P 1'
_cell_length_a   7.02650089
_cell_length_b   10.59084482
_cell_length_c   6.85677719
_cell_angle_alpha   90.00003564
_cell_angle_beta   95.34282846
_cell_angle_gamma   90.00002102
_symmetry_Int_Tables_number   1
_chemical_formula_structural   Na(BH)6
_chemical_formula_sum   'Na4 B24 H24'
_cell_volume   508.04103217
_cell_formula_units_Z   4
loop_
 _symmetry_equiv_pos_site_id
 _symmetry_equiv_pos_as_xyz
  1  'x, y, z'
loop_
 _atom_site_type_symbol
 _atom_site_label
 _atom_site_symmetry_multiplicity
 _atom_site_fract_x
 _atom_site_fract_y
 _atom_site_fract_z
 _atom_site_occupancy
  Na  Na0  1  0.51175080  0.80955872  0.62419954  1
  Na  Na1  1  0.98824860  0.30955858  0.87580188  1
  Na  Na2  1  0.48824619  0.19044172  0.37579868  1
  Na  Na3  1  0.01175013  0.69044185  0.12419954  1
  B  B4  1  0.57446529  0.65136531  0.98417384  1
  B  B5  1  0.92553482  0.15136540  0.51582654  1
  B  B6  1  0.42553499  0.34863471  0.01582593  1
  B  B7  1  0.07446516  0.84863469  0.48417300  1
  B  B8  1  0.27944608  0.47828971  0.07215838  1
  B  B9  1  0.22055394  0.97828996  0.42784134  1
  B  B10  1  0.72055511  0.52171015  0.92784147  1
  B  B11  1  0.77944613  0.02171043  0.57215902  1
  B  B12  1  0.43054991  0.60268186  0.16928246  1
  B  B13  1  0.06945011  0.10268207  0.33071814  1
  B  B14  1  0.56945008  0.39731846  0.83071891  1
  B  B15  1  0.93054946  0.89731779  0.66928279  1
  B  B16  1  0.51277684  0.55755497  0.77114129  1
  B  B17  1  0.98722403  0.05755574  0.72885902  1
  B  B18  1  0.48722371  0.44244457  0.22885923  1
  B  B19  1  0.01277628  0.94244505  0.27114042  1
  B  B20  1  0.33232294  0.60740676  0.91994733  1
  B  B21  1  0.16767689  0.10740658  0.58005203  1
  B  B22  1  0.66767783  0.39259266  0.08005261  1
  B  B23  1  0.83232194  0.89259318  0.41994728  1
  B  B24  1  0.32886155  0.45125989  0.82473394  1
  B  B25  1  0.17113870  0.95126049  0.67526487  1
  B  B26  1  0.67113750  0.54873910  0.17526432  1
  B  B27  1  0.82886279  0.04873932  0.32473700  1
  H  H28  1  0.21397562  0.68367879  0.86026815  1
  H  H29  1  0.28602633  0.18367917  0.63973352  1
  H  H30  1  0.78602561  0.31632078  0.13973316  1
  H  H31  1  0.71397506  0.81632135  0.36026697  1
  H  H32  1  0.20944478  0.41901139  0.69683938  1
  H  H33  1  0.29055533  0.91901156  0.80315928  1
  H  H34  1  0.79055615  0.58098852  0.30316028  1
  H  H35  1  0.70944437  0.08098889  0.19683833  1
  H  H36  1  0.52383930  0.59477146  0.60735099  1
  H  H37  1  0.97616146  0.09477167  0.89264991  1
  H  H38  1  0.47616057  0.40522849  0.39264888  1
  H  H39  1  0.02383995  0.90522887  0.10735030  1
  H  H40  1  0.37956324  0.67583042  0.28787495  1
  H  H41  1  0.12043768  0.17583037  0.21212557  1
  H  H42  1  0.62043705  0.32416931  0.71212385  1
  H  H43  1  0.87956286  0.82416947  0.78787483  1
  H  H44  1  0.62696014  0.75954306  0.97518930  1
  H  H45  1  0.87304019  0.25954359  0.52481042  1
  H  H46  1  0.37304000  0.24045659  0.02481039  1
  H  H47  1  0.12695996  0.74045693  0.47518865  1
  H  H48  1  0.12406211  0.46207228  0.12958448  1
  H  H49  1  0.37593847  0.96207206  0.37041478  1
  H  H50  1  0.87593771  0.53792808  0.87041559  1
  H  H51  1  0.62406124  0.03792821  0.62958524  1
