# generated using pymatgen
data_SrLi2(SiN2)2
_symmetry_space_group_name_H-M   'P 1'
_cell_length_a   10.78845932
_cell_length_b   10.78845932
_cell_length_c   10.78845932
_cell_angle_alpha   90.00000000
_cell_angle_beta   90.00000000
_cell_angle_gamma   90.00000000
_symmetry_Int_Tables_number   1
_chemical_formula_structural   SrLi2(SiN2)2
_chemical_formula_sum   'Sr12 Li24 Si24 N48'
_cell_volume   1255.67799899
_cell_formula_units_Z   12
loop_
 _symmetry_equiv_pos_site_id
 _symmetry_equiv_pos_as_xyz
  1  'x, y, z'
loop_
 _atom_site_type_symbol
 _atom_site_label
 _atom_site_symmetry_multiplicity
 _atom_site_fract_x
 _atom_site_fract_y
 _atom_site_fract_z
 _atom_site_occupancy
  Sr  Sr0  1  0.50000000  0.00000000  0.00000000  1
  Sr  Sr1  1  0.00000000  0.00000000  0.50000000  1
  Sr  Sr2  1  0.00000000  0.50000000  0.00000000  1
  Sr  Sr3  1  0.50000000  0.50000000  0.50000000  1
  Sr  Sr4  1  0.21838645  0.21838645  0.21838645  1
  Sr  Sr5  1  0.28161255  0.78161355  0.71838745  1
  Sr  Sr6  1  0.71838745  0.28161255  0.78161355  1
  Sr  Sr7  1  0.78161355  0.71838745  0.28161255  1
  Sr  Sr8  1  0.78161355  0.78161355  0.78161355  1
  Sr  Sr9  1  0.71838745  0.21838645  0.28161255  1
  Sr  Sr10  1  0.28161255  0.71838745  0.21838645  1
  Sr  Sr11  1  0.21838645  0.28161255  0.71838745  1
  Li  Li12  1  0.23267544  0.97343261  0.11078283  1
  Li  Li13  1  0.26732356  0.02656639  0.61078283  1
  Li  Li14  1  0.73267644  0.52656739  0.88921717  1
  Li  Li15  1  0.76732456  0.47343361  0.38921817  1
  Li  Li16  1  0.11078283  0.23267544  0.97343261  1
  Li  Li17  1  0.97343261  0.11078283  0.23267544  1
  Li  Li18  1  0.38921817  0.76732456  0.47343361  1
  Li  Li19  1  0.02656639  0.61078283  0.26732356  1
  Li  Li20  1  0.61078283  0.26732356  0.02656639  1
  Li  Li21  1  0.52656739  0.88921717  0.73267644  1
  Li  Li22  1  0.88921717  0.73267644  0.52656739  1
  Li  Li23  1  0.47343361  0.38921817  0.76732456  1
  Li  Li24  1  0.76732456  0.02656639  0.88921717  1
  Li  Li25  1  0.73267644  0.97343261  0.38921817  1
  Li  Li26  1  0.26732356  0.47343361  0.11078283  1
  Li  Li27  1  0.23267544  0.52656739  0.61078283  1
  Li  Li28  1  0.88921717  0.76732456  0.02656639  1
  Li  Li29  1  0.02656639  0.88921717  0.76732456  1
  Li  Li30  1  0.61078283  0.23267544  0.52656739  1
  Li  Li31  1  0.97343261  0.38921817  0.73267644  1
  Li  Li32  1  0.38921817  0.73267644  0.97343261  1
  Li  Li33  1  0.47343361  0.11078283  0.26732356  1
  Li  Li34  1  0.11078283  0.26732356  0.47343361  1
  Li  Li35  1  0.52656739  0.61078283  0.23267544  1
  Si  Si36  1  0.48014501  0.37125015  0.24370447  1
  Si  Si37  1  0.01985599  0.62874885  0.74370347  1
  Si  Si38  1  0.98014501  0.12874985  0.75629653  1
  Si  Si39  1  0.51985499  0.87125015  0.25629653  1
  Si  Si40  1  0.24370447  0.48014501  0.37125015  1
  Si  Si41  1  0.37125015  0.24370447  0.48014501  1
  Si  Si42  1  0.25629653  0.51985499  0.87125015  1
  Si  Si43  1  0.62874885  0.74370347  0.01985599  1
  Si  Si44  1  0.74370347  0.01985599  0.62874885  1
  Si  Si45  1  0.12874985  0.75629653  0.98014501  1
  Si  Si46  1  0.75629653  0.98014501  0.12874985  1
  Si  Si47  1  0.87125015  0.25629653  0.51985499  1
  Si  Si48  1  0.51985499  0.62874885  0.75629653  1
  Si  Si49  1  0.98014501  0.37125015  0.25629653  1
  Si  Si50  1  0.01985599  0.87125015  0.24370447  1
  Si  Si51  1  0.48014501  0.12874985  0.74370347  1
  Si  Si52  1  0.75629653  0.51985499  0.62874885  1
  Si  Si53  1  0.62874885  0.75629653  0.51985499  1
  Si  Si54  1  0.74370347  0.48014501  0.12874985  1
  Si  Si55  1  0.37125015  0.25629653  0.98014501  1
  Si  Si56  1  0.25629653  0.98014501  0.37125015  1
  Si  Si57  1  0.87125015  0.24370447  0.01985599  1
  Si  Si58  1  0.24370447  0.01985599  0.87125015  1
  Si  Si59  1  0.12874985  0.74370347  0.48014501  1
  N  N60  1  0.27314271  0.12447842  0.99191091  1
  N  N61  1  0.22685829  0.87552158  0.49191091  1
  N  N62  1  0.77314271  0.37552058  0.00808909  1
  N  N63  1  0.72685629  0.62447742  0.50808909  1
  N  N64  1  0.99191091  0.27314271  0.12447842  1
  N  N65  1  0.12447842  0.99191091  0.27314271  1
  N  N66  1  0.50808909  0.72685629  0.62447742  1
  N  N67  1  0.87552158  0.49191091  0.22685829  1
  N  N68  1  0.49191091  0.22685829  0.87552158  1
  N  N69  1  0.37552058  0.00808909  0.77314271  1
  N  N70  1  0.00808909  0.77314271  0.37552058  1
  N  N71  1  0.62447742  0.50808909  0.72685629  1
  N  N72  1  0.72685629  0.87552158  0.00808909  1
  N  N73  1  0.77314271  0.12447842  0.50808909  1
  N  N74  1  0.22685829  0.62447742  0.99191091  1
  N  N75  1  0.27314271  0.37552058  0.49191091  1
  N  N76  1  0.00808909  0.72685629  0.87552158  1
  N  N77  1  0.87552158  0.00808909  0.72685629  1
  N  N78  1  0.49191091  0.27314271  0.37552058  1
  N  N79  1  0.12447842  0.50808909  0.77314271  1
  N  N80  1  0.50808909  0.77314271  0.12447842  1
  N  N81  1  0.62447742  0.99191091  0.22685829  1
  N  N82  1  0.99191091  0.22685829  0.62447742  1
  N  N83  1  0.37552058  0.49191091  0.27314271  1
  N  N84  1  0.26804446  0.12544259  0.44323562  1
  N  N85  1  0.23195554  0.87455741  0.94323462  1
  N  N86  1  0.76804446  0.37455841  0.55676538  1
  N  N87  1  0.73195554  0.62544259  0.05676538  1
  N  N88  1  0.44323562  0.26804446  0.12544259  1
  N  N89  1  0.12544259  0.44323562  0.26804446  1
  N  N90  1  0.05676538  0.73195554  0.62544259  1
  N  N91  1  0.87455741  0.94323462  0.23195554  1
  N  N92  1  0.94323462  0.23195554  0.87455741  1
  N  N93  1  0.37455841  0.55676538  0.76804446  1
  N  N94  1  0.55676538  0.76804446  0.37455841  1
  N  N95  1  0.62544259  0.05676538  0.73195554  1
  N  N96  1  0.73195554  0.87455741  0.55676538  1
  N  N97  1  0.76804446  0.12544259  0.05676538  1
  N  N98  1  0.23195554  0.62544259  0.44323562  1
  N  N99  1  0.26804446  0.37455841  0.94323462  1
  N  N100  1  0.55676538  0.73195554  0.87455741  1
  N  N101  1  0.87455741  0.55676538  0.73195554  1
  N  N102  1  0.94323462  0.26804446  0.37455841  1
  N  N103  1  0.12544259  0.05676538  0.76804446  1
  N  N104  1  0.05676538  0.76804446  0.12544259  1
  N  N105  1  0.62544259  0.44323562  0.23195554  1
  N  N106  1  0.44323562  0.23195554  0.62544259  1
  N  N107  1  0.37455841  0.94323462  0.26804446  1
