# generated using pymatgen
data_Tl2PAuS4
_symmetry_space_group_name_H-M   'P 1'
_cell_length_a   6.62565432
_cell_length_b   6.84239362
_cell_length_c   9.55245397
_cell_angle_alpha   90.00000000
_cell_angle_beta   92.27070462
_cell_angle_gamma   90.00000000
_symmetry_Int_Tables_number   1
_chemical_formula_structural   Tl2PAuS4
_chemical_formula_sum   'Tl4 P2 Au2 S8'
_cell_volume   432.72365053
_cell_formula_units_Z   2
loop_
 _symmetry_equiv_pos_site_id
 _symmetry_equiv_pos_as_xyz
  1  'x, y, z'
loop_
 _atom_site_type_symbol
 _atom_site_label
 _atom_site_symmetry_multiplicity
 _atom_site_fract_x
 _atom_site_fract_y
 _atom_site_fract_z
 _atom_site_occupancy
  P  P0  1  0.27985991  0.25000000  0.73197817  1
  P  P1  1  0.72014009  0.75000000  0.26802183  1
  S  S2  1  0.69857773  0.75000000  0.47836573  1
  S  S3  1  0.30142227  0.25000000  0.52163427  1
  S  S4  1  0.44748553  0.75000000  0.16112839  1
  S  S5  1  0.55251447  0.25000000  0.83887161  1
  S  S6  1  0.88557162  0.00387957  0.22708987  1
  S  S7  1  0.11442838  0.50387957  0.77291013  1
  S  S8  1  0.88557162  0.49612043  0.22708987  1
  S  S9  1  0.11442838  0.99612043  0.77291013  1
  Au  Au10  1  0.00000000  0.50000000  0.00000000  1
  Au  Au11  1  0.00000000  0.00000000  0.00000000  1
  Tl  Tl12  1  0.21039526  0.75000000  0.45288947  1
  Tl  Tl13  1  0.78960474  0.25000000  0.54711053  1
  Tl  Tl14  1  0.45028018  0.25000000  0.15010641  1
  Tl  Tl15  1  0.54971982  0.75000000  0.84989359  1
