# generated using pymatgen
data_Li9Mn2Co5O16
_symmetry_space_group_name_H-M   'P 1'
_cell_length_a   5.13086695
_cell_length_b   7.74561454
_cell_length_c   7.74561445
_cell_angle_alpha   96.38826032
_cell_angle_beta   76.09333080
_cell_angle_gamma   76.09333351
_symmetry_Int_Tables_number   1
_chemical_formula_structural   Li9Mn2Co5O16
_chemical_formula_sum   'Li9 Mn2 Co5 O16'
_cell_volume   285.33779485
_cell_formula_units_Z   1
loop_
 _symmetry_equiv_pos_site_id
 _symmetry_equiv_pos_as_xyz
  1  'x, y, z'
loop_
 _atom_site_type_symbol
 _atom_site_label
 _atom_site_symmetry_multiplicity
 _atom_site_fract_x
 _atom_site_fract_y
 _atom_site_fract_z
 _atom_site_occupancy
  Li  Li0  1  0.01300763  0.11622131  0.36789974  1
  Li  Li1  1  0.98699237  0.63210026  0.88377869  1
  Li  Li2  1  0.50013111  0.99606093  0.49340234  1
  Li  Li3  1  0.49986889  0.50659766  0.00393907  1
  Li  Li4  1  0.00434461  0.87772719  0.62826933  1
  Li  Li5  1  0.99565539  0.37173067  0.12227281  1
  Li  Li6  1  0.49821837  0.75290211  0.75512775  1
  Li  Li7  1  0.50178163  0.24487225  0.24709789  1
  Li  Li8  1  0.50000000  0.87542104  0.12457896  1
  Mn  Mn9  1  1.00000000  0.00004499  -0.00004499  1
  Mn  Mn10  1  0.50000000  0.37469488  0.62530512  1
  Co  Co11  1  0.00000000  0.50124748  0.49875252  1
  Co  Co12  1  0.00000000  0.75444361  0.24555639  1
  Co  Co13  1  1.00000000  0.24901933  0.75098067  1
  Co  Co14  1  0.50000000  0.62706384  0.37293616  1
  Co  Co15  1  0.50000000  0.12274429  0.87725571  1
  O  O16  1  0.77701693  0.99958932  0.23819033  1
  O  O17  1  0.77566710  0.49693712  0.74702483  1
  O  O18  1  0.25364738  0.84566983  0.37083979  1
  O  O19  1  0.26919266  0.35999023  0.86241301  1
  O  O20  1  0.73658009  0.73423973  0.48684869  1
  O  O21  1  0.77343974  0.23911269  0.99479538  1
  O  O22  1  0.26891109  0.61191999  0.60503955  1
  O  O23  1  0.24706711  0.11466039  0.09985955  1
  O  O24  1  0.22433290  0.25297517  0.50306288  1
  O  O25  1  0.22298307  0.76180967  0.00041068  1
  O  O26  1  0.73080734  0.13758699  0.64000977  1
  O  O27  1  0.74635262  0.62916021  0.15433017  1
  O  O28  1  0.22656026  0.00520462  0.76088731  1
  O  O29  1  0.26341991  0.51315131  0.26576027  1
  O  O30  1  0.75293289  0.90014045  0.88533961  1
  O  O31  1  0.73108891  0.39496045  0.38808001  1
