# generated using pymatgen
data_SrHgO2
_symmetry_space_group_name_H-M   'P 1'
_cell_length_a   6.80423816
_cell_length_b   6.80423816
_cell_length_c   6.80423849
_cell_angle_alpha   33.30895349
_cell_angle_beta   33.30895349
_cell_angle_gamma   33.30894680
_symmetry_Int_Tables_number   1
_chemical_formula_structural   SrHgO2
_chemical_formula_sum   'Sr1 Hg1 O2'
_cell_volume   84.58474247
_cell_formula_units_Z   1
loop_
 _symmetry_equiv_pos_site_id
 _symmetry_equiv_pos_as_xyz
  1  'x, y, z'
loop_
 _atom_site_type_symbol
 _atom_site_label
 _atom_site_symmetry_multiplicity
 _atom_site_fract_x
 _atom_site_fract_y
 _atom_site_fract_z
 _atom_site_occupancy
  Sr  Sr0  1  0.50000000  0.50000000  0.50000000  1
  Hg  Hg1  1  0.00000000  0.00000000  0.00000000  1
  O  O2  1  0.89606750  0.89606750  0.89606750  1
  O  O3  1  0.10393250  0.10393250  0.10393250  1
