# generated using pymatgen
data_LiYb2InGe2
_symmetry_space_group_name_H-M   'P 1'
_cell_length_a   7.18733409
_cell_length_b   4.40166842
_cell_length_c   16.73207594
_cell_angle_alpha   90.00000000
_cell_angle_beta   90.00000000
_cell_angle_gamma   90.00000000
_symmetry_Int_Tables_number   1
_chemical_formula_structural   LiYb2InGe2
_chemical_formula_sum   'Li4 Yb8 In4 Ge8'
_cell_volume   529.34032967
_cell_formula_units_Z   4
loop_
 _symmetry_equiv_pos_site_id
 _symmetry_equiv_pos_as_xyz
  1  'x, y, z'
loop_
 _atom_site_type_symbol
 _atom_site_label
 _atom_site_symmetry_multiplicity
 _atom_site_fract_x
 _atom_site_fract_y
 _atom_site_fract_z
 _atom_site_occupancy
  Yb  Yb0  1  0.01282386  0.24999900  0.27865778  1
  Yb  Yb1  1  0.48717614  0.75000000  0.77865778  1
  Yb  Yb2  1  0.51282486  0.24999900  0.22134222  1
  Yb  Yb3  1  0.98717614  0.75000000  0.72134222  1
  Yb  Yb4  1  0.15905151  0.24999900  0.06207760  1
  Yb  Yb5  1  0.34094749  0.75000000  0.56207760  1
  Yb  Yb6  1  0.65905151  0.24999900  0.43792240  1
  Yb  Yb7  1  0.84094849  0.75000000  0.93792340  1
  Li  Li8  1  0.01095067  0.24999900  0.56758634  1
  Li  Li9  1  0.48904933  0.75000000  0.06758734  1
  Li  Li10  1  0.51095067  0.24999900  0.93241366  1
  Li  Li11  1  0.98904833  0.75000000  0.43241366  1
  In  In12  1  0.15652354  0.24999900  0.84761245  1
  In  In13  1  0.34347646  0.75000000  0.34761245  1
  In  In14  1  0.65652454  0.24999900  0.65238755  1
  In  In15  1  0.84347546  0.75000000  0.15238755  1
  Ge  Ge16  1  0.27089564  0.24999900  0.68509142  1
  Ge  Ge17  1  0.22910536  0.75000000  0.18509142  1
  Ge  Ge18  1  0.77089564  0.24999900  0.81490758  1
  Ge  Ge19  1  0.72910436  0.75000000  0.31490758  1
  Ge  Ge20  1  0.22870382  0.24999900  0.43853903  1
  Ge  Ge21  1  0.27129618  0.75000000  0.93853903  1
  Ge  Ge22  1  0.72870382  0.24999900  0.06146097  1
  Ge  Ge23  1  0.77129718  0.75000000  0.56145997  1
