# generated using pymatgen
data_Pr2Ge5Rh3
_symmetry_space_group_name_H-M   'P 1'
_cell_length_a   8.50885614
_cell_length_b   8.50885614
_cell_length_c   8.50885614
_cell_angle_alpha   106.39584206
_cell_angle_beta   88.51664109
_cell_angle_gamma   138.04025539
_symmetry_Int_Tables_number   1
_chemical_formula_structural   Pr2Ge5Rh3
_chemical_formula_sum   'Pr4 Ge10 Rh6'
_cell_volume   378.53384701
_cell_formula_units_Z   2
loop_
 _symmetry_equiv_pos_site_id
 _symmetry_equiv_pos_as_xyz
  1  'x, y, z'
loop_
 _atom_site_type_symbol
 _atom_site_label
 _atom_site_symmetry_multiplicity
 _atom_site_fract_x
 _atom_site_fract_y
 _atom_site_fract_z
 _atom_site_occupancy
  Pr  Pr0  1  0.63330688  0.23158288  0.86488976  1
  Pr  Pr1  1  0.36669412  0.76841712  0.13510924  1
  Pr  Pr2  1  0.86669412  0.73158388  0.59827600  1
  Pr  Pr3  1  0.13330688  0.26841612  0.40172300  1
  Ge  Ge4  1  0.74999900  0.24999900  0.50000000  1
  Ge  Ge5  1  0.24999900  0.74999900  0.50000000  1
  Ge  Ge6  1  0.97175721  0.75000000  0.22175721  1
  Ge  Ge7  1  0.52824079  0.74999900  0.77824179  1
  Ge  Ge8  1  0.02824279  0.25000100  0.77824179  1
  Ge  Ge9  1  0.47175621  0.24999900  0.22175721  1
  Ge  Ge10  1  0.90061105  0.16102174  0.06163079  1
  Ge  Ge11  1  0.09939095  0.83897926  0.93837021  1
  Ge  Ge12  1  0.59939195  0.66102174  0.26041169  1
  Ge  Ge13  1  0.40061005  0.33897926  0.73958931  1
  Rh  Rh14  1  0.85922169  0.39480381  0.25402450  1
  Rh  Rh15  1  0.14077931  0.60519719  0.74597550  1
  Rh  Rh16  1  0.64078031  0.89480481  0.53558312  1
  Rh  Rh17  1  0.35922069  0.10519719  0.46441788  1
  Rh  Rh18  1  0.75000000  0.75000000  -0.00000000  1
  Rh  Rh19  1  0.24999900  0.24999900  0.00000000  1
