# generated using pymatgen
data_Sm3Co
_symmetry_space_group_name_H-M   'P 1'
_cell_length_a   7.03718120
_cell_length_b   9.75100262
_cell_length_c   6.38294948
_cell_angle_alpha   90.00000000
_cell_angle_beta   90.00000000
_cell_angle_gamma   90.00000000
_symmetry_Int_Tables_number   1
_chemical_formula_structural   Sm3Co
_chemical_formula_sum   'Sm12 Co4'
_cell_volume   437.99526345
_cell_formula_units_Z   4
loop_
 _symmetry_equiv_pos_site_id
 _symmetry_equiv_pos_as_xyz
  1  'x, y, z'
loop_
 _atom_site_type_symbol
 _atom_site_label
 _atom_site_symmetry_multiplicity
 _atom_site_fract_x
 _atom_site_fract_y
 _atom_site_fract_z
 _atom_site_occupancy
  Sm  Sm0  1  0.45564102  0.75000000  0.14537796  1
  Sm  Sm1  1  0.17308623  0.06900078  0.17525166  1
  Sm  Sm2  1  0.17308623  0.43099922  0.17525166  1
  Sm  Sm3  1  0.67308523  0.06900078  0.32474834  1
  Sm  Sm4  1  0.67308523  0.43099922  0.32474834  1
  Sm  Sm5  1  0.95564002  0.75000000  0.35462204  1
  Sm  Sm6  1  0.04435998  0.25000000  0.64537796  1
  Sm  Sm7  1  0.32691477  0.56900078  0.67525266  1
  Sm  Sm8  1  0.32691477  0.93099922  0.67525266  1
  Sm  Sm9  1  0.82691477  0.56900078  0.82474834  1
  Sm  Sm10  1  0.82691477  0.93099922  0.82474834  1
  Sm  Sm11  1  0.54435998  0.25000000  0.85462204  1
  Co  Co12  1  0.88698306  0.25000000  0.05616774  1
  Co  Co13  1  0.38698306  0.25000000  0.44383226  1
  Co  Co14  1  0.61301694  0.75000000  0.55616874  1
  Co  Co15  1  0.11301594  0.75000000  0.94383226  1
