# generated using pymatgen
data_Li9Co7O16
_symmetry_space_group_name_H-M   'P 1'
_cell_length_a   2.94181454
_cell_length_b   10.19155931
_cell_length_c   10.03008785
_cell_angle_alpha   71.94562678
_cell_angle_beta   88.13785089
_cell_angle_gamma   91.02614495
_symmetry_Int_Tables_number   1
_chemical_formula_structural   Li9Co7O16
_chemical_formula_sum   'Li9 Co7 O16'
_cell_volume   285.63742664
_cell_formula_units_Z   1
loop_
 _symmetry_equiv_pos_site_id
 _symmetry_equiv_pos_as_xyz
  1  'x, y, z'
loop_
 _atom_site_type_symbol
 _atom_site_label
 _atom_site_symmetry_multiplicity
 _atom_site_fract_x
 _atom_site_fract_y
 _atom_site_fract_z
 _atom_site_occupancy
  Li  Li0  1  0.99758332  0.25125727  0.74923759  1
  Li  Li1  1  0.49943792  0.75089660  0.50193823  1
  Li  Li2  1  0.99893999  0.24571617  0.24994419  1
  Li  Li3  1  0.49248559  0.25021346  0.49688659  1
  Li  Li4  1  0.00071523  0.75436189  0.24986943  1
  Li  Li5  1  0.50051454  0.24902695  0.99824792  1
  Li  Li6  1  0.50754030  0.74983252  0.00299462  1
  Li  Li7  1  0.00285104  0.74869470  0.75099308  1
  Li  Li8  1  0.49991334  0.99997176  0.24999517  1
  Co  Co9  1  0.00496637  0.00033694  0.00769593  1
  Co  Co10  1  0.99503305  -0.00038920  0.49229247  1
  Co  Co11  1  0.50065588  0.50033094  0.75007742  1
  Co  Co12  1  0.49951447  0.49968606  0.24984598  1
  Co  Co13  1  0.99982133  0.50009413  0.50040187  1
  Co  Co14  1  0.00024700  0.49991707  0.99951810  1
  Co  Co15  1  0.50005559  0.00007787  0.74995857  1
  O  O16  1  0.46687954  0.11138652  0.87021452  1
  O  O17  1  0.00737455  0.61678854  0.62947761  1
  O  O18  1  0.46823088  0.11471520  0.38646673  1
  O  O19  1  0.98707725  0.10467826  0.62538522  1
  O  O20  1  0.49906243  0.61819868  0.38045601  1
  O  O21  1  0.99782826  0.11395347  0.10676162  1
  O  O22  1  0.99587121  0.61572308  0.13129468  1
  O  O23  1  0.49740606  0.61828723  0.88246856  1
  O  O24  1  0.50488934  0.38202039  0.61756322  1
  O  O25  1  0.00200200  0.88592574  0.39325635  1
  O  O26  1  0.49852556  0.38142552  0.11959539  1
  O  O27  1  0.00299179  0.38411838  0.36837709  1
  O  O28  1  0.53142950  0.88516377  0.11356135  1
  O  O29  1  0.99358525  0.38339167  0.87087177  1
  O  O30  1  0.01306157  0.89545378  0.87459419  1
  O  O31  1  0.53350988  0.88874465  0.62975852  1
