# generated using pymatgen
data_Si4MoPt3
_symmetry_space_group_name_H-M   'P 1'
_cell_length_a   5.56264732
_cell_length_b   3.52081867
_cell_length_c   24.57711547
_cell_angle_alpha   90.00000000
_cell_angle_beta   90.00000000
_cell_angle_gamma   90.00000000
_symmetry_Int_Tables_number   1
_chemical_formula_structural   Si4MoPt3
_chemical_formula_sum   'Si16 Mo4 Pt12'
_cell_volume   481.34458928
_cell_formula_units_Z   4
loop_
 _symmetry_equiv_pos_site_id
 _symmetry_equiv_pos_as_xyz
  1  'x, y, z'
loop_
 _atom_site_type_symbol
 _atom_site_label
 _atom_site_symmetry_multiplicity
 _atom_site_fract_x
 _atom_site_fract_y
 _atom_site_fract_z
 _atom_site_occupancy
  Si  Si0  1  0.17883133  0.74999900  0.51959993  1
  Si  Si1  1  0.32116867  0.25000000  0.01960093  1
  Si  Si2  1  0.67883233  0.74999900  0.98040007  1
  Si  Si3  1  0.82116967  0.25000000  0.48040007  1
  Si  Si4  1  0.32007134  0.25000000  0.64581429  1
  Si  Si5  1  0.17992866  0.74999900  0.14581429  1
  Si  Si6  1  0.82007034  0.25000000  0.85418571  1
  Si  Si7  1  0.67992966  0.74999900  0.35418571  1
  Si  Si8  1  0.66011440  0.74999900  0.60977386  1
  Si  Si9  1  0.83988760  0.25000000  0.10977386  1
  Si  Si10  1  0.16011340  0.74999900  0.89022614  1
  Si  Si11  1  0.33988660  0.25000000  0.39022614  1
  Si  Si12  1  0.83086219  0.25000000  0.72619544  1
  Si  Si13  1  0.66913781  0.74999900  0.22619644  1
  Si  Si14  1  0.33086319  0.25000000  0.77380456  1
  Si  Si15  1  0.16913781  0.74999900  0.27380456  1
  Mo  Mo16  1  0.50442899  0.74999900  0.71001105  1
  Mo  Mo17  1  0.99557301  0.25000000  0.21001205  1
  Mo  Mo18  1  0.00442599  0.74999900  0.78998895  1
  Mo  Mo19  1  0.49557201  0.25000000  0.28998895  1
  Pt  Pt20  1  0.00087355  0.25000000  0.57468135  1
  Pt  Pt21  1  0.49912445  0.74999900  0.07468035  1
  Pt  Pt22  1  0.50087455  0.25000000  0.92531965  1
  Pt  Pt23  1  0.99912545  0.74999900  0.42531965  1
  Pt  Pt24  1  0.00346206  0.74999900  0.67012598  1
  Pt  Pt25  1  0.49653694  0.25000000  0.17012598  1
  Pt  Pt26  1  0.50346306  0.74999900  0.82987402  1
  Pt  Pt27  1  0.99653694  0.25000000  0.32987402  1
  Pt  Pt28  1  0.50156616  0.25000000  0.54817926  1
  Pt  Pt29  1  0.99843184  0.74999900  0.04817826  1
  Pt  Pt30  1  0.00156816  0.25000000  0.95182074  1
  Pt  Pt31  1  0.49843484  0.74999900  0.45182074  1
