# generated using pymatgen
data_Y2Si5Rh3
_symmetry_space_group_name_H-M   'P 1'
_cell_length_a   5.70266919
_cell_length_b   8.12453168
_cell_length_c   8.12453168
_cell_angle_alpha   93.56159947
_cell_angle_beta   108.82048457
_cell_angle_gamma   108.82048448
_symmetry_Int_Tables_number   1
_chemical_formula_structural   Y2Si5Rh3
_chemical_formula_sum   'Y4 Si10 Rh6'
_cell_volume   331.39315669
_cell_formula_units_Z   2
loop_
 _symmetry_equiv_pos_site_id
 _symmetry_equiv_pos_as_xyz
  1  'x, y, z'
loop_
 _atom_site_type_symbol
 _atom_site_label
 _atom_site_symmetry_multiplicity
 _atom_site_fract_x
 _atom_site_fract_y
 _atom_site_fract_z
 _atom_site_occupancy
  Si  Si0  1  0.25000000  0.77600579  0.22399421  1
  Si  Si1  1  0.75000000  0.22399421  0.77600579  1
  Si  Si2  1  0.25000000  0.51204221  0.48795779  1
  Si  Si3  1  0.75000000  0.48795779  0.51204221  1
  Si  Si4  1  0.25000000  0.21013885  0.78986115  1
  Si  Si5  1  0.75000000  0.78986115  0.21013885  1
  Si  Si6  1  0.66099551  0.26644241  0.05764473  1
  Si  Si7  1  0.33900449  0.73355759  0.94235527  1
  Si  Si8  1  0.83900449  0.94235527  0.73355759  1
  Si  Si9  1  0.16099551  0.05764473  0.26644241  1
  Y  Y10  1  0.24022522  0.86706002  0.59917958  1
  Y  Y11  1  0.75977478  0.13293998  0.40082042  1
  Y  Y12  1  0.25977478  0.40082042  0.13293998  1
  Y  Y13  1  0.74022522  0.59917958  0.86706002  1
  Rh  Rh14  1  0.87386612  0.53945146  0.26032481  1
  Rh  Rh15  1  0.62613388  0.73967519  0.46054854  1
  Rh  Rh16  1  0.12613388  0.46054854  0.73967519  1
  Rh  Rh17  1  0.37386612  0.26032481  0.53945146  1
  Rh  Rh18  1  0.75000000  0.99804391  0.00195609  1
  Rh  Rh19  1  0.25000000  0.00195609  0.99804391  1
