# generated using pymatgen
data_Li9Co7O16
_symmetry_space_group_name_H-M   'P 1'
_cell_length_a   2.94882270
_cell_length_b   10.12124610
_cell_length_c   9.77995334
_cell_angle_alpha   94.49609036
_cell_angle_beta   83.20900653
_cell_angle_gamma   92.08434454
_symmetry_Int_Tables_number   1
_chemical_formula_structural   Li9Co7O16
_chemical_formula_sum   'Li9 Co7 O16'
_cell_volume   288.84203408
_cell_formula_units_Z   1
loop_
 _symmetry_equiv_pos_site_id
 _symmetry_equiv_pos_as_xyz
  1  'x, y, z'
loop_
 _atom_site_type_symbol
 _atom_site_label
 _atom_site_symmetry_multiplicity
 _atom_site_fract_x
 _atom_site_fract_y
 _atom_site_fract_z
 _atom_site_occupancy
  Li  Li0  1  0.87803698  0.18814497  0.24414243  1
  Li  Li1  1  0.12196302  0.31185503  0.75585757  1
  Li  Li2  1  0.37854532  0.44132651  0.24776900  1
  Li  Li3  1  0.63394699  0.55915542  0.75115797  1
  Li  Li4  1  0.87271816  0.68823919  0.24950748  1
  Li  Li5  1  0.12728184  0.81176081  0.75049252  1
  Li  Li6  1  0.36605301  0.94084458  0.24884203  1
  Li  Li7  1  0.62145468  0.05867349  0.75223100  1
  Li  Li8  1  0.50000000  0.25000000  0.00000000  1
  Co  Co9  1  0.99816272  0.00742312  -0.00002943  1
  Co  Co10  1  0.00183728  0.49257688  0.00002943  1
  Co  Co11  1  0.25053873  0.12507104  0.50033768  1
  Co  Co12  1  0.74946127  0.37492896  0.49966232  1
  Co  Co13  1  0.24931358  0.62526432  0.50036652  1
  Co  Co14  1  0.50000000  0.75000000  0.00000000  1
  Co  Co15  1  0.75068642  0.87473568  0.49963348  1
  O  O16  1  0.41602957  0.08622968  0.11533131  1
  O  O17  1  0.68088552  0.21288190  0.61693962  1
  O  O18  1  0.94085252  0.36645517  0.11382743  1
  O  O19  1  0.18335853  0.46241567  0.61441714  1
  O  O20  1  0.41180504  0.60051480  0.11457219  1
  O  O21  1  0.68191260  0.71295740  0.61648630  1
  O  O22  1  0.95019447  0.85330971  0.10985582  1
  O  O23  1  0.18673646  0.96161942  0.61431884  1
  O  O24  1  0.31911448  0.28711810  0.38306038  1
  O  O25  1  0.58397043  0.41377032  0.88466869  1
  O  O26  1  0.81326354  0.53838058  0.38568116  1
  O  O27  1  0.04980553  0.64669029  0.89014418  1
  O  O28  1  0.31808740  0.78704260  0.38351370  1
  O  O29  1  0.58819496  0.89948520  0.88542781  1
  O  O30  1  0.81664147  0.03758433  0.38558286  1
  O  O31  1  0.05914748  0.13354483  0.88617257  1
