# generated using pymatgen
data_WCl4
_symmetry_space_group_name_H-M   'P 1'
_cell_length_a   6.51978244
_cell_length_b   7.08616583
_cell_length_c   7.25522092
_cell_angle_alpha   107.17519825
_cell_angle_beta   116.69984640
_cell_angle_gamma   62.61057095
_symmetry_Int_Tables_number   1
_chemical_formula_structural   WCl4
_chemical_formula_sum   'W2 Cl8'
_cell_volume   264.22028901
_cell_formula_units_Z   2
loop_
 _symmetry_equiv_pos_site_id
 _symmetry_equiv_pos_as_xyz
  1  'x, y, z'
loop_
 _atom_site_type_symbol
 _atom_site_label
 _atom_site_symmetry_multiplicity
 _atom_site_fract_x
 _atom_site_fract_y
 _atom_site_fract_z
 _atom_site_occupancy
  W  W0  1  0.20469551  0.00000000  0.00000000  1
  W  W1  1  0.79530449  0.00000000  0.00000000  1
  Cl  Cl2  1  0.67178154  0.80553473  0.14909680  1
  Cl  Cl3  1  0.20581861  0.76694749  0.17858270  1
  Cl  Cl4  1  0.25847188  0.24688541  0.28988458  1
  Cl  Cl5  1  0.78452629  0.24688541  0.28988458  1
  Cl  Cl6  1  0.21547371  0.75311359  0.71011542  1
  Cl  Cl7  1  0.74152712  0.75311359  0.71011542  1
  Cl  Cl8  1  0.79418139  0.23305451  0.82141730  1
  Cl  Cl9  1  0.32821946  0.19446427  0.85090320  1
