# generated using pymatgen
data_Li9Mn2Co5O16
_symmetry_space_group_name_H-M   'P 1'
_cell_length_a   5.03739494
_cell_length_b   5.90192726
_cell_length_c   10.27417088
_cell_angle_alpha   73.41198261
_cell_angle_beta   99.22535908
_cell_angle_gamma   90.00889266
_symmetry_Int_Tables_number   1
_chemical_formula_structural   Li9Mn2Co5O16
_chemical_formula_sum   'Li9 Mn2 Co5 O16'
_cell_volume   288.61965460
_cell_formula_units_Z   1
loop_
 _symmetry_equiv_pos_site_id
 _symmetry_equiv_pos_as_xyz
  1  'x, y, z'
loop_
 _atom_site_type_symbol
 _atom_site_label
 _atom_site_symmetry_multiplicity
 _atom_site_fract_x
 _atom_site_fract_y
 _atom_site_fract_z
 _atom_site_occupancy
  Li  Li0  1  0.24333545  0.62196626  0.24264224  1
  Li  Li1  1  0.75666455  0.37803374  0.75735776  1
  Li  Li2  1  0.24670250  0.13543906  0.24310261  1
  Li  Li3  1  0.75420305  0.37720411  0.24191499  1
  Li  Li4  1  0.25384100  0.12151836  0.75273417  1
  Li  Li5  1  0.74615900  0.87848164  0.24726583  1
  Li  Li6  1  0.75329750  0.86456094  0.75689739  1
  Li  Li7  1  0.24579695  0.62279589  0.75808501  1
  Li  Li8  1  -0.00000000  0.50000000  -0.00000000  1
  Mn  Mn9  1  -0.00000000  0.00000000  -0.00000000  1
  Mn  Mn10  1  -0.00000000  0.50000000  0.50000000  1
  Co  Co11  1  0.49925414  0.75502482  0.50140987  1
  Co  Co12  1  0.50074586  0.24497518  0.49859013  1
  Co  Co13  1  0.49861317  0.25874118  0.00013563  1
  Co  Co14  1  -0.00000000  0.00000000  0.50000000  1
  Co  Co15  1  0.50138683  0.74125882  0.99986437  1
  O  O16  1  0.85927496  0.71373871  0.10981114  1
  O  O17  1  0.35898749  0.44414500  0.60933391  1
  O  O18  1  0.86023570  0.17722973  0.11100571  1
  O  O19  1  0.39300501  0.44552075  0.11813417  1
  O  O20  1  0.87991207  0.20702225  0.61233448  1
  O  O21  1  0.35229613  0.94520456  0.11418525  1
  O  O22  1  0.39110122  0.94314791  0.61765642  1
  O  O23  1  0.88021828  0.67748223  0.61629662  1
  O  O24  1  0.64101251  0.55585500  0.39066609  1
  O  O25  1  0.14072504  0.28626129  0.89018886  1
  O  O26  1  0.60889878  0.05685209  0.38234358  1
  O  O27  1  0.11978172  0.32251777  0.38370338  1
  O  O28  1  0.64770387  0.05479544  0.88581475  1
  O  O29  1  0.12008793  0.79297775  0.38766552  1
  O  O30  1  0.13976430  0.82277027  0.88899429  1
  O  O31  1  0.60699499  0.55447925  0.88186583  1
