# generated using pymatgen
data_Li9Mn2Co5O16
_symmetry_space_group_name_H-M   'P 1'
_cell_length_a   5.88081293
_cell_length_b   5.91746774
_cell_length_c   8.09583153
_cell_angle_alpha   90.34971079
_cell_angle_beta   89.02174903
_cell_angle_gamma   87.32952448
_symmetry_Int_Tables_number   1
_chemical_formula_structural   Li9Mn2Co5O16
_chemical_formula_sum   'Li9 Mn2 Co5 O16'
_cell_volume   281.37737138
_cell_formula_units_Z   1
loop_
 _symmetry_equiv_pos_site_id
 _symmetry_equiv_pos_as_xyz
  1  'x, y, z'
loop_
 _atom_site_type_symbol
 _atom_site_label
 _atom_site_symmetry_multiplicity
 _atom_site_fract_x
 _atom_site_fract_y
 _atom_site_fract_z
 _atom_site_occupancy
  Li  Li0  1  0.50000000  -0.00000000  -0.00000000  1
  Li  Li1  1  0.25617756  0.25333073  0.26107112  1
  Li  Li2  1  0.74370147  0.25545885  0.73830930  1
  Li  Li3  1  0.50000000  0.50000000  -0.00000000  1
  Li  Li4  1  0.00000000  0.50000000  0.50000000  1
  Li  Li5  1  0.74382244  0.74666927  0.73892888  1
  Li  Li6  1  0.25629853  0.74454115  0.26169070  1
  Li  Li7  1  0.00000000  -0.00000000  0.50000000  1
  Li  Li8  1  0.50000000  0.50000000  0.50000000  1
  Mn  Mn9  1  0.00000000  -0.00000000  -0.00000000  1
  Mn  Mn10  1  0.00000000  0.50000000  -0.00000000  1
  Co  Co11  1  0.74091425  0.24834669  0.25545790  1
  Co  Co12  1  0.25908575  0.75165331  0.74454210  1
  Co  Co13  1  0.74221820  0.74428340  0.25774265  1
  Co  Co14  1  0.50000000  -0.00000000  0.50000000  1
  Co  Co15  1  0.25778180  0.25571660  0.74225735  1
  O  O16  1  0.24015275  0.76592566  0.98946329  1
  O  O17  1  0.98471097  0.01180969  0.23647308  1
  O  O18  1  0.48894790  0.01500556  0.73573695  1
  O  O19  1  0.22472819  0.23560213  0.99073844  1
  O  O20  1  0.72847346  0.22867565  0.48251964  1
  O  O21  1  0.47788268  0.51283272  0.75652062  1
  O  O22  1  0.98935810  0.51062215  0.24061464  1
  O  O23  1  0.74204627  0.76202543  0.48452878  1
  O  O24  1  0.75984725  0.23407434  0.01053671  1
  O  O25  1  0.52211732  0.48716728  0.24347938  1
  O  O26  1  0.01064190  0.48937785  0.75938536  1
  O  O27  1  0.77527181  0.76439787  0.00926156  1
  O  O28  1  0.27152654  0.77132435  0.51748036  1
  O  O29  1  0.01528903  0.98819031  0.76352692  1
  O  O30  1  0.51105210  0.98499444  0.26426305  1
  O  O31  1  0.25795373  0.23797457  0.51547122  1
