# generated using pymatgen
data_RbHfAgTe3
_symmetry_space_group_name_H-M   'P 1'
_cell_length_a   4.24610246
_cell_length_b   9.27419785
_cell_length_c   11.07239754
_cell_angle_alpha   112.64551340
_cell_angle_beta   90.00000000
_cell_angle_gamma   90.00000000
_symmetry_Int_Tables_number   1
_chemical_formula_structural   RbHfAgTe3
_chemical_formula_sum   'Rb2 Hf2 Ag2 Te6'
_cell_volume   402.40682159
_cell_formula_units_Z   2
loop_
 _symmetry_equiv_pos_site_id
 _symmetry_equiv_pos_as_xyz
  1  'x, y, z'
loop_
 _atom_site_type_symbol
 _atom_site_label
 _atom_site_symmetry_multiplicity
 _atom_site_fract_x
 _atom_site_fract_y
 _atom_site_fract_z
 _atom_site_occupancy
  Rb  Rb0  1  0.75000000  0.25213091  0.28232660  1
  Rb  Rb1  1  0.25000000  0.74786909  0.71767340  1
  Ag  Ag2  1  0.25000000  0.92457854  0.39862717  1
  Ag  Ag3  1  0.75000000  0.07542146  0.60137283  1
  Te  Te4  1  0.25000000  0.26120038  0.56416979  1
  Te  Te5  1  0.75000000  0.10561286  0.86224103  1
  Te  Te6  1  0.75000000  0.54360336  0.87508004  1
  Te  Te7  1  0.75000000  0.73879962  0.43583021  1
  Te  Te8  1  0.25000000  0.45639664  0.12491996  1
  Te  Te9  1  0.25000000  0.89438714  0.13775897  1
  Hf  Hf10  1  0.25000000  0.30646699  0.83225763  1
  Hf  Hf11  1  0.75000000  0.69353301  0.16774237  1
