# generated using pymatgen
data_Li2RuF6
_symmetry_space_group_name_H-M   'P 1'
_cell_length_a   4.71893672
_cell_length_b   4.71893672
_cell_length_c   9.29712464
_cell_angle_alpha   90.00000000
_cell_angle_beta   90.00000000
_cell_angle_gamma   89.99952817
_symmetry_Int_Tables_number   1
_chemical_formula_structural   Li2RuF6
_chemical_formula_sum   'Li4 Ru2 F12'
_cell_volume   207.03175347
_cell_formula_units_Z   2
loop_
 _symmetry_equiv_pos_site_id
 _symmetry_equiv_pos_as_xyz
  1  'x, y, z'
loop_
 _atom_site_type_symbol
 _atom_site_label
 _atom_site_symmetry_multiplicity
 _atom_site_fract_x
 _atom_site_fract_y
 _atom_site_fract_z
 _atom_site_occupancy
  Li  Li0  1  0.49999800  0.49999800  0.16759961  1
  Li  Li1  1  -0.00000000  -0.00000000  0.33240162  1
  Li  Li2  1  0.00000000  0.00000000  0.66759938  1
  Li  Li3  1  0.49999800  0.49999800  0.83240039  1
  Ru  Ru4  1  -0.00000000  -0.00000000  0.00000000  1
  Ru  Ru5  1  0.49999800  0.49999800  0.50000000  1
  F  F6  1  0.28821081  0.28821081  0.00000000  1
  F  F7  1  0.71178819  0.71178819  0.00000000  1
  F  F8  1  0.80573866  0.19426234  0.16046452  1
  F  F9  1  0.19426234  0.80573866  0.16046452  1
  F  F10  1  0.30574335  0.30574335  0.33953562  1
  F  F11  1  0.69425565  0.69425565  0.33953562  1
  F  F12  1  0.78821907  0.21178193  0.50000000  1
  F  F13  1  0.21178193  0.78821907  0.50000000  1
  F  F14  1  0.30574335  0.30574335  0.66046538  1
  F  F15  1  0.69425565  0.69425565  0.66046538  1
  F  F16  1  0.80573866  0.19426234  0.83953648  1
  F  F17  1  0.19426234  0.80573866  0.83953648  1
