# generated using pymatgen
data_Ge3Rh2Se3
_symmetry_space_group_name_H-M   'P 1'
_cell_length_a   8.68077460
_cell_length_b   8.68077509
_cell_length_c   8.68077460
_cell_angle_alpha   89.88927931
_cell_angle_beta   90.11072015
_cell_angle_gamma   90.11072069
_symmetry_Int_Tables_number   1
_chemical_formula_structural   Ge3Rh2Se3
_chemical_formula_sum   'Ge12 Rh8 Se12'
_cell_volume   654.14350471
_cell_formula_units_Z   4
loop_
 _symmetry_equiv_pos_site_id
 _symmetry_equiv_pos_as_xyz
  1  'x, y, z'
loop_
 _atom_site_type_symbol
 _atom_site_label
 _atom_site_symmetry_multiplicity
 _atom_site_fract_x
 _atom_site_fract_y
 _atom_site_fract_z
 _atom_site_occupancy
  Ge  Ge0  1  0.08112883  0.25483650  0.10188022  1
  Ge  Ge1  1  0.89811978  0.91887117  0.25483650  1
  Ge  Ge2  1  0.74516350  0.10188022  0.91887117  1
  Ge  Ge3  1  0.41424195  0.25052555  0.40578630  1
  Ge  Ge4  1  0.59421370  0.58575805  0.25052555  1
  Ge  Ge5  1  0.74947445  0.40578630  0.58575805  1
  Ge  Ge6  1  0.58117598  0.75457192  0.90485035  1
  Ge  Ge7  1  0.09514965  0.41882402  0.75457192  1
  Ge  Ge8  1  0.24542808  0.90485035  0.41882402  1
  Ge  Ge9  1  0.91295654  0.75116012  0.60010089  1
  Ge  Ge10  1  0.39989911  0.08704346  0.75116012  1
  Ge  Ge11  1  0.24883988  0.60010089  0.08704346  1
  Rh  Rh12  1  0.99529863  0.00470137  0.00470137  1
  Rh  Rh13  1  0.49913335  0.50086665  0.50086665  1
  Rh  Rh14  1  0.49467975  0.00219220  0.50165359  1
  Rh  Rh15  1  0.49834641  0.50532025  0.00219220  1
  Rh  Rh16  1  0.99780780  0.50165359  0.50532025  1
  Rh  Rh17  1  -0.00003757  0.50318637  0.00427499  1
  Rh  Rh18  1  0.99572501  0.00003757  0.50318637  1
  Rh  Rh19  1  0.49681363  0.00427499  0.00003757  1
  Se  Se20  1  0.88940276  0.60530927  0.25322336  1
  Se  Se21  1  0.74677664  0.11059724  0.60530927  1
  Se  Se22  1  0.39469073  0.25322336  0.11059724  1
  Se  Se23  1  0.89386849  0.75593111  0.89529697  1
  Se  Se24  1  0.10470303  0.10613151  0.75593111  1
  Se  Se25  1  0.24406889  0.89529697  0.10613151  1
  Se  Se26  1  0.60049851  0.74985461  0.61009248  1
  Se  Se27  1  0.38990752  0.39950149  0.74985461  1
  Se  Se28  1  0.25014539  0.61009248  0.39950149  1
  Se  Se29  1  0.74785302  0.39632934  0.89914414  1
  Se  Se30  1  0.10085586  0.25214698  0.39632934  1
  Se  Se31  1  0.60367066  0.89914414  0.25214698  1
