# generated using pymatgen
data_KGd(CO3)2
_symmetry_space_group_name_H-M   'P 1'
_cell_length_a   6.49848306
_cell_length_b   6.49848306
_cell_length_c   7.12025625
_cell_angle_alpha   103.50301627
_cell_angle_beta   103.50301624
_cell_angle_gamma   97.43116130
_symmetry_Int_Tables_number   1
_chemical_formula_structural   KGd(CO3)2
_chemical_formula_sum   'K2 Gd2 C4 O12'
_cell_volume   278.86964143
_cell_formula_units_Z   2
loop_
 _symmetry_equiv_pos_site_id
 _symmetry_equiv_pos_as_xyz
  1  'x, y, z'
loop_
 _atom_site_type_symbol
 _atom_site_label
 _atom_site_symmetry_multiplicity
 _atom_site_fract_x
 _atom_site_fract_y
 _atom_site_fract_z
 _atom_site_occupancy
  C  C0  1  0.14408839  0.39271333  0.24649029  1
  C  C1  1  0.60728667  0.85591161  0.25350971  1
  C  C2  1  0.85591161  0.60728667  0.75350971  1
  C  C3  1  0.39271333  0.14408839  0.74649029  1
  O  O4  1  0.40443337  0.94561602  0.72566072  1
  O  O5  1  0.05438398  0.59556663  0.77433928  1
  O  O6  1  0.59556663  0.05438398  0.27433928  1
  O  O7  1  0.94561602  0.40443337  0.22566072  1
  O  O8  1  0.25256724  0.20726965  0.62172590  1
  O  O9  1  0.79273035  0.74743276  0.87827410  1
  O  O10  1  0.74743276  0.79273035  0.37827410  1
  O  O11  1  0.20726965  0.25256724  0.12172590  1
  O  O12  1  0.53051030  0.29734863  0.89450487  1
  O  O13  1  0.70265137  0.46948970  0.60549513  1
  O  O14  1  0.46948970  0.70265137  0.10549513  1
  O  O15  1  0.29734863  0.53051030  0.39450487  1
  K  K16  1  0.87803623  0.12196377  0.75000000  1
  K  K17  1  0.12196377  0.87803623  0.25000000  1
  Gd  Gd18  1  0.40479306  0.59520694  0.75000000  1
  Gd  Gd19  1  0.59520694  0.40479306  0.25000000  1
