# generated using pymatgen
data_Sr2LiTaN3F
_symmetry_space_group_name_H-M   'P 1'
_cell_length_a   10.83687012
_cell_length_b   5.66552322
_cell_length_c   16.00329361
_cell_angle_alpha   90.00000000
_cell_angle_beta   90.00000000
_cell_angle_gamma   90.00000000
_symmetry_Int_Tables_number   1
_chemical_formula_structural   Sr2LiTaN3F
_chemical_formula_sum   'Sr16 Li8 Ta8 N24 F8'
_cell_volume   982.54684501
_cell_formula_units_Z   8
loop_
 _symmetry_equiv_pos_site_id
 _symmetry_equiv_pos_as_xyz
  1  'x, y, z'
loop_
 _atom_site_type_symbol
 _atom_site_label
 _atom_site_symmetry_multiplicity
 _atom_site_fract_x
 _atom_site_fract_y
 _atom_site_fract_z
 _atom_site_occupancy
  Sr  Sr0  1  0.12954185  0.21808725  0.71580778  1
  Sr  Sr1  1  0.37045815  0.78191175  0.21580678  1
  Sr  Sr2  1  0.62954185  0.28191275  0.28419322  1
  Sr  Sr3  1  0.87045815  0.71808825  0.78419222  1
  Sr  Sr4  1  0.87045815  0.78191175  0.28419322  1
  Sr  Sr5  1  0.62954185  0.21808725  0.78419222  1
  Sr  Sr6  1  0.37045815  0.71808825  0.71580778  1
  Sr  Sr7  1  0.12954185  0.28191275  0.21580678  1
  Sr  Sr8  1  0.94997418  0.29261484  0.41493799  1
  Sr  Sr9  1  0.55002582  0.70738616  0.91493699  1
  Sr  Sr10  1  0.44997418  0.20738616  0.58506301  1
  Sr  Sr11  1  0.05002582  0.79261284  0.08506201  1
  Sr  Sr12  1  0.05002582  0.70738616  0.58506301  1
  Sr  Sr13  1  0.44997418  0.29261484  0.08506201  1
  Sr  Sr14  1  0.55002582  0.79261284  0.41493799  1
  Sr  Sr15  1  0.94997418  0.20738616  0.91493699  1
  Li  Li16  1  0.83450797  0.78791864  0.47947895  1
  Li  Li17  1  0.66549203  0.21208036  0.97947895  1
  Li  Li18  1  0.33450797  0.71208136  0.52052105  1
  Li  Li19  1  0.16549203  0.28791964  0.02052105  1
  Li  Li20  1  0.16549203  0.21208036  0.52052105  1
  Li  Li21  1  0.33450797  0.78791864  0.02052105  1
  Li  Li22  1  0.66549203  0.28791964  0.47947895  1
  Li  Li23  1  0.83450797  0.71208136  0.97947895  1
  Ta  Ta24  1  0.84444084  0.16533073  0.63476174  1
  Ta  Ta25  1  0.65555816  0.83466927  0.13476274  1
  Ta  Ta26  1  0.34444084  0.33466827  0.36523826  1
  Ta  Ta27  1  0.15555816  0.66533073  0.86523826  1
  Ta  Ta28  1  0.15555816  0.83466927  0.36523826  1
  Ta  Ta29  1  0.34444084  0.16533073  0.86523826  1
  Ta  Ta30  1  0.65555816  0.66533073  0.63476174  1
  Ta  Ta31  1  0.84444084  0.33466827  0.13476274  1
  N  N32  1  0.88220360  0.19427588  0.75189001  1
  N  N33  1  0.61779740  0.80572312  0.25189001  1
  N  N34  1  0.38220360  0.30572412  0.24810999  1
  N  N35  1  0.11779740  0.69427488  0.74810999  1
  N  N36  1  0.11779740  0.80572312  0.24810999  1
  N  N37  1  0.38220360  0.19427588  0.74810999  1
  N  N38  1  0.61779740  0.69427488  0.75189001  1
  N  N39  1  0.88220360  0.30572412  0.25189001  1
  N  N40  1  0.99305547  0.25199794  0.57539361  1
  N  N41  1  0.50694553  0.74800106  0.07539361  1
  N  N42  1  0.49305547  0.24800006  0.42460739  1
  N  N43  1  0.00694553  0.75199894  0.92460639  1
  N  N44  1  0.00694553  0.74800106  0.42460739  1
  N  N45  1  0.49305547  0.25199794  0.92460639  1
  N  N46  1  0.50694553  0.75199894  0.57539361  1
  N  N47  1  0.99305547  0.24800006  0.07539361  1
  N  N48  1  0.82029172  0.82184531  0.61280846  1
  N  N49  1  0.67970928  0.17815369  0.11280846  1
  N  N50  1  0.32029172  0.67815469  0.38719154  1
  N  N51  1  0.17970928  0.32184531  0.88719154  1
  N  N52  1  0.17970928  0.17815369  0.38719154  1
  N  N53  1  0.32029172  0.82184531  0.88719154  1
  N  N54  1  0.67970928  0.32184531  0.61280846  1
  N  N55  1  0.82029172  0.67815469  0.11280846  1
  F  F56  1  0.75491797  0.03783242  0.41855466  1
  F  F57  1  0.74508103  0.96216658  0.91855566  1
  F  F58  1  0.25491797  0.46216658  0.58144434  1
  F  F59  1  0.24508203  0.53783342  0.08144534  1
  F  F60  1  0.24508203  0.96216658  0.58144434  1
  F  F61  1  0.25491797  0.03783242  0.08144534  1
  F  F62  1  0.74508103  0.53783342  0.41855466  1
  F  F63  1  0.75491797  0.46216658  0.91855566  1
