# generated using pymatgen
data_Nb3CrSe6
_symmetry_space_group_name_H-M   'P 1'
_cell_length_a   6.05364588
_cell_length_b   6.05365160
_cell_length_c   12.72122674
_cell_angle_alpha   90.00115686
_cell_angle_beta   90.00002880
_cell_angle_gamma   120.00066248
_symmetry_Int_Tables_number   1
_chemical_formula_structural   Nb3CrSe6
_chemical_formula_sum   'Nb6 Cr2 Se12'
_cell_volume   403.73012966
_cell_formula_units_Z   2
loop_
 _symmetry_equiv_pos_site_id
 _symmetry_equiv_pos_as_xyz
  1  'x, y, z'
loop_
 _atom_site_type_symbol
 _atom_site_label
 _atom_site_symmetry_multiplicity
 _atom_site_fract_x
 _atom_site_fract_y
 _atom_site_fract_z
 _atom_site_occupancy
  Nb  Nb0  1  0.33333564  0.66666697  0.00060966  1
  Nb  Nb1  1  0.00000354  0.00000721  0.99997821  1
  Nb  Nb2  1  0.99998883  0.99999526  0.50002049  1
  Nb  Nb3  1  0.33332209  0.66666645  0.49938877  1
  Nb  Nb4  1  0.66666329  0.33332813  0.99933919  1
  Nb  Nb5  1  0.66665168  0.33333069  0.50066196  1
  Cr  Cr6  1  0.33332728  0.66666405  0.25000187  1
  Cr  Cr7  1  0.66666223  0.33332960  0.75000099  1
  Se  Se8  1  0.33375956  0.00578145  0.13219157  1
  Se  Se9  1  0.66622812  0.99422326  0.63223965  1
  Se  Se10  1  0.99421591  0.32798154  0.13219172  1
  Se  Se11  1  0.67201619  0.00578875  0.36780680  1
  Se  Se12  1  0.33375513  0.32797952  0.36780835  1
  Se  Se13  1  0.99421057  0.66624198  0.36780679  1
  Se  Se14  1  0.67201674  0.66623593  0.13219354  1
  Se  Se15  1  0.32797044  0.33375828  0.63223963  1
  Se  Se16  1  0.00577110  0.67201959  0.63223884  1
  Se  Se17  1  0.32798062  0.99421850  0.86776100  1
  Se  Se18  1  0.66623931  0.67201911  0.86776184  1
  Se  Se19  1  0.00577672  0.33375874  0.86776012  1
