# generated using pymatgen
data_Tb3ReB7
_symmetry_space_group_name_H-M   'P 1'
_cell_length_a   8.13166724
_cell_length_b   8.13166724
_cell_length_c   9.39183342
_cell_angle_alpha   90.00000000
_cell_angle_beta   90.00000000
_cell_angle_gamma   25.21366642
_symmetry_Int_Tables_number   1
_chemical_formula_structural   Tb3ReB7
_chemical_formula_sum   'Tb6 Re2 B14'
_cell_volume   264.55390951
_cell_formula_units_Z   2
loop_
 _symmetry_equiv_pos_site_id
 _symmetry_equiv_pos_as_xyz
  1  'x, y, z'
loop_
 _atom_site_type_symbol
 _atom_site_label
 _atom_site_symmetry_multiplicity
 _atom_site_fract_x
 _atom_site_fract_y
 _atom_site_fract_z
 _atom_site_occupancy
  Tb  Tb0  1  0.10516235  0.10516235  0.06042836  1
  Tb  Tb1  1  0.89483665  0.89483665  0.56042736  1
  Tb  Tb2  1  0.89483665  0.89483665  0.93957164  1
  Tb  Tb3  1  0.10516235  0.10516235  0.43957264  1
  Tb  Tb4  1  0.75758666  0.75758666  0.25000000  1
  Tb  Tb5  1  0.24241334  0.24241334  0.74999900  1
  Re  Re6  1  0.94685850  0.94685850  0.25000000  1
  Re  Re7  1  0.05314150  0.05314150  0.74999900  1
  B  B8  1  0.54108081  0.54108081  0.25000000  1
  B  B9  1  0.45891919  0.45891919  0.74999900  1
  B  B10  1  0.27307963  0.27307963  0.03303884  1
  B  B11  1  0.72692037  0.72692037  0.53303884  1
  B  B12  1  0.72692037  0.72692037  0.96696116  1
  B  B13  1  0.27307963  0.27307963  0.46696116  1
  B  B14  1  0.36799040  0.36799040  0.34909626  1
  B  B15  1  0.63200960  0.63200960  0.84909726  1
  B  B16  1  0.63200960  0.63200960  0.65090274  1
  B  B17  1  0.36799040  0.36799040  0.15090274  1
  B  B18  1  0.47858001  0.47858001  0.40416207  1
  B  B19  1  0.52141899  0.52141899  0.90416207  1
  B  B20  1  0.52141899  0.52141899  0.59583793  1
  B  B21  1  0.47858001  0.47858001  0.09583693  1
