# generated using pymatgen
data_NaAsSe2
_symmetry_space_group_name_H-M   'P 1'
_cell_length_a   11.80755810
_cell_length_b   6.06750381
_cell_length_c   12.13427791
_cell_angle_alpha   90.00000000
_cell_angle_beta   90.83025978
_cell_angle_gamma   90.00000000
_symmetry_Int_Tables_number   1
_chemical_formula_structural   NaAsSe2
_chemical_formula_sum   'Na8 As8 Se16'
_cell_volume   869.23756721
_cell_formula_units_Z   8
loop_
 _symmetry_equiv_pos_site_id
 _symmetry_equiv_pos_as_xyz
  1  'x, y, z'
loop_
 _atom_site_type_symbol
 _atom_site_label
 _atom_site_symmetry_multiplicity
 _atom_site_fract_x
 _atom_site_fract_y
 _atom_site_fract_z
 _atom_site_occupancy
  Na  Na0  1  0.23676906  0.99190052  0.24821616  1
  Na  Na1  1  0.23676906  0.00809948  0.74821616  1
  Na  Na2  1  0.47740933  0.50118662  0.73880312  1
  Na  Na3  1  0.47740833  0.49881338  0.23880312  1
  Na  Na4  1  0.97707657  0.47622872  0.76363078  1
  Na  Na5  1  0.97707657  0.52377328  0.26363078  1
  Na  Na6  1  0.73844778  0.52194537  0.50005105  1
  Na  Na7  1  0.73844778  0.47805663  0.00005105  1
  As  As8  1  0.24501288  0.54261938  0.96434557  1
  As  As9  1  0.24501388  0.45738062  0.46434557  1
  As  As10  1  0.00361957  0.91674547  0.99073582  1
  As  As11  1  0.00362057  0.08325353  0.49073482  1
  As  As12  1  0.74371681  0.92753427  0.77477105  1
  As  As13  1  0.74371681  0.07246473  0.27477105  1
  As  As14  1  0.50199849  0.97207794  0.95450512  1
  As  As15  1  0.50199949  0.02792206  0.45450512  1
  Se  Se16  1  0.49448667  0.99896847  0.25939671  1
  Se  Se17  1  0.49448567  0.00103153  0.75939771  1
  Se  Se18  1  0.46457845  0.57741794  0.98978323  1
  Se  Se19  1  0.46457945  0.42258206  0.48978323  1
  Se  Se20  1  0.22719052  0.51160769  0.77012300  1
  Se  Se21  1  0.22719052  0.48839131  0.27012300  1
  Se  Se22  1  0.96391873  0.97559054  0.79249929  1
  Se  Se23  1  0.96391873  0.02440846  0.29249929  1
  Se  Se24  1  0.71602043  0.97375695  0.97771637  1
  Se  Se25  1  0.71602043  0.02624305  0.47771637  1
  Se  Se26  1  0.72917913  0.54062226  0.75053236  1
  Se  Se27  1  0.72917913  0.45937774  0.25053336  1
  Se  Se28  1  0.21808674  0.94735916  0.99592065  1
  Se  Se29  1  0.21808574  0.05263884  0.49591965  1
  Se  Se30  1  0.99497685  0.47139585  0.51260071  1
  Se  Se31  1  0.99497685  0.52860415  0.01260071  1
