# generated using pymatgen
data_Sb2H10(CF2)3
_symmetry_space_group_name_H-M   'P 1'
_cell_length_a   7.45442616
_cell_length_b   11.68612854
_cell_length_c   26.53931589
_cell_angle_alpha   90.00000000
_cell_angle_beta   91.56681228
_cell_angle_gamma   90.00000000
_symmetry_Int_Tables_number   1
_chemical_formula_structural   Sb2H10(CF2)3
_chemical_formula_sum   'Sb16 H80 C24 F48'
_cell_volume   2311.06518939
_cell_formula_units_Z   8
loop_
 _symmetry_equiv_pos_site_id
 _symmetry_equiv_pos_as_xyz
  1  'x, y, z'
loop_
 _atom_site_type_symbol
 _atom_site_label
 _atom_site_symmetry_multiplicity
 _atom_site_fract_x
 _atom_site_fract_y
 _atom_site_fract_z
 _atom_site_occupancy
  Sb  Sb0  1  0.24628185  0.65517768  0.42393387  1
  Sb  Sb1  1  0.74628185  0.84482232  0.92393387  1
  Sb  Sb2  1  0.75371815  0.34482232  0.57606613  1
  Sb  Sb3  1  0.25371815  0.15517768  0.07606613  1
  Sb  Sb4  1  0.31804694  0.36601410  0.83011952  1
  Sb  Sb5  1  0.81804694  0.13398590  0.33011952  1
  Sb  Sb6  1  0.68195306  0.63398590  0.16988048  1
  Sb  Sb7  1  0.18195306  0.86601410  0.66988048  1
  Sb  Sb8  1  0.25298785  0.86417051  0.26614641  1
  Sb  Sb9  1  0.75298785  0.63582949  0.76614641  1
  Sb  Sb10  1  0.74701215  0.13582949  0.73385359  1
  Sb  Sb11  1  0.24701215  0.36417051  0.23385359  1
  Sb  Sb12  1  0.24397237  0.23752821  0.46288883  1
  Sb  Sb13  1  0.74397237  0.26247179  0.96288883  1
  Sb  Sb14  1  0.75602763  0.76247179  0.53711117  1
  Sb  Sb15  1  0.25602763  0.73752821  0.03711117  1
  H  H16  1  0.20803641  0.59016310  0.47943037  1
  H  H17  1  0.70803641  0.90983690  0.97943037  1
  H  H18  1  0.79196359  0.40983690  0.52056963  1
  H  H19  1  0.29196359  0.09016310  0.02056963  1
  H  H20  1  0.54429655  0.36497864  0.83496359  1
  H  H21  1  0.04429655  0.13502136  0.33496359  1
  H  H22  1  0.45570345  0.63502136  0.16503641  1
  H  H23  1  0.95570345  0.86497864  0.66503641  1
  H  H24  1  0.53479618  0.52336016  0.42898919  1
  H  H25  1  0.03479618  0.97663984  0.92898919  1
  H  H26  1  0.46520382  0.47663984  0.57101081  1
  H  H27  1  0.96520382  0.02336016  0.07101081  1
  H  H28  1  0.47314241  0.54917566  0.36355771  1
  H  H29  1  0.97314241  0.95082434  0.86355771  1
  H  H30  1  0.52685759  0.45082434  0.63644229  1
  H  H31  1  0.02685759  0.04917566  0.13644229  1
  H  H32  1  0.59238110  0.65742038  0.40016418  1
  H  H33  1  0.09238110  0.84257962  0.90016418  1
  H  H34  1  0.40761890  0.34257962  0.59983582  1
  H  H35  1  0.90761890  0.15742038  0.09983582  1
  H  H36  1  0.94127349  0.55292127  0.39534365  1
  H  H37  1  0.44127349  0.94707873  0.89534365  1
  H  H38  1  0.05872651  0.44707873  0.60465635  1
  H  H39  1  0.55872651  0.05292127  0.10465635  1
  H  H40  1  0.96442286  0.68564353  0.36117407  1
  H  H41  1  0.46442286  0.81435647  0.86117407  1
  H  H42  1  0.03557714  0.31435647  0.63882593  1
  H  H43  1  0.53557714  0.18564353  0.13882593  1
  H  H44  1  0.08985431  0.56107387  0.34269740  1
  H  H45  1  0.58985431  0.93892613  0.84269740  1
  H  H46  1  0.91014569  0.43892613  0.65730260  1
  H  H47  1  0.41014569  0.06107387  0.15730260  1
  H  H48  1  0.23158864  0.87377353  0.39707762  1
  H  H49  1  0.73158864  0.62622647  0.89707762  1
  H  H50  1  0.76841136  0.12622647  0.60292238  1
  H  H51  1  0.26841136  0.37377353  0.10292238  1
  H  H52  1  0.15595535  0.86034011  0.46104293  1
  H  H53  1  0.65595535  0.63965989  0.96104293  1
  H  H54  1  0.84404465  0.13965989  0.53895707  1
  H  H55  1  0.34404465  0.36034011  0.03895707  1
  H  H56  1  0.39210532  0.85720722  0.44871184  1
  H  H57  1  0.89210532  0.64279278  0.94871184  1
  H  H58  1  0.60789468  0.14279278  0.55128816  1
  H  H59  1  0.10789468  0.35720722  0.05128816  1
  H  H60  1  0.09742202  0.42513761  0.75470022  1
  H  H61  1  0.59742202  0.07486239  0.25470022  1
  H  H62  1  0.90257798  0.57486239  0.24530078  1
  H  H63  1  0.40257798  0.92513761  0.74529978  1
  H  H64  1  0.24995522  0.31687026  0.73304158  1
  H  H65  1  0.74995522  0.18312974  0.23304158  1
  H  H66  1  0.75004478  0.68312974  0.26695842  1
  H  H67  1  0.25004478  0.81687026  0.76695842  1
  H  H68  1  0.32536705  0.46326007  0.73930316  1
  H  H69  1  0.82536705  0.03673993  0.23930316  1
  H  H70  1  0.67463295  0.53673993  0.26069684  1
  H  H71  1  0.17463295  0.96326007  0.76069684  1
  H  H72  1  0.07329674  0.20787557  0.85021728  1
  H  H73  1  0.57329674  0.29212443  0.35021728  1
  H  H74  1  0.92670326  0.79212443  0.14978272  1
  H  H75  1  0.42670326  0.70787557  0.64978272  1
  H  H76  1  0.26031846  0.19757404  0.89486055  1
  H  H77  1  0.76031846  0.30242596  0.39486055  1
  H  H78  1  0.73968154  0.80242596  0.10513945  1
  H  H79  1  0.23968154  0.69757404  0.60513945  1
  H  H80  1  0.28054861  0.14005428  0.83200762  1
  H  H81  1  0.78054861  0.35994572  0.33200762  1
  H  H82  1  0.71945139  0.85994572  0.16799238  1
  H  H83  1  0.21945139  0.64005428  0.66799238  1
  H  H84  1  0.28304741  0.57930315  0.86076306  1
  H  H85  1  0.78304741  0.92069685  0.36076306  1
  H  H86  1  0.71695259  0.42069685  0.13923694  1
  H  H87  1  0.21695259  0.07930315  0.63923694  1
  H  H88  1  0.28445595  0.48573713  0.91483880  1
  H  H89  1  0.78445595  0.01426287  0.41483880  1
  H  H90  1  0.71554405  0.51426287  0.08516120  1
  H  H91  1  0.21554405  0.98573713  0.58516120  1
  H  H92  1  0.08274321  0.50009028  0.87584805  1
  H  H93  1  0.58274321  0.99990972  0.37584805  1
  H  H94  1  0.91725679  0.49990972  0.12415195  1
  H  H95  1  0.41725679  0.00009028  0.62415195  1
  C  C96  1  0.49494999  0.58732703  0.40089789  1
  C  C97  1  0.99494999  0.91267297  0.90089789  1
  C  C98  1  0.50505001  0.41267297  0.59910211  1
  C  C99  1  0.00505001  0.08732703  0.09910211  1
  C  C100  1  0.03139169  0.60743522  0.37414051  1
  C  C101  1  0.53139169  0.89256478  0.87414051  1
  C  C102  1  0.96860831  0.39256478  0.62585949  1
  C  C103  1  0.46860831  0.10743522  0.12585949  1
  C  C104  1  0.25752310  0.83536894  0.43416667  1
  C  C105  1  0.75752310  0.66463106  0.93416667  1
  C  C106  1  0.74247690  0.16463106  0.56583333  1
  C  C107  1  0.24247690  0.33536894  0.06583333  1
  C  C108  1  0.23714806  0.39686925  0.75399010  1
  C  C109  1  0.73714806  0.10313075  0.25399010  1
  C  C110  1  0.76285194  0.60313075  0.24600990  1
  C  C111  1  0.26285194  0.89686925  0.74600990  1
  C  C112  1  0.21928690  0.20622231  0.85507416  1
  C  C113  1  0.71928690  0.29377769  0.35507416  1
  C  C114  1  0.78071310  0.79377769  0.14492584  1
  C  C115  1  0.28071310  0.70622231  0.64492584  1
  C  C116  1  0.22949558  0.50041851  0.87681317  1
  C  C117  1  0.72949558  0.99958149  0.37681317  1
  C  C118  1  0.77050442  0.49958149  0.12318683  1
  C  C119  1  0.27050442  0.00041851  0.62318683  1
  F  F120  1  0.47597588  0.84435589  0.23196095  1
  F  F121  1  0.97597588  0.65564411  0.73196095  1
  F  F122  1  0.52402412  0.15564511  0.76803905  1
  F  F123  1  0.02402412  0.34435489  0.26803905  1
  F  F124  1  0.33411008  0.75839556  0.31785615  1
  F  F125  1  0.83411008  0.74160444  0.81785615  1
  F  F126  1  0.66588992  0.24160444  0.68214385  1
  F  F127  1  0.16588992  0.25839556  0.18214385  1
  F  F128  1  0.17094769  0.97081985  0.21546048  1
  F  F129  1  0.67094769  0.52918015  0.71546048  1
  F  F130  1  0.82905231  0.02918015  0.78453952  1
  F  F131  1  0.32905231  0.47081985  0.28453952  1
  F  F132  1  0.03145508  0.88419635  0.30148771  1
  F  F133  1  0.53145508  0.61580365  0.80148771  1
  F  F134  1  0.96854492  0.11580365  0.69851229  1
  F  F135  1  0.46854492  0.38419635  0.19851229  1
  F  F136  1  0.14679105  0.74119469  0.22842932  1
  F  F137  1  0.64679105  0.75880531  0.72842932  1
  F  F138  1  0.85320895  0.25880531  0.77157068  1
  F  F139  1  0.35320895  0.24119469  0.27157068  1
  F  F140  1  0.35775507  0.98616800  0.30497651  1
  F  F141  1  0.85775507  0.51383200  0.80497651  1
  F  F142  1  0.64224493  0.01383200  0.69502349  1
  F  F143  1  0.14224493  0.48616800  0.19502349  1
  F  F144  1  0.47159782  0.30849898  0.48005433  1
  F  F145  1  0.97159782  0.19150102  0.98005433  1
  F  F146  1  0.52840218  0.69150102  0.51994567  1
  F  F147  1  0.02840218  0.80849898  0.01994567  1
  F  F148  1  0.01298291  0.17115747  0.44621247  1
  F  F149  1  0.51298291  0.32884253  0.94621247  1
  F  F150  1  0.98701709  0.82884253  0.55378753  1
  F  F151  1  0.48701709  0.67115747  0.05378753  1
  F  F152  1  0.34439775  0.16714671  0.40489563  1
  F  F153  1  0.84439775  0.33285329  0.90489563  1
  F  F154  1  0.65560225  0.83285329  0.59510437  1
  F  F155  1  0.15560225  0.66714671  0.09510437  1
  F  F156  1  0.30880713  0.10756506  0.50339388  1
  F  F157  1  0.80880713  0.39243494  0.00339388  1
  F  F158  1  0.69119287  0.89243494  0.49660612  1
  F  F159  1  0.19119287  0.60756506  0.99660612  1
  F  F160  1  0.14124466  0.30785685  0.52126189  1
  F  F161  1  0.64124466  0.19214315  0.02126189  1
  F  F162  1  0.85875534  0.69214315  0.47873811  1
  F  F163  1  0.35875534  0.80785685  0.97873811  1
  F  F164  1  0.17965479  0.37070546  0.42360672  1
  F  F165  1  0.67965479  0.12929454  0.92360672  1
  F  F166  1  0.82034521  0.62929454  0.57639328  1
  F  F167  1  0.32034521  0.87070546  0.07639328  1
