# generated using pymatgen
data_Y2Cr3O12
_symmetry_space_group_name_H-M   'P 1'
_cell_length_a   5.99294216
_cell_length_b   5.99056698
_cell_length_c   17.96363651
_cell_angle_alpha   105.91405046
_cell_angle_beta   105.88029972
_cell_angle_gamma   116.91026495
_symmetry_Int_Tables_number   1
_chemical_formula_structural   Y2Cr3O12
_chemical_formula_sum   'Y4 Cr6 O24'
_cell_volume   489.96058684
_cell_formula_units_Z   2
loop_
 _symmetry_equiv_pos_site_id
 _symmetry_equiv_pos_as_xyz
  1  'x, y, z'
loop_
 _atom_site_type_symbol
 _atom_site_label
 _atom_site_symmetry_multiplicity
 _atom_site_fract_x
 _atom_site_fract_y
 _atom_site_fract_z
 _atom_site_occupancy
  Y  Y0  1  0.13371425  0.88185097  0.08996161  1
  Y  Y1  1  0.11392001  0.86284791  0.40913744  1
  Y  Y2  1  0.88268672  0.13352521  0.58960063  1
  Y  Y3  1  0.86375144  0.11388414  0.90998828  1
  Cr  Cr4  1  0.37423025  0.62177871  0.24968801  1
  Cr  Cr5  1  0.36922970  0.62045802  0.58079446  1
  Cr  Cr6  1  0.37966720  0.62747734  0.91990509  1
  Cr  Cr7  1  0.61991981  0.36989786  0.08131391  1
  Cr  Cr8  1  0.62786538  0.37728676  0.41859165  1
  Cr  Cr9  1  0.62240196  0.37236020  0.74960026  1
  O  O10  1  0.78760712  0.71069891  0.14214835  1
  O  O11  1  0.79540257  0.73044781  0.47820255  1
  O  O12  1  0.77459658  0.71248136  0.81383405  1
  O  O13  1  0.33368687  0.77148909  0.18643772  1
  O  O14  1  0.35415409  0.79310183  0.52097493  1
  O  O15  1  0.36309969  0.78856276  0.86011541  1
  O  O16  1  0.71536752  0.77474272  0.31235155  1
  O  O17  1  0.71067783  0.78715244  0.64043392  1
  O  O18  1  0.73257679  0.79603604  0.97972524  1
  O  O19  1  0.79039070  0.35674403  0.02051997  1
  O  O20  1  0.78684606  0.36016888  0.35808448  1
  O  O21  1  0.77266954  0.33608777  0.68620458  1
  O  O22  1  0.63389977  0.20715996  0.14067094  1
  O  O23  1  0.64046056  0.20490580  0.47870096  1
  O  O24  1  0.66003981  0.21901418  0.81199155  1
  O  O25  1  0.22402392  0.28194009  0.18662245  1
  O  O26  1  0.20295550  0.26848929  0.52002669  1
  O  O27  1  0.21475034  0.28696192  0.85946870  1
  O  O28  1  0.22405499  0.65878006  0.31312034  1
  O  O29  1  0.21050256  0.63347324  0.64157245  1
  O  O30  1  0.20702172  0.63868762  0.98000366  1
  O  O31  1  0.26770075  0.20464053  0.02145276  1
  O  O32  1  0.28723436  0.21221161  0.35860036  1
  O  O33  1  0.28245067  0.22218793  0.68638106  1
