# generated using pymatgen
data_Ca(FeO2)2
_symmetry_space_group_name_H-M   'P 1'
_cell_length_a   5.22202837
_cell_length_b   6.02051501
_cell_length_c   11.23483946
_cell_angle_alpha   90.04536841
_cell_angle_beta   89.97407398
_cell_angle_gamma   89.99982786
_symmetry_Int_Tables_number   1
_chemical_formula_structural   Ca(FeO2)2
_chemical_formula_sum   'Ca4 Fe8 O16'
_cell_volume   353.21534365
_cell_formula_units_Z   4
loop_
 _symmetry_equiv_pos_site_id
 _symmetry_equiv_pos_as_xyz
  1  'x, y, z'
loop_
 _atom_site_type_symbol
 _atom_site_label
 _atom_site_symmetry_multiplicity
 _atom_site_fract_x
 _atom_site_fract_y
 _atom_site_fract_z
 _atom_site_occupancy
  Ca  Ca0  1  0.85443683  0.25002183  0.75002940  1
  Ca  Ca1  1  0.14555556  0.74999278  0.24997461  1
  Ca  Ca2  1  0.53628431  0.24999962  0.25003741  1
  Ca  Ca3  1  0.46370152  0.75000119  0.74995826  1
  Fe  Fe4  1  0.50487189  0.75004546  0.48531501  1
  Fe  Fe5  1  0.50489444  0.74995978  0.01462774  1
  Fe  Fe6  1  0.49515396  0.24992011  0.51467743  1
  Fe  Fe7  1  0.49507888  0.25007322  0.98536703  1
  Fe  Fe8  1  0.00002002  0.49996172  0.50000037  1
  Fe  Fe9  1  0.99998900  0.00001143  0.00001038  1
  Fe  Fe10  1  0.00000542  0.99997360  0.49999855  1
  Fe  Fe11  1  0.99998779  0.50002786  0.00000592  1
  O  O12  1  0.84281986  0.74983126  0.40154751  1
  O  O13  1  0.84259006  0.75017008  0.09855782  1
  O  O14  1  0.15720488  0.25011673  0.59845329  1
  O  O15  1  0.15739003  0.24987947  0.90145136  1
  O  O16  1  0.18196859  0.75022849  0.58950520  1
  O  O17  1  0.18209458  0.74977234  0.91055054  1
  O  O18  1  0.81805073  0.24971599  0.41048736  1
  O  O19  1  0.81788979  0.25028219  0.08945279  1
  O  O20  1  0.66470570  0.50288296  0.60402057  1
  O  O21  1  0.66491341  0.99704177  0.89606278  1
  O  O22  1  0.33530338  0.00272146  0.39600120  1
  O  O23  1  0.33506870  0.49721103  0.10391442  1
  O  O24  1  0.33531624  0.49708432  0.39597077  1
  O  O25  1  0.33507651  0.00299140  0.10393992  1
  O  O26  1  0.66471006  0.99725063  0.60399642  1
  O  O27  1  0.66491786  0.50283128  0.89608593  1
