# generated using pymatgen
data_Li9Mn2Co5O16
_symmetry_space_group_name_H-M   'P 1'
_cell_length_a   5.90245228
_cell_length_b   6.54992068
_cell_length_c   7.73184074
_cell_angle_alpha   93.64191693
_cell_angle_beta   99.60911630
_cell_angle_gamma   76.96332211
_symmetry_Int_Tables_number   1
_chemical_formula_structural   Li9Mn2Co5O16
_chemical_formula_sum   'Li9 Mn2 Co5 O16'
_cell_volume   287.02322187
_cell_formula_units_Z   1
loop_
 _symmetry_equiv_pos_site_id
 _symmetry_equiv_pos_as_xyz
  1  'x, y, z'
loop_
 _atom_site_type_symbol
 _atom_site_label
 _atom_site_symmetry_multiplicity
 _atom_site_fract_x
 _atom_site_fract_y
 _atom_site_fract_z
 _atom_site_occupancy
  Li  Li0  1  0.05955511  0.13790715  0.38478688  1
  Li  Li1  1  0.31465868  0.62353066  0.87337372  1
  Li  Li2  1  0.44621928  0.86087938  0.62066081  1
  Li  Li3  1  0.68669051  0.37751684  0.12178790  1
  Li  Li4  1  0.81098834  0.62377469  0.87770687  1
  Li  Li5  1  0.18794091  0.37764388  0.12819694  1
  Li  Li6  1  0.56301268  0.13091029  0.37563183  1
  Li  Li7  1  0.92965610  0.86582565  0.61871466  1
  Li  Li8  1  0.74918655  0.49997463  0.49977795  1
  Mn  Mn9  1  0.99667821  0.00351708  0.00033898  1
  Mn  Mn10  1  0.50233152  0.99864023  0.99834009  1
  Co  Co11  1  0.25049805  0.50015774  0.49911475  1
  Co  Co12  1  0.38018895  0.74751571  0.25713669  1
  Co  Co13  1  0.62708787  0.25021517  0.73592192  1
  Co  Co14  1  0.87189955  0.74514720  0.26214834  1
  Co  Co15  1  0.11912004  0.25956939  0.74373054  1
  O  O16  1  0.76914783  0.05716205  0.16703682  1
  O  O17  1  0.05387281  0.54387598  0.67997252  1
  O  O18  1  0.15914372  0.79335954  0.43780437  1
  O  O19  1  0.41626867  0.28914671  0.93063937  1
  O  O20  1  0.50372422  0.54684250  0.67065667  1
  O  O21  1  0.90692671  0.29988288  0.93173468  1
  O  O22  1  0.30594474  0.04697581  0.18208979  1
  O  O23  1  0.66195958  0.81130819  0.42421412  1
  O  O24  1  0.33976545  0.21003924  0.56174654  1
  O  O25  1  0.59138025  0.70219795  0.06562297  1
  O  O26  1  0.69525197  0.93909619  0.81782826  1
  O  O27  1  0.99566517  0.44919635  0.32860104  1
  O  O28  1  0.08405114  0.71066143  0.07219470  1
  O  O29  1  0.44698558  0.45950104  0.32150910  1
  O  O30  1  0.84635740  0.18238209  0.57934829  1
  O  O31  1  0.22784540  0.95564636  0.83163191  1
