# generated using pymatgen
data_Li9Mn2Co5O16
_symmetry_space_group_name_H-M   'P 1'
_cell_length_a   5.10525172
_cell_length_b   5.88149016
_cell_length_c   9.74973594
_cell_angle_alpha   87.17600337
_cell_angle_beta   79.21286873
_cell_angle_gamma   88.68716224
_symmetry_Int_Tables_number   1
_chemical_formula_structural   Li9Mn2Co5O16
_chemical_formula_sum   'Li9 Mn2 Co5 O16'
_cell_volume   287.20002709
_cell_formula_units_Z   1
loop_
 _symmetry_equiv_pos_site_id
 _symmetry_equiv_pos_as_xyz
  1  'x, y, z'
loop_
 _atom_site_type_symbol
 _atom_site_label
 _atom_site_symmetry_multiplicity
 _atom_site_fract_x
 _atom_site_fract_y
 _atom_site_fract_z
 _atom_site_occupancy
  Li  Li0  1  0.50114299  0.24686898  -0.00055920  1
  Li  Li1  1  0.25836794  0.49600106  0.25499363  1
  Li  Li2  1  0.50792944  0.75663668  0.00484056  1
  Li  Li3  1  0.24751439  0.00405413  0.25438851  1
  Li  Li4  1  0.75003977  0.00466931  0.74651248  1
  Li  Li5  1  0.74591900  0.49143172  0.74296487  1
  Li  Li6  1  0.99160624  0.74413194  0.49622414  1
  Li  Li7  1  0.99716904  0.25112747  0.49988913  1
  Li  Li8  1  0.74442232  0.24790346  0.25212935  1
  Mn  Mn9  1  -0.00351255  0.00593397  0.00562842  1
  Mn  Mn10  1  -0.00180664  0.50162659  0.00495283  1
  Co  Co11  1  0.50661590  0.49332776  0.49291130  1
  Co  Co12  1  0.25492462  0.75407936  0.74886020  1
  Co  Co13  1  0.75098448  0.74866846  0.25072242  1
  Co  Co14  1  0.50127751  0.99698104  0.49460981  1
  Co  Co15  1  0.25110238  0.25452332  0.74690844  1
  O  O16  1  0.34547307  0.00681245  0.87635643  1
  O  O17  1  0.11706341  0.24275143  0.11001187  1
  O  O18  1  0.35546529  0.51029808  0.87275398  1
  O  O19  1  0.10389689  0.77325679  0.13196186  1
  O  O20  1  0.60803799  0.75489887  0.61540886  1
  O  O21  1  0.61513313  0.26005117  0.62341140  1
  O  O22  1  0.85790961  0.51567564  0.36672305  1
  O  O23  1  0.83449142  0.97246652  0.36938279  1
  O  O24  1  0.65604798  0.52373997  0.13049434  1
  O  O25  1  0.40222459  0.72979762  0.36463962  1
  O  O26  1  0.65484626  0.98715801  0.12585724  1
  O  O27  1  0.37724464  0.23349898  0.38806009  1
  O  O28  1  0.88059428  0.23390091  0.88012928  1
  O  O29  1  0.89615776  0.76332532  0.88920692  1
  O  O30  1  0.15298524  0.99605372  0.62725409  1
  O  O31  1  0.13873161  0.49834928  0.63237131  1
