# generated using pymatgen
data_Li9Mn2Co5O16
_symmetry_space_group_name_H-M   'P 1'
_cell_length_a   5.03906687
_cell_length_b   5.10526624
_cell_length_c   11.79768559
_cell_angle_alpha   88.85160086
_cell_angle_beta   87.92752573
_cell_angle_gamma   108.20262933
_symmetry_Int_Tables_number   1
_chemical_formula_structural   Li9Mn2Co5O16
_chemical_formula_sum   'Li9 Mn2 Co5 O16'
_cell_volume   287.97094711
_cell_formula_units_Z   1
loop_
 _symmetry_equiv_pos_site_id
 _symmetry_equiv_pos_as_xyz
  1  'x, y, z'
loop_
 _atom_site_type_symbol
 _atom_site_label
 _atom_site_symmetry_multiplicity
 _atom_site_fract_x
 _atom_site_fract_y
 _atom_site_fract_z
 _atom_site_occupancy
  Li  Li0  1  0.99586857  0.49688585  0.12910789  1
  Li  Li1  1  0.51564675  0.51400508  0.26208688  1
  Li  Li2  1  0.00261331  0.49683099  0.38268699  1
  Li  Li3  1  0.50091726  0.49680219  0.50228279  1
  Li  Li4  1  0.99694977  0.50837272  0.62069147  1
  Li  Li5  1  0.48651989  0.49306756  0.74069085  1
  Li  Li6  1  0.00240663  0.50122251  0.86734854  1
  Li  Li7  1  0.50118409  0.50053666  0.99533939  1
  Li  Li8  1  0.00154944  0.00274120  0.49938285  1
  Mn  Mn9  1  0.99690425  -0.00251840  0.99792565  1
  Mn  Mn10  1  0.50140539  0.99800290  0.12895435  1
  Co  Co11  1  0.00515752  0.00413775  0.25869636  1
  Co  Co12  1  0.50123542  0.00442542  0.37977306  1
  Co  Co13  1  0.50453717  -0.01119542  0.62167518  1
  Co  Co14  1  0.00108431  0.00234142  0.73865272  1
  Co  Co15  1  0.49143120  -0.00174101  0.87099389  1
  O  O16  1  0.75506046  0.22864130  0.00942247  1
  O  O17  1  0.22664657  0.20744786  0.12049831  1
  O  O18  1  0.75827011  0.22669065  0.26085567  1
  O  O19  1  0.27592710  0.22720700  0.36845065  1
  O  O20  1  0.71841811  0.22492565  0.49280125  1
  O  O21  1  0.23979813  0.23470150  0.63163212  1
  O  O22  1  0.72697558  0.23058552  0.75764120  1
  O  O23  1  0.24574822  0.22710255  0.88147034  1
  O  O24  1  0.26150885  0.77873959  0.25337714  1
  O  O25  1  0.75172980  0.78460221  0.36710025  1
  O  O26  1  0.28322776  0.77450753  0.49319508  1
  O  O27  1  0.74780527  0.76409908  0.63009437  1
  O  O28  1  0.24780202  0.75860350  0.74912762  1
  O  O29  1  0.76470446  0.79466424  0.88028416  1
  O  O30  1  0.24202113  0.77069394  0.99032724  1
  O  O31  1  0.74894545  0.76287045  0.11743026  1
