# generated using pymatgen
data_Li9Mn2Co5O16
_symmetry_space_group_name_H-M   'P 1'
_cell_length_a   2.93960663
_cell_length_b   10.23859760
_cell_length_c   9.80623420
_cell_angle_alpha   101.69605578
_cell_angle_beta   89.00742265
_cell_angle_gamma   90.42641971
_symmetry_Int_Tables_number   1
_chemical_formula_structural   Li9Mn2Co5O16
_chemical_formula_sum   'Li9 Mn2 Co5 O16'
_cell_volume   288.96882628
_cell_formula_units_Z   1
loop_
 _symmetry_equiv_pos_site_id
 _symmetry_equiv_pos_as_xyz
  1  'x, y, z'
loop_
 _atom_site_type_symbol
 _atom_site_label
 _atom_site_symmetry_multiplicity
 _atom_site_fract_x
 _atom_site_fract_y
 _atom_site_fract_z
 _atom_site_occupancy
  Li  Li0  1  0.98812333  0.12171214  0.74028740  1
  Li  Li1  1  0.48538473  0.49974343  0.49121499  1
  Li  Li2  1  0.00834392  0.88559967  0.25750697  1
  Li  Li3  1  0.51470428  0.24781928  0.01409984  1
  Li  Li4  1  0.49686990  0.00135983  0.49421875  1
  Li  Li5  1  0.00144674  0.36516452  0.25150542  1
  Li  Li6  1  0.50288897  0.75149141  0.00388608  1
  Li  Li7  1  0.99912630  0.62782493  0.75075355  1
  Li  Li8  1  0.49687253  0.12913773  0.24568279  1
  Mn  Mn9  1  0.01483069  0.00333864  0.00447167  1
  Mn  Mn10  1  0.50043154  0.37241771  0.74773979  1
  Co  Co11  1  0.98934493  0.75025325  0.50239198  1
  Co  Co12  1  0.00184688  0.50346440  0.00472877  1
  Co  Co13  1  0.49976409  0.87105705  0.75116655  1
  Co  Co14  1  0.99544351  0.23557740  0.48053738  1
  Co  Co15  1  0.49910085  0.63122515  0.25080575  1
  O  O16  1  0.52010947  0.04460919  0.88061608  1
  O  O17  1  0.00631920  0.42667076  0.64089035  1
  O  O18  1  0.49379983  0.80459603  0.37545463  1
  O  O19  1  0.00727138  0.17407819  0.10895131  1
  O  O20  1  0.94982128  0.92556597  0.62920821  1
  O  O21  1  0.49776628  0.31142525  0.38682223  1
  O  O22  1  0.00599933  0.68437121  0.12853451  1
  O  O23  1  0.50119545  0.54770992  0.87477646  1
  O  O24  1  0.49780814  0.20158411  0.62754338  1
  O  O25  1  0.99299468  0.57630811  0.37808249  1
  O  O26  1  0.50771445  0.94614959  0.10749157  1
  O  O27  1  0.99364124  0.32053861  0.85996235  1
  O  O28  1  0.99956241  0.06853506  0.38371496  1
  O  O29  1  0.50458443  0.44906908  0.12626573  1
  O  O30  1  0.04170624  0.82342485  0.87338584  1
  O  O31  1  0.48518301  0.69817253  0.62730219  1
