# generated using pymatgen
data_K2Pd3S4
_symmetry_space_group_name_H-M   'P 1'
_cell_length_a   6.19309090
_cell_length_b   6.25856977
_cell_length_c   13.44943159
_cell_angle_alpha   83.45902810
_cell_angle_beta   76.68902430
_cell_angle_gamma   60.34548995
_symmetry_Int_Tables_number   1
_chemical_formula_structural   K2Pd3S4
_chemical_formula_sum   'K4 Pd6 S8'
_cell_volume   440.85072085
_cell_formula_units_Z   2
loop_
 _symmetry_equiv_pos_site_id
 _symmetry_equiv_pos_as_xyz
  1  'x, y, z'
loop_
 _atom_site_type_symbol
 _atom_site_label
 _atom_site_symmetry_multiplicity
 _atom_site_fract_x
 _atom_site_fract_y
 _atom_site_fract_z
 _atom_site_occupancy
  S  S0  1  0.89451026  0.08186611  0.86790651  1
  S  S1  1  0.76241677  0.58186611  0.13209349  1
  S  S2  1  0.97637637  0.91813389  0.36790651  1
  S  S3  1  0.65571712  0.58186611  0.36790651  1
  S  S4  1  0.34428288  0.41813389  0.63209349  1
  S  S5  1  0.02362363  0.08186611  0.63209349  1
  S  S6  1  0.23758323  0.41813389  0.86790651  1
  S  S7  1  0.10548974  0.91813389  0.13209349  1
  K  K8  1  0.54735782  0.75000000  0.90528436  1
  K  K9  1  0.29735782  0.25000000  0.40528436  1
  K  K10  1  0.45264218  0.25000000  0.09471564  1
  K  K11  1  0.70264218  0.75000000  0.59471564  1
  Pd  Pd12  1  0.37411980  0.75000000  0.25176040  1
  Pd  Pd13  1  0.12411980  0.25000000  0.75176040  1
  Pd  Pd14  1  0.62588020  0.25000000  0.74823960  1
  Pd  Pd15  1  0.12500000  0.75000000  0.75000000  1
  Pd  Pd16  1  0.87500000  0.25000000  0.25000000  1
  Pd  Pd17  1  0.87588020  0.75000000  0.24823960  1
