# generated using pymatgen
data_LaMnN3
_symmetry_space_group_name_H-M   'P 1'
_cell_length_a   4.06792412
_cell_length_b   5.81590377
_cell_length_c   6.79879878
_cell_angle_alpha   67.90266892
_cell_angle_beta   72.59254716
_cell_angle_gamma   69.52955619
_symmetry_Int_Tables_number   1
_chemical_formula_structural   LaMnN3
_chemical_formula_sum   'La2 Mn2 N6'
_cell_volume   136.99672304
_cell_formula_units_Z   2
loop_
 _symmetry_equiv_pos_site_id
 _symmetry_equiv_pos_as_xyz
  1  'x, y, z'
loop_
 _atom_site_type_symbol
 _atom_site_label
 _atom_site_symmetry_multiplicity
 _atom_site_fract_x
 _atom_site_fract_y
 _atom_site_fract_z
 _atom_site_occupancy
  La  La0  1  0.71985709  0.79804987  0.76223595  1
  La  La1  1  0.28014291  0.20195013  0.23776405  1
  Mn  Mn2  1  0.45870662  0.39550701  0.68707975  1
  Mn  Mn3  1  0.54129338  0.60449299  0.31292025  1
  N  N4  1  0.75899759  0.29016125  0.87833913  1
  N  N5  1  0.35831609  0.74851930  0.53484851  1
  N  N6  1  0.24100241  0.70983875  0.12166087  1
  N  N7  1  0.92749797  0.70983875  0.12166087  1
  N  N8  1  0.64168391  0.25148070  0.46515149  1
  N  N9  1  0.07250203  0.29016125  0.87833913  1
