# generated using pymatgen
data_Ca(NiO2)2
_symmetry_space_group_name_H-M   'P 1'
_cell_length_a   5.14256107
_cell_length_b   5.72094051
_cell_length_c   11.02057024
_cell_angle_alpha   92.54445236
_cell_angle_beta   89.89406611
_cell_angle_gamma   89.87562871
_symmetry_Int_Tables_number   1
_chemical_formula_structural   Ca(NiO2)2
_chemical_formula_sum   'Ca4 Ni8 O16'
_cell_volume   323.90728691
_cell_formula_units_Z   4
loop_
 _symmetry_equiv_pos_site_id
 _symmetry_equiv_pos_as_xyz
  1  'x, y, z'
loop_
 _atom_site_type_symbol
 _atom_site_label
 _atom_site_symmetry_multiplicity
 _atom_site_fract_x
 _atom_site_fract_y
 _atom_site_fract_z
 _atom_site_occupancy
  Ca  Ca0  1  0.84155778  0.24693932  0.75014239  1
  Ca  Ca1  1  0.15946241  0.75327619  0.25000971  1
  Ca  Ca2  1  0.54586001  0.25366421  0.25002969  1
  Ca  Ca3  1  0.45396282  0.74630851  0.75002340  1
  Ni  Ni4  1  0.50564880  0.75108620  0.49282326  1
  Ni  Ni5  1  0.50592458  0.74932074  0.00691173  1
  Ni  Ni6  1  0.49449449  0.24884289  0.50732031  1
  Ni  Ni7  1  0.49379303  0.25075376  0.99301815  1
  Ni  Ni8  1  0.00013223  0.49995629  0.50001270  1
  Ni  Ni9  1  -0.00018448  -0.00016744  -0.00005363  1
  Ni  Ni10  1  0.00003520  0.00011744  0.50006144  1
  Ni  Ni11  1  -0.00015918  0.50014958  -0.00011090  1
  O  O12  1  0.84525894  0.73969454  0.40975092  1
  O  O13  1  0.84651542  0.75948076  0.09071976  1
  O  O14  1  0.15470180  0.26030851  0.59033366  1
  O  O15  1  0.15407543  0.24034800  0.90921683  1
  O  O16  1  0.17159362  0.75850293  0.58357867  1
  O  O17  1  0.17062528  0.74167031  0.91539124  1
  O  O18  1  0.82847848  0.24143825  0.41643014  1
  O  O19  1  0.82813422  0.25830960  0.08402131  1
  O  O20  1  0.64819238  0.48696599  0.60596148  1
  O  O21  1  0.64641973  0.01099779  0.89488901  1
  O  O22  1  0.34906212  0.01718329  0.39637222  1
  O  O23  1  0.35065963  0.48493332  0.10306802  1
  O  O24  1  0.35197371  0.51287308  0.39417983  1
  O  O25  1  0.35308665  -0.01211644  0.10545545  1
  O  O26  1  0.65113518  0.98292284  0.60382482  1
  O  O27  1  0.64955975  0.51623952  0.89661839  1
