# generated using pymatgen
data_Li9Mn2Co5O16
_symmetry_space_group_name_H-M   'P 1'
_cell_length_a   2.96024691
_cell_length_b   10.13164081
_cell_length_c   9.75428177
_cell_angle_alpha   102.37748192
_cell_angle_beta   87.83380308
_cell_angle_gamma   91.04166413
_symmetry_Int_Tables_number   1
_chemical_formula_structural   Li9Mn2Co5O16
_chemical_formula_sum   'Li9 Mn2 Co5 O16'
_cell_volume   285.53264009
_cell_formula_units_Z   1
loop_
 _symmetry_equiv_pos_site_id
 _symmetry_equiv_pos_as_xyz
  1  'x, y, z'
loop_
 _atom_site_type_symbol
 _atom_site_label
 _atom_site_symmetry_multiplicity
 _atom_site_fract_x
 _atom_site_fract_y
 _atom_site_fract_z
 _atom_site_occupancy
  Li  Li0  1  0.00199022  0.12977099  0.75235609  1
  Li  Li1  1  0.50829155  0.49879847  0.50877824  1
  Li  Li2  1  0.00530634  0.87639449  0.24986654  1
  Li  Li3  1  0.48868918  0.25761693  0.00087219  1
  Li  Li4  1  0.49834597  0.99749578  0.49803952  1
  Li  Li5  1  0.99479151  0.37621549  0.24659972  1
  Li  Li6  1  0.49711421  0.74583093  0.99932007  1
  Li  Li7  1  0.00327607  0.61576878  0.74847847  1
  Li  Li8  1  0.48589598  0.38185326  0.74485477  1
  Mn  Mn9  1  0.01068489  0.00109283  0.00207913  1
  Mn  Mn10  1  0.99709282  0.25476359  0.50502257  1
  Co  Co11  1  0.99098132  0.74845784  0.50065409  1
  Co  Co12  1  0.51732073  0.12337064  0.25299981  1
  Co  Co13  1  0.99871274  0.49443813  0.98939060  1
  Co  Co14  1  0.48898649  0.87568601  0.74930912  1
  Co  Co15  1  0.50218705  0.62354233  0.24839116  1
  O  O16  1  0.46800164  0.05614623  0.87346781  1
  O  O17  1  0.99566773  0.42464532  0.61343996  1
  O  O18  1  0.49889013  0.80172439  0.37187783  1
  O  O19  1  0.03352524  0.17524568  0.14132968  1
  O  O20  1  0.94927513  0.92799414  0.62463035  1
  O  O21  1  0.50938983  0.29667974  0.38264183  1
  O  O22  1  0.00734376  0.66903480  0.11940560  1
  O  O23  1  0.47132214  0.55729215  0.88544627  1
  O  O24  1  0.48363857  0.19357935  0.60692854  1
  O  O25  1  0.99714910  0.57235258  0.37452008  1
  O  O26  1  0.54951249  0.94713281  0.12720710  1
  O  O27  1  0.00004731  0.32902526  0.89250730  1
  O  O28  1  0.00016457  0.07616000  0.36584198  1
  O  O29  1  0.53497587  0.44720373  0.12604668  1
  O  O30  1  0.02775449  0.82411560  0.87146451  1
  O  O31  1  0.48367492  0.70056671  0.62623239  1
