# generated using pymatgen
data_Li9Mn2Co5O16
_symmetry_space_group_name_H-M   'P 1'
_cell_length_a   5.86906598
_cell_length_b   9.73201802
_cell_length_c   5.94138391
_cell_angle_alpha   79.82806831
_cell_angle_beta   59.69399972
_cell_angle_gamma   81.71872456
_symmetry_Int_Tables_number   1
_chemical_formula_structural   Li9Mn2Co5O16
_chemical_formula_sum   'Li9 Mn2 Co5 O16'
_cell_volume   287.77536722
_cell_formula_units_Z   1
loop_
 _symmetry_equiv_pos_site_id
 _symmetry_equiv_pos_as_xyz
  1  'x, y, z'
loop_
 _atom_site_type_symbol
 _atom_site_label
 _atom_site_symmetry_multiplicity
 _atom_site_fract_x
 _atom_site_fract_y
 _atom_site_fract_z
 _atom_site_occupancy
  Li  Li0  1  0.11592084  0.25803515  0.13585127  1
  Li  Li1  1  0.75205093  0.49783172  0.24362483  1
  Li  Li2  1  0.37378829  0.74861582  0.37528569  1
  Li  Li3  1  0.00121735  0.00191007  0.50307228  1
  Li  Li4  1  0.62631400  0.25242456  0.62570720  1
  Li  Li5  1  0.24992086  0.49864133  0.74745289  1
  Li  Li6  1  0.87917925  0.74132975  0.86778920  1
  Li  Li7  1  0.49840983  0.00374389  0.00304064  1
  Li  Li8  1  0.12649470  0.25090326  0.62238179  1
  Mn  Mn9  1  0.99749184  0.00420872  0.99817419  1
  Mn  Mn10  1  0.49396027  0.00485570  0.50374361  1
  Co  Co11  1  0.25138135  0.49207371  0.25502442  1
  Co  Co12  1  0.37015395  0.74625019  0.87932756  1
  Co  Co13  1  0.62253914  0.24954451  0.12987107  1
  Co  Co14  1  0.76152624  0.49201043  0.74753814  1
  Co  Co15  1  0.87456309  0.74771655  0.38018323  1
  O  O16  1  0.31210849  0.10957998  0.79972287  1
  O  O17  1  0.90795911  0.37080374  0.94058863  1
  O  O18  1  0.55202791  0.62134562  0.05311673  1
  O  O19  1  0.16631286  0.87353601  0.18378452  1
  O  O20  1  0.78185587  0.13087364  0.32556174  1
  O  O21  1  0.45450916  0.36572056  0.39912481  1
  O  O22  1  0.06515365  0.61938300  0.55159574  1
  O  O23  1  0.66765756  0.87696352  0.67958923  1
  O  O24  1  0.94869659  0.38713953  0.42872607  1
  O  O25  1  0.58113746  0.62657427  0.56928734  1
  O  O26  1  0.21078857  0.88073259  0.66819840  1
  O  O27  1  0.80470751  0.13176990  0.85096782  1
  O  O28  1  0.44979733  0.36617092  0.95116604  1
  O  O29  1  0.07197327  0.63487305  0.05977562  1
  O  O30  1  0.68837049  0.88851281  0.20765811  1
  O  O31  1  0.34202526  0.12592551  0.31307233  1
