# generated using pymatgen
data_CaVO3
_symmetry_space_group_name_H-M   'P 1'
_cell_length_a   5.38145373
_cell_length_b   5.43759403
_cell_length_c   7.68253835
_cell_angle_alpha   89.54560825
_cell_angle_beta   89.74040006
_cell_angle_gamma   90.69266365
_symmetry_Int_Tables_number   1
_chemical_formula_structural   CaVO3
_chemical_formula_sum   'Ca4 V4 O12'
_cell_volume   224.78176863
_cell_formula_units_Z   4
loop_
 _symmetry_equiv_pos_site_id
 _symmetry_equiv_pos_as_xyz
  1  'x, y, z'
loop_
 _atom_site_type_symbol
 _atom_site_label
 _atom_site_symmetry_multiplicity
 _atom_site_fract_x
 _atom_site_fract_y
 _atom_site_fract_z
 _atom_site_occupancy
  Ca  Ca0  1  0.99400102  0.03960699  0.24561740  1
  Ca  Ca1  1  0.49299297  0.45904511  0.75332990  1
  Ca  Ca2  1  0.50702791  0.54093145  0.24669149  1
  Ca  Ca3  1  0.00600690  0.96037816  0.75440271  1
  V  V4  1  0.49955694  -0.00006649  0.00002123  1
  V  V5  1  0.00046607  0.50016226  -0.00012934  1
  V  V6  1  -0.00038686  0.49967369  0.49998760  1
  V  V7  1  0.50032886  0.00045655  0.49997521  1
  O  O8  1  0.92506105  0.51540848  0.74832568  1
  O  O9  1  0.42605012  0.98435566  0.24463758  1
  O  O10  1  0.57394869  0.01561763  0.75537956  1
  O  O11  1  0.07496026  0.48456603  0.25168660  1
  O  O12  1  0.70089260  0.27999654  0.46227383  1
  O  O13  1  0.20328192  0.21815152  0.54061285  1
  O  O14  1  0.79191472  0.79379377  0.03679860  1
  O  O15  1  0.28627060  0.70393441  0.96287953  1
  O  O16  1  0.71373104  0.29602982  0.03714290  1
  O  O17  1  0.20807222  0.20618029  0.96321849  1
  O  O18  1  0.29909605  0.71995235  0.53774285  1
  O  O19  1  0.79672693  0.78182780  0.45940331  1
