# generated using pymatgen
data_TlInCl3
_symmetry_space_group_name_H-M   'P 1'
_cell_length_a   7.68975648
_cell_length_b   7.75367804
_cell_length_c   8.02958078
_cell_angle_alpha   62.56501852
_cell_angle_beta   62.14230675
_cell_angle_gamma   60.82756029
_symmetry_Int_Tables_number   1
_chemical_formula_structural   TlInCl3
_chemical_formula_sum   'Tl2 In2 Cl6'
_cell_volume   352.35105265
_cell_formula_units_Z   2
loop_
 _symmetry_equiv_pos_site_id
 _symmetry_equiv_pos_as_xyz
  1  'x, y, z'
loop_
 _atom_site_type_symbol
 _atom_site_label
 _atom_site_symmetry_multiplicity
 _atom_site_fract_x
 _atom_site_fract_y
 _atom_site_fract_z
 _atom_site_occupancy
  Tl  Tl0  1  0.03789480  0.05226586  0.88035833  1
  Tl  Tl1  1  0.54031395  0.55679858  0.37129802  1
  In  In2  1  0.24315647  0.24591369  0.25636716  1
  In  In3  1  0.73566197  0.73509136  0.77584481  1
  Cl  Cl4  1  0.49999308  0.95734094  0.01712144  1
  Cl  Cl5  1  0.95760620  0.48816005  0.56660290  1
  Cl  Cl6  1  0.50582143  0.50287239  0.01864278  1
  Cl  Cl7  1  0.96562155  0.95587923  0.57618313  1
  Cl  Cl8  1  0.48664515  0.95375466  0.57045770  1
  Cl  Cl9  1  0.95728140  0.50192625  0.01712172  1
