# generated using pymatgen
data_LaTcN3
_symmetry_space_group_name_H-M   'P 1'
_cell_length_a   6.27409458
_cell_length_b   7.44230000
_cell_length_c   7.44230022
_cell_angle_alpha   92.90532778
_cell_angle_beta   103.13872942
_cell_angle_gamma   76.86128049
_symmetry_Int_Tables_number   1
_chemical_formula_structural   LaTcN3
_chemical_formula_sum   'La4 Tc4 N12'
_cell_volume   329.55267878
_cell_formula_units_Z   4
loop_
 _symmetry_equiv_pos_site_id
 _symmetry_equiv_pos_as_xyz
  1  'x, y, z'
loop_
 _atom_site_type_symbol
 _atom_site_label
 _atom_site_symmetry_multiplicity
 _atom_site_fract_x
 _atom_site_fract_y
 _atom_site_fract_z
 _atom_site_occupancy
  La  La0  1  0.75000000  0.90468000  0.90468000  1
  La  La1  1  0.75000000  0.32249000  0.32249000  1
  La  La2  1  0.25000000  0.67751000  0.67751000  1
  La  La3  1  0.25000000  0.09532000  0.09532000  1
  Tc  Tc4  1  0.74970000  0.38056000  0.79838000  1
  Tc  Tc5  1  0.75030000  0.79838000  0.38056000  1
  Tc  Tc6  1  0.24970000  0.20162000  0.61944000  1
  Tc  Tc7  1  0.25030000  0.61944000  0.20162000  1
  N  N8  1  0.33966000  0.00141000  0.76849000  1
  N  N9  1  0.14241000  0.14307000  0.38337000  1
  N  N10  1  0.98608000  0.36100000  0.66928000  1
  N  N11  1  0.83966000  0.23151000  0.99859000  1
  N  N12  1  0.35759000  0.38337000  0.14307000  1
  N  N13  1  0.48608000  0.33072000  0.63900000  1
  N  N14  1  0.51392000  0.66928000  0.36100000  1
  N  N15  1  0.85759000  0.85693000  0.61663000  1
  N  N16  1  0.64241000  0.61663000  0.85693000  1
  N  N17  1  0.01392000  0.63900000  0.33072000  1
  N  N18  1  0.66034000  0.99859000  0.23151000  1
  N  N19  1  0.16034000  0.76849000  0.00141000  1
