# generated using pymatgen
data_Cs2PbClF6
_symmetry_space_group_name_H-M   'P 1'
_cell_length_a   7.03619315
_cell_length_b   7.03610844
_cell_length_c   7.03619774
_cell_angle_alpha   59.98235996
_cell_angle_beta   59.98207591
_cell_angle_gamma   59.98516041
_symmetry_Int_Tables_number   1
_chemical_formula_structural   Cs2PbClF6
_chemical_formula_sum   'Cs2 Pb1 Cl1 F6'
_cell_volume   246.22255377
_cell_formula_units_Z   1
loop_
 _symmetry_equiv_pos_site_id
 _symmetry_equiv_pos_as_xyz
  1  'x, y, z'
loop_
 _atom_site_type_symbol
 _atom_site_label
 _atom_site_symmetry_multiplicity
 _atom_site_fract_x
 _atom_site_fract_y
 _atom_site_fract_z
 _atom_site_occupancy
  Cs  Cs0  1  0.25000590  0.25000317  0.25000745  1
  Cs  Cs1  1  0.74999653  0.74999312  0.74999333  1
  Pb  Pb2  1  0.49999860  0.50000603  0.50000178  1
  Cl  Cl3  1  -0.00000165  -0.00000289  -0.00000163  1
  F  F4  1  0.28731862  0.71267886  0.71267647  1
  F  F5  1  0.28732907  0.71267474  0.28732861  1
  F  F6  1  0.71266835  0.28732463  0.71267330  1
  F  F7  1  0.71267347  0.71266973  0.28732404  1
  F  F8  1  0.28732811  0.28733005  0.71267411  1
  F  F9  1  0.71268301  0.28732257  0.28732254  1
