# generated using pymatgen
data_MgCuF5
_symmetry_space_group_name_H-M   'P 1'
_cell_length_a   5.25248507
_cell_length_b   5.24561092
_cell_length_c   7.41709977
_cell_angle_alpha   97.39521298
_cell_angle_beta   110.22079048
_cell_angle_gamma   108.45794135
_symmetry_Int_Tables_number   1
_chemical_formula_structural   MgCuF5
_chemical_formula_sum   'Mg2 Cu2 F10'
_cell_volume   175.26803190
_cell_formula_units_Z   2
loop_
 _symmetry_equiv_pos_site_id
 _symmetry_equiv_pos_as_xyz
  1  'x, y, z'
loop_
 _atom_site_type_symbol
 _atom_site_label
 _atom_site_symmetry_multiplicity
 _atom_site_fract_x
 _atom_site_fract_y
 _atom_site_fract_z
 _atom_site_occupancy
  Mg  Mg0  1  0.28913014  0.53956143  0.74951203  1
  Mg  Mg1  1  0.71999811  0.46380176  0.25477261  1
  Cu  Cu2  1  0.00440665  0.00028268  0.00216413  1
  Cu  Cu3  1  0.50039690  -0.00041453  0.49946934  1
  F  F4  1  0.35950984  0.11424329  0.25010930  1
  F  F5  1  0.64016519  0.89279129  0.75234524  1
  F  F6  1  0.60056057  0.73230300  0.37591069  1
  F  F7  1  0.85736498  0.22106357  0.12484958  1
  F  F8  1  0.74852675  0.67889913  0.03854268  1
  F  F9  1  0.14447418  0.70214896  0.46583248  1
  F  F10  1  0.25851077  0.31927697  0.96045390  1
  F  F11  1  0.85929491  0.29793161  0.53644732  1
  F  F12  1  0.14416027  0.77819204  0.87360240  1
  F  F13  1  0.39734774  0.26363782  0.62600630  1
