# generated using pymatgen
data_Ba2Cr2CuF14
_symmetry_space_group_name_H-M   'P 1'
_cell_length_a   5.37971153
_cell_length_b   7.62184277
_cell_length_c   15.08505276
_cell_angle_alpha   90.92560723
_cell_angle_beta   90.04561119
_cell_angle_gamma   110.61417911
_symmetry_Int_Tables_number   1
_chemical_formula_structural   Ba2Cr2CuF14
_chemical_formula_sum   'Ba4 Cr4 Cu2 F28'
_cell_volume   578.84431315
_cell_formula_units_Z   2
loop_
 _symmetry_equiv_pos_site_id
 _symmetry_equiv_pos_as_xyz
  1  'x, y, z'
loop_
 _atom_site_type_symbol
 _atom_site_label
 _atom_site_symmetry_multiplicity
 _atom_site_fract_x
 _atom_site_fract_y
 _atom_site_fract_z
 _atom_site_occupancy
  Ba  Ba0  1  0.11011563  0.35796111  0.62740088  1
  Ba  Ba1  1  0.24909327  0.35703692  0.12753702  1
  Ba  Ba2  1  0.89188757  0.64481734  0.37389764  1
  Ba  Ba3  1  0.75077303  0.64331016  0.87335006  1
  Cr  Cr4  1  0.10013412  0.24645634  0.87442856  1
  Cr  Cr5  1  0.90117328  0.75402997  0.12667874  1
  Cr  Cr6  1  0.14577773  0.24787744  0.37394913  1
  Cr  Cr7  1  0.85375403  0.75518031  0.62627200  1
  Cu  Cu8  1  0.50071084  0.00056682  0.00077436  1
  Cu  Cu9  1  0.50118989  0.00257581  0.49994253  1
  F  F10  1  0.93943920  0.00787043  0.34851824  1
  F  F11  1  0.88954237  0.27967597  0.45180019  1
  F  F12  1  0.11230812  0.72552868  0.54911217  1
  F  F13  1  0.65326313  0.50923941  0.58986668  1
  F  F14  1  0.62455354  0.13017458  0.60541880  1
  F  F15  1  0.49785707  0.87354851  0.89522164  1
  F  F16  1  0.38752664  0.27871007  0.95257531  1
  F  F17  1  0.93180407  0.99343339  0.15158964  1
  F  F18  1  0.35492088  0.34799340  0.78391101  1
  F  F19  1  0.34752902  0.49515532  0.40869693  1
  F  F20  1  0.84402650  0.25312299  0.79714206  1
  F  F21  1  0.14525278  0.49392495  0.90841101  1
  F  F22  1  0.40938726  0.25529563  0.29689370  1
  F  F23  1  0.15677609  0.74737396  0.20413658  1
  F  F24  1  0.50378611  0.12768431  0.10626282  1
  F  F25  1  0.64667533  0.65070985  0.21717339  1
  F  F26  1  0.12672702  0.83168863  0.02397577  1
  F  F27  1  0.05935114  0.99482240  0.65305292  1
  F  F28  1  0.87438267  0.17015047  0.97727398  1
  F  F29  1  0.70892436  0.83495309  0.52310780  1
  F  F30  1  0.61311652  0.72073335  0.04848095  1
  F  F31  1  0.58774394  0.74563923  0.70268107  1
  F  F32  1  0.99387681  0.35016362  0.28346320  1
  F  F33  1  0.29309014  0.17018638  0.47700138  1
  F  F34  1  0.37659241  0.87453902  0.39467456  1
  F  F35  1  0.06712142  0.00618039  0.84951882  1
  F  F36  1  0.00314242  0.65061954  0.71675858  1
  F  F37  1  0.85803666  0.50696924  0.09187789  1
