# generated using pymatgen
data_TlHgF3
_symmetry_space_group_name_H-M   'P 1'
_cell_length_a   6.37916173
_cell_length_b   9.05081878
_cell_length_c   13.14400326
_cell_angle_alpha   90.00000000
_cell_angle_beta   90.00000000
_cell_angle_gamma   90.00000000
_symmetry_Int_Tables_number   1
_chemical_formula_structural   TlHgF3
_chemical_formula_sum   'Tl8 Hg8 F24'
_cell_volume   758.89054214
_cell_formula_units_Z   8
loop_
 _symmetry_equiv_pos_site_id
 _symmetry_equiv_pos_as_xyz
  1  'x, y, z'
loop_
 _atom_site_type_symbol
 _atom_site_label
 _atom_site_symmetry_multiplicity
 _atom_site_fract_x
 _atom_site_fract_y
 _atom_site_fract_z
 _atom_site_occupancy
  Tl  Tl0  1  0.25857855  0.00000000  0.88147717  1
  Tl  Tl1  1  0.75857855  0.00000000  0.61852383  1
  Tl  Tl2  1  0.74142145  0.00000000  0.11852383  1
  Tl  Tl3  1  0.24142145  0.00000000  0.38147617  1
  Tl  Tl4  1  0.25125885  0.50000000  0.87253380  1
  Tl  Tl5  1  0.75125885  0.50000000  0.62746720  1
  Tl  Tl6  1  0.74874115  0.50000000  0.12746620  1
  Tl  Tl7  1  0.24874115  0.50000000  0.37253380  1
  Hg  Hg8  1  0.74421615  0.74997741  0.87451809  1
  Hg  Hg9  1  0.24421515  0.25002459  0.62548191  1
  Hg  Hg10  1  0.25578585  0.74997741  0.12548191  1
  Hg  Hg11  1  0.75578585  0.25002459  0.37451809  1
  Hg  Hg12  1  0.25578585  0.25002459  0.12548191  1
  Hg  Hg13  1  0.75578585  0.74997741  0.37451809  1
  Hg  Hg14  1  0.74421615  0.25002459  0.87451809  1
  Hg  Hg15  1  0.24421515  0.74997741  0.62548191  1
  F  F16  1  0.71033585  0.00000000  0.82999607  1
  F  F17  1  0.21033585  0.00000000  0.67000393  1
  F  F18  1  0.28966515  0.00000000  0.17000393  1
  F  F19  1  0.78966515  0.00000000  0.32999507  1
  F  F20  1  0.69718077  0.50000000  0.91621774  1
  F  F21  1  0.19717977  0.50000000  0.58378326  1
  F  F22  1  0.30281923  0.50000000  0.08378326  1
  F  F23  1  0.80281923  0.50000000  0.41621674  1
  F  F24  1  0.95893609  0.69891634  0.73924804  1
  F  F25  1  0.45893709  0.30108366  0.76075296  1
  F  F26  1  0.04106291  0.69891634  0.26075296  1
  F  F27  1  0.54106391  0.30108366  0.23924804  1
  F  F28  1  0.04106291  0.30108366  0.26075296  1
  F  F29  1  0.54106391  0.69891634  0.23924804  1
  F  F30  1  0.95893609  0.30108366  0.73924804  1
  F  F31  1  0.45893709  0.69891634  0.76075296  1
  F  F32  1  -0.00000000  0.80906007  0.50000000  1
  F  F33  1  0.50000000  0.19093893  -0.00000000  1
  F  F34  1  -0.00000000  0.19093893  0.50000000  1
  F  F35  1  0.50000000  0.80906007  -0.00000000  1
  F  F36  1  -0.00000000  0.79573838  -0.00000000  1
  F  F37  1  0.50000000  0.20426162  0.50000000  1
  F  F38  1  -0.00000000  0.20426162  -0.00000000  1
  F  F39  1  0.50000000  0.79573838  0.50000000  1
