# generated using pymatgen
data_H13(C5N)2
_symmetry_space_group_name_H-M   'P 1'
_cell_length_a   11.46085939
_cell_length_b   13.22152802
_cell_length_c   13.55591619
_cell_angle_alpha   90.00000000
_cell_angle_beta   90.00000000
_cell_angle_gamma   101.97893063
_symmetry_Int_Tables_number   1
_chemical_formula_structural   H13(C5N)2
_chemical_formula_sum   'H104 C80 N16'
_cell_volume   2009.39824426
_cell_formula_units_Z   8
loop_
 _symmetry_equiv_pos_site_id
 _symmetry_equiv_pos_as_xyz
  1  'x, y, z'
loop_
 _atom_site_type_symbol
 _atom_site_label
 _atom_site_symmetry_multiplicity
 _atom_site_fract_x
 _atom_site_fract_y
 _atom_site_fract_z
 _atom_site_occupancy
  H  H0  1  0.51321527  0.18349627  0.96345136  1
  H  H1  1  0.98319486  0.54005396  0.58919698  1
  H  H2  1  0.61775758  0.64758198  0.39657600  1
  H  H3  1  0.87099690  0.08772542  0.84730632  1
  H  H4  1  0.62034975  0.50370931  0.07396807  1
  H  H5  1  0.00796649  0.17209374  0.87877763  1
  H  H6  1  0.12296637  0.63892100  0.16463942  1
  H  H7  1  0.48343884  0.62279396  0.65328392  1
  H  H8  1  0.20243416  0.48617705  0.81236076  1
  H  H9  1  0.36910396  0.79430070  0.47415130  1
  H  H10  1  0.79756584  0.51382295  0.18763924  1
  H  H11  1  0.94066003  0.03251452  0.60440815  1
  H  H12  1  0.29385527  0.89259121  0.05245314  1
  H  H13  1  0.12900310  0.91227458  0.15269368  1
  H  H14  1  0.51804574  0.07281044  0.24158499  1
  H  H15  1  0.18413041  0.10072734  0.74955132  1
  H  H16  1  0.47828424  0.61924617  0.93820488  1
  H  H17  1  0.48343884  0.12279396  0.84671608  1
  H  H18  1  0.48195426  0.92718956  0.75841501  1
  H  H19  1  0.00796649  0.67209374  0.62122237  1
  H  H20  1  0.38224242  0.85241802  0.89657600  1
  H  H21  1  0.38224242  0.35241802  0.60342400  1
  H  H22  1  0.05933997  0.46748548  0.10440815  1
  H  H23  1  0.63076075  0.06501529  0.68374257  1
  H  H24  1  0.03562445  0.30267625  0.74007587  1
  H  H25  1  0.37965025  0.99629069  0.57396807  1
  H  H26  1  0.88189937  0.12780587  0.66773779  1
  H  H27  1  0.15548942  0.08736048  0.62077739  1
  H  H28  1  0.84451058  0.91263952  0.37922261  1
  H  H29  1  0.39098640  0.57630592  0.55051488  1
  H  H30  1  0.48195426  0.42718956  0.74158499  1
  H  H31  1  0.17460353  0.91508300  0.44942415  1
  H  H32  1  0.75182758  0.19430502  0.44484292  1
  H  H33  1  0.94863908  0.84248642  0.91672275  1
  H  H34  1  0.61775758  0.14758198  0.10342400  1
  H  H35  1  0.12900310  0.41227458  0.34730632  1
  H  H36  1  0.63089604  0.70569930  0.97415130  1
  H  H37  1  0.52171576  0.88075383  0.43820488  1
  H  H38  1  0.82539647  0.58491700  0.94942415  1
  H  H39  1  0.24749848  0.68827440  0.48910155  1
  H  H40  1  0.18413041  0.60072734  0.75044868  1
  H  H41  1  0.51656116  0.87720604  0.15328392  1
  H  H42  1  0.60901360  0.42369408  0.44948512  1
  H  H43  1  0.48678473  0.31650373  0.46345136  1
  H  H44  1  0.75182758  0.69430502  0.05515708  1
  H  H45  1  0.96437555  0.19732375  0.24007587  1
  H  H46  1  0.11810063  0.87219413  0.33226221  1
  H  H47  1  0.99203351  0.32790626  0.37877763  1
  H  H48  1  0.63076075  0.56501529  0.81625743  1
  H  H49  1  0.33422501  0.09740388  0.50573216  1
  H  H50  1  0.66577499  0.90259612  0.49426784  1
  H  H51  1  0.36910396  0.29430070  0.02584870  1
  H  H52  1  0.75250152  0.31172560  0.51089845  1
  H  H53  1  0.73139159  0.72362902  0.74523045  1
  H  H54  1  0.24749848  0.18827440  0.01089845  1
  H  H55  1  0.98319486  0.04005396  0.91080302  1
  H  H56  1  0.81586959  0.39927266  0.24955132  1
  H  H57  1  0.37965025  0.49629069  0.92603193  1
  H  H58  1  0.62034975  0.00370931  0.42603193  1
  H  H59  1  0.99203351  0.82790626  0.12122237  1
  H  H60  1  0.96437555  0.69732375  0.25992413  1
  H  H61  1  0.26860841  0.77637098  0.24523045  1
  H  H62  1  0.51804574  0.57281044  0.25841501  1
  H  H63  1  0.63089604  0.20569930  0.52584870  1
  H  H64  1  0.39098640  0.07630592  0.94948512  1
  H  H65  1  0.24817242  0.30569498  0.94484292  1
  H  H66  1  0.33422501  0.59740388  0.99426784  1
  H  H67  1  0.87099690  0.58772542  0.65269368  1
  H  H68  1  0.60901360  0.92369408  0.05051488  1
  H  H69  1  0.73139159  0.22362902  0.75476955  1
  H  H70  1  0.52171576  0.38075383  0.06179512  1
  H  H71  1  0.82539647  0.08491700  0.55057585  1
  H  H72  1  0.87703363  0.36107900  0.83536058  1
  H  H73  1  0.94066003  0.53251452  0.89559185  1
  H  H74  1  0.26860841  0.27637098  0.25476955  1
  H  H75  1  0.47828424  0.11924617  0.56179512  1
  H  H76  1  0.94863908  0.34248642  0.58327725  1
  H  H77  1  0.24817242  0.80569498  0.55515708  1
  H  H78  1  0.75250152  0.81172560  0.98910155  1
  H  H79  1  0.01680514  0.45994604  0.41080302  1
  H  H80  1  0.01680514  0.95994604  0.08919698  1
  H  H81  1  0.70614473  0.60740879  0.55245314  1
  H  H82  1  0.05136092  0.15751358  0.08327725  1
  H  H83  1  0.36923925  0.93498471  0.31625743  1
  H  H84  1  0.48678473  0.81650373  0.03654864  1
  H  H85  1  0.15548942  0.58736048  0.87922261  1
  H  H86  1  0.12296637  0.13892100  0.33536058  1
  H  H87  1  0.05933997  0.96748548  0.39559185  1
  H  H88  1  0.79756584  0.01382295  0.31236076  1
  H  H89  1  0.84451058  0.41263952  0.12077739  1
  H  H90  1  0.20243416  0.98617705  0.68763924  1
  H  H91  1  0.29385527  0.39259121  0.44754686  1
  H  H92  1  0.51321527  0.68349627  0.53654864  1
  H  H93  1  0.51656116  0.37720604  0.34671608  1
  H  H94  1  0.87703363  0.86107900  0.66463942  1
  H  H95  1  0.70614473  0.10740879  0.94754686  1
  H  H96  1  0.36923925  0.43498471  0.18374257  1
  H  H97  1  0.17460353  0.41508300  0.05057585  1
  H  H98  1  0.66577499  0.40259612  0.00573216  1
  H  H99  1  0.03562445  0.80267625  0.75992413  1
  H  H100  1  0.05136092  0.65751358  0.41672275  1
  H  H101  1  0.81586959  0.89927266  0.25044868  1
  H  H102  1  0.88189937  0.62780587  0.83226221  1
  H  H103  1  0.11810063  0.37219413  0.16773779  1
  C  C104  1  0.78656008  0.42943820  0.18081383  1
  C  C105  1  0.76661229  0.47444563  0.83169733  1
  C  C106  1  0.90669332  0.17860689  0.17583281  1
  C  C107  1  0.40692327  0.68738868  0.25781935  1
  C  C108  1  0.30393813  0.75391636  0.52785679  1
  C  C109  1  0.76661229  0.97444563  0.66830267  1
  C  C110  1  0.21596565  0.32024898  0.68493933  1
  C  C111  1  0.70766611  0.79808133  0.73143298  1
  C  C112  1  0.21343992  0.57056180  0.81918617  1
  C  C113  1  0.20920275  0.62337185  0.18643471  1
  C  C114  1  0.06065208  0.89354249  0.09503442  1
  C  C115  1  0.30393813  0.25391636  0.97214321  1
  C  C116  1  0.59647111  0.80318669  0.28677176  1
  C  C117  1  0.79079725  0.37662815  0.81356529  1
  C  C118  1  0.33627537  0.24025343  0.79436039  1
  C  C119  1  0.23338771  0.02555437  0.33169733  1
  C  C120  1  0.04416133  0.84430603  0.91339287  1
  C  C121  1  0.66372463  0.25974657  0.29436039  1
  C  C122  1  0.34617822  0.01010939  0.30386122  1
  C  C123  1  0.04416133  0.34430603  0.58660713  1
  C  C124  1  0.29233389  0.70191867  0.23143298  1
  C  C125  1  0.69606187  0.24608364  0.47214321  1
  C  C126  1  0.28655827  0.34846485  0.60035530  1
  C  C127  1  0.11412708  0.36964344  0.50170781  1
  C  C128  1  0.44182353  0.64633447  0.58685831  1
  C  C129  1  0.95583867  0.15569397  0.08660713  1
  C  C130  1  0.40352889  0.19681331  0.71322824  1
  C  C131  1  0.23338771  0.52555437  0.16830267  1
  C  C132  1  0.44182353  0.14633447  0.91314169  1
  C  C133  1  0.88587292  0.13035656  0.00170781  1
  C  C134  1  0.38510942  0.58030236  0.92968731  1
  C  C135  1  0.09330668  0.32139311  0.67583281  1
  C  C136  1  0.90669332  0.67860689  0.32416719  1
  C  C137  1  0.65382178  0.98989061  0.69613878  1
  C  C138  1  0.43142329  0.58880050  0.23909059  1
  C  C139  1  0.40352889  0.69681331  0.78677176  1
  C  C140  1  0.95583867  0.65569397  0.41339287  1
  C  C141  1  0.66372463  0.75974657  0.20563961  1
  C  C142  1  0.14207983  0.94112038  0.37943167  1
  C  C143  1  0.85792017  0.05887962  0.62056833  1
  C  C144  1  0.23612600  0.87208429  0.98848135  1
  C  C145  1  0.21596565  0.82024898  0.81506067  1
  C  C146  1  0.71344173  0.65153515  0.39964470  1
  C  C147  1  0.11412708  0.86964344  0.99829219  1
  C  C148  1  0.56857671  0.41119950  0.76090941  1
  C  C149  1  0.40692327  0.18738868  0.24218065  1
  C  C150  1  0.59647111  0.30318669  0.21322824  1
  C  C151  1  0.28655827  0.84846485  0.89964470  1
  C  C152  1  0.88587292  0.63035656  0.49829219  1
  C  C153  1  0.59307673  0.81261132  0.75781935  1
  C  C154  1  0.70766611  0.29808133  0.76856702  1
  C  C155  1  0.76387400  0.62791571  0.48848135  1
  C  C156  1  0.61489058  0.41969764  0.07031269  1
  C  C157  1  0.33627537  0.74025343  0.70563961  1
  C  C158  1  0.61489058  0.91969764  0.42968731  1
  C  C159  1  0.79079725  0.87662815  0.68643471  1
  C  C160  1  0.09330668  0.82139311  0.82416719  1
  C  C161  1  0.21343992  0.07056180  0.68081383  1
  C  C162  1  0.38510942  0.08030236  0.57031269  1
  C  C163  1  0.76387400  0.12791571  0.01151865  1
  C  C164  1  0.06065208  0.39354249  0.40496558  1
  C  C165  1  0.56857671  0.91119950  0.73909059  1
  C  C166  1  0.93934792  0.60645751  0.59503442  1
  C  C167  1  0.55817647  0.35366553  0.41314169  1
  C  C168  1  0.29233389  0.20191867  0.26856702  1
  C  C169  1  0.85792017  0.55887962  0.87943167  1
  C  C170  1  0.78403435  0.17975102  0.18493933  1
  C  C171  1  0.23612600  0.37208429  0.51151865  1
  C  C172  1  0.71344173  0.15153515  0.10035530  1
  C  C173  1  0.14207983  0.44112038  0.12056833  1
  C  C174  1  0.93934792  0.10645751  0.90496558  1
  C  C175  1  0.69606187  0.74608364  0.02785679  1
  C  C176  1  0.55817647  0.85366553  0.08685831  1
  C  C177  1  0.43142329  0.08880050  0.26090941  1
  C  C178  1  0.59307673  0.31261132  0.74218065  1
  C  C179  1  0.65382178  0.48989061  0.80386122  1
  C  C180  1  0.78656008  0.92943820  0.31918617  1
  C  C181  1  0.78403435  0.67975102  0.31506067  1
  C  C182  1  0.34617822  0.51010939  0.19613878  1
  C  C183  1  0.20920275  0.12337185  0.31356529  1
  N  N184  1  0.66242569  0.38259974  0.15974882  1
  N  N185  1  0.74354323  0.70450229  0.22247501  1
  N  N186  1  0.74354323  0.20450229  0.27752499  1
  N  N187  1  0.51621596  0.23136694  0.69424334  1
  N  N188  1  0.48378404  0.26863306  0.19424334  1
  N  N189  1  0.33757431  0.61740026  0.84025118  1
  N  N190  1  0.48378404  0.76863306  0.30575666  1
  N  N191  1  0.33757431  0.11740026  0.65974882  1
  N  N192  1  0.36421647  0.21743602  0.88892452  1
  N  N193  1  0.63578353  0.78256398  0.11107548  1
  N  N194  1  0.36421647  0.71743602  0.61107548  1
  N  N195  1  0.51621596  0.73136694  0.80575666  1
  N  N196  1  0.25645677  0.79549771  0.72247501  1
  N  N197  1  0.66242569  0.88259974  0.34025118  1
  N  N198  1  0.25645677  0.29549771  0.77752499  1
  N  N199  1  0.63578353  0.28256398  0.38892452  1
