# generated using pymatgen
data_Ba(Sb3Ru)4
_symmetry_space_group_name_H-M   'P 1'
_cell_length_a   8.17370835
_cell_length_b   8.17370835
_cell_length_c   8.17370835
_cell_angle_alpha   109.47122063
_cell_angle_beta   109.47122062
_cell_angle_gamma   109.47122065
_symmetry_Int_Tables_number   1
_chemical_formula_structural   Ba(Sb3Ru)4
_chemical_formula_sum   'Ba1 Sb12 Ru4'
_cell_volume   420.37368479
_cell_formula_units_Z   1
loop_
 _symmetry_equiv_pos_site_id
 _symmetry_equiv_pos_as_xyz
  1  'x, y, z'
loop_
 _atom_site_type_symbol
 _atom_site_label
 _atom_site_symmetry_multiplicity
 _atom_site_fract_x
 _atom_site_fract_y
 _atom_site_fract_z
 _atom_site_occupancy
  Ru  Ru0  1  0.50000000  0.50000000  0.50000000  1
  Ru  Ru1  1  0.50000000  0.00000000  0.00000000  1
  Ru  Ru2  1  0.00000000  0.50000000  0.00000000  1
  Ru  Ru3  1  0.00000000  0.00000000  0.50000000  1
  Sb  Sb4  1  0.65608480  0.16042378  0.81650858  1
  Sb  Sb5  1  0.34391520  0.16042378  0.50433898  1
  Sb  Sb6  1  0.83957622  0.49566102  0.65608480  1
  Sb  Sb7  1  0.18349142  0.34391520  0.83957622  1
  Sb  Sb8  1  0.16042378  0.81650858  0.65608480  1
  Sb  Sb9  1  0.49566102  0.65608480  0.83957622  1
  Sb  Sb10  1  0.83957622  0.18349142  0.34391520  1
  Sb  Sb11  1  0.81650858  0.65608480  0.16042378  1
  Sb  Sb12  1  0.50433898  0.34391520  0.16042378  1
  Sb  Sb13  1  0.16042378  0.50433898  0.34391520  1
  Sb  Sb14  1  0.65608480  0.83957622  0.49566102  1
  Sb  Sb15  1  0.34391520  0.83957622  0.18349142  1
  Ba  Ba16  1  0.00000000  0.00000000  0.00000000  1
