# generated using pymatgen
data_Ca2WN2
_symmetry_space_group_name_H-M   'P 1'
_cell_length_a   5.17300435
_cell_length_b   6.09622659
_cell_length_c   6.90004439
_cell_angle_alpha   60.76609122
_cell_angle_beta   68.00569352
_cell_angle_gamma   64.89472717
_symmetry_Int_Tables_number   1
_chemical_formula_structural   Ca2WN2
_chemical_formula_sum   'Ca4 W2 N4'
_cell_volume   168.04713246
_cell_formula_units_Z   2
loop_
 _symmetry_equiv_pos_site_id
 _symmetry_equiv_pos_as_xyz
  1  'x, y, z'
loop_
 _atom_site_type_symbol
 _atom_site_label
 _atom_site_symmetry_multiplicity
 _atom_site_fract_x
 _atom_site_fract_y
 _atom_site_fract_z
 _atom_site_occupancy
  Ca  Ca0  1  0.67807752  0.27415692  0.36859580  1
  Ca  Ca1  1  0.32409133  0.72774074  0.62715904  1
  Ca  Ca2  1  0.02578207  0.71802457  0.23026862  1
  Ca  Ca3  1  0.97566797  0.28292150  0.76735775  1
  W  W4  1  0.35664857  0.15750620  0.12846498  1
  W  W5  1  0.64399521  0.84411276  0.86728777  1
  N  N6  1  0.18211300  0.24868203  0.38357960  1
  N  N7  1  0.81636063  0.75312360  0.61330105  1
  N  N8  1  0.49985255  0.22397413  0.77965453  1
  N  N9  1  0.50249815  0.77837856  0.21621687  1
