# generated using pymatgen
data_Li9Mn2Co5O16
_symmetry_space_group_name_H-M   'P 1'
_cell_length_a   2.95130680
_cell_length_b   10.22918447
_cell_length_c   10.05379018
_cell_angle_alpha   71.80811758
_cell_angle_beta   88.92543508
_cell_angle_gamma   90.75676867
_symmetry_Int_Tables_number   1
_chemical_formula_structural   Li9Mn2Co5O16
_chemical_formula_sum   'Li9 Mn2 Co5 O16'
_cell_volume   288.23875902
_cell_formula_units_Z   1
loop_
 _symmetry_equiv_pos_site_id
 _symmetry_equiv_pos_as_xyz
  1  'x, y, z'
loop_
 _atom_site_type_symbol
 _atom_site_label
 _atom_site_symmetry_multiplicity
 _atom_site_fract_x
 _atom_site_fract_y
 _atom_site_fract_z
 _atom_site_occupancy
  Li  Li0  1  0.98655200  0.26061955  0.73560648  1
  Li  Li1  1  0.48782293  0.74696854  0.49447258  1
  Li  Li2  1  0.00731595  0.25171945  0.25272273  1
  Li  Li3  1  0.49523609  0.25687030  0.50463814  1
  Li  Li4  1  0.01098077  0.74072659  0.25327810  1
  Li  Li5  1  0.51362454  0.24722786  0.00840304  1
  Li  Li6  1  0.49899458  0.74887705  -0.00307555  1
  Li  Li7  1  -0.00040526  0.75120290  0.74988743  1
  Li  Li8  1  0.01203233  0.49033780  0.50485376  1
  Mn  Mn9  1  0.00121422  0.00126922  -0.00027991  1
  Mn  Mn10  1  0.48556010  0.50089221  0.74514142  1
  Co  Co11  1  0.00236569  0.99939443  0.49921076  1
  Co  Co12  1  0.51545820  0.49970970  0.25807214  1
  Co  Co13  1  0.50066787  0.99767393  0.26274504  1
  Co  Co14  1  0.98917579  0.50381385  0.00043895  1
  Co  Co15  1  0.49555254  0.00039217  0.73681106  1
  O  O16  1  0.50979152  0.10841911  0.88913510  1
  O  O17  1  -0.00511745  0.60979025  0.64090896  1
  O  O18  1  0.50735684  0.11721588  0.36987920  1
  O  O19  1  0.00528067  0.12279236  0.63183729  1
  O  O20  1  0.50805449  0.61302889  0.35672481  1
  O  O21  1  0.00426929  0.11287347  0.12261108  1
  O  O22  1  0.97252839  0.61192750  0.12473240  1
  O  O23  1  0.45165864  0.61376508  0.87758465  1
  O  O24  1  0.49633403  0.38371723  0.63999462  1
  O  O25  1  -0.00520006  0.87284413  0.36777437  1
  O  O26  1  0.53517009  0.39251724  0.12495993  1
  O  O27  1  0.05441408  0.38449469  0.36254049  1
  O  O28  1  0.49300937  0.89328935  0.11124925  1
  O  O29  1  0.97661149  0.39592988  0.87010729  1
  O  O30  1  -0.00617001  0.89007443  0.87709709  1
  O  O31  1  0.49986028  0.87962498  0.62993732  1
