# generated using pymatgen
data_Li9Mn2Co5O16
_symmetry_space_group_name_H-M   'P 1'
_cell_length_a   4.99354592
_cell_length_b   6.49653076
_cell_length_c   9.06866903
_cell_angle_alpha   82.08091543
_cell_angle_beta   82.21758959
_cell_angle_gamma   96.74360041
_symmetry_Int_Tables_number   1
_chemical_formula_structural   Li9Mn2Co5O16
_chemical_formula_sum   'Li9 Mn2 Co5 O16'
_cell_volume   285.91551571
_cell_formula_units_Z   1
loop_
 _symmetry_equiv_pos_site_id
 _symmetry_equiv_pos_as_xyz
  1  'x, y, z'
loop_
 _atom_site_type_symbol
 _atom_site_label
 _atom_site_symmetry_multiplicity
 _atom_site_fract_x
 _atom_site_fract_y
 _atom_site_fract_z
 _atom_site_occupancy
  Li  Li0  1  0.25490947  0.68140808  0.19755167  1
  Li  Li1  1  0.23653123  0.19347396  0.66747072  1
  Li  Li2  1  0.76212257  0.80059467  0.32269396  1
  Li  Li3  1  0.75466530  0.32188978  0.80509463  1
  Li  Li4  1  0.23470556  0.92720595  0.44653685  1
  Li  Li5  1  0.24872674  0.44697104  0.92738450  1
  Li  Li6  1  0.75907749  0.56123330  0.06270152  1
  Li  Li7  1  0.74811395  0.06760068  0.56419143  1
  Li  Li8  1  0.99648458  0.49919912  0.50013789  1
  Mn  Mn9  1  0.00075939  0.00237182  0.00093027  1
  Mn  Mn10  1  0.50250542  0.12820049  0.13016513  1
  Co  Co11  1  0.50858324  0.62039404  0.61537365  1
  Co  Co12  1  0.00410490  0.25109352  0.26070417  1
  Co  Co13  1  0.99192658  0.74913447  0.74274600  1
  Co  Co14  1  0.49493784  0.37455971  0.37772179  1
  Co  Co15  1  0.49855018  0.87075482  0.86726660  1
  O  O16  1  0.14152042  0.73991497  0.97421305  1
  O  O17  1  0.15709688  0.22964454  0.45656526  1
  O  O18  1  0.63315132  0.86647033  0.09201830  1
  O  O19  1  0.60495475  0.34654774  0.57145085  1
  O  O20  1  0.14339012  0.99371406  0.22444375  1
  O  O21  1  0.13346091  0.49650762  0.71756648  1
  O  O22  1  0.63481787  0.60129054  0.83178008  1
  O  O23  1  0.62946797  0.11568796  0.32700054  1
  O  O24  1  0.39469837  0.63010419  0.40474822  1
  O  O25  1  0.37099687  0.15078846  0.93472518  1
  O  O26  1  0.85220476  0.77952814  0.53507067  1
  O  O27  1  0.85971056  0.26202664  0.03442531  1
  O  O28  1  0.35266902  0.89170970  0.66913871  1
  O  O29  1  0.37739821  0.38856684  0.17531804  1
  O  O30  1  0.86128559  0.49731497  0.28165871  1
  O  O31  1  0.85647195  0.01409883  0.78120405  1
