# generated using pymatgen
data_TlCdF3
_symmetry_space_group_name_H-M   'P 1'
_cell_length_a   6.30839297
_cell_length_b   8.87790383
_cell_length_c   12.76673285
_cell_angle_alpha   90.00000000
_cell_angle_beta   90.00000000
_cell_angle_gamma   90.00000000
_symmetry_Int_Tables_number   1
_chemical_formula_structural   TlCdF3
_chemical_formula_sum   'Tl8 Cd8 F24'
_cell_volume   715.00478128
_cell_formula_units_Z   8
loop_
 _symmetry_equiv_pos_site_id
 _symmetry_equiv_pos_as_xyz
  1  'x, y, z'
loop_
 _atom_site_type_symbol
 _atom_site_label
 _atom_site_symmetry_multiplicity
 _atom_site_fract_x
 _atom_site_fract_y
 _atom_site_fract_z
 _atom_site_occupancy
  Tl  Tl0  1  0.25426315  0.00000000  0.87887972  1
  Tl  Tl1  1  0.75426315  0.00000000  0.62112028  1
  Tl  Tl2  1  0.74573885  0.00000000  0.12112028  1
  Tl  Tl3  1  0.24573785  0.00000000  0.37887972  1
  Tl  Tl4  1  0.25173339  0.50000000  0.87203924  1
  Tl  Tl5  1  0.75173439  0.50000000  0.62796076  1
  Tl  Tl6  1  0.74826661  0.50000000  0.12796076  1
  Tl  Tl7  1  0.24826761  0.50000000  0.37203924  1
  Cd  Cd8  1  0.74527829  0.74967153  0.87497617  1
  Cd  Cd9  1  0.24527729  0.25032747  0.62502383  1
  Cd  Cd10  1  0.25472371  0.74967153  0.12502383  1
  Cd  Cd11  1  0.75472271  0.25032747  0.37497617  1
  Cd  Cd12  1  0.25472371  0.25032747  0.12502383  1
  Cd  Cd13  1  0.75472271  0.74967153  0.37497617  1
  Cd  Cd14  1  0.74527829  0.25032747  0.87497617  1
  Cd  Cd15  1  0.24527729  0.74967153  0.62502383  1
  F  F16  1  0.73894036  0.00000000  0.84088653  1
  F  F17  1  0.23893936  0.00000000  0.65911347  1
  F  F18  1  0.26106064  0.00000000  0.15911247  1
  F  F19  1  0.76105964  0.00000000  0.34088753  1
  F  F20  1  0.71792972  0.50000000  0.90767680  1
  F  F21  1  0.21793072  0.50000000  0.59232220  1
  F  F22  1  0.28207028  0.50000000  0.09232220  1
  F  F23  1  0.78206928  0.50000000  0.40767780  1
  F  F24  1  0.97909444  0.71201696  0.74452829  1
  F  F25  1  0.47909644  0.28798204  0.75547171  1
  F  F26  1  0.02090456  0.71201696  0.25547171  1
  F  F27  1  0.52090356  0.28798204  0.24452829  1
  F  F28  1  0.02090456  0.28798204  0.25547171  1
  F  F29  1  0.52090356  0.71201696  0.24452829  1
  F  F30  1  0.97909444  0.28798204  0.74452829  1
  F  F31  1  0.47909644  0.71201696  0.75547171  1
  F  F32  1  -0.00000000  0.79545093  0.50000000  1
  F  F33  1  0.50000100  0.20454907  0.00000000  1
  F  F34  1  -0.00000000  0.20454907  0.50000000  1
  F  F35  1  0.50000100  0.79545093  0.00000000  1
  F  F36  1  -0.00000000  0.78103560  0.00000000  1
  F  F37  1  0.50000100  0.21896540  0.50000000  1
  F  F38  1  -0.00000000  0.21896540  0.00000000  1
  F  F39  1  0.50000100  0.78103560  0.50000000  1
