# generated using pymatgen
data_MgMnF6
_symmetry_space_group_name_H-M   'P 1'
_cell_length_a   5.36269924
_cell_length_b   5.36269870
_cell_length_c   5.36269839
_cell_angle_alpha   58.25306601
_cell_angle_beta   58.25306463
_cell_angle_gamma   58.25306934
_symmetry_Int_Tables_number   1
_chemical_formula_structural   MgMnF6
_chemical_formula_sum   'Mg1 Mn1 F6'
_cell_volume   104.68839462
_cell_formula_units_Z   1
loop_
 _symmetry_equiv_pos_site_id
 _symmetry_equiv_pos_as_xyz
  1  'x, y, z'
loop_
 _atom_site_type_symbol
 _atom_site_label
 _atom_site_symmetry_multiplicity
 _atom_site_fract_x
 _atom_site_fract_y
 _atom_site_fract_z
 _atom_site_occupancy
  Mg  Mg0  1  0.50000000  0.50000000  0.50000000  1
  Mn  Mn1  1  0.00000000  0.00000000  0.00000000  1
  F  F2  1  0.32487850  0.15199640  0.76287996  1
  F  F3  1  0.15199640  0.76287996  0.32487850  1
  F  F4  1  0.23712004  0.67512150  0.84800360  1
  F  F5  1  0.84800360  0.23712004  0.67512150  1
  F  F6  1  0.67512150  0.84800360  0.23712004  1
  F  F7  1  0.76287996  0.32487850  0.15199640  1
