# generated using pymatgen
data_V5Te4
_symmetry_space_group_name_H-M   'P 1'
_cell_length_a   3.97651886
_cell_length_b   7.13819490
_cell_length_c   7.13819491
_cell_angle_alpha   85.55032205
_cell_angle_beta   73.82702510
_cell_angle_gamma   73.82702510
_symmetry_Int_Tables_number   1
_chemical_formula_structural   V5Te4
_chemical_formula_sum   'V5 Te4'
_cell_volume   186.89897461
_cell_formula_units_Z   1
loop_
 _symmetry_equiv_pos_site_id
 _symmetry_equiv_pos_as_xyz
  1  'x, y, z'
loop_
 _atom_site_type_symbol
 _atom_site_label
 _atom_site_symmetry_multiplicity
 _atom_site_fract_x
 _atom_site_fract_y
 _atom_site_fract_z
 _atom_site_occupancy
  V  V0  1  0.00000000  0.00000000  0.00000000  1
  V  V1  1  0.33970908  0.07077884  0.24980301  1
  V  V2  1  0.58951208  0.75019699  0.07077884  1
  V  V3  1  0.41048792  0.24980301  0.92922116  1
  V  V4  1  0.66029092  0.92922116  0.75019699  1
  Te  Te5  1  0.07390364  0.20210861  0.65008412  1
  Te  Te6  1  0.72398775  0.34991588  0.20210861  1
  Te  Te7  1  0.27601225  0.65008412  0.79789139  1
  Te  Te8  1  0.92609636  0.79789139  0.34991588  1
