# generated using pymatgen
data_LaMoN3
_symmetry_space_group_name_H-M   'P 1'
_cell_length_a   6.38211780
_cell_length_b   7.44619523
_cell_length_c   7.44619551
_cell_angle_alpha   94.24144215
_cell_angle_beta   103.52400307
_cell_angle_gamma   76.47599071
_symmetry_Int_Tables_number   1
_chemical_formula_structural   LaMoN3
_chemical_formula_sum   'La4 Mo4 N12'
_cell_volume   334.44058532
_cell_formula_units_Z   4
loop_
 _symmetry_equiv_pos_site_id
 _symmetry_equiv_pos_as_xyz
  1  'x, y, z'
loop_
 _atom_site_type_symbol
 _atom_site_label
 _atom_site_symmetry_multiplicity
 _atom_site_fract_x
 _atom_site_fract_y
 _atom_site_fract_z
 _atom_site_occupancy
  La  La0  1  0.75000000  0.31343145  0.31343145  1
  La  La1  1  0.75000000  0.90752399  0.90752399  1
  La  La2  1  0.25000000  0.09247601  0.09247601  1
  La  La3  1  0.25000000  0.68656855  0.68656855  1
  Mo  Mo4  1  0.25032605  0.20138980  0.61995306  1
  Mo  Mo5  1  0.74967395  0.79861020  0.38004694  1
  Mo  Mo6  1  0.75032605  0.38004694  0.79861020  1
  Mo  Mo7  1  0.24967395  0.61995306  0.20138980  1
  N  N8  1  0.14503235  0.12573247  0.38972149  1
  N  N9  1  0.15375479  0.77460856  0.00145465  1
  N  N10  1  0.99031168  0.36812801  0.66905908  1
  N  N11  1  0.35496765  0.38972149  0.12573247  1
  N  N12  1  0.64503235  0.61027851  0.87426753  1
  N  N13  1  0.65375479  0.99854535  0.22539144  1
  N  N14  1  0.00968832  0.63187199  0.33094092  1
  N  N15  1  0.34624521  0.00145465  0.77460856  1
  N  N16  1  0.85496765  0.87426753  0.61027851  1
  N  N17  1  0.50968832  0.66905908  0.36812801  1
  N  N18  1  0.84624521  0.22539144  0.99854535  1
  N  N19  1  0.49031168  0.33094092  0.63187199  1
