# generated using pymatgen
data_RbSnBr3
_symmetry_space_group_name_H-M   'P 1'
_cell_length_a   4.55318705
_cell_length_b   9.81790158
_cell_length_c   16.57000640
_cell_angle_alpha   90.00000000
_cell_angle_beta   90.00000000
_cell_angle_gamma   90.00000000
_symmetry_Int_Tables_number   1
_chemical_formula_structural   RbSnBr3
_chemical_formula_sum   'Rb4 Sn4 Br12'
_cell_volume   740.72472654
_cell_formula_units_Z   4
loop_
 _symmetry_equiv_pos_site_id
 _symmetry_equiv_pos_as_xyz
  1  'x, y, z'
loop_
 _atom_site_type_symbol
 _atom_site_label
 _atom_site_symmetry_multiplicity
 _atom_site_fract_x
 _atom_site_fract_y
 _atom_site_fract_z
 _atom_site_occupancy
  Rb  Rb0  1  0.75000000  0.08104410  0.67231710  1
  Rb  Rb1  1  0.25000000  0.91895490  0.32768290  1
  Rb  Rb2  1  0.75000000  0.58104410  0.82768290  1
  Rb  Rb3  1  0.25000000  0.41895590  0.17231710  1
  Sn  Sn4  1  0.25000000  0.16369568  0.93794531  1
  Sn  Sn5  1  0.75000000  0.83630432  0.06205469  1
  Sn  Sn6  1  0.25000000  0.66369568  0.56205469  1
  Sn  Sn7  1  0.75000000  0.33630432  0.43794531  1
  Br  Br8  1  0.75000000  0.33794978  0.00172229  1
  Br  Br9  1  0.25000000  0.66205022  0.99827771  1
  Br  Br10  1  0.75000000  0.83794978  0.49827771  1
  Br  Br11  1  0.25000000  0.16204922  0.50172229  1
  Br  Br12  1  0.25000000  0.02326459  0.11654402  1
  Br  Br13  1  0.75000000  0.97673441  0.88345698  1
  Br  Br14  1  0.25000000  0.52326559  0.38345698  1
  Br  Br15  1  0.75000000  0.47673541  0.61654302  1
  Br  Br16  1  0.25000000  0.29723749  0.78826837  1
  Br  Br17  1  0.75000000  0.70276251  0.21173163  1
  Br  Br18  1  0.25000000  0.79723749  0.71173063  1
  Br  Br19  1  0.75000000  0.20276251  0.28826937  1
