# generated using pymatgen
data_RbOsO3
_symmetry_space_group_name_H-M   'P 1'
_cell_length_a   5.52987648
_cell_length_b   5.52987623
_cell_length_c   7.02025593
_cell_angle_alpha   66.80563669
_cell_angle_beta   66.80563598
_cell_angle_gamma   60.00000032
_symmetry_Int_Tables_number   1
_chemical_formula_structural   RbOsO3
_chemical_formula_sum   'Rb2 Os2 O6'
_cell_volume   165.57655356
_cell_formula_units_Z   2
loop_
 _symmetry_equiv_pos_site_id
 _symmetry_equiv_pos_as_xyz
  1  'x, y, z'
loop_
 _atom_site_type_symbol
 _atom_site_label
 _atom_site_symmetry_multiplicity
 _atom_site_fract_x
 _atom_site_fract_y
 _atom_site_fract_z
 _atom_site_occupancy
  Rb  Rb0  1  0.86429675  0.86429575  0.40710976  1
  Rb  Rb1  1  0.13570425  0.13570225  0.59289024  1
  Os  Os2  1  0.66582666  0.66582466  0.00252201  1
  Os  Os3  1  0.33417434  0.33417334  0.99747999  1
  O  O4  1  0.46822910  0.64811545  0.82851226  1
  O  O5  1  0.05514419  0.46822810  0.82851226  1
  O  O6  1  0.64811645  0.05514519  0.82851026  1
  O  O7  1  0.53177190  0.35188455  0.17148774  1
  O  O8  1  0.35188555  0.94485481  0.17148874  1
  O  O9  1  0.94485481  0.53177090  0.17148874  1
