# generated using pymatgen
data_Li9Mn2Co5O16
_symmetry_space_group_name_H-M   'P 1'
_cell_length_a   5.08425240
_cell_length_b   5.79119732
_cell_length_c   9.81183368
_cell_angle_alpha   97.99739372
_cell_angle_beta   83.68948548
_cell_angle_gamma   90.53936187
_symmetry_Int_Tables_number   1
_chemical_formula_structural   Li9Mn2Co5O16
_chemical_formula_sum   'Li9 Mn2 Co5 O16'
_cell_volume   284.35048006
_cell_formula_units_Z   1
loop_
 _symmetry_equiv_pos_site_id
 _symmetry_equiv_pos_as_xyz
  1  'x, y, z'
loop_
 _atom_site_type_symbol
 _atom_site_label
 _atom_site_symmetry_multiplicity
 _atom_site_fract_x
 _atom_site_fract_y
 _atom_site_fract_z
 _atom_site_occupancy
  Li  Li0  1  0.13899619  0.81836149  0.26651632  1
  Li  Li1  1  0.38114013  0.93885997  0.73291411  1
  Li  Li2  1  0.60136134  0.06639557  0.26747805  1
  Li  Li3  1  0.62761261  0.56723487  0.26207275  1
  Li  Li4  1  0.86975582  0.68330296  0.73724092  1
  Li  Li5  1  0.13466688  0.31322945  0.26994105  1
  Li  Li6  1  0.36756724  0.42929958  0.73325802  1
  Li  Li7  1  0.88912283  0.18600787  0.73280694  1
  Li  Li8  1  0.24906929  0.12554778  0.50044220  1
  Mn  Mn9  1  -0.00045798  0.00479703  0.00151816  1
  Mn  Mn10  1  0.49931932  0.74811127  0.00015583  1
  Co  Co11  1  0.49983859  0.24889658  0.99815921  1
  Co  Co12  1  0.74093647  0.36911725  0.50305483  1
  Co  Co13  1  0.99882539  0.50255071  0.99959028  1
  Co  Co14  1  0.24989106  0.62517020  0.50072627  1
  Co  Co15  1  0.75950218  0.88205272  0.49619171  1
  O  O16  1  0.80492425  0.76988263  0.10570877  1
  O  O17  1  0.06581435  0.88404613  0.61377227  1
  O  O18  1  0.33691628  0.01494495  0.11978145  1
  O  O19  1  0.30465424  0.52965049  0.10793259  1
  O  O20  1  0.54773536  0.66143412  0.61007055  1
  O  O21  1  0.80541463  0.28004954  0.10219017  1
  O  O22  1  0.06810560  0.42176317  0.61343262  1
  O  O23  1  0.58574121  0.16601264  0.62198373  1
  O  O24  1  0.43073902  0.82717785  0.38875898  1
  O  O25  1  0.66260117  0.95982295  0.88224602  1
  O  O26  1  0.91474769  0.08146643  0.37531337  1
  O  O27  1  0.95255614  0.58743915  0.38858572  1
  O  O28  1  0.19209020  0.72536254  0.89596195  1
  O  O29  1  0.43558580  0.36751005  0.38741078  1
  O  O30  1  0.69448704  0.48332839  0.89026246  1
  O  O31  1  0.19073965  0.23117366  0.89452190  1
