# generated using pymatgen
data_Ba2Fe2CuF14
_symmetry_space_group_name_H-M   'P 1'
_cell_length_a   5.46373330
_cell_length_b   7.62106995
_cell_length_c   15.21369013
_cell_angle_alpha   91.06412343
_cell_angle_beta   89.85648925
_cell_angle_gamma   111.10604145
_symmetry_Int_Tables_number   1
_chemical_formula_structural   Ba2Fe2CuF14
_chemical_formula_sum   'Ba4 Fe4 Cu2 F28'
_cell_volume   590.88514979
_cell_formula_units_Z   2
loop_
 _symmetry_equiv_pos_site_id
 _symmetry_equiv_pos_as_xyz
  1  'x, y, z'
loop_
 _atom_site_type_symbol
 _atom_site_label
 _atom_site_symmetry_multiplicity
 _atom_site_fract_x
 _atom_site_fract_y
 _atom_site_fract_z
 _atom_site_occupancy
  Ba  Ba0  1  0.12453716  0.36439360  0.63235305  1
  Ba  Ba1  1  0.23974658  0.36226599  0.12797907  1
  Ba  Ba2  1  0.88310244  0.64031220  0.37120970  1
  Ba  Ba3  1  0.76102693  0.63762194  0.87037376  1
  Fe  Fe4  1  0.10764806  0.24714625  0.87039764  1
  Fe  Fe5  1  0.89352095  0.75189387  0.13012817  1
  Fe  Fe6  1  0.14472342  0.24889545  0.37160123  1
  Fe  Fe7  1  0.85568705  0.75577696  0.62930280  1
  Cu  Cu8  1  0.50043003  0.00119382  0.00041796  1
  Cu  Cu9  1  0.49941830  0.00148136  0.50056705  1
  F  F10  1  0.94397918  0.00445858  0.34814966  1
  F  F11  1  0.89691131  0.27031594  0.45349978  1
  F  F12  1  0.10907560  0.73210257  0.54498410  1
  F  F13  1  0.64435843  0.51036963  0.58498350  1
  F  F14  1  0.61153209  0.12060499  0.60216090  1
  F  F15  1  0.49824243  0.88237612  0.89922682  1
  F  F16  1  0.38343803  0.27680011  0.95502070  1
  F  F17  1  0.93839893  -0.00128894  0.15256949  1
  F  F18  1  0.36975122  0.36192203  0.78238041  1
  F  F19  1  0.35115088  0.48974851  0.41253503  1
  F  F20  1  0.84362288  0.25193376  0.79432255  1
  F  F21  1  0.13964939  0.49428086  0.91218008  1
  F  F22  1  0.40656338  0.25180305  0.29662805  1
  F  F23  1  0.15556181  0.75043257  0.20513294  1
  F  F24  1  0.50348759  0.11888846  0.10215648  1
  F  F25  1  0.63146693  0.63731836  0.21881445  1
  F  F26  1  0.15964984  0.84766545  0.01947946  1
  F  F27  1  0.05825757  0.00559206  0.65290314  1
  F  F28  1  0.84209784  0.15385477  0.98162814  1
  F  F29  1  0.68961901  0.85053249  0.51947733  1
  F  F30  1  0.62091458  0.72451757  0.04739243  1
  F  F31  1  0.58313749  0.74498894  0.70577954  1
  F  F32  1  0.99654858  0.36274360  0.28324904  1
  F  F33  1  0.31276037  0.15418469  0.48124547  1
  F  F34  1  0.39047781  0.88434084  0.39815072  1
  F  F35  1  0.05953021  0.99662655  0.84894713  1
  F  F36  1  0.99891779  0.63864286  0.71665589  1
  F  F37  1  0.86242092  0.50916115  0.08884435  1
