# generated using pymatgen
data_Fe5B2P
_symmetry_space_group_name_H-M   'P 1'
_cell_length_a   5.44960014
_cell_length_b   5.44960014
_cell_length_c   6.43621424
_cell_angle_alpha   115.04655458
_cell_angle_beta   115.04655458
_cell_angle_gamma   90.00000000
_symmetry_Int_Tables_number   1
_chemical_formula_structural   Fe5B2P
_chemical_formula_sum   'Fe10 B4 P2'
_cell_volume   153.09897294
_cell_formula_units_Z   2
loop_
 _symmetry_equiv_pos_site_id
 _symmetry_equiv_pos_as_xyz
  1  'x, y, z'
loop_
 _atom_site_type_symbol
 _atom_site_label
 _atom_site_symmetry_multiplicity
 _atom_site_fract_x
 _atom_site_fract_y
 _atom_site_fract_z
 _atom_site_occupancy
  Fe  Fe0  1  0.03171623  0.53171623  0.72272690  1
  Fe  Fe1  1  0.69101067  0.19101067  0.72272690  1
  Fe  Fe2  1  0.19101067  0.03171623  0.72272690  1
  Fe  Fe3  1  0.53171623  0.69101067  0.72272690  1
  Fe  Fe4  1  0.96828377  0.46828377  0.27727310  1
  Fe  Fe5  1  0.30898933  0.80898933  0.27727310  1
  Fe  Fe6  1  0.80898933  0.96828377  0.27727310  1
  Fe  Fe7  1  0.46828377  0.30898933  0.27727310  1
  Fe  Fe8  1  0.50000000  0.50000000  0.00000000  1
  Fe  Fe9  1  0.00000000  0.00000000  0.00000000  1
  B  B10  1  0.38083455  0.88083455  0.00000000  1
  B  B11  1  0.61916545  0.11916545  1.00000000  1
  B  B12  1  0.11916545  0.38083455  0.00000000  1
  B  B13  1  0.88083455  0.61916545  0.00000000  1
  P  P14  1  0.25000000  0.25000000  0.50000000  1
  P  P15  1  0.75000000  0.75000000  0.50000000  1
