# generated using pymatgen
data_Li9Mn2Co5O16
_symmetry_space_group_name_H-M   'P 1'
_cell_length_a   5.16684536
_cell_length_b   10.03461035
_cell_length_c   5.91198965
_cell_angle_alpha   87.51833551
_cell_angle_beta   70.58716609
_cell_angle_gamma   79.29406421
_symmetry_Int_Tables_number   1
_chemical_formula_structural   Li9Mn2Co5O16
_chemical_formula_sum   'Li9 Mn2 Co5 O16'
_cell_volume   284.00597303
_cell_formula_units_Z   1
loop_
 _symmetry_equiv_pos_site_id
 _symmetry_equiv_pos_as_xyz
  1  'x, y, z'
loop_
 _atom_site_type_symbol
 _atom_site_label
 _atom_site_symmetry_multiplicity
 _atom_site_fract_x
 _atom_site_fract_y
 _atom_site_fract_z
 _atom_site_occupancy
  Li  Li0  1  0.00656679  0.99962524  0.50504230  1
  Li  Li1  1  0.00088362  0.25314492  0.25266469  1
  Li  Li2  1  0.50051059  0.87077669  0.61960396  1
  Li  Li3  1  0.49284400  0.12836977  0.37723778  1
  Li  Li4  1  0.00611002  0.74298517  0.73305044  1
  Li  Li5  1  0.51399339  0.62499572  0.87574837  1
  Li  Li6  1  0.98713847  0.50453256  0.00625248  1
  Li  Li7  1  0.49626054  0.37639938  0.12736129  1
  Li  Li8  1  0.49992048  0.62553890  0.37587168  1
  Mn  Mn9  1  0.00033503  0.00020027  0.99832202  1
  Mn  Mn10  1  0.49928930  0.87094632  0.12891148  1
  Co  Co11  1  0.00155650  0.25390845  0.74723626  1
  Co  Co12  1  0.00053477  0.49964590  0.50230566  1
  Co  Co13  1  0.99355864  0.74290279  0.25346776  1
  Co  Co14  1  0.50024453  0.12531663  0.87380568  1
  Co  Co15  1  0.49983329  0.37693748  0.62470708  1
  O  O16  1  0.75035947  0.92579229  0.28399693  1
  O  O17  1  0.77149967  0.18481739  0.05342409  1
  O  O18  1  0.26165617  0.81734091  0.41770911  1
  O  O19  1  0.27912398  0.05827407  0.17162080  1
  O  O20  1  0.78490000  0.67878855  0.54449038  1
  O  O21  1  0.24144163  0.54421270  0.66394167  1
  O  O22  1  0.76807321  0.44060388  0.79843688  1
  O  O23  1  0.27091746  0.30447408  0.91193740  1
  O  O24  1  0.23203877  0.06362403  0.70253388  1
  O  O25  1  0.22657644  0.31965201  0.44612376  1
  O  O26  1  0.72028014  0.94520298  0.82478641  1
  O  O27  1  0.73199136  0.19559062  0.58546742  1
  O  O28  1  0.25350252  0.81827790  0.96739163  1
  O  O29  1  0.74326713  0.70173477  0.06141514  1
  O  O30  1  0.20955561  0.56451275  0.21287510  1
  O  O31  1  0.75523649  0.44087488  0.35226047  1
