# generated using pymatgen
data_MgCoF5
_symmetry_space_group_name_H-M   'P 1'
_cell_length_a   5.25051401
_cell_length_b   5.25051363
_cell_length_c   7.38511162
_cell_angle_alpha   97.74248854
_cell_angle_beta   110.99511767
_cell_angle_gamma   107.85188790
_symmetry_Int_Tables_number   1
_chemical_formula_structural   MgCoF5
_chemical_formula_sum   'Mg2 Co2 F10'
_cell_volume   173.93807940
_cell_formula_units_Z   2
loop_
 _symmetry_equiv_pos_site_id
 _symmetry_equiv_pos_as_xyz
  1  'x, y, z'
loop_
 _atom_site_type_symbol
 _atom_site_label
 _atom_site_symmetry_multiplicity
 _atom_site_fract_x
 _atom_site_fract_y
 _atom_site_fract_z
 _atom_site_occupancy
  Mg  Mg0  1  0.27928755  0.52928755  0.75000000  1
  Mg  Mg1  1  0.72071245  0.47071245  0.25000000  1
  Co  Co2  1  0.00000000  0.00000000  0.00000000  1
  Co  Co3  1  0.50000000  0.00000000  0.50000000  1
  F  F4  1  0.37941507  0.12941507  0.25000000  1
  F  F5  1  0.62058493  0.87058493  0.75000000  1
  F  F6  1  0.59127199  0.73611818  0.37433441  1
  F  F7  1  0.86178278  0.21693758  0.12566559  1
  F  F8  1  0.75427324  0.68141211  0.04887469  1
  F  F9  1  0.13253742  0.70539855  0.45112531  1
  F  F10  1  0.24572676  0.31858789  0.95112531  1
  F  F11  1  0.86746258  0.29460145  0.54887469  1
  F  F12  1  0.13821722  0.78306242  0.87433441  1
  F  F13  1  0.40872801  0.26388182  0.62566559  1
