# generated using pymatgen
data_YMoO3
_symmetry_space_group_name_H-M   'P 1'
_cell_length_a   5.51937492
_cell_length_b   5.86300674
_cell_length_c   8.05104494
_cell_angle_alpha   89.99994522
_cell_angle_beta   90.00022479
_cell_angle_gamma   89.99988627
_symmetry_Int_Tables_number   1
_chemical_formula_structural   YMoO3
_chemical_formula_sum   'Y4 Mo4 O12'
_cell_volume   260.53287987
_cell_formula_units_Z   4
loop_
 _symmetry_equiv_pos_site_id
 _symmetry_equiv_pos_as_xyz
  1  'x, y, z'
loop_
 _atom_site_type_symbol
 _atom_site_label
 _atom_site_symmetry_multiplicity
 _atom_site_fract_x
 _atom_site_fract_y
 _atom_site_fract_z
 _atom_site_occupancy
  Y  Y0  1  0.02110696  0.93256054  0.74999908  1
  Y  Y1  1  0.52110841  0.56743922  0.24999886  1
  Y  Y2  1  0.47889278  0.43256160  0.75000152  1
  Y  Y3  1  0.97889342  0.06743922  0.25000145  1
  Mo  Mo4  1  0.00000087  0.49999934  0.49999765  1
  Mo  Mo5  1  0.49999805  -0.00000074  0.49999791  1
  Mo  Mo6  1  0.49999855  0.99999928  0.00000239  1
  Mo  Mo7  1  0.00000029  0.49999994  0.00000038  1
  O  O8  1  0.68198842  0.31166515  0.42928287  1
  O  O9  1  0.18198539  0.18833412  0.57071293  1
  O  O10  1  0.81801390  0.81166604  0.07071741  1
  O  O11  1  0.31801393  0.68833366  0.92928603  1
  O  O12  1  0.31801216  0.68833403  0.57071724  1
  O  O13  1  0.81801355  0.81166622  0.42928675  1
  O  O14  1  0.18198618  0.18833413  0.92928333  1
  O  O15  1  0.68198552  0.31166769  0.07071424  1
  O  O16  1  0.13821271  0.43595871  0.25000014  1
  O  O17  1  0.63821335  0.06404134  0.74999959  1
  O  O18  1  0.36178740  0.93595915  0.25000062  1
  O  O19  1  0.86178820  0.56404139  0.74999961  1
