# generated using pymatgen
data_TlGeCl3
_symmetry_space_group_name_H-M   'P 1'
_cell_length_a   5.74354521
_cell_length_b   7.19568795
_cell_length_c   8.34712285
_cell_angle_alpha   90.00000000
_cell_angle_beta   109.74653241
_cell_angle_gamma   90.00000000
_symmetry_Int_Tables_number   1
_chemical_formula_structural   TlGeCl3
_chemical_formula_sum   'Tl2 Ge2 Cl6'
_cell_volume   324.69040704
_cell_formula_units_Z   2
loop_
 _symmetry_equiv_pos_site_id
 _symmetry_equiv_pos_as_xyz
  1  'x, y, z'
loop_
 _atom_site_type_symbol
 _atom_site_label
 _atom_site_symmetry_multiplicity
 _atom_site_fract_x
 _atom_site_fract_y
 _atom_site_fract_z
 _atom_site_occupancy
  Tl  Tl0  1  0.34090059  0.75000000  0.18866695  1
  Tl  Tl1  1  0.65910041  0.25000000  0.81133205  1
  Ge  Ge2  1  0.02713224  0.75000000  0.62517726  1
  Ge  Ge3  1  0.97286776  0.25000000  0.37482174  1
  Cl  Cl4  1  0.16015153  0.99457975  0.82572582  1
  Cl  Cl5  1  0.83984847  0.49457875  0.17427318  1
  Cl  Cl6  1  0.38587859  0.25000000  0.37957829  1
  Cl  Cl7  1  0.61412241  0.75000000  0.62042071  1
  Cl  Cl8  1  0.83984847  0.00542025  0.17427318  1
  Cl  Cl9  1  0.16015153  0.50542125  0.82572582  1
