# generated using pymatgen
data_Ca2V3O8
_symmetry_space_group_name_H-M   'P 1'
_cell_length_a   4.97037491
_cell_length_b   6.24551201
_cell_length_c   6.44276095
_cell_angle_alpha   118.99230987
_cell_angle_beta   108.36431135
_cell_angle_gamma   89.99999685
_symmetry_Int_Tables_number   1
_chemical_formula_structural   Ca2V3O8
_chemical_formula_sum   'Ca2 V3 O8'
_cell_volume   163.19430890
_cell_formula_units_Z   1
loop_
 _symmetry_equiv_pos_site_id
 _symmetry_equiv_pos_as_xyz
  1  'x, y, z'
loop_
 _atom_site_type_symbol
 _atom_site_label
 _atom_site_symmetry_multiplicity
 _atom_site_fract_x
 _atom_site_fract_y
 _atom_site_fract_z
 _atom_site_occupancy
  Ca  Ca0  1  0.66240776  0.72388086  0.44776073  1
  Ca  Ca1  1  0.33759124  0.27612014  0.55223927  1
  V  V2  1  0.50000000  0.99999900  0.00000000  1
  V  V3  1  0.99999900  0.73124616  1.00000000  1
  V  V4  1  0.99999900  0.26875384  0.00000000  1
  O  O5  1  0.04503339  0.39648046  0.79296193  1
  O  O6  1  0.95496661  0.60351854  0.20703807  1
  O  O7  1  0.10496883  0.90067424  0.80134848  1
  O  O8  1  0.89503117  0.09932476  0.19865052  1
  O  O9  1  0.38828940  0.32392672  0.20948339  1
  O  O10  1  0.38828940  0.88555668  0.20948339  1
  O  O11  1  0.61171160  0.11444232  0.79051661  1
  O  O12  1  0.61171160  0.67607328  0.79051661  1
