# generated using pymatgen
data_TlGeBr3
_symmetry_space_group_name_H-M   'P 1'
_cell_length_a   4.22387612
_cell_length_b   9.76670511
_cell_length_c   15.61516796
_cell_angle_alpha   90.00000000
_cell_angle_beta   90.00000000
_cell_angle_gamma   90.00000000
_symmetry_Int_Tables_number   1
_chemical_formula_structural   TlGeBr3
_chemical_formula_sum   'Tl4 Ge4 Br12'
_cell_volume   644.17802797
_cell_formula_units_Z   4
loop_
 _symmetry_equiv_pos_site_id
 _symmetry_equiv_pos_as_xyz
  1  'x, y, z'
loop_
 _atom_site_type_symbol
 _atom_site_label
 _atom_site_symmetry_multiplicity
 _atom_site_fract_x
 _atom_site_fract_y
 _atom_site_fract_z
 _atom_site_occupancy
  Tl  Tl0  1  0.75000100  0.06790691  0.67056698  1
  Tl  Tl1  1  0.25000200  0.93209309  0.32943302  1
  Tl  Tl2  1  0.75000100  0.56790691  0.82943302  1
  Tl  Tl3  1  0.25000200  0.43209309  0.17056698  1
  Ge  Ge4  1  0.25000200  0.16596910  0.93916434  1
  Ge  Ge5  1  0.75000100  0.83403090  0.06083566  1
  Ge  Ge6  1  0.25000200  0.66596910  0.56083566  1
  Ge  Ge7  1  0.75000100  0.33403090  0.43916434  1
  Br  Br8  1  0.75000100  0.33441768  0.00697912  1
  Br  Br9  1  0.25000200  0.66558132  0.99302088  1
  Br  Br10  1  0.75000100  0.83441768  0.49302188  1
  Br  Br11  1  0.25000200  0.16558332  0.50697812  1
  Br  Br12  1  0.25000200  0.01189883  0.11386286  1
  Br  Br13  1  0.75000100  0.98810117  0.88613714  1
  Br  Br14  1  0.25000200  0.51189983  0.38613714  1
  Br  Br15  1  0.75000100  0.48810017  0.61386286  1
  Br  Br16  1  0.25000200  0.29440190  0.79071956  1
  Br  Br17  1  0.75000100  0.70559910  0.20928044  1
  Br  Br18  1  0.25000200  0.79440190  0.70927944  1
  Br  Br19  1  0.75000100  0.20559910  0.29071956  1
