# generated using pymatgen
data_Ca2Sn3O8
_symmetry_space_group_name_H-M   'P 1'
_cell_length_a   5.40742911
_cell_length_b   6.42234444
_cell_length_c   6.58456771
_cell_angle_alpha   119.18831216
_cell_angle_beta   108.02776940
_cell_angle_gamma   89.99999653
_symmetry_Int_Tables_number   1
_chemical_formula_structural   Ca2Sn3O8
_chemical_formula_sum   'Ca2 Sn3 O8'
_cell_volume   186.67062055
_cell_formula_units_Z   1
loop_
 _symmetry_equiv_pos_site_id
 _symmetry_equiv_pos_as_xyz
  1  'x, y, z'
loop_
 _atom_site_type_symbol
 _atom_site_label
 _atom_site_symmetry_multiplicity
 _atom_site_fract_x
 _atom_site_fract_y
 _atom_site_fract_z
 _atom_site_occupancy
  Ca  Ca0  1  0.65757304  0.72002087  0.44004074  1
  Ca  Ca1  1  0.34242596  0.27998013  0.55995926  1
  Sn  Sn2  1  0.50000000  0.99999900  0.00000000  1
  Sn  Sn3  1  0.99999900  0.73742805  1.00000000  1
  Sn  Sn4  1  0.99999900  0.26257195  0.00000000  1
  O  O5  1  0.05247705  0.38911494  0.77823088  1
  O  O6  1  0.94752295  0.61088406  0.22176912  1
  O  O7  1  0.08489333  0.89796639  0.79593279  1
  O  O8  1  0.91510667  0.10203261  0.20406621  1
  O  O9  1  0.39898489  0.33136342  0.21883538  1
  O  O10  1  0.39898489  0.88747196  0.21883538  1
  O  O11  1  0.60101611  0.11252704  0.78116462  1
  O  O12  1  0.60101611  0.66863658  0.78116462  1
