# generated using pymatgen
data_SrAs3
_symmetry_space_group_name_H-M   'P 1'
_cell_length_a   5.95348905
_cell_length_b   6.22501760
_cell_length_c   6.22501760
_cell_angle_alpha   76.97973801
_cell_angle_beta   72.26345387
_cell_angle_gamma   72.26345395
_symmetry_Int_Tables_number   1
_chemical_formula_structural   SrAs3
_chemical_formula_sum   'Sr2 As6'
_cell_volume   207.04815446
_cell_formula_units_Z   2
loop_
 _symmetry_equiv_pos_site_id
 _symmetry_equiv_pos_as_xyz
  1  'x, y, z'
loop_
 _atom_site_type_symbol
 _atom_site_label
 _atom_site_symmetry_multiplicity
 _atom_site_fract_x
 _atom_site_fract_y
 _atom_site_fract_z
 _atom_site_occupancy
  As  As0  1  0.80473216  0.13049443  0.59313176  1
  As  As1  1  0.19526784  0.40686824  0.86950557  1
  As  As2  1  0.78513338  0.00512479  0.00512479  1
  As  As3  1  0.21486662  0.99487521  0.99487521  1
  As  As4  1  0.80473216  0.59313176  0.13049443  1
  As  As5  1  0.19526784  0.86950557  0.40686824  1
  Sr  Sr6  1  0.33221829  0.33538802  0.33538802  1
  Sr  Sr7  1  0.66778171  0.66461198  0.66461198  1
