# generated using pymatgen
data_Ba4CaV4Cu2F28
_symmetry_space_group_name_H-M   'P 1'
_cell_length_a   5.44258533
_cell_length_b   7.62143409
_cell_length_c   15.18423680
_cell_angle_alpha   91.29820691
_cell_angle_beta   90.00954987
_cell_angle_gamma   110.93520863
_symmetry_Int_Tables_number   1
_chemical_formula_structural   Ba4CaV4Cu2F28
_chemical_formula_sum   'Ba4 Ca1 V4 Cu2 F28'
_cell_volume   588.09347446
_cell_formula_units_Z   1
loop_
 _symmetry_equiv_pos_site_id
 _symmetry_equiv_pos_as_xyz
  1  'x, y, z'
loop_
 _atom_site_type_symbol
 _atom_site_label
 _atom_site_symmetry_multiplicity
 _atom_site_fract_x
 _atom_site_fract_y
 _atom_site_fract_z
 _atom_site_occupancy
  Ba  Ba0  1  0.73777382  0.64146845  0.87325839  1
  Ba  Ba1  1  0.89473335  0.62945557  0.37515505  1
  Ba  Ba2  1  0.09478372  0.35683459  0.62654501  1
  Ba  Ba3  1  0.26413586  0.37155371  0.12419322  1
  Ca  Ca4  1  0.58127918  0.00219772  0.24998146  1
  V  V5  1  0.90193987  0.75458096  0.12538207  1
  V  V6  1  0.14581763  0.24640294  0.37429565  1
  V  V7  1  0.85778452  0.75523938  0.62792205  1
  V  V8  1  0.09954745  0.24529433  0.87255189  1
  Cu  Cu9  1  0.50036863  0.99773173  -0.00026419  1
  Cu  Cu10  1  0.50266980  0.00310402  0.50090762  1
  F  F11  1  0.10420092  0.70625927  0.54675296  1
  F  F12  1  0.41190925  0.23304344  0.28748150  1
  F  F13  1  0.84123754  0.25196066  0.79392345  1
  F  F14  1  0.29265584  0.16626550  0.48390837  1
  F  F15  1  0.96228771  0.32087178  0.27562189  1
  F  F16  1  0.91537985  0.98850498  0.34633149  1
  F  F17  1  0.38670383  0.89523364  0.38683101  1
  F  F18  1  0.62487007  0.11544800  0.60844471  1
  F  F19  1  0.06976830  0.00570361  0.85198052  1
  F  F20  1  0.12575250  0.83108495  0.01738381  1
  F  F21  1  0.51091197  0.88503453  0.89227625  1
  F  F22  1  0.07208221  0.99401411  0.64726069  1
  F  F23  1  0.01106078  0.65915735  0.71908679  1
  F  F24  1  0.36464284  0.50524523  0.39796144  1
  F  F25  1  0.92627641  0.01465925  0.15351495  1
  F  F26  1  0.85879686  0.49266908  0.10359442  1
  F  F27  1  0.64454713  0.50778732  0.59909464  1
  F  F28  1  0.17997607  0.76929001  0.21325382  1
  F  F29  1  0.88869282  0.29422115  0.45378717  1
  F  F30  1  0.59898886  0.75578795  0.70751301  1
  F  F31  1  0.39472112  0.28832482  0.95307924  1
  F  F32  1  0.49003588  0.10567432  0.11333103  1
  F  F33  1  0.87577729  0.17387480  0.97761137  1
  F  F34  1  0.14195341  0.49376770  0.90292493  1
  F  F35  1  0.34772115  0.34016531  0.78108820  1
  F  F36  1  0.64331144  0.68044016  0.22358178  1
  F  F37  1  0.59567099  0.70544108  0.04585012  1
  F  F38  1  0.70582415  0.82848260  0.52277323  1
