# generated using pymatgen
data_TmNi
_symmetry_space_group_name_H-M   'P 1'
_cell_length_a   4.10291353
_cell_length_b   5.36575839
_cell_length_c   6.94964787
_cell_angle_alpha   90.00000000
_cell_angle_beta   90.00000000
_cell_angle_gamma   90.00000000
_symmetry_Int_Tables_number   1
_chemical_formula_structural   TmNi
_chemical_formula_sum   'Tm4 Ni4'
_cell_volume   152.99818452
_cell_formula_units_Z   4
loop_
 _symmetry_equiv_pos_site_id
 _symmetry_equiv_pos_as_xyz
  1  'x, y, z'
loop_
 _atom_site_type_symbol
 _atom_site_label
 _atom_site_symmetry_multiplicity
 _atom_site_fract_x
 _atom_site_fract_y
 _atom_site_fract_z
 _atom_site_occupancy
  Ni  Ni0  1  0.25000000  0.62818875  0.03720657  1
  Ni  Ni1  1  0.75000000  0.37181125  0.96279343  1
  Ni  Ni2  1  0.75000000  0.12818875  0.46279343  1
  Ni  Ni3  1  0.25000000  0.87181125  0.53720657  1
  Tm  Tm4  1  0.25000000  0.13351208  0.18001784  1
  Tm  Tm5  1  0.75000000  0.86648792  0.81998216  1
  Tm  Tm6  1  0.75000000  0.63351208  0.31998216  1
  Tm  Tm7  1  0.25000000  0.36648792  0.68001784  1
