# generated using pymatgen
data_LiVFeO4
_symmetry_space_group_name_H-M   'P 1'
_cell_length_a   5.24241168
_cell_length_b   5.94440871
_cell_length_c   7.90168286
_cell_angle_alpha   78.86477282
_cell_angle_beta   70.81282635
_cell_angle_gamma   91.04116444
_symmetry_Int_Tables_number   1
_chemical_formula_structural   LiVFeO4
_chemical_formula_sum   'Li3 V3 Fe3 O12'
_cell_volume   227.29627266
_cell_formula_units_Z   3
loop_
 _symmetry_equiv_pos_site_id
 _symmetry_equiv_pos_as_xyz
  1  'x, y, z'
loop_
 _atom_site_type_symbol
 _atom_site_label
 _atom_site_symmetry_multiplicity
 _atom_site_fract_x
 _atom_site_fract_y
 _atom_site_fract_z
 _atom_site_occupancy
  Li  Li0  1  0.99653473  0.49017140  0.00363699  1
  Li  Li1  1  0.99576214  0.65316967  0.33831154  1
  Li  Li2  1  0.00749765  0.84639324  0.66200100  1
  V  V3  1  0.48518571  0.24543777  0.00142247  1
  V  V4  1  0.53864367  0.92485481  0.32524939  1
  V  V5  1  0.50233753  0.08952149  0.66668161  1
  Fe  Fe6  1  0.50013092  0.74687310  0.99891202  1
  Fe  Fe7  1  0.47441499  0.41761780  0.34141032  1
  Fe  Fe8  1  0.49563705  0.58454294  0.66679719  1
  O  O9  1  0.27433203  0.45697412  0.15601442  1
  O  O10  1  0.30929010  0.96453885  0.15447444  1
  O  O11  1  0.28440751  0.65647645  0.47595980  1
  O  O12  1  0.30114433  0.10602819  0.50431035  1
  O  O13  1  0.28283823  0.78397901  0.82059615  1
  O  O14  1  0.28907851  0.28866478  0.83072331  1
  O  O15  1  0.71944616  0.70430445  0.17979690  1
  O  O16  1  0.70177021  0.20982028  0.17737309  1
  O  O17  1  0.72646336  0.87451657  0.50711984  1
  O  O18  1  0.69670023  0.38487111  0.50794948  1
  O  O19  1  0.70344169  0.04131104  0.82690855  1
  O  O20  1  0.71339824  0.52757792  0.85692013  1
