# generated using pymatgen
data_U(RhO3)2
_symmetry_space_group_name_H-M   'P 1'
_cell_length_a   4.82391983
_cell_length_b   4.82391983
_cell_length_c   9.44015235
_cell_angle_alpha   90.00000000
_cell_angle_beta   90.00000000
_cell_angle_gamma   90.00000000
_symmetry_Int_Tables_number   1
_chemical_formula_structural   U(RhO3)2
_chemical_formula_sum   'U2 Rh4 O12'
_cell_volume   219.67425706
_cell_formula_units_Z   2
loop_
 _symmetry_equiv_pos_site_id
 _symmetry_equiv_pos_as_xyz
  1  'x, y, z'
loop_
 _atom_site_type_symbol
 _atom_site_label
 _atom_site_symmetry_multiplicity
 _atom_site_fract_x
 _atom_site_fract_y
 _atom_site_fract_z
 _atom_site_occupancy
  O  O0  1  0.70133652  0.70133652  0.66675238  1
  O  O1  1  0.29866348  0.29866348  0.66675238  1
  O  O2  1  0.70133652  0.70133652  0.33324762  1
  O  O3  1  0.20133652  0.79866348  0.16675238  1
  O  O4  1  0.79866348  0.20133652  0.16675238  1
  O  O5  1  0.79866348  0.20133652  0.83324762  1
  O  O6  1  0.31189730  0.31189730  0.00000000  1
  O  O7  1  0.18810270  0.81189730  0.50000000  1
  O  O8  1  0.81189730  0.18810270  0.50000000  1
  O  O9  1  0.68810270  0.68810270  0.00000000  1
  O  O10  1  0.29866348  0.29866348  0.33324762  1
  O  O11  1  0.20133652  0.79866348  0.83324762  1
  Rh  Rh12  1  0.00000000  0.00000000  0.33002362  1
  Rh  Rh13  1  0.50000000  0.50000000  0.83002362  1
  Rh  Rh14  1  0.00000000  0.00000000  0.66997638  1
  Rh  Rh15  1  0.50000000  0.50000000  0.16997638  1
  U  U16  1  0.00000000  0.00000000  0.00000000  1
  U  U17  1  0.50000000  0.50000000  0.50000000  1
