# generated using pymatgen
data_CsGeCl3
_symmetry_space_group_name_H-M   'P 1'
_cell_length_a   5.51827368
_cell_length_b   5.51827368
_cell_length_c   5.51827368
_cell_angle_alpha   89.84399997
_cell_angle_beta   89.84400002
_cell_angle_gamma   89.84399997
_symmetry_Int_Tables_number   1
_chemical_formula_structural   CsGeCl3
_chemical_formula_sum   'Cs1 Ge1 Cl3'
_cell_volume   168.03698733
_cell_formula_units_Z   1
loop_
 _symmetry_equiv_pos_site_id
 _symmetry_equiv_pos_as_xyz
  1  'x, y, z'
loop_
 _atom_site_type_symbol
 _atom_site_label
 _atom_site_symmetry_multiplicity
 _atom_site_fract_x
 _atom_site_fract_y
 _atom_site_fract_z
 _atom_site_occupancy
  Cl  Cl0  1  0.05060609  0.50327927  0.50327927  1
  Cl  Cl1  1  0.50327927  0.50327927  0.05060609  1
  Cl  Cl2  1  0.50327927  0.05060609  0.50327927  1
  Ge  Ge3  1  0.48676176  0.48676176  0.48676176  1
  Cs  Cs4  1  0.00007362  0.00007362  0.00007362  1
