# generated using pymatgen
data_Os3C9S2O9
_symmetry_space_group_name_H-M   'P 1'
_cell_length_a   6.80263284
_cell_length_b   9.59862997
_cell_length_c   13.70757008
_cell_angle_alpha   82.66263008
_cell_angle_beta   84.63063692
_cell_angle_gamma   69.56613677
_symmetry_Int_Tables_number   1
_chemical_formula_structural   Os3C9S2O9
_chemical_formula_sum   'Os6 C18 S4 O18'
_cell_volume   830.70422099
_cell_formula_units_Z   2
loop_
 _symmetry_equiv_pos_site_id
 _symmetry_equiv_pos_as_xyz
  1  'x, y, z'
loop_
 _atom_site_type_symbol
 _atom_site_label
 _atom_site_symmetry_multiplicity
 _atom_site_fract_x
 _atom_site_fract_y
 _atom_site_fract_z
 _atom_site_occupancy
  Os  Os0  1  0.67156497  0.76023257  0.84446518  1
  Os  Os1  1  0.29431694  0.60021871  0.24214407  1
  Os  Os2  1  0.70568306  0.39978129  0.75785593  1
  Os  Os3  1  0.41804802  0.30192169  0.34052877  1
  Os  Os4  1  0.58195198  0.69807831  0.65947123  1
  Os  Os5  1  0.32843503  0.23976743  0.15553482  1
  C  C6  1  0.79415135  0.28033250  0.87724366  1
  C  C7  1  0.55977872  0.07092668  0.11523988  1
  C  C8  1  0.90921041  0.26795632  0.67317953  1
  C  C9  1  0.44022128  0.92907332  0.88476012  1
  C  C10  1  0.69715847  0.22689265  0.38495122  1
  C  C11  1  0.20584865  0.71966750  0.12275634  1
  C  C12  1  0.14598991  0.12285855  0.17815331  1
  C  C13  1  0.30776563  0.39830847  0.45674597  1
  C  C14  1  0.24509089  0.31972434  0.02688359  1
  C  C15  1  0.75490911  0.68027566  0.97311641  1
  C  C16  1  0.30284153  0.77310735  0.61504878  1
  C  C17  1  0.09078959  0.73204368  0.32682047  1
  C  C18  1  0.49831253  0.31343617  0.73917894  1
  C  C19  1  0.50168747  0.68656383  0.26082106  1
  C  C20  1  0.69223437  0.60169153  0.54325403  1
  C  C21  1  0.37483079  0.11578367  0.37802383  1
  C  C22  1  0.85401009  0.87714145  0.82184669  1
  C  C23  1  0.62516921  0.88421633  0.62197617  1
  S  S24  1  0.54843612  0.38199963  0.17870910  1
  S  S25  1  0.45156388  0.61800037  0.82129090  1
  S  S26  1  0.09400560  0.43311381  0.25183555  1
  S  S27  1  0.90599440  0.56688619  0.74816445  1
  O  O28  1  0.96770226  0.80996336  0.37833573  1
  O  O29  1  0.34847925  0.00326920  0.40472618  1
  O  O30  1  0.19515797  0.37352052  0.94803927  1
  O  O31  1  0.96461832  0.94743658  0.80744671  1
  O  O32  1  0.62627591  0.74044509  0.27077268  1
  O  O33  1  0.30304266  0.03299810  0.90817185  1
  O  O34  1  0.84028367  0.21378531  0.95372303  1
  O  O35  1  0.03538168  0.05256342  0.19255329  1
  O  O36  1  0.03229774  0.19003664  0.62166427  1
  O  O37  1  0.80484203  0.62647948  0.05196073  1
  O  O38  1  0.65152075  0.99673080  0.59527382  1
  O  O39  1  0.86774556  0.18259768  0.41101824  1
  O  O40  1  0.37372409  0.25955491  0.72922732  1
  O  O41  1  0.76030986  0.54049117  0.47308712  1
  O  O42  1  0.69695734  0.96700190  0.09182815  1
  O  O43  1  0.13225444  0.81740232  0.58898176  1
  O  O44  1  0.23969014  0.45950883  0.52691288  1
  O  O45  1  0.15971633  0.78621469  0.04627697  1
