# generated using pymatgen
data_SrMoO4
_symmetry_space_group_name_H-M   'P 1'
_cell_length_a   5.48798709
_cell_length_b   5.48846941
_cell_length_c   7.23039886
_cell_angle_alpha   112.30408438
_cell_angle_beta   112.30404545
_cell_angle_gamma   89.99075833
_symmetry_Int_Tables_number   1
_chemical_formula_structural   SrMoO4
_chemical_formula_sum   'Sr2 Mo2 O8'
_cell_volume   183.76309685
_cell_formula_units_Z   2
loop_
 _symmetry_equiv_pos_site_id
 _symmetry_equiv_pos_as_xyz
  1  'x, y, z'
loop_
 _atom_site_type_symbol
 _atom_site_label
 _atom_site_symmetry_multiplicity
 _atom_site_fract_x
 _atom_site_fract_y
 _atom_site_fract_z
 _atom_site_occupancy
  O  O0  1  0.19469448  0.56983697  0.91253887  1
  O  O1  1  0.34270841  0.69462677  0.41257018  1
  O  O2  1  0.06981626  0.21769329  0.41249998  1
  O  O3  1  0.71771530  0.84276117  0.91256138  1
  O  O4  1  0.28228470  0.15723883  0.08743862  1
  O  O5  1  0.93018374  0.78230671  0.58750002  1
  O  O6  1  0.65729159  0.30537323  0.58742982  1
  O  O7  1  0.80530552  0.43016303  0.08746113  1
  Sr  Sr8  1  0.62501281  0.87495726  0.24999933  1
  Sr  Sr9  1  0.37498719  0.12504274  0.75000067  1
  Mo  Mo10  1  0.12503679  0.37491662  0.24999376  1
  Mo  Mo11  1  0.87496321  0.62508338  0.75000624  1
