# generated using pymatgen
data_BaNa(PO3)3
_symmetry_space_group_name_H-M   'P 1'
_cell_length_a   5.90072037
_cell_length_b   11.27744604
_cell_length_c   12.48900973
_cell_angle_alpha   90.00000000
_cell_angle_beta   90.00000000
_cell_angle_gamma   90.00000000
_symmetry_Int_Tables_number   1
_chemical_formula_structural   BaNa(PO3)3
_chemical_formula_sum   'Ba4 Na4 P12 O36'
_cell_volume   831.08184649
_cell_formula_units_Z   4
loop_
 _symmetry_equiv_pos_site_id
 _symmetry_equiv_pos_as_xyz
  1  'x, y, z'
loop_
 _atom_site_type_symbol
 _atom_site_label
 _atom_site_symmetry_multiplicity
 _atom_site_fract_x
 _atom_site_fract_y
 _atom_site_fract_z
 _atom_site_occupancy
  O  O0  1  0.99414564  0.93815106  0.92646728  1
  O  O1  1  0.49414564  0.56184894  0.07353272  1
  O  O2  1  0.00585436  0.43815106  0.57353272  1
  O  O3  1  0.50585436  0.06184894  0.42646728  1
  O  O4  1  0.32969288  0.87582141  0.80338633  1
  O  O5  1  0.82969288  0.62417859  0.19661367  1
  O  O6  1  0.67030712  0.37582141  0.69661367  1
  O  O7  1  0.17030712  0.12417859  0.30338633  1
  O  O8  1  0.68852474  0.69660632  0.62825553  1
  O  O9  1  0.18852474  0.80339368  0.37174447  1
  O  O10  1  0.31147526  0.19660632  0.87174447  1
  O  O11  1  0.81147526  0.30339368  0.12825553  1
  O  O12  1  0.12089056  0.69769316  0.61490706  1
  O  O13  1  0.62089056  0.80230684  0.38509294  1
  O  O14  1  0.87910944  0.19769316  0.88509294  1
  O  O15  1  0.37910944  0.30230684  0.11490706  1
  O  O16  1  0.33514134  0.55801799  0.82118058  1
  O  O17  1  0.83514134  0.94198201  0.17881942  1
  O  O18  1  0.66485866  0.05801799  0.67881942  1
  O  O19  1  0.16485866  0.44198201  0.32118058  1
  O  O20  1  0.38785502  0.27692689  0.41779432  1
  O  O21  1  0.88785502  0.22307311  0.58220568  1
  O  O22  1  0.61214498  0.77692689  0.08220568  1
  O  O23  1  0.11214498  0.72307311  0.91779432  1
  O  O24  1  0.58072854  0.17917703  0.25898487  1
  O  O25  1  0.08072854  0.32082297  0.74101513  1
  O  O26  1  0.41927146  0.67917703  0.24101513  1
  O  O27  1  0.91927146  0.82082297  0.75898487  1
  O  O28  1  0.58018659  0.39972718  0.27600694  1
  O  O29  1  0.08018659  0.10027282  0.72399306  1
  O  O30  1  0.41981341  0.89972718  0.22399306  1
  O  O31  1  0.91981341  0.60027282  0.77600694  1
  O  O32  1  0.48798536  0.49261074  0.45279574  1
  O  O33  1  0.98798536  0.00738926  0.54720426  1
  O  O34  1  0.51201464  0.99261074  0.04720426  1
  O  O35  1  0.01201464  0.50738926  0.95279574  1
  Na  Na36  1  0.39804077  0.52282803  0.63623249  1
  Na  Na37  1  0.89804077  0.97717197  0.36376751  1
  Na  Na38  1  0.60195923  0.02282803  0.86376751  1
  Na  Na39  1  0.10195923  0.47717197  0.13623249  1
  P  P40  1  0.10537358  0.84958841  0.85467007  1
  P  P41  1  0.60537358  0.65041159  0.14532993  1
  P  P42  1  0.89462642  0.34958841  0.64532993  1
  P  P43  1  0.39462642  0.15041159  0.35467007  1
  P  P44  1  0.91234933  0.70279174  0.68532768  1
  P  P45  1  0.41234933  0.79720826  0.31467232  1
  P  P46  1  0.08765067  0.20279174  0.81467232  1
  P  P47  1  0.58765067  0.29720826  0.18532768  1
  P  P48  1  0.11166237  0.58958477  0.87072318  1
  P  P49  1  0.61166237  0.91041523  0.12927682  1
  P  P50  1  0.88833763  0.08958477  0.62927682  1
  P  P51  1  0.38833763  0.41041523  0.37072318  1
  Ba  Ba52  1  0.40199287  0.89367335  0.58127519  1
  Ba  Ba53  1  0.90199287  0.60632665  0.41872481  1
  Ba  Ba54  1  0.59800713  0.39367335  0.91872481  1
  Ba  Ba55  1  0.09800713  0.10632665  0.08127519  1
