# generated using pymatgen
data_K6MnS4
_symmetry_space_group_name_H-M   'P 1'
_cell_length_a   9.90996422
_cell_length_b   9.90996422
_cell_length_c   7.75550535
_cell_angle_alpha   90.00000000
_cell_angle_beta   90.00000000
_cell_angle_gamma   120.00000001
_symmetry_Int_Tables_number   1
_chemical_formula_structural   K6MnS4
_chemical_formula_sum   'K12 Mn2 S8'
_cell_volume   659.60646879
_cell_formula_units_Z   2
loop_
 _symmetry_equiv_pos_site_id
 _symmetry_equiv_pos_as_xyz
  1  'x, y, z'
loop_
 _atom_site_type_symbol
 _atom_site_label
 _atom_site_symmetry_multiplicity
 _atom_site_fract_x
 _atom_site_fract_y
 _atom_site_fract_z
 _atom_site_occupancy
  S  S0  1  0.80301141  0.19698859  0.65359936  1
  S  S1  1  0.60602282  0.80301141  0.15359936  1
  S  S2  1  0.19698859  0.39397718  0.15359936  1
  S  S3  1  0.80301141  0.60602282  0.65359936  1
  S  S4  1  0.39397718  0.19698859  0.65359936  1
  S  S5  1  0.19698859  0.80301141  0.15359936  1
  S  S6  1  0.66666667  0.33333333  0.06939629  1
  S  S7  1  0.33333333  0.66666667  0.56939629  1
  K  K8  1  0.53018397  0.06036794  0.36657746  1
  K  K9  1  0.46981603  0.53018397  0.86657746  1
  K  K10  1  0.93963206  0.46981603  0.36657746  1
  K  K11  1  0.53018397  0.46981603  0.36657746  1
  K  K12  1  0.14657209  0.85342791  0.54172617  1
  K  K13  1  0.29314417  0.14657209  0.04172617  1
  K  K14  1  0.06036794  0.53018397  0.86657746  1
  K  K15  1  0.85342791  0.70685583  0.04172617  1
  K  K16  1  0.85342791  0.14657209  0.04172617  1
  K  K17  1  0.70685583  0.85342791  0.54172617  1
  K  K18  1  0.14657209  0.29314417  0.54172617  1
  K  K19  1  0.46981603  0.93963206  0.86657746  1
  Mn  Mn20  1  0.66666667  0.33333333  0.75259476  1
  Mn  Mn21  1  0.33333333  0.66666667  0.25259476  1
