# generated using pymatgen
data_Lu2Pt
_symmetry_space_group_name_H-M   'P 1'
_cell_length_a   4.68892797
_cell_length_b   7.01589342
_cell_length_c   8.63389809
_cell_angle_alpha   90.00000000
_cell_angle_beta   90.00000000
_cell_angle_gamma   90.00000000
_symmetry_Int_Tables_number   1
_chemical_formula_structural   Lu2Pt
_chemical_formula_sum   'Lu8 Pt4'
_cell_volume   284.02950857
_cell_formula_units_Z   4
loop_
 _symmetry_equiv_pos_site_id
 _symmetry_equiv_pos_as_xyz
  1  'x, y, z'
loop_
 _atom_site_type_symbol
 _atom_site_label
 _atom_site_symmetry_multiplicity
 _atom_site_fract_x
 _atom_site_fract_y
 _atom_site_fract_z
 _atom_site_occupancy
  Lu  Lu0  1  0.75000000  0.64498080  0.57931386  1
  Lu  Lu1  1  0.75000000  0.14498080  0.92068614  1
  Lu  Lu2  1  0.25000000  0.35501920  0.42068614  1
  Lu  Lu3  1  0.25000000  0.85501920  0.07931386  1
  Lu  Lu4  1  0.75000000  0.51148383  0.16836003  1
  Lu  Lu5  1  0.75000000  0.01148383  0.33163997  1
  Lu  Lu6  1  0.25000000  0.48851617  0.83163997  1
  Lu  Lu7  1  0.25000000  0.98851617  0.66836003  1
  Pt  Pt8  1  0.75000000  0.24204699  0.59445154  1
  Pt  Pt9  1  0.75000000  0.74204699  0.90554846  1
  Pt  Pt10  1  0.25000000  0.75795301  0.40554846  1
  Pt  Pt11  1  0.25000000  0.25795301  0.09445154  1
