# generated using pymatgen
data_Li6ZnO4
_symmetry_space_group_name_H-M   'P 1'
_cell_length_a   4.70487343
_cell_length_b   6.59795386
_cell_length_c   6.59795386
_cell_angle_alpha   90.00000000
_cell_angle_beta   90.00000000
_cell_angle_gamma   90.00000000
_symmetry_Int_Tables_number   1
_chemical_formula_structural   Li6ZnO4
_chemical_formula_sum   'Li12 Zn2 O8'
_cell_volume   204.81723216
_cell_formula_units_Z   2
loop_
 _symmetry_equiv_pos_site_id
 _symmetry_equiv_pos_as_xyz
  1  'x, y, z'
loop_
 _atom_site_type_symbol
 _atom_site_label
 _atom_site_symmetry_multiplicity
 _atom_site_fract_x
 _atom_site_fract_y
 _atom_site_fract_z
 _atom_site_occupancy
  Li  Li0  1  0.70493210  0.25000000  0.25000000  1
  Li  Li1  1  0.29506790  0.75000000  0.75000000  1
  Li  Li2  1  0.75000000  0.46807125  0.53192875  1
  Li  Li3  1  0.25000000  0.96807125  0.46807125  1
  Li  Li4  1  0.25000000  0.53192875  0.03192875  1
  Li  Li5  1  0.75000000  0.03192875  0.96807125  1
  Li  Li6  1  0.25000000  0.53192875  0.46807125  1
  Li  Li7  1  0.75000000  0.03192875  0.53192875  1
  Li  Li8  1  0.75000000  0.46807125  0.96807125  1
  Li  Li9  1  0.79506790  0.75000000  0.75000000  1
  Li  Li10  1  0.20493210  0.25000000  0.25000000  1
  Li  Li11  1  0.25000000  0.96807125  0.03192875  1
  O  O12  1  0.53391373  0.75000000  0.98650832  1
  O  O13  1  0.03391373  0.98650832  0.75000000  1
  O  O14  1  0.46608627  0.25000000  0.48650832  1
  O  O15  1  0.96608627  0.01349168  0.25000000  1
  O  O16  1  0.96608627  0.48650832  0.25000000  1
  O  O17  1  0.03391373  0.51349168  0.75000000  1
  O  O18  1  0.53391373  0.75000000  0.51349168  1
  O  O19  1  0.46608627  0.25000000  0.01349168  1
  Zn  Zn20  1  0.25000000  0.25000000  0.75000000  1
  Zn  Zn21  1  0.75000000  0.75000000  0.25000000  1
