# generated using pymatgen
data_Sm2(B2Rh3)3
_symmetry_space_group_name_H-M   'P 1'
_cell_length_a   5.64171681
_cell_length_b   5.64302720
_cell_length_c   8.58740276
_cell_angle_alpha   89.99980458
_cell_angle_beta   90.00039084
_cell_angle_gamma   119.99231811
_symmetry_Int_Tables_number   1
_chemical_formula_structural   Sm2(B2Rh3)3
_chemical_formula_sum   'Sm2 B6 Rh9'
_cell_volume   236.78244607
_cell_formula_units_Z   1
loop_
 _symmetry_equiv_pos_site_id
 _symmetry_equiv_pos_as_xyz
  1  'x, y, z'
loop_
 _atom_site_type_symbol
 _atom_site_label
 _atom_site_symmetry_multiplicity
 _atom_site_fract_x
 _atom_site_fract_y
 _atom_site_fract_z
 _atom_site_occupancy
  Sm  Sm0  1  0.99999658  -0.00000000  0.29492103  1
  Sm  Sm1  1  0.99999935  -0.00000000  0.70507963  1
  B  B2  1  0.33340597  0.66683515  -0.00000087  1
  B  B3  1  0.66657082  0.33316485  -0.00000087  1
  B  B4  1  0.33340281  0.66682677  0.33255529  1
  B  B5  1  0.66657604  0.33317323  0.33255529  1
  B  B6  1  0.66658410  0.33317612  0.66744896  1
  B  B7  1  0.33340798  0.66682388  0.66744896  1
  Rh  Rh8  1  0.49998931  -0.00000000  0.16365343  1
  Rh  Rh9  1  0.49999691  0.50000158  0.16370290  1
  Rh  Rh10  1  0.99999533  0.49999842  0.16370290  1
  Rh  Rh11  1  0.49999854  -0.00000000  0.83634643  1
  Rh  Rh12  1  0.49999370  0.50000117  0.83629782  1
  Rh  Rh13  1  0.99999253  0.49999883  0.83629782  1
  Rh  Rh14  1  0.49999862  0.00000000  0.49999709  1
  Rh  Rh15  1  0.49999581  0.50000020  0.49999709  1
  Rh  Rh16  1  0.99999561  0.49999980  0.49999709  1
