# generated using pymatgen
data_Li15Ge4
_symmetry_space_group_name_H-M   'P 1'
_cell_length_a   9.26734202
_cell_length_b   9.26734203
_cell_length_c   9.26734203
_cell_angle_alpha   109.47122064
_cell_angle_beta   109.47122065
_cell_angle_gamma   109.47122064
_symmetry_Int_Tables_number   1
_chemical_formula_structural   Li15Ge4
_chemical_formula_sum   'Li30 Ge8'
_cell_volume   612.69408027
_cell_formula_units_Z   2
loop_
 _symmetry_equiv_pos_site_id
 _symmetry_equiv_pos_as_xyz
  1  'x, y, z'
loop_
 _atom_site_type_symbol
 _atom_site_label
 _atom_site_symmetry_multiplicity
 _atom_site_fract_x
 _atom_site_fract_y
 _atom_site_fract_z
 _atom_site_occupancy
  Li  Li0  1  0.88294716  0.46850656  0.15928394  1
  Li  Li1  1  0.03149344  0.91444060  0.69077738  1
  Li  Li2  1  0.34071606  0.80922262  0.72366322  1
  Li  Li3  1  0.61705284  0.77633678  0.58555940  1
  Li  Li4  1  0.77633678  0.58555940  0.61705284  1
  Li  Li5  1  0.58555940  0.61705284  0.77633678  1
  Li  Li6  1  0.38294716  0.65928394  0.96850656  1
  Li  Li7  1  0.19077738  0.41444060  0.53149344  1
  Li  Li8  1  0.25000000  0.62500000  0.37500000  1
  Li  Li9  1  0.37500000  0.25000000  0.62500000  1
  Li  Li10  1  0.12500000  0.75000000  0.87500000  1
  Li  Li11  1  0.87500000  0.12500000  0.75000000  1
  Li  Li12  1  0.62500000  0.37500000  0.25000000  1
  Li  Li13  1  0.75000000  0.87500000  0.12500000  1
  Li  Li14  1  0.11705284  0.08555940  0.27633678  1
  Li  Li15  1  0.91444060  0.69077738  0.03149344  1
  Li  Li16  1  0.15928394  0.88294716  0.46850656  1
  Li  Li17  1  0.46850656  0.15928394  0.88294716  1
  Li  Li18  1  0.72366322  0.34071606  0.80922262  1
  Li  Li19  1  0.80922262  0.72366322  0.34071606  1
  Li  Li20  1  0.69077738  0.03149344  0.91444060  1
  Li  Li21  1  0.84071606  0.22366322  0.30922262  1
  Li  Li22  1  0.53149344  0.19077738  0.41444060  1
  Li  Li23  1  0.65928394  0.96850656  0.38294716  1
  Li  Li24  1  0.22366322  0.30922262  0.84071606  1
  Li  Li25  1  0.41444060  0.53149344  0.19077738  1
  Li  Li26  1  0.96850656  0.38294716  0.65928394  1
  Li  Li27  1  0.27633678  0.11705284  0.08555940  1
  Li  Li28  1  0.08555940  0.27633678  0.11705284  1
  Li  Li29  1  0.30922262  0.84071606  0.22366322  1
  Ge  Ge30  1  0.91531672  0.91531672  0.91531672  1
  Ge  Ge31  1  0.08468328  0.50000000  0.00000000  1
  Ge  Ge32  1  0.50000000  0.00000000  0.08468328  1
  Ge  Ge33  1  0.00000000  0.08468328  0.50000000  1
  Ge  Ge34  1  0.50000000  0.00000000  0.58468328  1
  Ge  Ge35  1  0.00000000  0.58468328  0.50000000  1
  Ge  Ge36  1  0.58468328  0.50000000  0.00000000  1
  Ge  Ge37  1  0.41531672  0.41531672  0.41531672  1
