# generated using pymatgen
data_Li9Mn2Co5O16
_symmetry_space_group_name_H-M   'P 1'
_cell_length_a   5.07655506
_cell_length_b   5.81465743
_cell_length_c   10.16785557
_cell_angle_alpha   73.38535204
_cell_angle_beta   99.59502119
_cell_angle_gamma   89.99999767
_symmetry_Int_Tables_number   1
_chemical_formula_structural   Li9Mn2Co5O16
_chemical_formula_sum   'Li9 Mn2 Co5 O16'
_cell_volume   283.22366255
_cell_formula_units_Z   1
loop_
 _symmetry_equiv_pos_site_id
 _symmetry_equiv_pos_as_xyz
  1  'x, y, z'
loop_
 _atom_site_type_symbol
 _atom_site_label
 _atom_site_symmetry_multiplicity
 _atom_site_fract_x
 _atom_site_fract_y
 _atom_site_fract_z
 _atom_site_occupancy
  Li  Li0  1  0.25829375  0.62598610  0.25930955  1
  Li  Li1  1  0.74170625  0.38529565  0.74069045  1
  Li  Li2  1  0.25829375  0.11470435  0.25930955  1
  Li  Li3  1  0.75222073  0.37049155  0.25901691  1
  Li  Li4  1  0.24777927  0.12950845  0.74098309  1
  Li  Li5  1  0.74331214  0.86823361  0.26353277  1
  Li  Li6  1  0.74170625  0.87401390  0.74069045  1
  Li  Li7  1  0.25668786  0.63176639  0.73646723  1
  Li  Li8  1  0.50000000  0.75000000  0.50000000  1
  Mn  Mn9  1  0.00065245  0.99946059  0.00107882  1
  Mn  Mn10  1  0.99934755  0.50053941  0.99892118  1
  Co  Co11  1  0.50000000  0.25000000  0.50000000  1
  Co  Co12  1  1.00000000  0.50673776  0.50000000  1
  Co  Co13  1  0.50000000  0.25000000  -0.00000000  1
  Co  Co14  1  0.00000000  0.99326224  0.50000000  1
  Co  Co15  1  0.50000000  0.75000000  -0.00000000  1
  O  O16  1  0.89685070  0.69088852  0.11370260  1
  O  O17  1  0.36616618  0.42475344  0.60923275  1
  O  O18  1  0.89685070  0.19540889  0.11370260  1
  O  O19  1  0.35549101  0.44440848  0.11118304  1
  O  O20  1  0.85567430  0.19414621  0.61170758  1
  O  O21  1  0.35754348  0.94232829  0.11534343  1
  O  O22  1  0.36616618  0.96601381  0.60923275  1
  O  O23  1  0.89574783  0.69078720  0.61842560  1
  O  O24  1  0.63383382  0.53398619  0.39076725  1
  O  O25  1  0.10314930  0.30459111  0.88629740  1
  O  O26  1  0.63383382  0.07524656  0.39076725  1
  O  O27  1  0.14432570  0.30585379  0.38829242  1
  O  O28  1  0.64450899  0.05559152  0.88881696  1
  O  O29  1  0.10425217  0.80921280  0.38157440  1
  O  O30  1  0.10314930  0.80911148  0.88629740  1
  O  O31  1  0.64245652  0.55767171  0.88465657  1
