# generated using pymatgen
data_Na2Sb3O8
_symmetry_space_group_name_H-M   'P 1'
_cell_length_a   9.30301176
_cell_length_b   9.30301176
_cell_length_c   9.30301176
_cell_angle_alpha   90.00000000
_cell_angle_beta   90.00000000
_cell_angle_gamma   90.00000000
_symmetry_Int_Tables_number   1
_chemical_formula_structural   Na2Sb3O8
_chemical_formula_sum   'Na8 Sb12 O32'
_cell_volume   805.13871447
_cell_formula_units_Z   4
loop_
 _symmetry_equiv_pos_site_id
 _symmetry_equiv_pos_as_xyz
  1  'x, y, z'
loop_
 _atom_site_type_symbol
 _atom_site_label
 _atom_site_symmetry_multiplicity
 _atom_site_fract_x
 _atom_site_fract_y
 _atom_site_fract_z
 _atom_site_occupancy
  Na  Na0  1  0.00809220  0.00809220  0.00809220  1
  Na  Na1  1  0.99190880  0.50809120  0.49190880  1
  Na  Na2  1  0.24190880  0.24190880  0.24190880  1
  Na  Na3  1  0.25809120  0.75809120  0.74190880  1
  Na  Na4  1  0.49190880  0.99190880  0.50809120  1
  Na  Na5  1  0.50809120  0.49190880  0.99190880  1
  Na  Na6  1  0.74190880  0.25809120  0.75809120  1
  Na  Na7  1  0.75809120  0.74190880  0.25809120  1
  Sb  Sb8  1  0.11872074  0.13127926  0.62500000  1
  Sb  Sb9  1  0.13127926  0.62500000  0.11872074  1
  Sb  Sb10  1  0.12500000  0.38127926  0.86872074  1
  Sb  Sb11  1  0.36872074  0.37500000  0.61872074  1
  Sb  Sb12  1  0.37500000  0.61872074  0.36872074  1
  Sb  Sb13  1  0.38127926  0.86872074  0.12500000  1
  Sb  Sb14  1  0.62500000  0.11872074  0.13127926  1
  Sb  Sb15  1  0.61872074  0.36872074  0.37500000  1
  Sb  Sb16  1  0.63127926  0.87500000  0.88127926  1
  Sb  Sb17  1  0.86872074  0.12500000  0.38127926  1
  Sb  Sb18  1  0.88127926  0.63127926  0.87500000  1
  Sb  Sb19  1  0.87500000  0.88127926  0.63127926  1
  O  O20  1  0.08232975  0.14596001  0.40722773  1
  O  O21  1  0.14596001  0.40722773  0.08232975  1
  O  O22  1  0.10403999  0.16767025  0.84277227  1
  O  O23  1  0.16767025  0.84277227  0.10403999  1
  O  O24  1  0.13653270  0.36346730  0.63653270  1
  O  O25  1  0.15722773  0.60403999  0.33232975  1
  O  O26  1  0.09277227  0.91767025  0.64596001  1
  O  O27  1  0.11346730  0.61346730  0.88653270  1
  O  O28  1  0.40722773  0.08232975  0.14596001  1
  O  O29  1  0.33232975  0.15722773  0.60403999  1
  O  O30  1  0.38653270  0.38653270  0.38653270  1
  O  O31  1  0.34277227  0.39596001  0.83232975  1
  O  O32  1  0.36346730  0.63653270  0.13653270  1
  O  O33  1  0.39596001  0.83232975  0.34277227  1
  O  O34  1  0.35403999  0.59277227  0.58232975  1
  O  O35  1  0.41767025  0.85403999  0.90722773  1
  O  O36  1  0.63653270  0.13653270  0.36346730  1
  O  O37  1  0.60403999  0.33232975  0.15722773  1
  O  O38  1  0.58232975  0.35403999  0.59277227  1
  O  O39  1  0.59277227  0.58232975  0.35403999  1
  O  O40  1  0.64596001  0.09277227  0.91767025  1
  O  O41  1  0.66767025  0.65722773  0.89596001  1
  O  O42  1  0.61346730  0.88653270  0.11346730  1
  O  O43  1  0.65722773  0.89596001  0.66767025  1
  O  O44  1  0.84277227  0.10403999  0.16767025  1
  O  O45  1  0.88653270  0.11346730  0.61346730  1
  O  O46  1  0.83232975  0.34277227  0.39596001  1
  O  O47  1  0.91767025  0.64596001  0.09277227  1
  O  O48  1  0.89596001  0.66767025  0.65722773  1
  O  O49  1  0.90722773  0.41767025  0.85403999  1
  O  O50  1  0.85403999  0.90722773  0.41767025  1
  O  O51  1  0.86346730  0.86346730  0.86346730  1
