# generated using pymatgen
data_Ca2TaMoO6
_symmetry_space_group_name_H-M   'P 1'
_cell_length_a   5.57451801
_cell_length_b   5.75188739
_cell_length_c   7.95891654
_cell_angle_alpha   90.00000000
_cell_angle_beta   90.00000000
_cell_angle_gamma   89.62921065
_symmetry_Int_Tables_number   1
_chemical_formula_structural   Ca2TaMoO6
_chemical_formula_sum   'Ca4 Ta2 Mo2 O12'
_cell_volume   255.18935494
_cell_formula_units_Z   2
loop_
 _symmetry_equiv_pos_site_id
 _symmetry_equiv_pos_as_xyz
  1  'x, y, z'
loop_
 _atom_site_type_symbol
 _atom_site_label
 _atom_site_symmetry_multiplicity
 _atom_site_fract_x
 _atom_site_fract_y
 _atom_site_fract_z
 _atom_site_occupancy
  Ca  Ca0  1  0.00980138  0.95618453  0.25000000  1
  Ca  Ca1  1  0.49041328  0.43790800  0.25000000  1
  Ca  Ca2  1  0.50958672  0.56209200  0.75000000  1
  Ca  Ca3  1  0.99019862  0.04381547  0.75000000  1
  Ta  Ta4  1  0.00000000  0.50000000  0.00000000  1
  Ta  Ta5  1  0.00000000  0.50000000  0.50000000  1
  Mo  Mo6  1  0.50000000  0.00000000  0.00000000  1
  Mo  Mo7  1  0.50000000  0.00000000  0.50000000  1
  O  O8  1  0.81317034  0.78581468  0.55236029  1
  O  O9  1  0.28965350  0.68827681  0.45030360  1
  O  O10  1  0.18682966  0.21418532  0.44763971  1
  O  O11  1  0.71034650  0.31172319  0.95030360  1
  O  O12  1  0.09305192  0.46686469  0.75000000  1
  O  O13  1  0.71034650  0.31172319  0.54969640  1
  O  O14  1  0.28965350  0.68827681  0.04969640  1
  O  O15  1  0.81317034  0.78581468  0.94763971  1
  O  O16  1  0.61796370  0.04834082  0.25000000  1
  O  O17  1  0.18682966  0.21418532  0.05236029  1
  O  O18  1  0.38203630  0.95165918  0.75000000  1
  O  O19  1  0.90694808  0.53313531  0.25000000  1
