# generated using pymatgen
data_LiFe2F7
_symmetry_space_group_name_H-M   'P 1'
_cell_length_a   10.11638536
_cell_length_b   7.57014602
_cell_length_c   8.01565270
_cell_angle_alpha   90.00000000
_cell_angle_beta   90.00000000
_cell_angle_gamma   90.00000000
_symmetry_Int_Tables_number   1
_chemical_formula_structural   LiFe2F7
_chemical_formula_sum   'Li4 Fe8 F28'
_cell_volume   613.85883808
_cell_formula_units_Z   4
loop_
 _symmetry_equiv_pos_site_id
 _symmetry_equiv_pos_as_xyz
  1  'x, y, z'
loop_
 _atom_site_type_symbol
 _atom_site_label
 _atom_site_symmetry_multiplicity
 _atom_site_fract_x
 _atom_site_fract_y
 _atom_site_fract_z
 _atom_site_occupancy
  Li  Li0  1  0.14262192  0.36963309  0.61391609  1
  Li  Li1  1  0.35737808  0.86963309  0.11391609  1
  Li  Li2  1  0.64262192  0.13036691  0.61391609  1
  Li  Li3  1  0.85737808  0.63036691  0.11391609  1
  Fe  Fe4  1  0.10199340  0.95405193  0.78496578  1
  Fe  Fe5  1  0.11927174  0.31789622  0.04295320  1
  Fe  Fe6  1  0.38072826  0.81789622  0.54295320  1
  Fe  Fe7  1  0.39800660  0.45405193  0.28496578  1
  Fe  Fe8  1  0.60199340  0.54594807  0.78496578  1
  Fe  Fe9  1  0.61927174  0.18210378  0.04295320  1
  Fe  Fe10  1  0.88072826  0.68210378  0.54295320  1
  Fe  Fe11  1  0.89800660  0.04594807  0.28496578  1
  F  F12  1  0.95543470  0.80244719  0.75209788  1
  F  F13  1  0.01665231  0.13849607  0.92668403  1
  F  F14  1  0.12017069  0.12006327  0.61803337  1
  F  F15  1  0.02852363  0.52331279  0.09234146  1
  F  F16  1  0.22840511  0.94284728  0.95361337  1
  F  F17  1  0.30577212  0.88954799  0.34285823  1
  F  F18  1  0.21278569  0.78688018  0.65213558  1
  F  F19  1  0.28721431  0.28688018  0.15213558  1
  F  F20  1  0.19422788  0.38954799  0.84285823  1
  F  F21  1  0.27159489  0.44284728  0.45361337  1
  F  F22  1  0.47147637  0.02331279  0.59234146  1
  F  F23  1  0.37982931  0.62006327  0.11803337  1
  F  F24  1  0.48334769  0.63849607  0.42668403  1
  F  F25  1  0.54456530  0.30244719  0.25209788  1
  F  F26  1  0.45543470  0.69755281  0.75209788  1
  F  F27  1  0.51665231  0.36150393  0.92668403  1
  F  F28  1  0.62017069  0.37993673  0.61803337  1
  F  F29  1  0.52852363  0.97668721  0.09234146  1
  F  F30  1  0.72840511  0.55715272  0.95361337  1
  F  F31  1  0.80577212  0.61045201  0.34285823  1
  F  F32  1  0.71278569  0.71311982  0.65213558  1
  F  F33  1  0.78721431  0.21311982  0.15213558  1
  F  F34  1  0.69422788  0.11045201  0.84285823  1
  F  F35  1  0.77159489  0.05715272  0.45361337  1
  F  F36  1  0.97147637  0.47668721  0.59234146  1
  F  F37  1  0.87982931  0.87993673  0.11803337  1
  F  F38  1  0.98334769  0.86150393  0.42668403  1
  F  F39  1  0.04456530  0.19755281  0.25209788  1
