# generated using pymatgen
data_K2Hg3(GeS4)2
_symmetry_space_group_name_H-M   'P 1'
_cell_length_a   6.55284454
_cell_length_b   6.55284454
_cell_length_c   19.66467867
_cell_angle_alpha   90.00000000
_cell_angle_beta   90.00000000
_cell_angle_gamma   96.90135787
_symmetry_Int_Tables_number   1
_chemical_formula_structural   K2Hg3(GeS4)2
_chemical_formula_sum   'K4 Hg6 Ge4 S16'
_cell_volume   838.27872877
_cell_formula_units_Z   2
loop_
 _symmetry_equiv_pos_site_id
 _symmetry_equiv_pos_as_xyz
  1  'x, y, z'
loop_
 _atom_site_type_symbol
 _atom_site_label
 _atom_site_symmetry_multiplicity
 _atom_site_fract_x
 _atom_site_fract_y
 _atom_site_fract_z
 _atom_site_occupancy
  S  S0  1  0.79344565  0.58976122  0.36744098  1
  S  S1  1  0.58976122  0.79344565  0.63255902  1
  S  S2  1  0.29344565  0.08976122  0.13255902  1
  S  S3  1  0.08976122  0.29344565  0.86744098  1
  S  S4  1  0.67841753  0.71455149  0.12665778  1
  S  S5  1  0.71455149  0.67841753  0.87334222  1
  S  S6  1  0.17841753  0.21455149  0.37334222  1
  S  S7  1  0.21455149  0.17841753  0.62665778  1
  S  S8  1  0.75344478  0.21041473  0.04030536  1
  S  S9  1  0.21041473  0.75344478  0.95969464  1
  S  S10  1  0.25344478  0.71041473  0.45969464  1
  S  S11  1  0.71041473  0.25344478  0.54030536  1
  S  S12  1  0.77498522  0.18957877  0.22900834  1
  S  S13  1  0.18957877  0.77498522  0.77099166  1
  S  S14  1  0.68957877  0.27498522  0.72900834  1
  S  S15  1  0.27498522  0.68957877  0.27099166  1
  K  K16  1  0.15292156  0.54955713  0.11530747  1
  K  K17  1  0.54955713  0.15292156  0.88469253  1
  K  K18  1  0.65292156  0.04955713  0.38469253  1
  K  K19  1  0.04955713  0.65292156  0.61530747  1
  Ge  Ge20  1  0.63029661  0.04797430  0.13711728  1
  Ge  Ge21  1  0.04797430  0.63029661  0.86288272  1
  Ge  Ge22  1  0.13029661  0.54797430  0.36288272  1
  Ge  Ge23  1  0.54797430  0.13029661  0.63711728  1
  Hg  Hg24  1  0.69685494  0.60548244  0.24623975  1
  Hg  Hg25  1  0.60548244  0.69685494  0.75376025  1
  Hg  Hg26  1  0.19685494  0.10548244  0.25376025  1
  Hg  Hg27  1  0.10548244  0.19685494  0.74623975  1
  Hg  Hg28  1  0.97901364  0.97901364  0.00000000  1
  Hg  Hg29  1  0.47901364  0.47901364  0.50000000  1
