# generated using pymatgen
data_Mg2NiIrO6
_symmetry_space_group_name_H-M   'P 1'
_cell_length_a   5.10961176
_cell_length_b   5.32233665
_cell_length_c   7.53910301
_cell_angle_alpha   90.00000000
_cell_angle_beta   90.04668321
_cell_angle_gamma   90.00000000
_symmetry_Int_Tables_number   1
_chemical_formula_structural   Mg2NiIrO6
_chemical_formula_sum   'Mg4 Ni2 Ir2 O12'
_cell_volume   205.02639584
_cell_formula_units_Z   2
loop_
 _symmetry_equiv_pos_site_id
 _symmetry_equiv_pos_as_xyz
  1  'x, y, z'
loop_
 _atom_site_type_symbol
 _atom_site_label
 _atom_site_symmetry_multiplicity
 _atom_site_fract_x
 _atom_site_fract_y
 _atom_site_fract_z
 _atom_site_occupancy
  Mg  Mg0  1  0.01302405  0.93582381  0.24853489  1
  Mg  Mg1  1  0.48697595  0.43582381  0.25146511  1
  Mg  Mg2  1  0.51302405  0.56417619  0.74853489  1
  Mg  Mg3  1  0.98697595  0.06417619  0.75146511  1
  Ni  Ni4  1  0.00000000  0.50000000  0.00000000  1
  Ni  Ni5  1  0.50000000  0.00000000  0.50000000  1
  Ir  Ir6  1  0.00000000  0.50000000  0.50000000  1
  Ir  Ir7  1  0.50000000  0.00000000  0.00000000  1
  O  O8  1  0.13728191  0.43170914  0.74170650  1
  O  O9  1  0.18800048  0.18108287  0.07014818  1
  O  O10  1  0.17241374  0.19133789  0.42454460  1
  O  O11  1  0.32758626  0.69133789  0.07545540  1
  O  O12  1  0.31199952  0.68108287  0.42985182  1
  O  O13  1  0.36271809  0.93170914  0.75829350  1
  O  O14  1  0.63728191  0.06829086  0.24170650  1
  O  O15  1  0.68800048  0.31891713  0.57014818  1
  O  O16  1  0.67241374  0.30866211  0.92454460  1
  O  O17  1  0.81199952  0.81891713  0.92985182  1
  O  O18  1  0.82758626  0.80866211  0.57545540  1
  O  O19  1  0.86271809  0.56829086  0.25829350  1
