# generated using pymatgen
data_SmNiP
_symmetry_space_group_name_H-M   'P 1'
_cell_length_a   3.94380388
_cell_length_b   3.94380388
_cell_length_c   15.87557050
_cell_angle_alpha   90.00000000
_cell_angle_beta   90.00000000
_cell_angle_gamma   119.98695081
_symmetry_Int_Tables_number   1
_chemical_formula_structural   SmNiP
_chemical_formula_sum   'Sm4 Ni4 P4'
_cell_volume   213.86892324
_cell_formula_units_Z   4
loop_
 _symmetry_equiv_pos_site_id
 _symmetry_equiv_pos_as_xyz
  1  'x, y, z'
loop_
 _atom_site_type_symbol
 _atom_site_label
 _atom_site_symmetry_multiplicity
 _atom_site_fract_x
 _atom_site_fract_y
 _atom_site_fract_z
 _atom_site_occupancy
  Sm  Sm0  1  -0.00000000  0.00000000  0.50000000  1
  Sm  Sm1  1  -0.00000000  0.00000000  -0.00000000  1
  Sm  Sm2  1  0.00000018  -0.00000018  0.75000000  1
  Sm  Sm3  1  -0.00000018  0.00000018  0.25000000  1
  Ni  Ni4  1  0.66664318  0.33335682  0.62720962  1
  Ni  Ni5  1  0.33335682  0.66664318  0.37279038  1
  Ni  Ni6  1  0.33335682  0.66664318  0.12720962  1
  Ni  Ni7  1  0.66664318  0.33335682  0.87279038  1
  P  P8  1  0.66656670  0.33343330  0.12498050  1
  P  P9  1  0.33343330  0.66656670  0.87501950  1
  P  P10  1  0.33343330  0.66656670  0.62498050  1
  P  P11  1  0.66656670  0.33343330  0.37501950  1
