# generated using pymatgen
data_TbBiRh
_symmetry_space_group_name_H-M   'P 1'
_cell_length_a   3.99845831
_cell_length_b   7.70892181
_cell_length_c   7.70892181
_cell_angle_alpha   119.99999338
_cell_angle_beta   90.00000000
_cell_angle_gamma   90.00000000
_symmetry_Int_Tables_number   1
_chemical_formula_structural   TbBiRh
_chemical_formula_sum   'Tb3 Bi3 Rh3'
_cell_volume   205.78348328
_cell_formula_units_Z   3
loop_
 _symmetry_equiv_pos_site_id
 _symmetry_equiv_pos_as_xyz
  1  'x, y, z'
loop_
 _atom_site_type_symbol
 _atom_site_label
 _atom_site_symmetry_multiplicity
 _atom_site_fract_x
 _atom_site_fract_y
 _atom_site_fract_z
 _atom_site_occupancy
  Tb  Tb0  1  0.00000000  0.40231243  0.40231243  1
  Tb  Tb1  1  0.00000000  1.00000000  0.59768757  1
  Tb  Tb2  1  -0.00000000  0.59768757  1.00000000  1
  Bi  Bi3  1  0.50000000  0.73621518  0.73621518  1
  Bi  Bi4  1  0.50000000  1.00000000  0.26378482  1
  Bi  Bi5  1  0.50000000  0.26378482  1.00000000  1
  Rh  Rh6  1  0.50000000  0.66666700  0.33333300  1
  Rh  Rh7  1  0.50000000  0.33333300  0.66666700  1
  Rh  Rh8  1  0.00000000  0.00000000  -0.00000000  1
