# generated using pymatgen
data_Li9Mn2Co5O16
_symmetry_space_group_name_H-M   'P 1'
_cell_length_a   5.81546423
_cell_length_b   5.93884672
_cell_length_c   10.19013135
_cell_angle_alpha   105.94658270
_cell_angle_beta   106.57964250
_cell_angle_gamma   60.68490338
_symmetry_Int_Tables_number   1
_chemical_formula_structural   Li9Mn2Co5O16
_chemical_formula_sum   'Li9 Mn2 Co5 O16'
_cell_volume   290.24586706
_cell_formula_units_Z   1
loop_
 _symmetry_equiv_pos_site_id
 _symmetry_equiv_pos_as_xyz
  1  'x, y, z'
loop_
 _atom_site_type_symbol
 _atom_site_label
 _atom_site_symmetry_multiplicity
 _atom_site_fract_x
 _atom_site_fract_y
 _atom_site_fract_z
 _atom_site_occupancy
  Li  Li0  1  0.50000000  0.50000000  0.00000000  1
  Li  Li1  1  0.00000000  0.50000000  0.00000000  1
  Li  Li2  1  0.25985411  0.75285372  0.27256194  1
  Li  Li3  1  0.75518572  0.75064508  0.26101652  1
  Li  Li4  1  0.00000000  -0.00000000  0.50000000  1
  Li  Li5  1  0.50000000  -0.00000000  0.50000000  1
  Li  Li6  1  0.74014589  0.24714628  0.72743806  1
  Li  Li7  1  0.24481428  0.24935492  0.73898348  1
  Li  Li8  1  0.50000000  0.50000000  0.50000000  1
  Mn  Mn9  1  0.00000000  -0.00000000  0.00000000  1
  Mn  Mn10  1  0.50000000  -0.00000000  0.00000000  1
  Co  Co11  1  0.74742532  0.25580146  0.25954922  1
  Co  Co12  1  0.25632244  0.25580146  0.25954922  1
  Co  Co13  1  0.00000000  0.50000000  0.50000000  1
  Co  Co14  1  0.25257468  0.74419854  0.74045078  1
  Co  Co15  1  0.74367756  0.74419854  0.74045078  1
  O  O16  1  0.63930519  0.11321829  0.89021414  1
  O  O17  1  0.13769066  0.11321829  0.89021414  1
  O  O18  1  0.38917675  0.33953014  0.11788364  1
  O  O19  1  0.89818091  0.32934721  0.12570902  1
  O  O20  1  0.12898050  0.59878086  0.37149458  1
  O  O21  1  0.64373322  0.59878086  0.37149458  1
  O  O22  1  0.87880875  0.86698353  0.62460102  1
  O  O23  1  0.38236247  0.87668670  0.64141164  1
  O  O24  1  0.36069481  0.88678171  0.10978586  1
  O  O25  1  0.86230934  0.88678171  0.10978586  1
  O  O26  1  0.12119125  0.13301647  0.37539898  1
  O  O27  1  0.61763753  0.12331330  0.35858836  1
  O  O28  1  0.87101950  0.40121914  0.62850542  1
  O  O29  1  0.35626678  0.40121914  0.62850542  1
  O  O30  1  0.61082325  0.66046986  0.88211636  1
  O  O31  1  0.10181909  0.67065279  0.87429098  1
