# generated using pymatgen
data_Ca2FeIrO6
_symmetry_space_group_name_H-M   'P 1'
_cell_length_a   5.41565358
_cell_length_b   5.60453605
_cell_length_c   7.72885007
_cell_angle_alpha   90.00000000
_cell_angle_beta   89.96210450
_cell_angle_gamma   90.00000000
_symmetry_Int_Tables_number   1
_chemical_formula_structural   Ca2FeIrO6
_chemical_formula_sum   'Ca4 Fe2 Ir2 O12'
_cell_volume   234.58775069
_cell_formula_units_Z   2
loop_
 _symmetry_equiv_pos_site_id
 _symmetry_equiv_pos_as_xyz
  1  'x, y, z'
loop_
 _atom_site_type_symbol
 _atom_site_label
 _atom_site_symmetry_multiplicity
 _atom_site_fract_x
 _atom_site_fract_y
 _atom_site_fract_z
 _atom_site_occupancy
  Ca  Ca0  1  0.01507294  0.94105393  0.24918133  1
  Ca  Ca1  1  0.48492706  0.44105393  0.25081867  1
  Ca  Ca2  1  0.51507294  0.55894607  0.74918133  1
  Ca  Ca3  1  0.98492706  0.05894607  0.75081867  1
  Fe  Fe4  1  0.00000000  0.50000000  0.00000000  1
  Fe  Fe5  1  0.50000000  0.00000000  0.50000000  1
  Ir  Ir6  1  0.00000000  0.50000000  0.50000000  1
  Ir  Ir7  1  0.50000000  0.00000000  0.00000000  1
  O  O8  1  0.09580625  0.47148691  0.74798732  1
  O  O9  1  0.20105781  0.20071042  0.04890314  1
  O  O10  1  0.19390057  0.20653809  0.44973580  1
  O  O11  1  0.30609943  0.70653809  0.05026420  1
  O  O12  1  0.29894219  0.70071042  0.45109686  1
  O  O13  1  0.40419375  0.97148691  0.75201268  1
  O  O14  1  0.59580625  0.02851309  0.24798732  1
  O  O15  1  0.70105781  0.29928958  0.54890314  1
  O  O16  1  0.69390057  0.29346191  0.94973580  1
  O  O17  1  0.79894219  0.79928958  0.95109686  1
  O  O18  1  0.80609943  0.79346191  0.55026420  1
  O  O19  1  0.90419375  0.52851309  0.25201268  1
