# generated using pymatgen
data_LiMnPO4
_symmetry_space_group_name_H-M   'P 1'
_cell_length_a   7.92596427
_cell_length_b   17.35440632
_cell_length_c   4.90192631
_cell_angle_alpha   90.00000000
_cell_angle_beta   90.00000000
_cell_angle_gamma   90.00000000
_symmetry_Int_Tables_number   1
_chemical_formula_structural   LiMnPO4
_chemical_formula_sum   'Li8 Mn8 P8 O32'
_cell_volume   674.26194637
_cell_formula_units_Z   8
loop_
 _symmetry_equiv_pos_site_id
 _symmetry_equiv_pos_as_xyz
  1  'x, y, z'
loop_
 _atom_site_type_symbol
 _atom_site_label
 _atom_site_symmetry_multiplicity
 _atom_site_fract_x
 _atom_site_fract_y
 _atom_site_fract_z
 _atom_site_occupancy
  Li  Li0  1  0.01839357  0.44394869  0.71391345  1
  Li  Li1  1  0.16965251  0.85630409  0.24170581  1
  Li  Li2  1  0.33034749  0.35630409  0.74170581  1
  Li  Li3  1  0.48160643  0.94394869  0.21391345  1
  Li  Li4  1  0.51839357  0.05605131  0.71391345  1
  Li  Li5  1  0.66965251  0.64369591  0.24170581  1
  Li  Li6  1  0.83034749  0.14369591  0.74170581  1
  Li  Li7  1  0.98160643  0.55605131  0.21391345  1
  Mn  Mn8  1  0.07607334  0.25681421  0.28170263  1
  Mn  Mn9  1  0.15081100  0.05246977  0.27724267  1
  Mn  Mn10  1  0.34918900  0.55246977  0.77724267  1
  Mn  Mn11  1  0.42392666  0.75681421  0.78170263  1
  Mn  Mn12  1  0.57607334  0.24318579  0.28170263  1
  Mn  Mn13  1  0.65081100  0.44753023  0.27724267  1
  Mn  Mn14  1  0.84918900  0.94753023  0.77724267  1
  Mn  Mn15  1  0.92392666  0.74318579  0.78170263  1
  P  P16  1  0.21366450  0.17535573  0.71420502  1
  P  P17  1  0.24033847  0.43125967  0.21744476  1
  P  P18  1  0.25966153  0.93125967  0.71744476  1
  P  P19  1  0.28633550  0.67535573  0.21420502  1
  P  P20  1  0.71366450  0.32464427  0.71420502  1
  P  P21  1  0.74033847  0.06874033  0.21744476  1
  P  P22  1  0.75966153  0.56874033  0.71744476  1
  P  P23  1  0.78633550  0.82464427  0.21420502  1
  O  O24  1  0.05189223  0.14697320  0.55577791  1
  O  O25  1  0.08891644  0.46795256  0.07601947  1
  O  O26  1  0.09365612  0.96553931  0.58942792  1
  O  O27  1  0.13343085  0.63291463  0.09734007  1
  O  O28  1  0.18890733  0.16483108  0.02935476  1
  O  O29  1  0.24073692  0.44667445  0.53068808  1
  O  O30  1  0.22317562  0.26235535  0.64352828  1
  O  O31  1  0.24044007  0.34316475  0.14737116  1
  O  O32  1  0.25955993  0.84316475  0.64737116  1
  O  O33  1  0.27682438  0.76235535  0.14352828  1
  O  O34  1  0.25926308  0.94667445  0.03068808  1
  O  O35  1  0.31109267  0.66483108  0.52935476  1
  O  O36  1  0.36656915  0.13291463  0.59734007  1
  O  O37  1  0.40634388  0.46553931  0.08942792  1
  O  O38  1  0.41108356  0.96795256  0.57601947  1
  O  O39  1  0.44810777  0.64697320  0.05577791  1
  O  O40  1  0.55189223  0.35302680  0.55577791  1
  O  O41  1  0.58891644  0.03204744  0.07601947  1
  O  O42  1  0.59365612  0.53446069  0.58942792  1
  O  O43  1  0.63343085  0.86708537  0.09734007  1
  O  O44  1  0.68890733  0.33516892  0.02935476  1
  O  O45  1  0.74073692  0.05332555  0.53068808  1
  O  O46  1  0.72317562  0.23764465  0.64352828  1
  O  O47  1  0.74044007  0.15683525  0.14737116  1
  O  O48  1  0.75955993  0.65683525  0.64737116  1
  O  O49  1  0.77682438  0.73764465  0.14352828  1
  O  O50  1  0.75926308  0.55332555  0.03068808  1
  O  O51  1  0.81109267  0.83516892  0.52935476  1
  O  O52  1  0.86656915  0.36708537  0.59734007  1
  O  O53  1  0.90634388  0.03446069  0.08942792  1
  O  O54  1  0.91108356  0.53204744  0.57601947  1
  O  O55  1  0.94810777  0.85302680  0.05577791  1
