# generated using pymatgen
data_Si6Ni3Au
_symmetry_space_group_name_H-M   'P 1'
_cell_length_a   3.78565458
_cell_length_b   3.78565458
_cell_length_c   11.57285869
_cell_angle_alpha   80.58655750
_cell_angle_beta   80.58655750
_cell_angle_gamma   60.00000415
_symmetry_Int_Tables_number   1
_chemical_formula_structural   Si6Ni3Au
_chemical_formula_sum   'Si6 Ni3 Au1'
_cell_volume   141.04787552
_cell_formula_units_Z   1
loop_
 _symmetry_equiv_pos_site_id
 _symmetry_equiv_pos_as_xyz
  1  'x, y, z'
loop_
 _atom_site_type_symbol
 _atom_site_label
 _atom_site_symmetry_multiplicity
 _atom_site_fract_x
 _atom_site_fract_y
 _atom_site_fract_z
 _atom_site_occupancy
  Si  Si0  1  0.28630466  0.28630466  0.14108601  1
  Si  Si1  1  0.71369534  0.71369534  0.85891399  1
  Si  Si2  1  0.43021613  0.43021613  0.70935160  1
  Si  Si3  1  0.56978387  0.56978387  0.29064840  1
  Si  Si4  1  0.14234011  0.14234011  0.57297966  1
  Si  Si5  1  0.85765989  0.85765989  0.42702034  1
  Ni  Ni6  1  0.50000000  0.50000000  0.50000000  1
  Ni  Ni7  1  0.07517079  0.07517079  0.77448764  1
  Ni  Ni8  1  0.92482921  0.92482921  0.22551236  1
  Au  Au9  1  -0.00000000  -0.00000000  0.00000000  1
