# generated using pymatgen
data_CrB
_symmetry_space_group_name_H-M   'P 1'
_cell_length_a   2.91362962
_cell_length_b   2.91362962
_cell_length_c   8.10668601
_cell_angle_alpha   100.35260045
_cell_angle_beta   100.35260045
_cell_angle_gamma   90.00000000
_symmetry_Int_Tables_number   1
_chemical_formula_structural   CrB
_chemical_formula_sum   'Cr4 B4'
_cell_volume   66.56002773
_cell_formula_units_Z   4
loop_
 _symmetry_equiv_pos_site_id
 _symmetry_equiv_pos_as_xyz
  1  'x, y, z'
loop_
 _atom_site_type_symbol
 _atom_site_label
 _atom_site_symmetry_multiplicity
 _atom_site_fract_x
 _atom_site_fract_y
 _atom_site_fract_z
 _atom_site_occupancy
  Cr  Cr0  1  0.57259543  0.82259543  0.14519086  1
  Cr  Cr1  1  0.82259543  0.57259543  0.64519086  1
  Cr  Cr2  1  0.42740457  0.17740457  0.85480914  1
  Cr  Cr3  1  0.17740457  0.42740457  0.35480914  1
  B  B4  1  0.71768961  0.96768961  0.43537922  1
  B  B5  1  0.96768961  0.71768961  0.93537922  1
  B  B6  1  0.28231039  0.03231039  0.56462078  1
  B  B7  1  0.03231039  0.28231039  0.06462078  1
