# generated using pymatgen
data_Mn3Zn2O8
_symmetry_space_group_name_H-M   'P 1'
_cell_length_a   4.97342180
_cell_length_b   5.78093760
_cell_length_c   5.77342447
_cell_angle_alpha   120.04305791
_cell_angle_beta   101.99184431
_cell_angle_gamma   89.99999723
_symmetry_Int_Tables_number   1
_chemical_formula_structural   Mn3Zn2O8
_chemical_formula_sum   'Mn3 Zn2 O8'
_cell_volume   139.49049714
_cell_formula_units_Z   1
loop_
 _symmetry_equiv_pos_site_id
 _symmetry_equiv_pos_as_xyz
  1  'x, y, z'
loop_
 _atom_site_type_symbol
 _atom_site_label
 _atom_site_symmetry_multiplicity
 _atom_site_fract_x
 _atom_site_fract_y
 _atom_site_fract_z
 _atom_site_occupancy
  Mn  Mn0  1  0.50000000  0.99999900  0.00000000  1
  Mn  Mn1  1  0.99999900  0.74407873  0.00000000  1
  Mn  Mn2  1  0.99999900  0.25592127  1.00000000  1
  Zn  Zn3  1  0.61910790  0.71178289  0.42356477  1
  Zn  Zn4  1  0.38089110  0.28821811  0.57643523  1
  O  O5  1  0.08883358  0.39274821  0.78549742  1
  O  O6  1  0.91116642  0.60725079  0.21450258  1
  O  O7  1  0.11990000  0.89923206  0.79846412  1
  O  O8  1  0.88010000  0.10076694  0.20153488  1
  O  O9  1  0.37557448  0.34156986  0.22964266  1
  O  O10  1  0.37557448  0.88807280  0.22964266  1
  O  O11  1  0.62442652  0.11192620  0.77035734  1
  O  O12  1  0.62442652  0.65843014  0.77035734  1
