# generated using pymatgen
data_Nb3S4
_symmetry_space_group_name_H-M   'P 1'
_cell_length_a   9.66783137
_cell_length_b   9.66783137
_cell_length_c   3.40854550
_cell_angle_alpha   90.00000000
_cell_angle_beta   90.00000000
_cell_angle_gamma   119.99999998
_symmetry_Int_Tables_number   1
_chemical_formula_structural   Nb3S4
_chemical_formula_sum   'Nb6 S8'
_cell_volume   275.90391350
_cell_formula_units_Z   2
loop_
 _symmetry_equiv_pos_site_id
 _symmetry_equiv_pos_as_xyz
  1  'x, y, z'
loop_
 _atom_site_type_symbol
 _atom_site_label
 _atom_site_symmetry_multiplicity
 _atom_site_fract_x
 _atom_site_fract_y
 _atom_site_fract_z
 _atom_site_occupancy
  S  S0  1  0.65373337  0.71074044  0.75000000  1
  S  S1  1  0.94299293  0.65373337  0.25000000  1
  S  S2  1  0.71074044  0.05700707  0.25000000  1
  S  S3  1  0.28925956  0.94299293  0.75000000  1
  S  S4  1  0.05700707  0.34626663  0.75000000  1
  S  S5  1  0.34626663  0.28925956  0.25000000  1
  S  S6  1  0.33333333  0.66666667  0.25000000  1
  S  S7  1  0.66666667  0.33333333  0.75000000  1
  Nb  Nb8  1  0.51388537  0.88505931  0.75000000  1
  Nb  Nb9  1  0.62882606  0.51388537  0.25000000  1
  Nb  Nb10  1  0.88505931  0.37117394  0.25000000  1
  Nb  Nb11  1  0.11494069  0.62882606  0.75000000  1
  Nb  Nb12  1  0.37117394  0.48611463  0.75000000  1
  Nb  Nb13  1  0.48611463  0.11494069  0.25000000  1
