# generated using pymatgen
data_DyTl(WO4)2
_symmetry_space_group_name_H-M   'P 1'
_cell_length_a   7.64160082
_cell_length_b   7.64160082
_cell_length_c   7.46694660
_cell_angle_alpha   62.49395793
_cell_angle_beta   62.49395793
_cell_angle_gamma   88.61936973
_symmetry_Int_Tables_number   1
_chemical_formula_structural   DyTl(WO4)2
_chemical_formula_sum   'Dy2 Tl2 W4 O16'
_cell_volume   332.95371739
_cell_formula_units_Z   2
loop_
 _symmetry_equiv_pos_site_id
 _symmetry_equiv_pos_as_xyz
  1  'x, y, z'
loop_
 _atom_site_type_symbol
 _atom_site_label
 _atom_site_symmetry_multiplicity
 _atom_site_fract_x
 _atom_site_fract_y
 _atom_site_fract_z
 _atom_site_occupancy
  Dy  Dy0  1  0.22391581  0.77608419  0.75000000  1
  Dy  Dy1  1  0.77608419  0.22391581  0.25000000  1
  Tl  Tl2  1  0.79513989  0.20486011  0.75000000  1
  Tl  Tl3  1  0.20486011  0.79513989  0.25000000  1
  W  W4  1  0.29913610  0.31044556  0.71788084  1
  W  W5  1  0.70086390  0.68955444  0.28211916  1
  W  W6  1  0.68955444  0.70086390  0.78211916  1
  W  W7  1  0.31044556  0.29913610  0.21788084  1
  O  O8  1  0.37968634  0.24523192  0.94185058  1
  O  O9  1  0.62031366  0.75476808  0.05814942  1
  O  O10  1  0.75476808  0.62031366  0.55814942  1
  O  O11  1  0.24523192  0.37968634  0.44185058  1
  O  O12  1  0.62488301  0.93748312  0.62293801  1
  O  O13  1  0.37511699  0.06251688  0.37706199  1
  O  O14  1  0.06251688  0.37511699  0.87706199  1
  O  O15  1  0.93748312  0.62488301  0.12293801  1
  O  O16  1  0.41015765  0.62979344  0.53391472  1
  O  O17  1  0.58984235  0.37020656  0.46608528  1
  O  O18  1  0.37020656  0.58984235  0.96608528  1
  O  O19  1  0.62979344  0.41015765  0.03391472  1
  O  O20  1  0.21670326  0.04537904  0.80953000  1
  O  O21  1  0.78329674  0.95462096  0.19047000  1
  O  O22  1  0.95462096  0.78329674  0.69047000  1
  O  O23  1  0.04537904  0.21670326  0.30953000  1
