# generated using pymatgen
data_Li6CoO4
_symmetry_space_group_name_H-M   'P 1'
_cell_length_a   4.69181946
_cell_length_b   6.58732702
_cell_length_c   6.58732702
_cell_angle_alpha   90.00000000
_cell_angle_beta   90.00000000
_cell_angle_gamma   90.00000000
_symmetry_Int_Tables_number   1
_chemical_formula_structural   Li6CoO4
_chemical_formula_sum   'Li12 Co2 O8'
_cell_volume   203.59154599
_cell_formula_units_Z   2
loop_
 _symmetry_equiv_pos_site_id
 _symmetry_equiv_pos_as_xyz
  1  'x, y, z'
loop_
 _atom_site_type_symbol
 _atom_site_label
 _atom_site_symmetry_multiplicity
 _atom_site_fract_x
 _atom_site_fract_y
 _atom_site_fract_z
 _atom_site_occupancy
  Li  Li0  1  0.75000045  0.03171491  0.96828592  1
  Li  Li1  1  0.24999944  0.53171457  0.03171491  1
  Li  Li2  1  0.24999944  0.96828592  0.46828626  1
  Li  Li3  1  0.75000045  0.46828626  0.53171457  1
  Li  Li4  1  0.24999944  0.96828592  0.03171491  1
  Li  Li5  1  0.75000045  0.46828626  0.96828592  1
  Li  Li6  1  0.75000045  0.03171491  0.53171457  1
  Li  Li7  1  0.24999944  0.53171457  0.46828626  1
  Li  Li8  1  0.29984558  0.74999948  0.74999948  1
  Li  Li9  1  0.79984659  0.74999948  0.74999948  1
  Li  Li10  1  0.70015431  0.24999983  0.24999983  1
  Li  Li11  1  0.20015330  0.24999983  0.24999983  1
  O  O12  1  0.96332203  0.48659897  0.24999983  1
  O  O13  1  0.96332203  0.01340221  0.24999983  1
  O  O14  1  0.53667887  0.74999948  0.51340186  1
  O  O15  1  0.03667786  0.98659863  0.74999948  1
  O  O16  1  0.03667786  0.51340186  0.74999948  1
  O  O17  1  0.46332315  0.24999983  0.01340221  1
  O  O18  1  0.46332315  0.24999983  0.48659897  1
  O  O19  1  0.53667887  0.74999948  0.98659863  1
  Co  Co20  1  0.24999944  0.24999983  0.74999948  1
  Co  Co21  1  0.75000045  0.74999948  0.24999983  1
