# generated using pymatgen
data_CaGaGeH
_symmetry_space_group_name_H-M   'P 1'
_cell_length_a   4.15287422
_cell_length_b   4.15294543
_cell_length_c   4.79882093
_cell_angle_alpha   90.00000002
_cell_angle_beta   89.99891629
_cell_angle_gamma   120.00056518
_symmetry_Int_Tables_number   1
_chemical_formula_structural   CaGaGeH
_chemical_formula_sum   'Ca1 Ga1 Ge1 H1'
_cell_volume   71.67500051
_cell_formula_units_Z   1
loop_
 _symmetry_equiv_pos_site_id
 _symmetry_equiv_pos_as_xyz
  1  'x, y, z'
loop_
 _atom_site_type_symbol
 _atom_site_label
 _atom_site_symmetry_multiplicity
 _atom_site_fract_x
 _atom_site_fract_y
 _atom_site_fract_z
 _atom_site_occupancy
  Ca  Ca0  1  0.99999830  0.99999915  0.00001228  1
  Ga  Ga1  1  0.66662298  0.33331149  0.56510593  1
  Ge  Ge2  1  0.33337594  0.66668797  0.42438045  1
  H  H3  1  0.66660278  0.33330139  0.92930133  1
