# generated using pymatgen
data_Cs3P6N11
_symmetry_space_group_name_H-M   'P 1'
_cell_length_a   10.76828219
_cell_length_b   10.76828219
_cell_length_c   10.76828219
_cell_angle_alpha   90.00000000
_cell_angle_beta   90.00000000
_cell_angle_gamma   90.00000000
_symmetry_Int_Tables_number   1
_chemical_formula_structural   Cs3P6N11
_chemical_formula_sum   'Cs12 P24 N44'
_cell_volume   1248.64586705
_cell_formula_units_Z   4
loop_
 _symmetry_equiv_pos_site_id
 _symmetry_equiv_pos_as_xyz
  1  'x, y, z'
loop_
 _atom_site_type_symbol
 _atom_site_label
 _atom_site_symmetry_multiplicity
 _atom_site_fract_x
 _atom_site_fract_y
 _atom_site_fract_z
 _atom_site_occupancy
  N  N0  1  0.55781419  0.55781419  0.55781419  1
  N  N1  1  0.80781419  0.69218581  0.30781419  1
  N  N2  1  0.69218581  0.30781419  0.80781419  1
  N  N3  1  0.30781419  0.80781419  0.69218581  1
  N  N4  1  0.05781419  0.94218581  0.44218581  1
  N  N5  1  0.94218581  0.44218581  0.05781419  1
  N  N6  1  0.44218581  0.05781419  0.94218581  1
  N  N7  1  0.19218581  0.19218581  0.19218581  1
  N  N8  1  0.62500000  0.31769371  0.56769371  1
  N  N9  1  0.68230629  0.06769371  0.87500000  1
  N  N10  1  0.56769371  0.62500000  0.31769371  1
  N  N11  1  0.93230629  0.37500000  0.81769371  1
  N  N12  1  0.31769371  0.56769371  0.62500000  1
  N  N13  1  0.43230629  0.12500000  0.18230629  1
  N  N14  1  0.06769371  0.87500000  0.68230629  1
  N  N15  1  0.81769371  0.93230629  0.37500000  1
  N  N16  1  0.18230629  0.43230629  0.12500000  1
  N  N17  1  0.87500000  0.68230629  0.06769371  1
  N  N18  1  0.37500000  0.81769371  0.93230629  1
  N  N19  1  0.27468877  0.00762664  0.33429476  1
  N  N20  1  0.12500000  0.18230629  0.43230629  1
  N  N21  1  0.24237336  0.02468877  0.58429476  1
  N  N22  1  0.47531123  0.41570524  0.74237336  1
  N  N23  1  0.52468877  0.91570524  0.75762664  1
  N  N24  1  0.41570524  0.74237336  0.47531123  1
  N  N25  1  0.08429476  0.25762664  0.97531123  1
  N  N26  1  0.49237336  0.66570524  0.77468877  1
  N  N27  1  0.99237336  0.83429476  0.22531123  1
  N  N28  1  0.50762664  0.16570524  0.72531123  1
  N  N29  1  0.83429476  0.22531123  0.99237336  1
  N  N30  1  0.72531123  0.50762664  0.16570524  1
  N  N31  1  0.22531123  0.99237336  0.83429476  1
  N  N32  1  0.66570524  0.77468877  0.49237336  1
  N  N33  1  0.77468877  0.49237336  0.66570524  1
  N  N34  1  0.16570524  0.72531123  0.50762664  1
  N  N35  1  0.33429476  0.27468877  0.00762664  1
  N  N36  1  0.00762664  0.33429476  0.27468877  1
  N  N37  1  0.25762664  0.97531123  0.08429476  1
  N  N38  1  0.75762664  0.52468877  0.91570524  1
  N  N39  1  0.02468877  0.58429476  0.24237336  1
  N  N40  1  0.97531123  0.08429476  0.25762664  1
  N  N41  1  0.91570524  0.75762664  0.52468877  1
  N  N42  1  0.58429476  0.24237336  0.02468877  1
  N  N43  1  0.74237336  0.47531123  0.41570524  1
  P  P44  1  0.68161630  0.45796680  0.55086148  1
  P  P45  1  0.18161630  0.04203320  0.44913852  1
  P  P46  1  0.45796680  0.55086148  0.68161630  1
  P  P47  1  0.54203320  0.05086148  0.81838370  1
  P  P48  1  0.55086148  0.68161630  0.45796680  1
  P  P49  1  0.94913852  0.31838370  0.95796680  1
  P  P50  1  0.43161630  0.80086148  0.79203320  1
  P  P51  1  0.93161630  0.69913852  0.20796680  1
  P  P52  1  0.56838370  0.30086148  0.70796680  1
  P  P53  1  0.69913852  0.20796680  0.93161630  1
  P  P54  1  0.70796680  0.56838370  0.30086148  1
  P  P55  1  0.20796680  0.93161630  0.69913852  1
  P  P56  1  0.80086148  0.79203320  0.43161630  1
  P  P57  1  0.79203320  0.43161630  0.80086148  1
  P  P58  1  0.30086148  0.70796680  0.56838370  1
  P  P59  1  0.19913852  0.29203320  0.06838370  1
  P  P60  1  0.29203320  0.06838370  0.19913852  1
  P  P61  1  0.44913852  0.18161630  0.04203320  1
  P  P62  1  0.05086148  0.81838370  0.54203320  1
  P  P63  1  0.95796680  0.94913852  0.31838370  1
  P  P64  1  0.04203320  0.44913852  0.18161630  1
  P  P65  1  0.81838370  0.54203320  0.05086148  1
  P  P66  1  0.31838370  0.95796680  0.94913852  1
  P  P67  1  0.06838370  0.19913852  0.29203320  1
  Cs  Cs68  1  0.98021311  0.98021311  0.98021311  1
  Cs  Cs69  1  0.23021311  0.26978689  0.73021311  1
  Cs  Cs70  1  0.26978689  0.73021311  0.23021311  1
  Cs  Cs71  1  0.73021311  0.23021311  0.26978689  1
  Cs  Cs72  1  0.48021311  0.51978689  0.01978689  1
  Cs  Cs73  1  0.51978689  0.01978689  0.48021311  1
  Cs  Cs74  1  0.01978689  0.48021311  0.51978689  1
  Cs  Cs75  1  0.76978689  0.76978689  0.76978689  1
  Cs  Cs76  1  0.87500000  0.12500000  0.62500000  1
  Cs  Cs77  1  0.12500000  0.62500000  0.87500000  1
  Cs  Cs78  1  0.62500000  0.87500000  0.12500000  1
  Cs  Cs79  1  0.37500000  0.37500000  0.37500000  1
