# generated using pymatgen
data_PrNi5Sn
_symmetry_space_group_name_H-M   'P 1'
_cell_length_a   4.93106752
_cell_length_b   4.93106752
_cell_length_c   19.74810818
_cell_angle_alpha   90.00000000
_cell_angle_beta   90.00000000
_cell_angle_gamma   119.99365885
_symmetry_Int_Tables_number   1
_chemical_formula_structural   PrNi5Sn
_chemical_formula_sum   'Pr4 Ni20 Sn4'
_cell_volume   415.87783560
_cell_formula_units_Z   4
loop_
 _symmetry_equiv_pos_site_id
 _symmetry_equiv_pos_as_xyz
  1  'x, y, z'
loop_
 _atom_site_type_symbol
 _atom_site_label
 _atom_site_symmetry_multiplicity
 _atom_site_fract_x
 _atom_site_fract_y
 _atom_site_fract_z
 _atom_site_occupancy
  Pr  Pr0  1  0.66666714  0.33333286  0.75000000  1
  Pr  Pr1  1  0.33333286  0.66666714  0.25000000  1
  Pr  Pr2  1  -0.00000000  0.00000000  0.50000000  1
  Pr  Pr3  1  -0.00000000  0.00000000  -0.00000000  1
  Ni  Ni4  1  0.16566921  0.33131417  0.64598279  1
  Ni  Ni5  1  0.16564825  0.83435175  0.64598349  1
  Ni  Ni6  1  0.66868583  0.83433079  0.64598279  1
  Ni  Ni7  1  0.83433079  0.66868583  0.35401721  1
  Ni  Ni8  1  0.83435175  0.16564825  0.35401651  1
  Ni  Ni9  1  0.33131417  0.16566921  0.35401721  1
  Ni  Ni10  1  0.83433079  0.66868583  0.14598279  1
  Ni  Ni11  1  0.83435175  0.16564825  0.14598349  1
  Ni  Ni12  1  0.33131417  0.16566921  0.14598279  1
  Ni  Ni13  1  0.16566921  0.33131417  0.85401721  1
  Ni  Ni14  1  0.16564825  0.83435175  0.85401651  1
  Ni  Ni15  1  0.66868583  0.83433079  0.85401721  1
  Ni  Ni16  1  0.66668930  0.33331070  0.04344714  1
  Ni  Ni17  1  0.33331070  0.66668930  0.95655286  1
  Ni  Ni18  1  0.33331070  0.66668930  0.54344714  1
  Ni  Ni19  1  0.66668930  0.33331070  0.45655286  1
  Ni  Ni20  1  0.66668501  0.33331499  0.25000000  1
  Ni  Ni21  1  0.33331499  0.66668501  0.75000000  1
  Ni  Ni22  1  0.00001005  0.99998995  0.75000000  1
  Ni  Ni23  1  0.99998995  0.00001005  0.25000000  1
  Sn  Sn24  1  0.66668145  0.33331855  0.58762158  1
  Sn  Sn25  1  0.33331855  0.66668145  0.41237842  1
  Sn  Sn26  1  0.33331855  0.66668145  0.08762158  1
  Sn  Sn27  1  0.66668145  0.33331855  0.91237842  1
