# generated using pymatgen
data_Ba2NaOsO6
_symmetry_space_group_name_H-M   'P 1'
_cell_length_a   5.93786711
_cell_length_b   5.93786711
_cell_length_c   5.93786711
_cell_angle_alpha   59.99999995
_cell_angle_beta   59.99999995
_cell_angle_gamma   59.99999993
_symmetry_Int_Tables_number   1
_chemical_formula_structural   Ba2NaOsO6
_chemical_formula_sum   'Ba2 Na1 Os1 O6'
_cell_volume   148.03909559
_cell_formula_units_Z   1
loop_
 _symmetry_equiv_pos_site_id
 _symmetry_equiv_pos_as_xyz
  1  'x, y, z'
loop_
 _atom_site_type_symbol
 _atom_site_label
 _atom_site_symmetry_multiplicity
 _atom_site_fract_x
 _atom_site_fract_y
 _atom_site_fract_z
 _atom_site_occupancy
  O  O0  1  0.22711433  0.77288567  0.77288567  1
  O  O1  1  0.22711433  0.77288567  0.22711433  1
  O  O2  1  0.77288567  0.22711433  0.77288567  1
  O  O3  1  0.22711433  0.22711433  0.77288567  1
  O  O4  1  0.77288567  0.22711433  0.22711433  1
  O  O5  1  0.77288567  0.77288567  0.22711433  1
  Na  Na6  1  0.50000000  0.50000000  0.50000000  1
  Ba  Ba7  1  0.25000000  0.25000000  0.25000000  1
  Ba  Ba8  1  0.75000000  0.75000000  0.75000000  1
  Os  Os9  1  0.00000000  0.00000000  0.00000000  1
