# generated using pymatgen
data_Li9Mn2Co5O16
_symmetry_space_group_name_H-M   'P 1'
_cell_length_a   5.17938095
_cell_length_b   11.47623388
_cell_length_c   5.15510815
_cell_angle_alpha   90.00000000
_cell_angle_beta   68.66839584
_cell_angle_gamma   90.00000000
_symmetry_Int_Tables_number   1
_chemical_formula_structural   Li9Mn2Co5O16
_chemical_formula_sum   'Li9 Mn2 Co5 O16'
_cell_volume   285.42601758
_cell_formula_units_Z   1
loop_
 _symmetry_equiv_pos_site_id
 _symmetry_equiv_pos_as_xyz
  1  'x, y, z'
loop_
 _atom_site_type_symbol
 _atom_site_label
 _atom_site_symmetry_multiplicity
 _atom_site_fract_x
 _atom_site_fract_y
 _atom_site_fract_z
 _atom_site_occupancy
  Li  Li0  1  0.50000000  0.12688081  -0.00000000  1
  Li  Li1  1  0.50000000  0.25142820  0.50000000  1
  Li  Li2  1  0.50000000  0.37878864  -0.00000000  1
  Li  Li3  1  0.50000000  0.49879996  0.50000000  1
  Li  Li4  1  0.50000000  0.61954265  -0.00000000  1
  Li  Li5  1  0.50000000  0.74800557  0.50000000  1
  Li  Li6  1  0.50000000  0.87505301  -0.00000000  1
  Li  Li7  1  0.50000000  0.00312471  0.50000000  1
  Li  Li8  1  0.00000000  0.49895893  -0.00000000  1
  Mn  Mn9  1  0.00000000  0.00337499  -0.00000000  1
  Mn  Mn10  1  0.00000000  0.74521257  -0.00000000  1
  Co  Co11  1  0.00000000  0.12630589  0.50000000  1
  Co  Co12  1  0.00000000  0.25290541  -0.00000000  1
  Co  Co13  1  0.00000000  0.37228266  0.50000000  1
  Co  Co14  1  0.00000000  0.61585308  0.50000000  1
  Co  Co15  1  0.00000000  0.87847402  0.50000000  1
  O  O16  1  0.22601166  0.12829776  0.77255389  1
  O  O17  1  0.22676249  0.25002226  0.28053600  1
  O  O18  1  0.20659390  0.36845670  0.74478500  1
  O  O19  1  0.23558661  0.49180099  0.28256662  1
  O  O20  1  0.22999880  0.63432703  0.75459730  1
  O  O21  1  0.22017840  0.75059925  0.24034823  1
  O  O22  1  0.22330978  0.87537272  0.76394136  1
  O  O23  1  0.24010770  0.00362773  0.27556621  1
  O  O24  1  0.77398834  0.12829776  0.22744611  1
  O  O25  1  0.77323751  0.25002226  0.71946400  1
  O  O26  1  0.79340610  0.36845670  0.25521500  1
  O  O27  1  0.76441339  0.49180099  0.71743338  1
  O  O28  1  0.77000120  0.63432703  0.24540270  1
  O  O29  1  0.77982160  0.75059925  0.75965177  1
  O  O30  1  0.77669022  0.87537272  0.23605864  1
  O  O31  1  0.75989230  0.00362773  0.72443379  1
