# generated using pymatgen
data_ZnCuF5
_symmetry_space_group_name_H-M   'P 1'
_cell_length_a   5.15566668
_cell_length_b   7.40567619
_cell_length_c   9.61966918
_cell_angle_alpha   90.00000000
_cell_angle_beta   90.00000000
_cell_angle_gamma   110.60197033
_symmetry_Int_Tables_number   1
_chemical_formula_structural   ZnCuF5
_chemical_formula_sum   'Zn4 Cu4 F20'
_cell_volume   343.80132496
_cell_formula_units_Z   4
loop_
 _symmetry_equiv_pos_site_id
 _symmetry_equiv_pos_as_xyz
  1  'x, y, z'
loop_
 _atom_site_type_symbol
 _atom_site_label
 _atom_site_symmetry_multiplicity
 _atom_site_fract_x
 _atom_site_fract_y
 _atom_site_fract_z
 _atom_site_occupancy
  Zn  Zn0  1  0.47680904  0.74660121  0.01391058  1
  Zn  Zn1  1  0.52319096  0.75339879  0.51391058  1
  Zn  Zn2  1  0.52319096  0.25339879  0.98608942  1
  Zn  Zn3  1  0.47680904  0.24660121  0.48608942  1
  Cu  Cu4  1  0.89946422  0.60152656  0.75448296  1
  Cu  Cu5  1  0.10053578  0.89847344  0.25448296  1
  Cu  Cu6  1  0.10053578  0.39847344  0.24551704  1
  Cu  Cu7  1  0.89946422  0.10152656  0.74551704  1
  F  F8  1  0.60149259  0.55695618  0.88710546  1
  F  F9  1  0.39850741  0.94304382  0.38710546  1
  F  F10  1  0.39850741  0.44304382  0.11289454  1
  F  F11  1  0.60149259  0.05695618  0.61289454  1
  F  F12  1  0.63647425  0.50177819  0.60760303  1
  F  F13  1  0.36352575  0.99822181  0.10760303  1
  F  F14  1  0.36352575  0.49822181  0.39239697  1
  F  F15  1  0.63647425  0.00177819  0.89239697  1
  F  F16  1  0.85807456  0.80577603  0.40536446  1
  F  F17  1  0.14192544  0.69422397  0.90536446  1
  F  F18  1  0.14192544  0.19422397  0.59463554  1
  F  F19  1  0.85807456  0.30577603  0.09463554  1
  F  F20  1  0.80117919  0.85224699  0.12839301  1
  F  F21  1  0.19882081  0.64775301  0.62839301  1
  F  F22  1  0.19882081  0.14775301  0.87160699  1
  F  F23  1  0.80117919  0.35224699  0.37160699  1
  F  F24  1  0.85468572  0.83969764  0.69863531  1
  F  F25  1  0.14531428  0.66030236  0.19863531  1
  F  F26  1  0.14531428  0.16030236  0.30136469  1
  F  F27  1  0.85468572  0.33969764  0.80136469  1
