# generated using pymatgen
data_Ca2Ti3O8
_symmetry_space_group_name_H-M   'P 1'
_cell_length_a   5.09565174
_cell_length_b   6.11843338
_cell_length_c   6.39458494
_cell_angle_alpha   118.58143921
_cell_angle_beta   107.95838181
_cell_angle_gamma   89.99999684
_symmetry_Int_Tables_number   1
_chemical_formula_structural   Ca2Ti3O8
_chemical_formula_sum   'Ca2 Ti3 O8'
_cell_volume   163.92507866
_cell_formula_units_Z   1
loop_
 _symmetry_equiv_pos_site_id
 _symmetry_equiv_pos_as_xyz
  1  'x, y, z'
loop_
 _atom_site_type_symbol
 _atom_site_label
 _atom_site_symmetry_multiplicity
 _atom_site_fract_x
 _atom_site_fract_y
 _atom_site_fract_z
 _atom_site_occupancy
  Ca  Ca0  1  0.66298962  0.72542888  0.45085675  1
  Ca  Ca1  1  0.33700938  0.27457212  0.54914325  1
  Ti  Ti2  1  0.50000000  0.99999900  0.00000000  1
  Ti  Ti3  1  0.99999900  0.73327862  0.00000000  1
  Ti  Ti4  1  0.99999900  0.26672138  1.00000000  1
  O  O5  1  0.04700451  0.39622557  0.79245213  1
  O  O6  1  0.95299549  0.60377343  0.20754787  1
  O  O7  1  0.09491875  0.90022990  0.80045980  1
  O  O8  1  0.90508125  0.09976910  0.19953920  1
  O  O9  1  0.39327143  0.32422144  0.20790263  1
  O  O10  1  0.39327143  0.88368118  0.20790263  1
  O  O11  1  0.60672957  0.11631782  0.79209737  1
  O  O12  1  0.60672957  0.67577856  0.79209737  1
