# generated using pymatgen
data_Sr(PIr)2
_symmetry_space_group_name_H-M   'P 1'
_cell_length_a   6.78368513
_cell_length_b   6.78368512
_cell_length_c   7.14940739
_cell_angle_alpha   90.00000000
_cell_angle_beta   90.00000000
_cell_angle_gamma   119.99999998
_symmetry_Int_Tables_number   1
_chemical_formula_structural   Sr(PIr)2
_chemical_formula_sum   'Sr3 P6 Ir6'
_cell_volume   284.92597265
_cell_formula_units_Z   3
loop_
 _symmetry_equiv_pos_site_id
 _symmetry_equiv_pos_as_xyz
  1  'x, y, z'
loop_
 _atom_site_type_symbol
 _atom_site_label
 _atom_site_symmetry_multiplicity
 _atom_site_fract_x
 _atom_site_fract_y
 _atom_site_fract_z
 _atom_site_occupancy
  P  P0  1  0.87720732  0.21628194  0.54248833  1
  P  P1  1  0.21628194  0.87720732  0.45751167  1
  P  P2  1  0.12279268  0.33907462  0.12417834  1
  P  P3  1  0.78371806  0.66092538  0.20915500  1
  P  P4  1  0.33907462  0.12279268  0.87582166  1
  P  P5  1  0.66092538  0.78371806  0.79084500  1
  Sr  Sr6  1  0.00000000  0.60126274  0.83333333  1
  Sr  Sr7  1  0.39873726  0.39873726  0.50000000  1
  Sr  Sr8  1  0.60126274  0.00000000  0.16666667  1
  Ir  Ir9  1  0.87026453  0.87026453  0.50000000  1
  Ir  Ir10  1  0.12973547  0.00000000  0.16666667  1
  Ir  Ir11  1  0.49002258  0.49002258  0.00000000  1
  Ir  Ir12  1  0.00000000  0.50997742  0.33333333  1
  Ir  Ir13  1  0.50997742  0.00000000  0.66666667  1
  Ir  Ir14  1  0.00000000  0.12973547  0.83333333  1
