# generated using pymatgen
data_Y4CdPd
_symmetry_space_group_name_H-M   'P 1'
_cell_length_a   9.76294953
_cell_length_b   9.76294953
_cell_length_c   9.76294953
_cell_angle_alpha   60.00000000
_cell_angle_beta   60.00000000
_cell_angle_gamma   60.00000000
_symmetry_Int_Tables_number   1
_chemical_formula_structural   Y4CdPd
_chemical_formula_sum   'Y16 Cd4 Pd4'
_cell_volume   658.00339648
_cell_formula_units_Z   4
loop_
 _symmetry_equiv_pos_site_id
 _symmetry_equiv_pos_as_xyz
  1  'x, y, z'
loop_
 _atom_site_type_symbol
 _atom_site_label
 _atom_site_symmetry_multiplicity
 _atom_site_fract_x
 _atom_site_fract_y
 _atom_site_fract_z
 _atom_site_occupancy
  Y  Y0  1  0.64624412  0.64624412  0.64624412  1
  Y  Y1  1  0.06126765  0.64624412  0.64624412  1
  Y  Y2  1  0.64624412  0.06126765  0.64624412  1
  Y  Y3  1  0.64624412  0.64624412  0.06126765  1
  Y  Y4  1  0.81055945  0.81055945  0.18944055  1
  Y  Y5  1  0.18944055  0.18944055  0.81055945  1
  Y  Y6  1  0.81055945  0.18944055  0.81055945  1
  Y  Y7  1  0.18944055  0.81055945  0.18944055  1
  Y  Y8  1  0.18944055  0.81055945  0.81055945  1
  Y  Y9  1  0.81055945  0.18944055  0.18944055  1
  Y  Y10  1  0.43327372  0.43327372  0.06672628  1
  Y  Y11  1  0.06672628  0.06672628  0.43327372  1
  Y  Y12  1  0.43327372  0.06672628  0.43327372  1
  Y  Y13  1  0.06672628  0.43327372  0.06672628  1
  Y  Y14  1  0.06672628  0.43327372  0.43327372  1
  Y  Y15  1  0.43327372  0.06672628  0.06672628  1
  Cd  Cd16  1  0.41800143  0.41800143  0.41800143  1
  Cd  Cd17  1  0.74599571  0.41800143  0.41800143  1
  Cd  Cd18  1  0.41800143  0.74599571  0.41800143  1
  Cd  Cd19  1  0.41800143  0.41800143  0.74599571  1
  Pd  Pd20  1  0.85581268  0.85581268  0.85581268  1
  Pd  Pd21  1  0.43256197  0.85581268  0.85581268  1
  Pd  Pd22  1  0.85581268  0.43256197  0.85581268  1
  Pd  Pd23  1  0.85581268  0.85581268  0.43256197  1
