# generated using pymatgen
data_BaNdCuBO5
_symmetry_space_group_name_H-M   'P 1'
_cell_length_a   5.55492750
_cell_length_b   5.55492750
_cell_length_c   7.65796177
_cell_angle_alpha   90.00000000
_cell_angle_beta   90.00000000
_cell_angle_gamma   90.00000000
_symmetry_Int_Tables_number   1
_chemical_formula_structural   BaNdCuBO5
_chemical_formula_sum   'Ba2 Nd2 Cu2 B2 O10'
_cell_volume   236.30340749
_cell_formula_units_Z   2
loop_
 _symmetry_equiv_pos_site_id
 _symmetry_equiv_pos_as_xyz
  1  'x, y, z'
loop_
 _atom_site_type_symbol
 _atom_site_label
 _atom_site_symmetry_multiplicity
 _atom_site_fract_x
 _atom_site_fract_y
 _atom_site_fract_z
 _atom_site_occupancy
  B  B0  1  0.50000000  0.00000000  0.26387604  1
  B  B1  1  0.00000000  0.50000000  0.26387604  1
  O  O2  1  0.34484688  0.15515312  0.17612690  1
  O  O3  1  0.15515312  0.65515312  0.17612690  1
  O  O4  1  0.00000000  0.50000000  0.44607149  1
  O  O5  1  0.50000000  0.00000000  0.44607149  1
  O  O6  1  0.84484688  0.34484688  0.17612690  1
  O  O7  1  0.65515312  0.84484688  0.17612690  1
  O  O8  1  0.25241619  0.75241619  0.79902605  1
  O  O9  1  0.24758381  0.25241619  0.79902605  1
  O  O10  1  0.75241619  0.74758381  0.79902605  1
  O  O11  1  0.74758381  0.24758381  0.79902605  1
  Cu  Cu12  1  0.00000000  0.50000000  0.78398306  1
  Cu  Cu13  1  0.50000000  0.00000000  0.78398306  1
  Ba  Ba14  1  0.50000000  0.50000000  0.51241121  1
  Ba  Ba15  1  0.00000000  0.00000000  0.51241121  1
  Nd  Nd16  1  0.50000000  0.50000000  0.00475229  1
  Nd  Nd17  1  0.00000000  0.00000000  0.00475229  1
