# generated using pymatgen
data_IrF4
_symmetry_space_group_name_H-M   'P 1'
_cell_length_a   5.59781562
_cell_length_b   5.59781562
_cell_length_c   5.70427767
_cell_angle_alpha   106.13777303
_cell_angle_beta   106.13777300
_cell_angle_gamma   115.69189996
_symmetry_Int_Tables_number   1
_chemical_formula_structural   IrF4
_chemical_formula_sum   'Ir2 F8'
_cell_volume   137.36244858
_cell_formula_units_Z   2
loop_
 _symmetry_equiv_pos_site_id
 _symmetry_equiv_pos_as_xyz
  1  'x, y, z'
loop_
 _atom_site_type_symbol
 _atom_site_label
 _atom_site_symmetry_multiplicity
 _atom_site_fract_x
 _atom_site_fract_y
 _atom_site_fract_z
 _atom_site_occupancy
  F  F0  1  0.98435470  0.75291594  0.17812915  1
  F  F1  1  0.57478679  0.80622555  0.82187085  1
  F  F2  1  0.01906193  0.28740436  0.31872625  1
  F  F3  1  0.96867811  0.70033569  0.68127375  1
  F  F4  1  0.03740436  0.26906193  0.81872625  1
  F  F5  1  0.45033569  0.21867811  0.18127375  1
  F  F6  1  0.55622555  0.82478679  0.32187085  1
  F  F7  1  0.50291594  0.23435470  0.67812915  1
  Ir  Ir8  1  0.74311847  0.24311847  0.50000000  1
  Ir  Ir9  1  0.99311847  0.99311847  0.00000000  1
