# generated using pymatgen
data_Ca2TaFeO6
_symmetry_space_group_name_H-M   'P 1'
_cell_length_a   5.48028863
_cell_length_b   5.65526262
_cell_length_c   7.81209169
_cell_angle_alpha   90.00000000
_cell_angle_beta   90.00000000
_cell_angle_gamma   89.65898477
_symmetry_Int_Tables_number   1
_chemical_formula_structural   Ca2TaFeO6
_chemical_formula_sum   'Ca4 Ta2 Fe2 O12'
_cell_volume   242.11174010
_cell_formula_units_Z   2
loop_
 _symmetry_equiv_pos_site_id
 _symmetry_equiv_pos_as_xyz
  1  'x, y, z'
loop_
 _atom_site_type_symbol
 _atom_site_label
 _atom_site_symmetry_multiplicity
 _atom_site_fract_x
 _atom_site_fract_y
 _atom_site_fract_z
 _atom_site_occupancy
  Ca  Ca0  1  0.00880122  0.95795001  0.25000000  1
  Ca  Ca1  1  0.48779779  0.43478558  0.25000000  1
  Ca  Ca2  1  0.51220221  0.56521442  0.75000000  1
  Ca  Ca3  1  0.99119878  0.04204999  0.75000000  1
  Ta  Ta4  1  0.00000000  0.50000000  0.00000000  1
  Ta  Ta5  1  0.00000000  0.50000000  0.50000000  1
  Fe  Fe6  1  0.50000000  0.00000000  0.00000000  1
  Fe  Fe7  1  0.50000000  0.00000000  0.50000000  1
  O  O8  1  0.80370968  0.78900824  0.54881580  1
  O  O9  1  0.29122490  0.69706978  0.45422413  1
  O  O10  1  0.19629032  0.21099176  0.45118420  1
  O  O11  1  0.70877510  0.30293022  0.95422413  1
  O  O12  1  0.09208010  0.47075536  0.75000000  1
  O  O13  1  0.70877510  0.30293022  0.54577587  1
  O  O14  1  0.29122490  0.69706978  0.04577587  1
  O  O15  1  0.80370968  0.78900824  0.95118420  1
  O  O16  1  0.59130099  0.02796559  0.25000000  1
  O  O17  1  0.19629032  0.21099176  0.04881580  1
  O  O18  1  0.40869901  0.97203441  0.75000000  1
  O  O19  1  0.90791990  0.52924464  0.25000000  1
