# generated using pymatgen
data_Ca2Co12P7
_symmetry_space_group_name_H-M   'P 1'
_cell_length_a   9.03137942
_cell_length_b   9.03137942
_cell_length_c   3.56186069
_cell_angle_alpha   90.00000000
_cell_angle_beta   90.00000000
_cell_angle_gamma   119.99999999
_symmetry_Int_Tables_number   1
_chemical_formula_structural   Ca2Co12P7
_chemical_formula_sum   'Ca2 Co12 P7'
_cell_volume   251.60295482
_cell_formula_units_Z   1
loop_
 _symmetry_equiv_pos_site_id
 _symmetry_equiv_pos_as_xyz
  1  'x, y, z'
loop_
 _atom_site_type_symbol
 _atom_site_label
 _atom_site_symmetry_multiplicity
 _atom_site_fract_x
 _atom_site_fract_y
 _atom_site_fract_z
 _atom_site_occupancy
  P  P0  1  0.00000000  0.00000000  0.00000000  1
  P  P1  1  0.40457932  0.29202155  0.00000000  1
  P  P2  1  0.59871035  0.70840145  0.50000000  1
  P  P3  1  0.29159855  0.89030890  0.50000000  1
  P  P4  1  0.10969110  0.40128965  0.50000000  1
  P  P5  1  0.70797845  0.11255777  0.00000000  1
  P  P6  1  0.88744223  0.59542068  0.00000000  1
  Ca  Ca7  1  0.66666667  0.33333333  0.50000000  1
  Ca  Ca8  1  0.33333333  0.66666667  0.00000000  1
  Co  Co9  1  0.38250131  0.43441721  0.50000000  1
  Co  Co10  1  0.05191590  0.61749869  0.50000000  1
  Co  Co11  1  0.23489994  0.10309457  0.50000000  1
  Co  Co12  1  0.86819463  0.76510006  0.50000000  1
  Co  Co13  1  0.89690543  0.13180537  0.50000000  1
  Co  Co14  1  0.72819376  0.88054975  0.00000000  1
  Co  Co15  1  0.11945025  0.84764401  0.00000000  1
  Co  Co16  1  0.15235599  0.27180624  0.00000000  1
  Co  Co17  1  0.94183243  0.37636925  0.00000000  1
  Co  Co18  1  0.62363075  0.56546318  0.00000000  1
  Co  Co19  1  0.43453682  0.05816757  0.00000000  1
  Co  Co20  1  0.56558279  0.94808410  0.50000000  1
