# generated using pymatgen
data_CaFeP2O7
_symmetry_space_group_name_H-M   'P 1'
_cell_length_a   6.57636349
_cell_length_b   6.61465375
_cell_length_c   6.77525401
_cell_angle_alpha   66.18200026
_cell_angle_beta   86.68608745
_cell_angle_gamma   82.20866660
_symmetry_Int_Tables_number   1
_chemical_formula_structural   CaFeP2O7
_chemical_formula_sum   'Ca2 Fe2 P4 O14'
_cell_volume   267.13445601
_cell_formula_units_Z   2
loop_
 _symmetry_equiv_pos_site_id
 _symmetry_equiv_pos_as_xyz
  1  'x, y, z'
loop_
 _atom_site_type_symbol
 _atom_site_label
 _atom_site_symmetry_multiplicity
 _atom_site_fract_x
 _atom_site_fract_y
 _atom_site_fract_z
 _atom_site_occupancy
  Ca  Ca0  1  0.85814019  0.27142121  0.17352059  1
  Ca  Ca1  1  0.14185981  0.72857879  0.82647941  1
  Fe  Fe2  1  0.64629168  0.09968588  0.77651461  1
  Fe  Fe3  1  0.35370832  0.90031412  0.22348539  1
  P  P4  1  0.14376855  0.22869583  0.75012119  1
  P  P5  1  0.85623145  0.77130417  0.24987881  1
  P  P6  1  0.62716485  0.64204470  0.66842603  1
  P  P7  1  0.37283515  0.35795530  0.33157397  1
  O  O8  1  0.77617582  0.61030587  0.47988887  1
  O  O9  1  0.22382418  0.38969413  0.52011113  1
  O  O10  1  0.97712713  0.10219246  0.71887563  1
  O  O11  1  0.02287287  0.89780754  0.28112437  1
  O  O12  1  0.58695014  0.25618611  0.43165887  1
  O  O13  1  0.41304986  0.74381389  0.56834113  1
  O  O14  1  0.37302077  0.59806185  0.16145348  1
  O  O15  1  0.62697923  0.40193815  0.83854552  1
  O  O16  1  0.93097642  0.61735719  0.13879258  1
  O  O17  1  0.06902358  0.38264281  0.86120742  1
  O  O18  1  0.67267270  0.94906183  0.13530682  1
  O  O19  1  0.32732730  0.05093817  0.86469318  1
  O  O20  1  0.27356408  0.20686893  0.25556001  1
  O  O21  1  0.72643592  0.79313107  0.74443999  1
