# generated using pymatgen
data_Na2GeF6
_symmetry_space_group_name_H-M   'P 1'
_cell_length_a   9.23232319
_cell_length_b   9.23232319
_cell_length_c   5.19043886
_cell_angle_alpha   90.00000000
_cell_angle_beta   90.00000000
_cell_angle_gamma   119.99999997
_symmetry_Int_Tables_number   1
_chemical_formula_structural   Na2GeF6
_chemical_formula_sum   'Na6 Ge3 F18'
_cell_volume   383.13930735
_cell_formula_units_Z   3
loop_
 _symmetry_equiv_pos_site_id
 _symmetry_equiv_pos_as_xyz
  1  'x, y, z'
loop_
 _atom_site_type_symbol
 _atom_site_label
 _atom_site_symmetry_multiplicity
 _atom_site_fract_x
 _atom_site_fract_y
 _atom_site_fract_z
 _atom_site_occupancy
  F  F0  1  0.08637419  0.18844935  0.20064693  1
  F  F1  1  0.81155065  0.89792485  0.20064693  1
  F  F2  1  0.10207515  0.91362581  0.20064693  1
  F  F3  1  0.89792485  0.81155065  0.79935307  1
  F  F4  1  0.91362581  0.10207515  0.79935307  1
  F  F5  1  0.18844935  0.08637419  0.79935307  1
  F  F6  1  0.55325876  0.40677608  0.70761307  1
  F  F7  1  0.59322392  0.14648267  0.70761307  1
  F  F8  1  0.85351733  0.44674124  0.70761307  1
  F  F9  1  0.47873317  0.22482740  0.30260660  1
  F  F10  1  0.77517260  0.25390577  0.30260660  1
  F  F11  1  0.74609423  0.52126683  0.30260660  1
  F  F12  1  0.25390577  0.77517260  0.69739340  1
  F  F13  1  0.52126683  0.74609423  0.69739340  1
  F  F14  1  0.22482740  0.47873317  0.69739340  1
  F  F15  1  0.40677608  0.55325876  0.29238693  1
  F  F16  1  0.44674124  0.85351733  0.29238693  1
  F  F17  1  0.14648267  0.59322392  0.29238693  1
  Na  Na18  1  0.62501612  0.62501612  0.00000000  1
  Na  Na19  1  0.00000000  0.37498388  0.00000000  1
  Na  Na20  1  0.37498388  0.00000000  0.00000000  1
  Na  Na21  1  0.29031232  0.29031232  0.50000000  1
  Na  Na22  1  0.00000000  0.70968768  0.50000000  1
  Na  Na23  1  0.70968768  0.00000000  0.50000000  1
  Ge  Ge24  1  0.66666667  0.33333333  0.50477362  1
  Ge  Ge25  1  0.33333333  0.66666667  0.49522638  1
  Ge  Ge26  1  0.00000000  0.00000000  0.00000000  1
