# generated using pymatgen
data_Li9Mn2Co5O16
_symmetry_space_group_name_H-M   'P 1'
_cell_length_a   5.75876297
_cell_length_b   6.51751241
_cell_length_c   8.99385320
_cell_angle_alpha   81.97439447
_cell_angle_beta   71.32800387
_cell_angle_gamma   63.78176165
_symmetry_Int_Tables_number   1
_chemical_formula_structural   Li9Mn2Co5O16
_chemical_formula_sum   'Li9 Mn2 Co5 O16'
_cell_volume   286.89535935
_cell_formula_units_Z   1
loop_
 _symmetry_equiv_pos_site_id
 _symmetry_equiv_pos_as_xyz
  1  'x, y, z'
loop_
 _atom_site_type_symbol
 _atom_site_label
 _atom_site_symmetry_multiplicity
 _atom_site_fract_x
 _atom_site_fract_y
 _atom_site_fract_z
 _atom_site_occupancy
  Li  Li0  1  0.49505140  0.25397483  0.26020383  1
  Li  Li1  1  0.00923007  0.74602517  0.73979617  1
  Li  Li2  1  0.24821285  0.99868693  0.50488737  1
  Li  Li3  1  0.74774083  0.50336531  0.00115303  1
  Li  Li4  1  0.25225917  0.49663469  0.99884697  1
  Li  Li5  1  0.75178715  0.00131307  0.49511263  1
  Li  Li6  1  0.99076993  0.25397483  0.26020383  1
  Li  Li7  1  0.50494860  0.74602517  0.73979617  1
  Li  Li8  1  0.50000000  0.50000000  0.50000000  1
  Mn  Mn9  1  -0.00000000  -0.00000000  -0.00000000  1
  Mn  Mn10  1  0.50000000  -0.00000000  -0.00000000  1
  Co  Co11  1  0.74463678  0.74527289  0.26170907  1
  Co  Co12  1  0.25536322  0.25472711  0.73829093  1
  Co  Co13  1  0.75161875  0.25472711  0.73829093  1
  Co  Co14  1  0.24838125  0.74527289  0.26170907  1
  Co  Co15  1  -0.00000000  0.50000000  0.50000000  1
  O  O16  1  0.63344800  0.22764668  -0.00006219  1
  O  O17  1  0.11950654  0.73099004  0.49383051  1
  O  O18  1  0.38819063  0.99184896  0.23176978  1
  O  O19  1  0.88845286  0.49505460  0.72803969  1
  O  O20  1  0.38383740  0.47492701  0.75739818  1
  O  O21  1  0.88424596  0.97559874  0.25590934  1
  O  O22  1  0.13896752  0.22764668  -0.00006219  1
  O  O23  1  0.65567290  0.73099004  0.49383051  1
  O  O24  1  0.34432710  0.26900996  0.50616949  1
  O  O25  1  0.86103248  0.77235332  0.00006219  1
  O  O26  1  0.11575404  0.02440126  0.74409066  1
  O  O27  1  0.61616260  0.52507299  0.24260182  1
  O  O28  1  0.11154714  0.50494540  0.27196031  1
  O  O29  1  0.61180937  0.00815104  0.76823022  1
  O  O30  1  0.88049346  0.26900996  0.50616949  1
  O  O31  1  0.36655200  0.77235332  0.00006219  1
