# generated using pymatgen
data_Ca2FeWO6
_symmetry_space_group_name_H-M   'P 1'
_cell_length_a   5.54635758
_cell_length_b   5.68450209
_cell_length_c   7.86072563
_cell_angle_alpha   90.00000000
_cell_angle_beta   90.56882688
_cell_angle_gamma   90.00000000
_symmetry_Int_Tables_number   1
_chemical_formula_structural   Ca2FeWO6
_chemical_formula_sum   'Ca4 Fe2 W2 O12'
_cell_volume   247.82295515
_cell_formula_units_Z   2
loop_
 _symmetry_equiv_pos_site_id
 _symmetry_equiv_pos_as_xyz
  1  'x, y, z'
loop_
 _atom_site_type_symbol
 _atom_site_label
 _atom_site_symmetry_multiplicity
 _atom_site_fract_x
 _atom_site_fract_y
 _atom_site_fract_z
 _atom_site_occupancy
  Ca  Ca0  1  0.98639652  0.05606814  0.25443184  1
  Ca  Ca1  1  0.51360348  0.55606914  0.24556816  1
  Ca  Ca2  1  0.01360448  0.94393286  0.74556816  1
  Ca  Ca3  1  0.48639552  0.44393186  0.75443184  1
  Fe  Fe4  1  0.50000000  0.00000000  0.00000000  1
  Fe  Fe5  1  0.00000100  0.49999900  0.50000000  1
  W  W6  1  0.50000000  0.00000000  0.49999900  1
  W  W7  1  0.00000000  0.49999900  0.00000000  1
  O  O8  1  0.68462066  0.28521287  0.44686773  1
  O  O9  1  0.81537934  0.78521387  0.05313227  1
  O  O10  1  0.31537834  0.71478713  0.55313227  1
  O  O11  1  0.18462166  0.21478613  0.94686773  1
  O  O12  1  0.21445664  0.18945632  0.54844141  1
  O  O13  1  0.28554336  0.68945532  0.95155859  1
  O  O14  1  0.78554436  0.81054368  0.45155859  1
  O  O15  1  0.71445564  0.31054468  0.04844141  1
  O  O16  1  0.09834113  0.47005673  0.23935619  1
  O  O17  1  0.40165987  0.97005773  0.26064281  1
  O  O18  1  0.59834113  0.02994227  0.73935719  1
  O  O19  1  0.90165987  0.52994327  0.76064381  1
