# generated using pymatgen
data_LiMn(PO3)4
_symmetry_space_group_name_H-M   'P 1'
_cell_length_a   7.22330906
_cell_length_b   9.29323763
_cell_length_c   9.17852368
_cell_angle_alpha   111.44086250
_cell_angle_beta   113.17181376
_cell_angle_gamma   67.13056133
_symmetry_Int_Tables_number   1
_chemical_formula_structural   LiMn(PO3)4
_chemical_formula_sum   'Li2 Mn2 P8 O24'
_cell_volume   505.19699344
_cell_formula_units_Z   2
loop_
 _symmetry_equiv_pos_site_id
 _symmetry_equiv_pos_as_xyz
  1  'x, y, z'
loop_
 _atom_site_type_symbol
 _atom_site_label
 _atom_site_symmetry_multiplicity
 _atom_site_fract_x
 _atom_site_fract_y
 _atom_site_fract_z
 _atom_site_occupancy
  Li  Li0  1  0.64626139  0.75000000  0.75000000  1
  Li  Li1  1  0.35373861  0.25000000  0.25000000  1
  Mn  Mn2  1  0.00000000  0.50000000  0.50000000  1
  Mn  Mn3  1  0.00000000  -0.00000000  -0.00000000  1
  P  P4  1  0.70643933  0.89944771  0.16220982  1
  P  P5  1  0.34182175  0.79223325  0.09958958  1
  P  P6  1  0.03446542  0.70776675  0.40041042  1
  P  P7  1  0.44367722  0.60055229  0.33779018  1
  P  P8  1  0.55632278  0.39944771  0.66220982  1
  P  P9  1  0.96553458  0.29223325  0.59958958  1
  P  P10  1  0.65817825  0.20776675  0.90041042  1
  P  P11  1  0.29356067  0.10055229  0.83779018  1
  O  O12  1  0.23996788  0.95842730  0.19958957  1
  O  O13  1  0.83318718  0.84831746  0.04653726  1
  O  O14  1  0.85888497  0.85434213  0.33706392  1
  O  O15  1  0.56974442  0.77028513  0.09891353  1
  O  O16  1  0.42513690  0.93356764  0.79267381  1
  O  O17  1  0.24111702  0.72971487  0.40108647  1
  O  O18  1  0.37616318  0.64565787  0.16293608  1
  O  O19  1  0.03926815  0.71923518  0.57275486  1
  O  O20  1  0.63496738  0.65168254  0.45346274  1
  O  O21  1  0.18574947  0.78076482  0.92724514  1
  O  O22  1  0.99880561  0.54157270  0.30041043  1
  O  O23  1  0.56602972  0.56643236  0.70732619  1
  O  O24  1  0.43397028  0.43356764  0.29267381  1
  O  O25  1  0.00119439  0.45842730  0.69958957  1
  O  O26  1  0.81425053  0.21923518  0.07275486  1
  O  O27  1  0.36503262  0.34831746  0.54653726  1
  O  O28  1  0.96073185  0.28076482  0.42724514  1
  O  O29  1  0.62383682  0.35434213  0.83706492  1
  O  O30  1  0.75888298  0.27028513  0.59891353  1
  O  O31  1  0.57486310  0.06643236  0.20732619  1
  O  O32  1  0.43025558  0.22971487  0.90108647  1
  O  O33  1  0.14111503  0.14565787  0.66293508  1
  O  O34  1  0.16681282  0.15168254  0.95346274  1
  O  O35  1  0.76003212  0.04157270  0.80041043  1
