# generated using pymatgen
data_Ca2Co3O8
_symmetry_space_group_name_H-M   'P 1'
_cell_length_a   4.94176250
_cell_length_b   5.81651799
_cell_length_c   6.21560521
_cell_angle_alpha   117.89783183
_cell_angle_beta   107.40213546
_cell_angle_gamma   89.99999711
_symmetry_Int_Tables_number   1
_chemical_formula_structural   Ca2Co3O8
_chemical_formula_sum   'Ca2 Co3 O8'
_cell_volume   148.58129079
_cell_formula_units_Z   1
loop_
 _symmetry_equiv_pos_site_id
 _symmetry_equiv_pos_as_xyz
  1  'x, y, z'
loop_
 _atom_site_type_symbol
 _atom_site_label
 _atom_site_symmetry_multiplicity
 _atom_site_fract_x
 _atom_site_fract_y
 _atom_site_fract_z
 _atom_site_occupancy
  Ca  Ca0  1  0.66915666  0.72370902  0.44741704  1
  Ca  Ca1  1  0.33084234  0.27629198  0.55258296  1
  Co  Co2  1  0.50000000  0.99999900  0.00000000  1
  Co  Co3  1  0.99999900  0.74404360  0.00000000  1
  Co  Co4  1  0.99999900  0.25595640  0.00000000  1
  O  O5  1  0.03730496  0.39698770  0.79397639  1
  O  O6  1  0.96269504  0.60301130  0.20602361  1
  O  O7  1  0.09604200  0.90354391  0.80708783  1
  O  O8  1  0.90395800  0.09645509  0.19291117  1
  O  O9  1  0.38780192  0.31739511  0.19591715  1
  O  O10  1  0.38780192  0.87852205  0.19591715  1
  O  O11  1  0.61219908  0.12147695  0.80408285  1
  O  O12  1  0.61219908  0.68260489  0.80408285  1
