# generated using pymatgen
data_LiNi2OF3
_symmetry_space_group_name_H-M   'P 1'
_cell_length_a   5.04169501
_cell_length_b   10.21644350
_cell_length_c   5.97861504
_cell_angle_alpha   90.00000000
_cell_angle_beta   90.00000000
_cell_angle_gamma   90.00000000
_symmetry_Int_Tables_number   1
_chemical_formula_structural   LiNi2OF3
_chemical_formula_sum   'Li4 Ni8 O4 F12'
_cell_volume   307.94765265
_cell_formula_units_Z   4
loop_
 _symmetry_equiv_pos_site_id
 _symmetry_equiv_pos_as_xyz
  1  'x, y, z'
loop_
 _atom_site_type_symbol
 _atom_site_label
 _atom_site_symmetry_multiplicity
 _atom_site_fract_x
 _atom_site_fract_y
 _atom_site_fract_z
 _atom_site_occupancy
  Li  Li0  1  0.03255142  0.59260891  0.25000000  1
  Li  Li1  1  0.46744858  0.09260891  0.25000000  1
  Li  Li2  1  0.53255142  0.90739109  0.75000000  1
  Li  Li3  1  0.96744858  0.40739109  0.75000000  1
  Ni  Ni4  1  0.00000000  -0.00000000  0.00000000  1
  Ni  Ni5  1  0.00000000  -0.00000000  0.50000000  1
  Ni  Ni6  1  0.00627648  0.74144726  0.75000000  1
  Ni  Ni7  1  0.49372352  0.24144726  0.75000000  1
  Ni  Ni8  1  0.50000000  0.50000000  0.50000000  1
  Ni  Ni9  1  0.50000000  0.50000000  0.00000000  1
  Ni  Ni10  1  0.50627648  0.75855274  0.25000000  1
  Ni  Ni11  1  0.99372352  0.25855274  0.25000000  1
  O  O12  1  0.16986158  0.91394421  0.75000000  1
  O  O13  1  0.33013842  0.41394421  0.75000000  1
  O  O14  1  0.66986158  0.58605579  0.25000000  1
  O  O15  1  0.83013842  0.08605579  0.25000000  1
  F  F16  1  0.22190119  0.42548786  0.25000000  1
  F  F17  1  0.23930393  0.66967802  0.00879739  1
  F  F18  1  0.23930393  0.66967802  0.49120261  1
  F  F19  1  0.26069607  0.16967802  0.00879739  1
  F  F20  1  0.26069607  0.16967802  0.49120261  1
  F  F21  1  0.27809881  0.92548786  0.25000000  1
  F  F22  1  0.72190119  0.07451214  0.75000000  1
  F  F23  1  0.73930393  0.83032198  0.99120261  1
  F  F24  1  0.73930393  0.83032198  0.50879739  1
  F  F25  1  0.76069607  0.33032198  0.50879739  1
  F  F26  1  0.76069607  0.33032198  0.99120261  1
  F  F27  1  0.77809881  0.57451214  0.75000000  1
