# generated using pymatgen
data_K2V3O8
_symmetry_space_group_name_H-M   'P 1'
_cell_length_a   5.50644272
_cell_length_b   9.02440653
_cell_length_c   9.02440653
_cell_angle_alpha   90.00000000
_cell_angle_beta   90.00000000
_cell_angle_gamma   90.00000000
_symmetry_Int_Tables_number   1
_chemical_formula_structural   K2V3O8
_chemical_formula_sum   'K4 V6 O16'
_cell_volume   448.44421726
_cell_formula_units_Z   2
loop_
 _symmetry_equiv_pos_site_id
 _symmetry_equiv_pos_as_xyz
  1  'x, y, z'
loop_
 _atom_site_type_symbol
 _atom_site_label
 _atom_site_symmetry_multiplicity
 _atom_site_fract_x
 _atom_site_fract_y
 _atom_site_fract_z
 _atom_site_occupancy
  O  O0  1  0.93308263  0.50000000  0.50000000  1
  O  O1  1  0.93308263  0.00000000  0.00000000  1
  O  O2  1  0.52501253  0.50000000  0.00000000  1
  O  O3  1  0.52501253  0.00000000  0.50000000  1
  O  O4  1  0.94602772  0.63193377  0.86806623  1
  O  O5  1  0.94602772  0.13193377  0.63193377  1
  O  O6  1  0.94602772  0.86806623  0.36806623  1
  O  O7  1  0.94602772  0.36806623  0.13193377  1
  O  O8  1  0.52899797  0.58683239  0.69198530  1
  O  O9  1  0.52899797  0.41316761  0.30801470  1
  O  O10  1  0.52899797  0.19198530  0.08683239  1
  O  O11  1  0.52899797  0.91316761  0.19198530  1
  O  O12  1  0.52899797  0.08683239  0.80801470  1
  O  O13  1  0.52899797  0.80801470  0.91316761  1
  O  O14  1  0.52899797  0.30801470  0.58683239  1
  O  O15  1  0.52899797  0.69198530  0.41316761  1
  K  K16  1  0.17740660  0.67006987  0.17006987  1
  K  K17  1  0.17740660  0.82993013  0.67006987  1
  K  K18  1  0.17740660  0.17006987  0.32993013  1
  K  K19  1  0.17740660  0.32993013  0.82993013  1
  V  V20  1  0.64309032  0.86569108  0.36569108  1
  V  V21  1  0.64309032  0.36569108  0.13430892  1
  V  V22  1  0.64309032  0.13430892  0.63430892  1
  V  V23  1  0.64309032  0.63430892  0.86569108  1
  V  V24  1  0.63480367  0.00000000  0.00000000  1
  V  V25  1  0.63480367  0.50000000  0.50000000  1
