# generated using pymatgen
data_Er2(Al3Rh)3
_symmetry_space_group_name_H-M   'P 1'
_cell_length_a   7.54026545
_cell_length_b   7.58989305
_cell_length_c   9.43917166
_cell_angle_alpha   90.00000000
_cell_angle_beta   90.00000000
_cell_angle_gamma   120.21796421
_symmetry_Int_Tables_number   1
_chemical_formula_structural   Er2(Al3Rh)3
_chemical_formula_sum   'Er4 Al18 Rh6'
_cell_volume   466.79774334
_cell_formula_units_Z   2
loop_
 _symmetry_equiv_pos_site_id
 _symmetry_equiv_pos_as_xyz
  1  'x, y, z'
loop_
 _atom_site_type_symbol
 _atom_site_label
 _atom_site_symmetry_multiplicity
 _atom_site_fract_x
 _atom_site_fract_y
 _atom_site_fract_z
 _atom_site_occupancy
  Er  Er0  1  0.67412303  0.66938071  0.25000000  1
  Er  Er1  1  0.32587697  0.33061929  0.75000000  1
  Er  Er2  1  0.32587697  0.99525768  0.25000000  1
  Er  Er3  1  0.67412303  0.00474232  0.75000000  1
  Al  Al4  1  1.00000000  0.12569805  0.25000000  1
  Al  Al5  1  0.00000000  0.87430195  0.75000000  1
  Al  Al6  1  0.33369647  0.33469227  0.07400664  1
  Al  Al7  1  0.66630353  0.66530773  0.92599336  1
  Al  Al8  1  0.66630353  0.66530773  0.57400664  1
  Al  Al9  1  0.66630353  0.00099580  0.42599336  1
  Al  Al10  1  0.33369647  0.33469227  0.42599336  1
  Al  Al11  1  0.33369647  0.99900420  0.57400664  1
  Al  Al12  1  0.33369647  0.99900420  0.92599336  1
  Al  Al13  1  0.66630353  0.00099580  0.07400664  1
  Al  Al14  1  0.00000000  0.33332668  0.55383315  1
  Al  Al15  1  1.00000000  0.66667332  0.44616685  1
  Al  Al16  1  1.00000000  0.66667332  0.05383315  1
  Al  Al17  1  0.00000000  0.33332668  0.94616685  1
  Al  Al18  1  0.21028079  0.54792113  0.25000000  1
  Al  Al19  1  0.78971921  0.45207887  0.75000000  1
  Al  Al20  1  0.78971921  0.33764033  0.25000000  1
  Al  Al21  1  0.21028079  0.66235967  0.75000000  1
  Rh  Rh22  1  0.65601048  0.32800524  -0.00000000  1
  Rh  Rh23  1  0.34398952  0.67199476  -0.00000000  1
  Rh  Rh24  1  0.34398952  0.67199476  0.50000000  1
  Rh  Rh25  1  0.65601048  0.32800524  0.50000000  1
  Rh  Rh26  1  -0.00000000  0.00000000  -0.00000000  1
  Rh  Rh27  1  -0.00000000  0.00000000  0.50000000  1
