# generated using pymatgen
data_Ti6Si7Ni16
_symmetry_space_group_name_H-M   'P 1'
_cell_length_a   7.89981823
_cell_length_b   7.89981824
_cell_length_c   7.89981823
_cell_angle_alpha   59.99999999
_cell_angle_beta   59.99999996
_cell_angle_gamma   60.00000000
_symmetry_Int_Tables_number   1
_chemical_formula_structural   Ti6Si7Ni16
_chemical_formula_sum   'Ti6 Si7 Ni16'
_cell_volume   348.60715618
_cell_formula_units_Z   1
loop_
 _symmetry_equiv_pos_site_id
 _symmetry_equiv_pos_as_xyz
  1  'x, y, z'
loop_
 _atom_site_type_symbol
 _atom_site_label
 _atom_site_symmetry_multiplicity
 _atom_site_fract_x
 _atom_site_fract_y
 _atom_site_fract_z
 _atom_site_occupancy
  Si  Si0  1  0.50000000  0.50000000  0.50000000  1
  Si  Si1  1  0.50000000  0.00000000  0.00000000  1
  Si  Si2  1  0.00000000  0.00000000  0.50000000  1
  Si  Si3  1  0.50000000  0.50000000  0.00000000  1
  Si  Si4  1  0.00000000  0.50000000  0.50000000  1
  Si  Si5  1  0.00000000  0.50000000  0.00000000  1
  Si  Si6  1  0.50000000  0.00000000  0.50000000  1
  Ti  Ti7  1  0.20180153  0.79819847  0.79819847  1
  Ti  Ti8  1  0.20180153  0.79819847  0.20180153  1
  Ti  Ti9  1  0.79819847  0.20180153  0.79819847  1
  Ti  Ti10  1  0.20180153  0.20180153  0.79819847  1
  Ti  Ti11  1  0.79819847  0.79819847  0.20180153  1
  Ti  Ti12  1  0.79819847  0.20180153  0.20180153  1
  Ni  Ni13  1  0.16550827  0.16550827  0.50347519  1
  Ni  Ni14  1  0.83449173  0.83449173  0.83449173  1
  Ni  Ni15  1  0.61776873  0.61776873  0.14669381  1
  Ni  Ni16  1  0.14669381  0.61776873  0.61776873  1
  Ni  Ni17  1  0.61776873  0.14669381  0.61776873  1
  Ni  Ni18  1  0.85330619  0.38223127  0.38223127  1
  Ni  Ni19  1  0.38223127  0.85330619  0.38223127  1
  Ni  Ni20  1  0.38223127  0.38223127  0.85330619  1
  Ni  Ni21  1  0.61776873  0.61776873  0.61776873  1
  Ni  Ni22  1  0.16550827  0.50347519  0.16550827  1
  Ni  Ni23  1  0.50347519  0.16550827  0.16550827  1
  Ni  Ni24  1  0.83449173  0.49652481  0.83449173  1
  Ni  Ni25  1  0.49652481  0.83449173  0.83449173  1
  Ni  Ni26  1  0.83449173  0.83449173  0.49652481  1
  Ni  Ni27  1  0.16550827  0.16550827  0.16550827  1
  Ni  Ni28  1  0.38223127  0.38223127  0.38223127  1
