# generated using pymatgen
data_Zr3Pb(O2F3)2
_symmetry_space_group_name_H-M   'P 1'
_cell_length_a   7.84093542
_cell_length_b   7.84093546
_cell_length_c   7.84093612
_cell_angle_alpha   60.00000161
_cell_angle_beta   60.00000140
_cell_angle_gamma   60.00000367
_symmetry_Int_Tables_number   1
_chemical_formula_structural   Zr3Pb(O2F3)2
_chemical_formula_sum   'Zr6 Pb2 O8 F12'
_cell_volume   340.86993320
_cell_formula_units_Z   2
loop_
 _symmetry_equiv_pos_site_id
 _symmetry_equiv_pos_as_xyz
  1  'x, y, z'
loop_
 _atom_site_type_symbol
 _atom_site_label
 _atom_site_symmetry_multiplicity
 _atom_site_fract_x
 _atom_site_fract_y
 _atom_site_fract_z
 _atom_site_occupancy
  Pb  Pb0  1  0.25000000  0.25000000  0.25000000  1
  Pb  Pb1  1  0.75000000  0.75000000  0.75000000  1
  Zr  Zr2  1  0.77711592  0.22288408  0.22288408  1
  Zr  Zr3  1  0.77711592  0.77711592  0.22288408  1
  Zr  Zr4  1  0.22288408  0.22288408  0.77711592  1
  Zr  Zr5  1  0.77711592  0.22288408  0.77711592  1
  Zr  Zr6  1  0.22288408  0.77711592  0.22288408  1
  Zr  Zr7  1  0.22288408  0.77711592  0.77711592  1
  O  O8  1  0.11577052  0.11577052  0.11577052  1
  O  O9  1  0.88422948  0.88422948  0.34731155  1
  O  O10  1  0.34731155  0.88422948  0.88422948  1
  O  O11  1  0.88422948  0.34731155  0.88422948  1
  O  O12  1  0.65268845  0.11577052  0.11577052  1
  O  O13  1  0.11577052  0.65268845  0.11577052  1
  O  O14  1  0.11577052  0.11577052  0.65268845  1
  O  O15  1  0.88422948  0.88422948  0.88422948  1
  F  F16  1  0.82802464  0.50000000  0.50000000  1
  F  F17  1  0.50000000  0.50000000  0.82802464  1
  F  F18  1  0.82802464  0.17197536  0.50000000  1
  F  F19  1  0.50000000  0.82802464  0.17197536  1
  F  F20  1  0.50000000  0.17197536  0.82802464  1
  F  F21  1  0.50000000  0.82802464  0.50000000  1
  F  F22  1  0.82802464  0.50000000  0.17197536  1
  F  F23  1  0.17197536  0.82802464  0.50000000  1
  F  F24  1  0.50000000  0.17197536  0.50000000  1
  F  F25  1  0.17197536  0.50000000  0.82802464  1
  F  F26  1  0.50000000  0.50000000  0.17197536  1
  F  F27  1  0.17197536  0.50000000  0.50000000  1
