# generated using pymatgen
data_Sr2P2O7
_symmetry_space_group_name_H-M   'P 1'
_cell_length_a   5.46693751
_cell_length_b   9.02767647
_cell_length_c   13.31989222
_cell_angle_alpha   90.00000000
_cell_angle_beta   90.00000000
_cell_angle_gamma   90.00000000
_symmetry_Int_Tables_number   1
_chemical_formula_structural   Sr2P2O7
_chemical_formula_sum   'Sr8 P8 O28'
_cell_volume   657.38653904
_cell_formula_units_Z   4
loop_
 _symmetry_equiv_pos_site_id
 _symmetry_equiv_pos_as_xyz
  1  'x, y, z'
loop_
 _atom_site_type_symbol
 _atom_site_label
 _atom_site_symmetry_multiplicity
 _atom_site_fract_x
 _atom_site_fract_y
 _atom_site_fract_z
 _atom_site_occupancy
  O  O0  1  0.75000000  0.63388233  0.66547678  1
  O  O1  1  0.25000000  0.36611767  0.33452322  1
  O  O2  1  0.75000000  0.13388233  0.83452322  1
  O  O3  1  0.25000000  0.86611767  0.16547678  1
  O  O4  1  0.75000000  0.22657541  0.42061357  1
  O  O5  1  0.25000000  0.77342459  0.57938643  1
  O  O6  1  0.75000000  0.72657541  0.07938643  1
  O  O7  1  0.25000000  0.27342459  0.92061357  1
  O  O8  1  0.01895485  0.85398981  0.42390736  1
  O  O9  1  0.51895485  0.14601019  0.57609264  1
  O  O10  1  0.48104515  0.35398981  0.07609264  1
  O  O11  1  0.98104515  0.64601019  0.92390736  1
  O  O12  1  0.98104515  0.14601019  0.57609264  1
  O  O13  1  0.48104515  0.85398981  0.42390736  1
  O  O14  1  0.51895485  0.64601019  0.92390736  1
  O  O15  1  0.01895485  0.35398981  0.07609264  1
  O  O16  1  0.25000000  0.10548126  0.07049616  1
  O  O17  1  0.75000000  0.89451874  0.92950384  1
  O  O18  1  0.25000000  0.60548126  0.42950384  1
  O  O19  1  0.75000000  0.39451874  0.57049616  1
  O  O20  1  0.01790653  0.08320635  0.23794550  1
  O  O21  1  0.51790653  0.91679365  0.76205450  1
  O  O22  1  0.48209347  0.58320635  0.26205450  1
  O  O23  1  0.98209347  0.41679365  0.73794550  1
  O  O24  1  0.98209347  0.91679365  0.76205450  1
  O  O25  1  0.48209347  0.08320635  0.23794550  1
  O  O26  1  0.51790653  0.41679365  0.73794550  1
  O  O27  1  0.01790653  0.58320635  0.26205450  1
  P  P28  1  0.75000000  0.22336219  0.53525431  1
  P  P29  1  0.25000000  0.77663781  0.46474569  1
  P  P30  1  0.75000000  0.72336219  0.96474569  1
  P  P31  1  0.25000000  0.27663781  0.03525431  1
  P  P32  1  0.75000000  0.46742625  0.68248538  1
  P  P33  1  0.25000000  0.53257375  0.31751462  1
  P  P34  1  0.75000000  0.96742625  0.81751462  1
  P  P35  1  0.25000000  0.03257375  0.18248538  1
  Sr  Sr36  1  0.25000000  0.62606174  0.08674685  1
  Sr  Sr37  1  0.75000000  0.37393826  0.91325315  1
  Sr  Sr38  1  0.25000000  0.12606174  0.41325315  1
  Sr  Sr39  1  0.75000000  0.87393826  0.58674685  1
  Sr  Sr40  1  0.25000000  0.67326869  0.76074723  1
  Sr  Sr41  1  0.75000000  0.32673131  0.23925277  1
  Sr  Sr42  1  0.25000000  0.17326869  0.73925277  1
  Sr  Sr43  1  0.75000000  0.82673131  0.26074723  1
