# generated using pymatgen
data_Ba3Nb6(Si2O13)2
_symmetry_space_group_name_H-M   'P 1'
_cell_length_a   9.18141194
_cell_length_b   9.18141194
_cell_length_c   7.85085361
_cell_angle_alpha   90.00000000
_cell_angle_beta   90.00000000
_cell_angle_gamma   120.00000001
_symmetry_Int_Tables_number   1
_chemical_formula_structural   Ba3Nb6(Si2O13)2
_chemical_formula_sum   'Ba3 Nb6 Si4 O26'
_cell_volume   573.14757254
_cell_formula_units_Z   1
loop_
 _symmetry_equiv_pos_site_id
 _symmetry_equiv_pos_as_xyz
  1  'x, y, z'
loop_
 _atom_site_type_symbol
 _atom_site_label
 _atom_site_symmetry_multiplicity
 _atom_site_fract_x
 _atom_site_fract_y
 _atom_site_fract_z
 _atom_site_occupancy
  O  O0  1  0.00000000  0.23085276  0.50000000  1
  O  O1  1  0.76914724  0.76914724  0.50000000  1
  O  O2  1  0.23085276  0.00000000  0.50000000  1
  O  O3  1  0.51124904  0.69535546  0.28390094  1
  O  O4  1  0.30464454  0.81589358  0.28390094  1
  O  O5  1  0.18410642  0.48875096  0.28390094  1
  O  O6  1  0.48875096  0.18410642  0.71609906  1
  O  O7  1  0.18410642  0.48875096  0.71609906  1
  O  O8  1  0.51124904  0.69535546  0.71609906  1
  O  O9  1  0.30464454  0.81589358  0.71609906  1
  O  O10  1  0.69535546  0.51124904  0.28390094  1
  O  O11  1  0.81589358  0.30464454  0.28390094  1
  O  O12  1  0.81589358  0.30464454  0.71609906  1
  O  O13  1  0.33333333  0.66666667  0.00000000  1
  O  O14  1  0.66666667  0.33333333  0.00000000  1
  O  O15  1  0.27889764  0.00000000  0.00000000  1
  O  O16  1  0.72110236  0.72110236  0.00000000  1
  O  O17  1  0.00000000  0.27889764  0.00000000  1
  O  O18  1  0.82395797  0.00000000  0.23476546  1
  O  O19  1  0.17604203  0.17604203  0.76523454  1
  O  O20  1  0.00000000  0.82395797  0.76523454  1
  O  O21  1  0.00000000  0.82395797  0.23476546  1
  O  O22  1  0.17604203  0.17604203  0.23476546  1
  O  O23  1  0.82395797  0.00000000  0.76523454  1
  O  O24  1  0.48875096  0.18410642  0.28390094  1
  O  O25  1  0.69535546  0.51124904  0.71609906  1
  Si  Si26  1  0.66666667  0.33333333  0.20575340  1
  Si  Si27  1  0.66666667  0.33333333  0.79424660  1
  Si  Si28  1  0.33333333  0.66666667  0.79424660  1
  Si  Si29  1  0.33333333  0.66666667  0.20575340  1
  Nb  Nb30  1  0.23875077  0.00000000  0.75565240  1
  Nb  Nb31  1  0.76124923  0.76124923  0.24434760  1
  Nb  Nb32  1  0.00000000  0.23875077  0.24434760  1
  Nb  Nb33  1  0.00000000  0.23875077  0.75565240  1
  Nb  Nb34  1  0.76124923  0.76124923  0.75565240  1
  Nb  Nb35  1  0.23875077  0.00000000  0.24434760  1
  Ba  Ba36  1  0.00000000  0.59994821  0.50000000  1
  Ba  Ba37  1  0.40005179  0.40005179  0.50000000  1
  Ba  Ba38  1  0.59994821  0.00000000  0.50000000  1
