# generated using pymatgen
data_Ca7Tl3N2
_symmetry_space_group_name_H-M   'P 1'
_cell_length_a   4.88635369
_cell_length_b   4.96752920
_cell_length_c   12.68880082
_cell_angle_alpha   101.28822594
_cell_angle_beta   90.00000000
_cell_angle_gamma   90.00000000
_symmetry_Int_Tables_number   1
_chemical_formula_structural   Ca7Tl3N2
_chemical_formula_sum   'Ca7 Tl3 N2'
_cell_volume   302.03836654
_cell_formula_units_Z   1
loop_
 _symmetry_equiv_pos_site_id
 _symmetry_equiv_pos_as_xyz
  1  'x, y, z'
loop_
 _atom_site_type_symbol
 _atom_site_label
 _atom_site_symmetry_multiplicity
 _atom_site_fract_x
 _atom_site_fract_y
 _atom_site_fract_z
 _atom_site_occupancy
  N  N0  1  0.00000000  0.89715232  0.79430463  1
  N  N1  1  0.00000000  0.10284768  0.20569537  1
  Ca  Ca2  1  0.00000000  0.39977598  0.79955195  1
  Ca  Ca3  1  0.00000000  0.80350473  0.60700946  1
  Ca  Ca4  1  0.00000000  0.00000000  0.00000000  1
  Ca  Ca5  1  0.00000000  0.60022402  0.20044805  1
  Ca  Ca6  1  0.50000000  0.09903881  0.19807761  1
  Ca  Ca7  1  0.50000000  0.90096119  0.80192239  1
  Ca  Ca8  1  0.00000000  0.19649527  0.39299054  1
  Tl  Tl9  1  0.50000000  0.50000000  0.00000000  1
  Tl  Tl10  1  0.50000000  0.70658503  0.41317006  1
  Tl  Tl11  1  0.50000000  0.29341497  0.58682994  1
