# generated using pymatgen
data_Li3Cr2(PO4)3
_symmetry_space_group_name_H-M   'P 1'
_cell_length_a   9.10359813
_cell_length_b   9.10359813
_cell_length_c   15.02008819
_cell_angle_alpha   81.43892610
_cell_angle_beta   82.13596288
_cell_angle_gamma   121.91389006
_symmetry_Int_Tables_number   1
_chemical_formula_structural   Li3Cr2(PO4)3
_chemical_formula_sum   'Li12 Cr8 P12 O48'
_cell_volume   1009.83659972
_cell_formula_units_Z   4
loop_
 _symmetry_equiv_pos_site_id
 _symmetry_equiv_pos_as_xyz
  1  'x, y, z'
loop_
 _atom_site_type_symbol
 _atom_site_label
 _atom_site_symmetry_multiplicity
 _atom_site_fract_x
 _atom_site_fract_y
 _atom_site_fract_z
 _atom_site_occupancy
  Li  Li0  1  0.17773344  0.74822054  0.34887710  1
  Li  Li1  1  0.96728720  0.24912771  0.94350973  1
  Li  Li2  1  0.09898446  0.34898446  0.25000000  1
  Li  Li3  1  0.69263744  0.91079593  0.55649027  1
  Li  Li4  1  0.59709863  0.52661054  0.15112290  1
  Li  Li5  1  0.50000000  0.50000000  0.50000000  1
  Li  Li6  1  0.40290137  0.47338946  0.84887710  1
  Li  Li7  1  0.30736256  0.08920407  0.44350973  1
  Li  Li8  1  0.90101554  0.65101554  0.75000000  1
  Li  Li9  1  0.03271280  0.75087229  0.05649027  1
  Li  Li10  1  0.82226656  0.25177946  0.65112290  1
  Li  Li11  1  0.50000000  -0.00000000  -0.00000000  1
  Cr  Cr12  1  0.26004520  0.71648676  0.53093992  1
  Cr  Cr13  1  0.32962026  0.80951265  0.83544126  1
  Cr  Cr14  1  0.14495391  0.16506152  0.66455874  1
  Cr  Cr15  1  0.74742568  0.79098513  0.96906008  1
  Cr  Cr16  1  0.25257432  0.20901487  0.03093992  1
  Cr  Cr17  1  0.85504609  0.83493848  0.33544126  1
  Cr  Cr18  1  0.67037974  0.19048735  0.16455874  1
  Cr  Cr19  1  0.73995480  0.28351324  0.46906008  1
  P  P20  1  0.60381092  0.96143871  0.37296419  1
  P  P21  1  0.28276245  0.56410744  0.69035699  1
  P  P22  1  0.31237396  0.59407229  0.02965979  1
  P  P23  1  0.12373208  0.34203375  0.47034021  1
  P  P24  1  0.75446443  0.97311943  0.80964301  1
  P  P25  1  0.83440289  0.97677511  0.12703581  1
  P  P26  1  0.16559711  0.02322489  0.87296419  1
  P  P27  1  0.24553557  0.02688057  0.19035699  1
  P  P28  1  0.87626792  0.65796625  0.52965979  1
  P  P29  1  0.68762604  0.40592771  0.97034021  1
  P  P30  1  0.71723755  0.43589256  0.30964301  1
  P  P31  1  0.39618908  0.03856129  0.62703581  1
  O  O32  1  0.11151522  0.90717180  0.28788597  1
  O  O33  1  0.17444799  0.95202943  0.10692768  1
  O  O34  1  0.32294190  0.00217097  0.87358557  1
  O  O35  1  0.30418980  0.94739664  0.55306317  1
  O  O36  1  0.06054266  0.69452896  0.48033101  1
  O  O37  1  0.29941588  0.88774179  0.71763471  1
  O  O38  1  0.39968497  0.87978668  0.39883578  1
  O  O39  1  0.11617319  0.54692186  0.66325921  1
  O  O40  1  0.23082254  0.67827765  0.97061569  1
  O  O41  1  0.58780387  0.97581853  0.80363116  1
  O  O42  1  0.20249428  0.50976390  0.12952274  1
  O  O43  1  0.30494223  0.60059881  0.78788597  1
  O  O44  1  0.27252398  0.52541965  0.48376308  1
  O  O45  1  0.44104289  0.71862433  0.60692768  1
  O  O46  1  0.50918273  0.75628706  0.01623692  1
  O  O47  1  0.62424346  0.80347154  0.37358557  1
  O  O48  1  0.13928665  0.33201602  0.37047726  1
  O  O49  1  0.99954019  0.14274703  0.05306317  1
  O  O50  1  0.27945069  0.39143503  0.69636884  1
  O  O51  1  0.32514002  0.45912733  0.98033101  1
  O  O52  1  0.89462250  0.98294941  0.21763471  1
  O  O53  1  0.14889334  0.20143924  0.52938431  1
  O  O54  1  0.77862246  0.79852075  0.10116422  1
  O  O55  1  0.71018108  0.77943240  0.83674079  1
  O  O56  1  0.28981892  0.22056760  0.16325921  1
  O  O57  1  0.22137754  0.20147925  0.89883578  1
  O  O58  1  0.85110666  0.79856076  0.47061569  1
  O  O59  1  0.10537750  0.01705059  0.78236529  1
  O  O60  1  0.67485998  0.54087267  0.01966899  1
  O  O61  1  0.72054931  0.60856497  0.30363116  1
  O  O62  1  0.00045981  0.85725297  0.94693683  1
  O  O63  1  0.86071335  0.66798398  0.62952274  1
  O  O64  1  0.37575654  0.19652846  0.62641443  1
  O  O65  1  0.49081727  0.24371294  0.98376308  1
  O  O66  1  0.55895711  0.28137567  0.39307232  1
  O  O67  1  0.72747602  0.47458035  0.51623692  1
  O  O68  1  0.69505777  0.39940119  0.21211403  1
  O  O69  1  0.79750572  0.49023610  0.87047726  1
  O  O70  1  0.41219613  0.02418147  0.19636884  1
  O  O71  1  0.76917746  0.32172235  0.02938431  1
  O  O72  1  0.88382681  0.45307814  0.33674079  1
  O  O73  1  0.60031503  0.12021332  0.60116422  1
  O  O74  1  0.70058412  0.11225821  0.28236529  1
  O  O75  1  0.93945734  0.30547104  0.51966899  1
  O  O76  1  0.69581020  0.05260336  0.44693683  1
  O  O77  1  0.67705810  0.99782903  0.12641443  1
  O  O78  1  0.82555201  0.04797057  0.89307232  1
  O  O79  1  0.88848478  0.09282820  0.71211403  1
