# generated using pymatgen
data_Y(Zn10Ru)2
_symmetry_space_group_name_H-M   'P 1'
_cell_length_a   10.09901407
_cell_length_b   10.09901434
_cell_length_c   10.09901400
_cell_angle_alpha   59.99999782
_cell_angle_beta   59.99999696
_cell_angle_gamma   59.99999882
_symmetry_Int_Tables_number   1
_chemical_formula_structural   Y(Zn10Ru)2
_chemical_formula_sum   'Y2 Zn40 Ru4'
_cell_volume   728.31947232
_cell_formula_units_Z   2
loop_
 _symmetry_equiv_pos_site_id
 _symmetry_equiv_pos_as_xyz
  1  'x, y, z'
loop_
 _atom_site_type_symbol
 _atom_site_label
 _atom_site_symmetry_multiplicity
 _atom_site_fract_x
 _atom_site_fract_y
 _atom_site_fract_z
 _atom_site_occupancy
  Y  Y0  1  0.12500000  0.12500000  0.12500000  1
  Y  Y1  1  0.87500000  0.87500000  0.87500000  1
  Zn  Zn2  1  0.32537521  0.05636439  0.79288520  1
  Zn  Zn3  1  0.32537521  0.32537521  0.79288520  1
  Zn  Zn4  1  0.67462479  0.20711480  0.67462479  1
  Zn  Zn5  1  0.67462479  0.94363561  0.67462479  1
  Zn  Zn6  1  0.32537521  0.79288520  0.05636439  1
  Zn  Zn7  1  0.67462479  0.94363561  0.20711480  1
  Zn  Zn8  1  0.50000000  0.00000000  0.00000000  1
  Zn  Zn9  1  0.23861634  0.23861634  0.51138366  1
  Zn  Zn10  1  0.00000000  0.00000000  0.00000000  1
  Zn  Zn11  1  0.05636439  0.32537521  0.79288520  1
  Zn  Zn12  1  0.67462479  0.67462479  0.94363561  1
  Zn  Zn13  1  0.51138366  0.23861634  0.51138366  1
  Zn  Zn14  1  0.32537521  0.32537521  0.05636439  1
  Zn  Zn15  1  0.20711480  0.67462479  0.67462479  1
  Zn  Zn16  1  0.23861634  0.51138366  0.51138366  1
  Zn  Zn17  1  0.48861634  0.48861634  0.76138366  1
  Zn  Zn18  1  0.79288520  0.32537521  0.32537521  1
  Zn  Zn19  1  0.05636439  0.79288520  0.32537521  1
  Zn  Zn20  1  0.05636439  0.32537521  0.32537521  1
  Zn  Zn21  1  0.23861634  0.51138366  0.23861634  1
  Zn  Zn22  1  0.79288520  0.32537521  0.05636439  1
  Zn  Zn23  1  0.32537521  0.79288520  0.32537521  1
  Zn  Zn24  1  0.94363561  0.20711480  0.67462479  1
  Zn  Zn25  1  0.76138366  0.48861634  0.48861634  1
  Zn  Zn26  1  0.00000000  0.00000000  0.50000000  1
  Zn  Zn27  1  0.51138366  0.23861634  0.23861634  1
  Zn  Zn28  1  0.76138366  0.76138366  0.48861634  1
  Zn  Zn29  1  0.67462479  0.20711480  0.94363561  1
  Zn  Zn30  1  0.94363561  0.67462479  0.67462479  1
  Zn  Zn31  1  0.48861634  0.76138366  0.76138366  1
  Zn  Zn32  1  0.00000000  0.50000000  0.00000000  1
  Zn  Zn33  1  0.67462479  0.67462479  0.20711480  1
  Zn  Zn34  1  0.94363561  0.67462479  0.20711480  1
  Zn  Zn35  1  0.51138366  0.51138366  0.23861634  1
  Zn  Zn36  1  0.76138366  0.48861634  0.76138366  1
  Zn  Zn37  1  0.79288520  0.05636439  0.32537521  1
  Zn  Zn38  1  0.48861634  0.76138366  0.48861634  1
  Zn  Zn39  1  0.20711480  0.67462479  0.94363561  1
  Zn  Zn40  1  0.32537521  0.05636439  0.32537521  1
  Zn  Zn41  1  0.20711480  0.94363561  0.67462479  1
  Ru  Ru42  1  0.50000000  0.50000000  0.50000000  1
  Ru  Ru43  1  0.50000000  0.50000000  0.00000000  1
  Ru  Ru44  1  0.50000000  0.00000000  0.50000000  1
  Ru  Ru45  1  0.00000000  0.50000000  0.50000000  1
