# generated using pymatgen
data_BAsO4
_symmetry_space_group_name_H-M   'P 1'
_cell_length_a   4.58570922
_cell_length_b   4.58570922
_cell_length_c   4.72681605
_cell_angle_alpha   119.01730747
_cell_angle_beta   119.01730740
_cell_angle_gamma   90.00000005
_symmetry_Int_Tables_number   1
_chemical_formula_structural   BAsO4
_chemical_formula_sum   'B1 As1 O4'
_cell_volume   72.32301017
_cell_formula_units_Z   1
loop_
 _symmetry_equiv_pos_site_id
 _symmetry_equiv_pos_as_xyz
  1  'x, y, z'
loop_
 _atom_site_type_symbol
 _atom_site_label
 _atom_site_symmetry_multiplicity
 _atom_site_fract_x
 _atom_site_fract_y
 _atom_site_fract_z
 _atom_site_occupancy
  B  B0  1  0.25000000  0.75000000  0.50000000  1
  O  O1  1  0.14380255  0.71162017  0.73334206  1
  O  O2  1  0.28837983  0.41046049  0.26665794  1
  O  O3  1  0.58953951  0.02172189  0.73334206  1
  O  O4  1  0.97827811  0.85619745  0.26665794  1
  As  As5  1  0.00000000  0.00000000  0.00000000  1
