# generated using pymatgen
data_LiCa3RuO6
_symmetry_space_group_name_H-M   'P 1'
_cell_length_a   6.47996104
_cell_length_b   6.47996104
_cell_length_c   6.47996104
_cell_angle_alpha   91.94371237
_cell_angle_beta   91.94371238
_cell_angle_gamma   91.94371236
_symmetry_Int_Tables_number   1
_chemical_formula_structural   LiCa3RuO6
_chemical_formula_sum   'Li2 Ca6 Ru2 O12'
_cell_volume   271.61231629
_cell_formula_units_Z   2
loop_
 _symmetry_equiv_pos_site_id
 _symmetry_equiv_pos_as_xyz
  1  'x, y, z'
loop_
 _atom_site_type_symbol
 _atom_site_label
 _atom_site_symmetry_multiplicity
 _atom_site_fract_x
 _atom_site_fract_y
 _atom_site_fract_z
 _atom_site_occupancy
  Li  Li0  1  0.25000000  0.25000000  0.25000000  1
  Li  Li1  1  0.75000000  0.75000000  0.75000000  1
  O  O2  1  0.45009310  0.79154635  0.57706770  1
  O  O3  1  0.04990690  0.92293230  0.70845365  1
  O  O4  1  0.92293230  0.70845365  0.04990690  1
  O  O5  1  0.70845365  0.04990690  0.92293230  1
  O  O6  1  0.79154635  0.57706770  0.45009310  1
  O  O7  1  0.57706770  0.45009310  0.79154635  1
  O  O8  1  0.20845365  0.42293230  0.54990690  1
  O  O9  1  0.42293230  0.54990690  0.20845365  1
  O  O10  1  0.29154635  0.95009310  0.07706770  1
  O  O11  1  0.07706770  0.29154635  0.95009310  1
  O  O12  1  0.95009310  0.07706770  0.29154635  1
  O  O13  1  0.54990690  0.20845365  0.42293230  1
  Ca  Ca14  1  0.60540692  0.89459308  0.25000000  1
  Ca  Ca15  1  0.25000000  0.60540692  0.89459308  1
  Ca  Ca16  1  0.10540692  0.75000000  0.39459308  1
  Ca  Ca17  1  0.75000000  0.39459308  0.10540692  1
  Ca  Ca18  1  0.39459308  0.10540692  0.75000000  1
  Ca  Ca19  1  0.89459308  0.25000000  0.60540692  1
  Ru  Ru20  1  0.00000000  0.00000000  0.00000000  1
  Ru  Ru21  1  0.50000000  0.50000000  0.50000000  1
