# generated using pymatgen
data_BaZn2Si2O7
_symmetry_space_group_name_H-M   'P 1'
_cell_length_a   6.76240358
_cell_length_b   7.65766389
_cell_length_c   7.65766445
_cell_angle_alpha   117.89939725
_cell_angle_beta   90.00000000
_cell_angle_gamma   90.00000000
_symmetry_Int_Tables_number   1
_chemical_formula_structural   BaZn2Si2O7
_chemical_formula_sum   'Ba2 Zn4 Si4 O14'
_cell_volume   350.45579467
_cell_formula_units_Z   2
loop_
 _symmetry_equiv_pos_site_id
 _symmetry_equiv_pos_as_xyz
  1  'x, y, z'
loop_
 _atom_site_type_symbol
 _atom_site_label
 _atom_site_symmetry_multiplicity
 _atom_site_fract_x
 _atom_site_fract_y
 _atom_site_fract_z
 _atom_site_occupancy
  Ba  Ba0  1  0.37735979  0.76015879  0.76015879  1
  Ba  Ba1  1  0.87735979  0.23984121  0.23984121  1
  Zn  Zn2  1  0.12752595  0.72407856  0.27475924  1
  Zn  Zn3  1  0.12752595  0.27475924  0.72407856  1
  Zn  Zn4  1  0.62752595  0.72524076  0.27592144  1
  Zn  Zn5  1  0.62752595  0.27592144  0.72524076  1
  Si  Si6  1  0.87812751  0.91489150  0.67929006  1
  Si  Si7  1  0.87812751  0.67929006  0.91489150  1
  Si  Si8  1  0.37812751  0.32070994  0.08510850  1
  Si  Si9  1  0.37812751  0.08510850  0.32070994  1
  O  O10  1  0.37740219  0.22939499  0.84093324  1
  O  O11  1  0.17489577  0.18181260  0.43986872  1
  O  O12  1  0.87740219  0.15906676  0.77060501  1
  O  O13  1  0.58166943  0.17986661  0.44025839  1
  O  O14  1  0.87740219  0.77060501  0.15906676  1
  O  O15  1  0.87939650  0.88563929  0.88563929  1
  O  O16  1  0.08166943  0.82013339  0.55974161  1
  O  O17  1  0.17489577  0.43986872  0.18181260  1
  O  O18  1  0.67489577  0.81818740  0.56013128  1
  O  O19  1  0.67489577  0.56013128  0.81818740  1
  O  O20  1  0.37939650  0.11436071  0.11436071  1
  O  O21  1  0.58166943  0.44025839  0.17986661  1
  O  O22  1  0.08166943  0.55974161  0.82013339  1
  O  O23  1  0.37740219  0.84093324  0.22939499  1
