# generated using pymatgen
data_Pt(OF3)2
_symmetry_space_group_name_H-M   'P 1'
_cell_length_a   8.79640705
_cell_length_b   8.79640711
_cell_length_c   8.79640667
_cell_angle_alpha   109.47122205
_cell_angle_beta   109.47122214
_cell_angle_gamma   109.47121898
_symmetry_Int_Tables_number   1
_chemical_formula_structural   Pt(OF3)2
_chemical_formula_sum   'Pt4 O8 F24'
_cell_volume   523.95506187
_cell_formula_units_Z   4
loop_
 _symmetry_equiv_pos_site_id
 _symmetry_equiv_pos_as_xyz
  1  'x, y, z'
loop_
 _atom_site_type_symbol
 _atom_site_label
 _atom_site_symmetry_multiplicity
 _atom_site_fract_x
 _atom_site_fract_y
 _atom_site_fract_z
 _atom_site_occupancy
  O  O0  1  0.56686116  0.56686116  0.56686116  1
  O  O1  1  1.00000000  0.93313884  0.50000000  1
  O  O2  1  0.50000000  0.00000000  0.93313884  1
  O  O3  1  0.93313884  0.50000000  1.00000000  1
  O  O4  1  0.43313884  0.43313884  0.43313884  1
  O  O5  1  0.00000000  0.06686116  0.50000000  1
  O  O6  1  0.50000000  1.00000000  0.06686116  1
  O  O7  1  0.06686116  0.50000000  0.00000000  1
  Pt  Pt8  1  0.00000000  0.00000000  0.00000000  1
  Pt  Pt9  1  0.00000000  0.50000000  0.50000000  1
  Pt  Pt10  1  0.50000000  0.00000000  0.50000000  1
  Pt  Pt11  1  0.50000000  0.50000000  0.00000000  1
  F  F12  1  0.25105007  0.08533399  0.04714948  1
  F  F13  1  0.20390059  0.45285052  0.53818451  1
  F  F14  1  0.66571607  0.96181549  0.41466601  1
  F  F15  1  0.29609941  0.83428393  0.24894993  1
  F  F16  1  0.45285052  0.53818451  0.20390059  1
  F  F17  1  0.41466601  0.66571607  0.96181549  1
  F  F18  1  0.83428393  0.24894993  0.29609941  1
  F  F19  1  0.04714948  0.25105007  0.08533399  1
  F  F20  1  0.08533399  0.04714948  0.25105007  1
  F  F21  1  0.53818451  0.20390059  0.45285052  1
  F  F22  1  0.96181549  0.41466601  0.66571607  1
  F  F23  1  0.24894993  0.29609941  0.83428393  1
  F  F24  1  0.74894993  0.91466601  0.95285052  1
  F  F25  1  0.79609941  0.54714948  0.46181549  1
  F  F26  1  0.33428393  0.03818451  0.58533399  1
  F  F27  1  0.70390059  0.16571607  0.75105007  1
  F  F28  1  0.54714948  0.46181549  0.79609941  1
  F  F29  1  0.58533399  0.33428393  0.03818451  1
  F  F30  1  0.16571607  0.75105007  0.70390059  1
  F  F31  1  0.95285052  0.74894993  0.91466601  1
  F  F32  1  0.91466601  0.95285052  0.74894993  1
  F  F33  1  0.46181549  0.79609941  0.54714948  1
  F  F34  1  0.03818451  0.58533399  0.33428393  1
  F  F35  1  0.75105007  0.70390059  0.16571607  1
