# generated using pymatgen
data_K3VO4
_symmetry_space_group_name_H-M   'P 1'
_cell_length_a   8.46172871
_cell_length_b   8.46172871
_cell_length_c   8.46172871
_cell_angle_alpha   90.00000000
_cell_angle_beta   90.00000000
_cell_angle_gamma   90.00000000
_symmetry_Int_Tables_number   1
_chemical_formula_structural   K3VO4
_chemical_formula_sum   'K12 V4 O16'
_cell_volume   605.86699147
_cell_formula_units_Z   4
loop_
 _symmetry_equiv_pos_site_id
 _symmetry_equiv_pos_as_xyz
  1  'x, y, z'
loop_
 _atom_site_type_symbol
 _atom_site_label
 _atom_site_symmetry_multiplicity
 _atom_site_fract_x
 _atom_site_fract_y
 _atom_site_fract_z
 _atom_site_occupancy
  K  K0  1  0.46686847  0.53313153  0.03313153  1
  K  K1  1  0.50934898  0.99065102  0.00934898  1
  K  K2  1  0.49065102  0.49065102  0.49065102  1
  K  K3  1  0.96686847  0.96686847  0.96686847  1
  K  K4  1  0.53313153  0.03313153  0.46686847  1
  K  K5  1  0.03313153  0.46686847  0.53313153  1
  K  K6  1  0.22458416  0.77541584  0.27541584  1
  K  K7  1  0.27541584  0.22458416  0.77541584  1
  K  K8  1  0.00934898  0.50934898  0.99065102  1
  K  K9  1  0.99065102  0.00934898  0.50934898  1
  K  K10  1  0.77541584  0.27541584  0.22458416  1
  K  K11  1  0.72458416  0.72458416  0.72458416  1
  V  V12  1  0.73736409  0.76263591  0.23736409  1
  V  V13  1  0.76263591  0.23736409  0.73736409  1
  V  V14  1  0.26263591  0.26263591  0.26263591  1
  V  V15  1  0.23736409  0.73736409  0.76263591  1
  O  O16  1  0.53763806  0.74009987  0.28847395  1
  O  O17  1  0.35537785  0.85537785  0.64462215  1
  O  O18  1  0.85537785  0.64462215  0.35537785  1
  O  O19  1  0.74009987  0.28847395  0.53763806  1
  O  O20  1  0.03763806  0.75990013  0.71152605  1
  O  O21  1  0.24009987  0.21152605  0.46236194  1
  O  O22  1  0.21152605  0.46236194  0.24009987  1
  O  O23  1  0.96236194  0.25990013  0.78847395  1
  O  O24  1  0.28847395  0.53763806  0.74009987  1
  O  O25  1  0.46236194  0.24009987  0.21152605  1
  O  O26  1  0.78847395  0.96236194  0.25990013  1
  O  O27  1  0.64462215  0.35537785  0.85537785  1
  O  O28  1  0.75990013  0.71152605  0.03763806  1
  O  O29  1  0.71152605  0.03763806  0.75990013  1
  O  O30  1  0.14462215  0.14462215  0.14462215  1
  O  O31  1  0.25990013  0.78847395  0.96236194  1
