# generated using pymatgen
data_LiBi(PdO2)2
_symmetry_space_group_name_H-M   'P 1'
_cell_length_a   4.42655100
_cell_length_b   7.01741837
_cell_length_c   7.01741837
_cell_angle_alpha   90.00000000
_cell_angle_beta   90.00000000
_cell_angle_gamma   90.00000000
_symmetry_Int_Tables_number   1
_chemical_formula_structural   LiBi(PdO2)2
_chemical_formula_sum   'Li2 Bi2 Pd4 O8'
_cell_volume   217.98178826
_cell_formula_units_Z   2
loop_
 _symmetry_equiv_pos_site_id
 _symmetry_equiv_pos_as_xyz
  1  'x, y, z'
loop_
 _atom_site_type_symbol
 _atom_site_label
 _atom_site_symmetry_multiplicity
 _atom_site_fract_x
 _atom_site_fract_y
 _atom_site_fract_z
 _atom_site_occupancy
  Li  Li0  1  0.50000000  0.75000000  0.25000000  1
  Li  Li1  1  0.50000000  0.25000000  0.75000000  1
  Bi  Bi2  1  0.50707712  0.25000000  0.25000000  1
  Bi  Bi3  1  0.49292288  0.75000000  0.75000000  1
  Pd  Pd4  1  0.00000000  0.00000000  0.50000000  1
  Pd  Pd5  1  0.00000000  0.50000000  0.50000000  1
  Pd  Pd6  1  0.00000000  0.50000000  0.00000000  1
  Pd  Pd7  1  0.00000000  0.00000000  0.00000000  1
  O  O8  1  0.76472360  0.75000000  0.47630239  1
  O  O9  1  0.23527640  0.52369761  0.25000000  1
  O  O10  1  0.76472360  0.75000000  0.02369761  1
  O  O11  1  0.23527640  0.25000000  0.52369761  1
  O  O12  1  0.23527640  0.97630239  0.25000000  1
  O  O13  1  0.76472360  0.02369761  0.75000000  1
  O  O14  1  0.23527640  0.25000000  0.97630239  1
  O  O15  1  0.76472360  0.47630239  0.75000000  1
