# generated using pymatgen
data_CsNa2Ge17
_symmetry_space_group_name_H-M   'P 1'
_cell_length_a   11.19570527
_cell_length_b   11.19570527
_cell_length_c   11.19570527
_cell_angle_alpha   60.00000000
_cell_angle_beta   60.00000000
_cell_angle_gamma   60.00000000
_symmetry_Int_Tables_number   1
_chemical_formula_structural   CsNa2Ge17
_chemical_formula_sum   'Cs2 Na4 Ge34'
_cell_volume   992.29173445
_cell_formula_units_Z   2
loop_
 _symmetry_equiv_pos_site_id
 _symmetry_equiv_pos_as_xyz
  1  'x, y, z'
loop_
 _atom_site_type_symbol
 _atom_site_label
 _atom_site_symmetry_multiplicity
 _atom_site_fract_x
 _atom_site_fract_y
 _atom_site_fract_z
 _atom_site_occupancy
  Cs  Cs0  1  0.62500000  0.62500000  0.62500000  1
  Cs  Cs1  1  0.37500000  0.37500000  0.37500000  1
  Na  Na2  1  0.00000000  0.00000000  0.50000000  1
  Na  Na3  1  0.00000000  0.50000000  -0.00000000  1
  Na  Na4  1  0.50000000  0.00000000  -0.00000000  1
  Na  Na5  1  0.00000000  0.00000000  -0.00000000  1
  Ge  Ge6  1  0.12500000  0.12500000  0.12500000  1
  Ge  Ge7  1  0.87500000  0.87500000  0.87500000  1
  Ge  Ge8  1  0.21816909  0.21816909  0.84549273  1
  Ge  Ge9  1  0.21816909  0.84549273  0.21816909  1
  Ge  Ge10  1  0.84549273  0.21816909  0.21816909  1
  Ge  Ge11  1  0.21816909  0.21816909  0.21816909  1
  Ge  Ge12  1  0.78183091  0.78183091  0.15450727  1
  Ge  Ge13  1  0.78183091  0.15450727  0.78183091  1
  Ge  Ge14  1  0.15450727  0.78183091  0.78183091  1
  Ge  Ge15  1  0.78183091  0.78183091  0.78183091  1
  Ge  Ge16  1  0.37093631  0.37093631  0.76514862  1
  Ge  Ge17  1  0.99297877  0.76514862  0.37093631  1
  Ge  Ge18  1  0.76514862  0.99297877  0.37093631  1
  Ge  Ge19  1  0.37093631  0.37093631  0.99297877  1
  Ge  Ge20  1  0.76514862  0.37093631  0.37093631  1
  Ge  Ge21  1  0.37093631  0.99297877  0.76514862  1
  Ge  Ge22  1  0.37093631  0.76514862  0.99297877  1
  Ge  Ge23  1  0.99297877  0.37093631  0.37093631  1
  Ge  Ge24  1  0.37093631  0.76514862  0.37093631  1
  Ge  Ge25  1  0.76514862  0.37093631  0.99297877  1
  Ge  Ge26  1  0.99297877  0.37093631  0.76514862  1
  Ge  Ge27  1  0.37093631  0.99297877  0.37093631  1
  Ge  Ge28  1  0.62906369  0.62906369  0.23485138  1
  Ge  Ge29  1  0.00702123  0.23485138  0.62906369  1
  Ge  Ge30  1  0.23485138  0.00702123  0.62906369  1
  Ge  Ge31  1  0.62906369  0.62906369  0.00702123  1
  Ge  Ge32  1  0.23485138  0.62906369  0.62906369  1
  Ge  Ge33  1  0.62906369  0.00702123  0.23485138  1
  Ge  Ge34  1  0.62906369  0.23485138  0.00702123  1
  Ge  Ge35  1  0.00702123  0.62906369  0.62906369  1
  Ge  Ge36  1  0.62906369  0.23485138  0.62906369  1
  Ge  Ge37  1  0.23485138  0.62906369  0.00702123  1
  Ge  Ge38  1  0.00702123  0.62906369  0.23485138  1
  Ge  Ge39  1  0.62906369  0.00702123  0.62906369  1
