# generated using pymatgen
data_BaSn(GeO3)3
_symmetry_space_group_name_H-M   'P 1'
_cell_length_a   7.02224951
_cell_length_b   7.02224938
_cell_length_c   10.39429357
_cell_angle_alpha   90.00000000
_cell_angle_beta   90.00000000
_cell_angle_gamma   120.00000057
_symmetry_Int_Tables_number   1
_chemical_formula_structural   BaSn(GeO3)3
_chemical_formula_sum   'Ba2 Sn2 Ge6 O18'
_cell_volume   443.89281222
_cell_formula_units_Z   2
loop_
 _symmetry_equiv_pos_site_id
 _symmetry_equiv_pos_as_xyz
  1  'x, y, z'
loop_
 _atom_site_type_symbol
 _atom_site_label
 _atom_site_symmetry_multiplicity
 _atom_site_fract_x
 _atom_site_fract_y
 _atom_site_fract_z
 _atom_site_occupancy
  Ba  Ba0  1  0.66666700  0.33333300  0.00000000  1
  Ba  Ba1  1  0.66666700  0.33333300  0.50000000  1
  Sn  Sn2  1  0.33333300  0.66666700  0.00000000  1
  Sn  Sn3  1  0.33333300  0.66666700  0.50000000  1
  Ge  Ge4  1  0.07459869  0.29381586  0.25000000  1
  Ge  Ge5  1  0.21921716  0.92540131  0.25000000  1
  Ge  Ge6  1  0.70618414  0.78078284  0.25000000  1
  Ge  Ge7  1  0.70618414  0.92540131  0.75000000  1
  Ge  Ge8  1  0.21921716  0.29381586  0.75000000  1
  Ge  Ge9  1  0.07459869  0.78078284  0.75000000  1
  O  O10  1  0.26975005  0.20288423  0.25000000  1
  O  O11  1  0.93313418  0.73024995  0.25000000  1
  O  O12  1  0.79711577  0.06686582  0.25000000  1
  O  O13  1  0.79711577  0.73024995  0.75000000  1
  O  O14  1  0.93313418  0.20288423  0.75000000  1
  O  O15  1  0.26975005  0.06686582  0.75000000  1
  O  O16  1  0.07503788  0.43075233  0.10892382  1
  O  O17  1  0.35571444  0.92496212  0.39107618  1
  O  O18  1  0.56924767  0.64428556  0.39107618  1
  O  O19  1  0.56924767  0.64428556  0.10892382  1
  O  O20  1  0.35571444  0.92496212  0.10892382  1
  O  O21  1  0.56924767  0.92496212  0.89107618  1
  O  O22  1  0.35571444  0.43075233  0.89107618  1
  O  O23  1  0.07503788  0.64428556  0.89107618  1
  O  O24  1  0.35571444  0.43075233  0.60892382  1
  O  O25  1  0.07503788  0.64428556  0.60892382  1
  O  O26  1  0.07503788  0.43075233  0.39107618  1
  O  O27  1  0.56924767  0.92496212  0.60892382  1
