# generated using pymatgen
data_Li3V2(PO4)3
_symmetry_space_group_name_H-M   'P 1'
_cell_length_a   9.17168232
_cell_length_b   9.17909136
_cell_length_c   15.19781996
_cell_angle_alpha   81.99479926
_cell_angle_beta   81.55472711
_cell_angle_gamma   121.93998860
_symmetry_Int_Tables_number   1
_chemical_formula_structural   Li3V2(PO4)3
_chemical_formula_sum   'Li12 V8 P12 O48'
_cell_volume   1037.49349240
_cell_formula_units_Z   4
loop_
 _symmetry_equiv_pos_site_id
 _symmetry_equiv_pos_as_xyz
  1  'x, y, z'
loop_
 _atom_site_type_symbol
 _atom_site_label
 _atom_site_symmetry_multiplicity
 _atom_site_fract_x
 _atom_site_fract_y
 _atom_site_fract_z
 _atom_site_occupancy
  Li  Li0  1  0.18108481  0.76606264  0.35031587  1
  Li  Li1  1  0.96324164  0.24456133  0.94586087  1
  Li  Li2  1  0.12240669  0.37703286  0.25031783  1
  Li  Li3  1  0.68920059  0.91072442  0.55416686  1
  Li  Li4  1  0.61017944  0.52797857  0.14932004  1
  Li  Li5  1  0.50431099  0.50467050  0.49602698  1
  Li  Li6  1  0.38414327  0.46916318  0.85014757  1
  Li  Li7  1  0.30745057  0.09326631  0.44837462  1
  Li  Li8  1  0.87371551  0.62529352  0.74995269  1
  Li  Li9  1  0.03250810  0.75746616  0.05453390  1
  Li  Li10  1  0.81886122  0.23597077  0.64960355  1
  Li  Li11  1  0.50735500  0.00111672  0.00360524  1
  V  V12  1  0.25667352  0.70852360  0.53226605  1
  V  V13  1  0.31742966  0.80471927  0.83638406  1
  V  V14  1  0.14082938  0.15524445  0.66316031  1
  V  V15  1  0.74029810  0.78949841  0.96728998  1
  V  V16  1  0.25772839  0.21083166  0.03220725  1
  V  V17  1  0.85925962  0.84562830  0.33622174  1
  V  V18  1  0.68185867  0.19657812  0.16359416  1
  V  V19  1  0.74289042  0.29041710  0.46740443  1
  P  P20  1  0.59854977  0.96204353  0.37347064  1
  P  P21  1  0.28364651  0.56173479  0.68882447  1
  P  P22  1  0.31044387  0.59723098  0.02850383  1
  P  P23  1  0.12648743  0.34063861  0.47075303  1
  P  P24  1  0.75024907  0.97371945  0.81086229  1
  P  P25  1  0.83467646  0.97195518  0.12615849  1
  P  P26  1  0.16322610  0.02814208  0.87329312  1
  P  P27  1  0.24879807  0.02815230  0.18859493  1
  P  P28  1  0.87293994  0.65807259  0.52876114  1
  P  P29  1  0.68704636  0.40265442  0.97080777  1
  P  P30  1  0.71562145  0.43788146  0.31132680  1
  P  P31  1  0.40049480  0.03681480  0.62602283  1
  O  O32  1  0.11461492  0.91518997  0.28530782  1
  O  O33  1  0.17572447  0.94927763  0.10803805  1
  O  O34  1  0.31345198  0.99787994  0.87367208  1
  O  O35  1  0.31464659  0.94472234  0.55161899  1
  O  O36  1  0.05376504  0.68880672  0.48154786  1
  O  O37  1  0.30352855  0.89186297  0.71644269  1
  O  O38  1  0.39477089  0.87312440  0.39804971  1
  O  O39  1  0.11919082  0.54880982  0.66107236  1
  O  O40  1  0.22374819  0.66935854  0.96833115  1
  O  O41  1  0.58310066  0.96975678  0.80503876  1
  O  O42  1  0.20064595  0.51604985  0.12770521  1
  O  O43  1  0.29989598  0.60020236  0.78518465  1
  O  O44  1  0.27886213  0.52000623  0.48484749  1
  O  O45  1  0.44334705  0.71480641  0.60760503  1
  O  O46  1  0.50404635  0.76375363  0.01491470  1
  O  O47  1  0.62774599  0.81089685  0.37402160  1
  O  O48  1  0.14430883  0.33119840  0.37155154  1
  O  O49  1  0.00162391  0.13268637  0.05172043  1
  O  O50  1  0.27401792  0.38887250  0.69471860  1
  O  O51  1  0.32864505  0.46436481  0.98163129  1
  O  O52  1  0.88940419  0.97782804  0.21634145  1
  O  O53  1  0.14029499  0.19389771  0.53015319  1
  O  O54  1  0.77028217  0.79270024  0.10169821  1
  O  O55  1  0.70995559  0.78177184  0.83853155  1
  O  O56  1  0.28938899  0.22010482  0.16100606  1
  O  O57  1  0.22709566  0.20705423  0.89800992  1
  O  O58  1  0.85908365  0.80409682  0.46879589  1
  O  O59  1  0.10827775  0.02184424  0.78304541  1
  O  O60  1  0.67046160  0.53602992  0.01799591  1
  O  O61  1  0.72366281  0.60958384  0.30729738  1
  O  O62  1  0.99599766  0.86776548  0.94781932  1
  O  O63  1  0.85481172  0.66828352  0.62787308  1
  O  O64  1  0.37137015  0.18805685  0.62531163  1
  O  O65  1  0.49339540  0.23643697  0.98475549  1
  O  O66  1  0.55602394  0.28373575  0.39223101  1
  O  O67  1  0.72067766  0.47822459  0.51502027  1
  O  O68  1  0.69950977  0.40112342  0.21454815  1
  O  O69  1  0.79694046  0.48404173  0.87179448  1
  O  O70  1  0.41645013  0.03198218  0.19354647  1
  O  O71  1  0.77298918  0.32853329  0.03081918  1
  O  O72  1  0.88047853  0.45055144  0.33825835  1
  O  O73  1  0.60448399  0.12522066  0.60133080  1
  O  O74  1  0.69553792  0.10752290  0.28295840  1
  O  O75  1  0.94571168  0.30993049  0.51822439  1
  O  O76  1  0.68502954  0.05452187  0.44758323  1
  O  O77  1  0.68424945  0.00256835  0.12538696  1
  O  O78  1  0.82174945  0.05178818  0.89208325  1
  O  O79  1  0.88548527  0.08688406  0.71439519  1
