# generated using pymatgen
data_Ta2Cl5
_symmetry_space_group_name_H-M   'P 1'
_cell_length_a   17.97949134
_cell_length_b   17.97949059
_cell_length_c   17.97949039
_cell_angle_alpha   109.47122159
_cell_angle_beta   109.47122077
_cell_angle_gamma   109.47122137
_symmetry_Int_Tables_number   1
_chemical_formula_structural   Ta2Cl5
_chemical_formula_sum   'Ta48 Cl120'
_cell_volume   4474.14712582
_cell_formula_units_Z   24
loop_
 _symmetry_equiv_pos_site_id
 _symmetry_equiv_pos_as_xyz
  1  'x, y, z'
loop_
 _atom_site_type_symbol
 _atom_site_label
 _atom_site_symmetry_multiplicity
 _atom_site_fract_x
 _atom_site_fract_y
 _atom_site_fract_z
 _atom_site_occupancy
  Cl  Cl0  1  0.07866926  0.20472020  0.18438651  1
  Cl  Cl1  1  0.20472020  0.52033369  0.12605095  1
  Cl  Cl2  1  0.89428275  0.07866926  0.37394905  1
  Cl  Cl3  1  0.37394905  0.89428275  0.07866926  1
  Cl  Cl4  1  0.18438651  0.60571725  0.97966631  1
  Cl  Cl5  1  0.97966631  0.18438651  0.60571725  1
  Cl  Cl6  1  0.52033369  0.12605095  0.20472020  1
  Cl  Cl7  1  0.89428275  0.31561349  0.52033369  1
  Cl  Cl8  1  0.37394905  0.97966631  0.29527980  1
  Cl  Cl9  1  0.60571725  0.12605095  0.42133074  1
  Cl  Cl10  1  0.31561349  0.52033369  0.89428275  1
  Cl  Cl11  1  0.29527980  0.37394905  0.97966631  1
  Cl  Cl12  1  0.12605095  0.42133074  0.60571725  1
  Cl  Cl13  1  0.18438651  0.07866926  0.20472020  1
  Cl  Cl14  1  0.20472020  0.18438651  0.07866926  1
  Cl  Cl15  1  0.52033369  0.89428275  0.31561349  1
  Cl  Cl16  1  0.29527980  0.42133074  0.31561349  1
  Cl  Cl17  1  0.97966631  0.29527980  0.37394905  1
  Cl  Cl18  1  0.31561349  0.29527980  0.42133074  1
  Cl  Cl19  1  0.42133074  0.60571725  0.12605095  1
  Cl  Cl20  1  0.42133074  0.31561349  0.29527980  1
  Cl  Cl21  1  0.60571725  0.97966631  0.18438651  1
  Cl  Cl22  1  0.12605095  0.20472020  0.52033369  1
  Cl  Cl23  1  0.07866926  0.37394905  0.89428275  1
  Cl  Cl24  1  0.92133074  0.79527980  0.81561349  1
  Cl  Cl25  1  0.79527980  0.47966631  0.87394905  1
  Cl  Cl26  1  0.10571725  0.92133074  0.62605095  1
  Cl  Cl27  1  0.62605095  0.10571725  0.92133074  1
  Cl  Cl28  1  0.81561349  0.39428275  0.02033369  1
  Cl  Cl29  1  0.02033369  0.81561349  0.39428275  1
  Cl  Cl30  1  0.47966631  0.87394905  0.79527980  1
  Cl  Cl31  1  0.10571725  0.68438651  0.47966631  1
  Cl  Cl32  1  0.62605095  0.02033369  0.70472020  1
  Cl  Cl33  1  0.39428275  0.87394905  0.57866926  1
  Cl  Cl34  1  0.68438651  0.47966631  0.10571725  1
  Cl  Cl35  1  0.70472020  0.62605095  0.02033369  1
  Cl  Cl36  1  0.87394905  0.57866926  0.39428275  1
  Cl  Cl37  1  0.81561349  0.92133074  0.79527980  1
  Cl  Cl38  1  0.79527980  0.81561349  0.92133074  1
  Cl  Cl39  1  0.47966631  0.10571725  0.68438651  1
  Cl  Cl40  1  0.70472020  0.57866926  0.68438651  1
  Cl  Cl41  1  0.02033369  0.70472020  0.62605095  1
  Cl  Cl42  1  0.68438651  0.70472020  0.57866926  1
  Cl  Cl43  1  0.57866926  0.39428275  0.87394905  1
  Cl  Cl44  1  0.57866926  0.68438651  0.70472020  1
  Cl  Cl45  1  0.39428275  0.02033369  0.81561349  1
  Cl  Cl46  1  0.87394905  0.79527980  0.47966631  1
  Cl  Cl47  1  0.92133074  0.62605095  0.10571725  1
  Cl  Cl48  1  0.89545328  0.12702718  0.98536161  1
  Cl  Cl49  1  0.12702718  0.64166558  0.23157390  1
  Cl  Cl50  1  0.91009168  0.89545328  0.26842610  1
  Cl  Cl51  1  0.26842610  0.91009168  0.89545328  1
  Cl  Cl52  1  0.98536161  0.58990832  0.85833442  1
  Cl  Cl53  1  0.85833442  0.98536161  0.58990832  1
  Cl  Cl54  1  0.64166558  0.23157390  0.12702718  1
  Cl  Cl55  1  0.91009168  0.51463839  0.64166558  1
  Cl  Cl56  1  0.26842610  0.85833442  0.37297282  1
  Cl  Cl57  1  0.58990832  0.23157390  0.60454672  1
  Cl  Cl58  1  0.51463839  0.64166558  0.91009168  1
  Cl  Cl59  1  0.37297282  0.26842610  0.85833442  1
  Cl  Cl60  1  0.23157390  0.60454672  0.58990832  1
  Cl  Cl61  1  0.98536161  0.89545328  0.12702718  1
  Cl  Cl62  1  0.12702718  0.98536161  0.89545328  1
  Cl  Cl63  1  0.64166558  0.91009168  0.51463839  1
  Cl  Cl64  1  0.37297282  0.60454672  0.51463839  1
  Cl  Cl65  1  0.85833442  0.37297282  0.26842610  1
  Cl  Cl66  1  0.51463839  0.37297282  0.60454672  1
  Cl  Cl67  1  0.60454672  0.58990832  0.23157390  1
  Cl  Cl68  1  0.60454672  0.51463839  0.37297282  1
  Cl  Cl69  1  0.58990832  0.85833442  0.98536161  1
  Cl  Cl70  1  0.23157390  0.12702718  0.64166558  1
  Cl  Cl71  1  0.89545328  0.26842610  0.91009168  1
  Cl  Cl72  1  0.10454672  0.87297282  0.01463839  1
  Cl  Cl73  1  0.87297282  0.35833442  0.76842610  1
  Cl  Cl74  1  0.08990832  0.10454672  0.73157390  1
  Cl  Cl75  1  0.73157390  0.08990832  0.10454672  1
  Cl  Cl76  1  0.01463839  0.41009168  0.14166558  1
  Cl  Cl77  1  0.14166558  0.01463839  0.41009168  1
  Cl  Cl78  1  0.35833442  0.76842610  0.87297282  1
  Cl  Cl79  1  0.08990832  0.48536161  0.35833442  1
  Cl  Cl80  1  0.73157390  0.14166558  0.62702718  1
  Cl  Cl81  1  0.41009168  0.76842610  0.39545328  1
  Cl  Cl82  1  0.48536161  0.35833442  0.08990832  1
  Cl  Cl83  1  0.62702718  0.73157390  0.14166558  1
  Cl  Cl84  1  0.76842610  0.39545328  0.41009168  1
  Cl  Cl85  1  0.01463839  0.10454672  0.87297282  1
  Cl  Cl86  1  0.87297282  0.01463839  0.10454672  1
  Cl  Cl87  1  0.35833442  0.08990832  0.48536161  1
  Cl  Cl88  1  0.62702718  0.39545328  0.48536161  1
  Cl  Cl89  1  0.14166558  0.62702718  0.73157390  1
  Cl  Cl90  1  0.48536161  0.62702718  0.39545328  1
  Cl  Cl91  1  0.39545328  0.41009168  0.76842610  1
  Cl  Cl92  1  0.39545328  0.48536161  0.62702718  1
  Cl  Cl93  1  0.41009168  0.14166558  0.01463839  1
  Cl  Cl94  1  0.76842610  0.87297282  0.35833442  1
  Cl  Cl95  1  0.10454672  0.73157390  0.08990832  1
  Cl  Cl96  1  0.25000000  0.80090015  0.69909985  1
  Cl  Cl97  1  0.80090015  0.60180031  0.55090015  1
  Cl  Cl98  1  0.55090015  0.25000000  0.94909985  1
  Cl  Cl99  1  0.94909985  0.55090015  0.25000000  1
  Cl  Cl100  1  0.69909985  0.94909985  0.89819969  1
  Cl  Cl101  1  0.89819969  0.69909985  0.94909985  1
  Cl  Cl102  1  0.60180031  0.55090015  0.80090015  1
  Cl  Cl103  1  0.55090015  0.80090015  0.60180031  1
  Cl  Cl104  1  0.94909985  0.89819969  0.69909985  1
  Cl  Cl105  1  0.69909985  0.25000000  0.80090015  1
  Cl  Cl106  1  0.80090015  0.69909985  0.25000000  1
  Cl  Cl107  1  0.25000000  0.94909985  0.55090015  1
  Cl  Cl108  1  0.75000000  0.19909985  0.30090015  1
  Cl  Cl109  1  0.19909985  0.39819969  0.44909985  1
  Cl  Cl110  1  0.44909985  0.75000000  0.05090015  1
  Cl  Cl111  1  0.05090015  0.44909985  0.75000000  1
  Cl  Cl112  1  0.30090015  0.05090015  0.10180031  1
  Cl  Cl113  1  0.10180031  0.30090015  0.05090015  1
  Cl  Cl114  1  0.39819969  0.44909985  0.19909985  1
  Cl  Cl115  1  0.44909985  0.19909985  0.39819969  1
  Cl  Cl116  1  0.05090015  0.10180031  0.30090015  1
  Cl  Cl117  1  0.30090015  0.75000000  0.19909985  1
  Cl  Cl118  1  0.19909985  0.30090015  0.75000000  1
  Cl  Cl119  1  0.75000000  0.05090015  0.44909985  1
  Ta  Ta120  1  0.04204614  0.13251450  0.02492228  1
  Ta  Ta121  1  0.13251450  0.60759222  0.09046836  1
  Ta  Ta122  1  0.01712386  0.04204614  0.40953164  1
  Ta  Ta123  1  0.40953164  0.01712386  0.04204614  1
  Ta  Ta124  1  0.02492228  0.48287614  0.89240778  1
  Ta  Ta125  1  0.89240778  0.02492228  0.48287614  1
  Ta  Ta126  1  0.60759222  0.09046836  0.13251450  1
  Ta  Ta127  1  0.01712386  0.47507772  0.60759222  1
  Ta  Ta128  1  0.40953164  0.89240778  0.36748550  1
  Ta  Ta129  1  0.48287614  0.09046836  0.45795386  1
  Ta  Ta130  1  0.47507772  0.60759222  0.01712386  1
  Ta  Ta131  1  0.36748550  0.40953164  0.89240778  1
  Ta  Ta132  1  0.09046836  0.45795386  0.48287614  1
  Ta  Ta133  1  0.02492228  0.04204614  0.13251450  1
  Ta  Ta134  1  0.13251450  0.02492228  0.04204614  1
  Ta  Ta135  1  0.60759222  0.01712386  0.47507772  1
  Ta  Ta136  1  0.36748550  0.45795386  0.47507772  1
  Ta  Ta137  1  0.89240778  0.36748550  0.40953164  1
  Ta  Ta138  1  0.47507772  0.36748550  0.45795386  1
  Ta  Ta139  1  0.45795386  0.48287614  0.09046836  1
  Ta  Ta140  1  0.45795386  0.47507772  0.36748550  1
  Ta  Ta141  1  0.48287614  0.89240778  0.02492228  1
  Ta  Ta142  1  0.09046836  0.13251450  0.60759222  1
  Ta  Ta143  1  0.04204614  0.40953164  0.01712386  1
  Ta  Ta144  1  0.95795386  0.86748550  0.97507772  1
  Ta  Ta145  1  0.86748550  0.39240778  0.90953164  1
  Ta  Ta146  1  0.98287614  0.95795386  0.59046836  1
  Ta  Ta147  1  0.59046836  0.98287614  0.95795386  1
  Ta  Ta148  1  0.97507772  0.51712386  0.10759222  1
  Ta  Ta149  1  0.10759222  0.97507772  0.51712386  1
  Ta  Ta150  1  0.39240778  0.90953164  0.86748550  1
  Ta  Ta151  1  0.98287614  0.52492228  0.39240778  1
  Ta  Ta152  1  0.59046836  0.10759222  0.63251450  1
  Ta  Ta153  1  0.51712386  0.90953164  0.54204614  1
  Ta  Ta154  1  0.52492228  0.39240778  0.98287614  1
  Ta  Ta155  1  0.63251450  0.59046836  0.10759222  1
  Ta  Ta156  1  0.90953164  0.54204614  0.51712386  1
  Ta  Ta157  1  0.97507772  0.95795386  0.86748550  1
  Ta  Ta158  1  0.86748550  0.97507772  0.95795386  1
  Ta  Ta159  1  0.39240778  0.98287614  0.52492228  1
  Ta  Ta160  1  0.63251450  0.54204614  0.52492228  1
  Ta  Ta161  1  0.10759222  0.63251450  0.59046836  1
  Ta  Ta162  1  0.52492228  0.63251450  0.54204614  1
  Ta  Ta163  1  0.54204614  0.51712386  0.90953164  1
  Ta  Ta164  1  0.54204614  0.52492228  0.63251450  1
  Ta  Ta165  1  0.51712386  0.10759222  0.97507772  1
  Ta  Ta166  1  0.90953164  0.86748550  0.39240778  1
  Ta  Ta167  1  0.95795386  0.59046836  0.98287614  1
