# generated using pymatgen
data_Ba2FeReO6
_symmetry_space_group_name_H-M   'P 1'
_cell_length_a   5.76394786
_cell_length_b   5.76394785
_cell_length_c   5.76394786
_cell_angle_alpha   90.00817720
_cell_angle_beta   119.99527903
_cell_angle_gamma   119.99527902
_symmetry_Int_Tables_number   1
_chemical_formula_structural   Ba2FeReO6
_chemical_formula_sum   'Ba2 Fe1 Re1 O6'
_cell_volume   135.41791300
_cell_formula_units_Z   1
loop_
 _symmetry_equiv_pos_site_id
 _symmetry_equiv_pos_as_xyz
  1  'x, y, z'
loop_
 _atom_site_type_symbol
 _atom_site_label
 _atom_site_symmetry_multiplicity
 _atom_site_fract_x
 _atom_site_fract_y
 _atom_site_fract_z
 _atom_site_occupancy
  O  O0  1  0.00000000  0.74311923  0.74311923  1
  O  O1  1  0.00000000  0.25688077  0.25688077  1
  O  O2  1  0.48581980  0.74290990  0.74290990  1
  O  O3  1  0.00000000  0.74290990  0.25709010  1
  O  O4  1  0.51418020  0.25709010  0.25709010  1
  O  O5  1  0.00000000  0.25709010  0.74290990  1
  Fe  Fe6  1  0.00000000  0.00000000  0.00000000  1
  Ba  Ba7  1  0.50000000  0.25000000  0.75000000  1
  Ba  Ba8  1  0.50000000  0.75000000  0.25000000  1
  Re  Re9  1  0.00000000  0.50000000  0.50000000  1
