# generated using pymatgen
data_Ta2SnO6
_symmetry_space_group_name_H-M   'P 1'
_cell_length_a   4.92316070
_cell_length_b   5.62191598
_cell_length_c   9.05766850
_cell_angle_alpha   91.37980911
_cell_angle_beta   105.77934137
_cell_angle_gamma   89.99595381
_symmetry_Int_Tables_number   1
_chemical_formula_structural   Ta2SnO6
_chemical_formula_sum   'Ta4 Sn2 O12'
_cell_volume   241.17192301
_cell_formula_units_Z   2
loop_
 _symmetry_equiv_pos_site_id
 _symmetry_equiv_pos_as_xyz
  1  'x, y, z'
loop_
 _atom_site_type_symbol
 _atom_site_label
 _atom_site_symmetry_multiplicity
 _atom_site_fract_x
 _atom_site_fract_y
 _atom_site_fract_z
 _atom_site_occupancy
  Ta  Ta0  1  0.41376308  0.16326782  0.33912592  1
  Ta  Ta1  1  0.92528883  0.66325553  0.33913402  1
  Ta  Ta2  1  0.07330921  0.33477443  0.65808659  1
  Ta  Ta3  1  0.58485763  0.83476781  0.65809182  1
  Sn  Sn4  1  0.22910837  0.73667737  0.99769141  1
  Sn  Sn5  1  0.76846561  0.23675666  0.99748570  1
  O  O6  1  0.39156234  0.57525907  0.71212073  1
  O  O7  1  0.60193585  0.42920115  0.28810620  1
  O  O8  1  0.15817932  0.35266392  0.43760369  1
  O  O9  1  0.32066811  0.07525636  0.71212390  1
  O  O10  1  0.98915674  0.59441500  0.14615385  1
  O  O11  1  0.00896762  0.39957931  0.85335670  1
  O  O12  1  0.15688593  0.09441157  0.14613708  1
  O  O13  1  0.84010583  0.64643847  0.56204630  1
  O  O14  1  0.84450497  0.89957002  0.85338162  1
  O  O15  1  0.27938972  0.85267279  0.43759695  1
  O  O16  1  0.72197843  0.14643798  0.56205300  1
  O  O17  1  0.68607239  0.92919473  0.28810451  1
