# generated using pymatgen
data_PuNi3
_symmetry_space_group_name_H-M   'P 1'
_cell_length_a   8.73149207
_cell_length_b   8.73149208
_cell_length_c   8.73149240
_cell_angle_alpha   33.15407573
_cell_angle_beta   33.15407563
_cell_angle_gamma   33.15407391
_symmetry_Int_Tables_number   1
_chemical_formula_structural   PuNi3
_chemical_formula_sum   'Pu3 Ni9'
_cell_volume   177.22526254
_cell_formula_units_Z   3
loop_
 _symmetry_equiv_pos_site_id
 _symmetry_equiv_pos_as_xyz
  1  'x, y, z'
loop_
 _atom_site_type_symbol
 _atom_site_label
 _atom_site_symmetry_multiplicity
 _atom_site_fract_x
 _atom_site_fract_y
 _atom_site_fract_z
 _atom_site_occupancy
  Pu  Pu0  1  0.14261262  0.14261262  0.14261262  1
  Pu  Pu1  1  0.00000000  0.00000000  0.00000000  1
  Pu  Pu2  1  0.85738738  0.85738738  0.85738738  1
  Ni  Ni3  1  0.41751815  0.41751815  0.91846049  1
  Ni  Ni4  1  0.91846049  0.41751815  0.41751815  1
  Ni  Ni5  1  0.66736619  0.66736619  0.66736619  1
  Ni  Ni6  1  0.58248185  0.58248185  0.08153951  1
  Ni  Ni7  1  0.41751815  0.91846049  0.41751815  1
  Ni  Ni8  1  0.50000000  0.50000000  0.50000000  1
  Ni  Ni9  1  0.08153951  0.58248185  0.58248185  1
  Ni  Ni10  1  0.33263381  0.33263381  0.33263381  1
  Ni  Ni11  1  0.58248185  0.08153951  0.58248185  1
