# generated using pymatgen
data_Y3Ni4B4C3
_symmetry_space_group_name_H-M   'P 1'
_cell_length_a   3.58874241
_cell_length_b   3.58874241
_cell_length_c   12.80499806
_cell_angle_alpha   98.05540118
_cell_angle_beta   98.05540118
_cell_angle_gamma   90.00000000
_symmetry_Int_Tables_number   1
_chemical_formula_structural   Y3Ni4B4C3
_chemical_formula_sum   'Y3 Ni4 B4 C3'
_cell_volume   161.64566262
_cell_formula_units_Z   1
loop_
 _symmetry_equiv_pos_site_id
 _symmetry_equiv_pos_as_xyz
  1  'x, y, z'
loop_
 _atom_site_type_symbol
 _atom_site_label
 _atom_site_symmetry_multiplicity
 _atom_site_fract_x
 _atom_site_fract_y
 _atom_site_fract_z
 _atom_site_occupancy
  Y  Y0  1  0.10461127  0.10461127  0.20922253  1
  Y  Y1  1  0.40388875  0.40388875  0.80777750  1
  Y  Y2  1  0.80485135  0.80485135  0.60970270  1
  Ni  Ni3  1  0.50370955  0.00370955  0.00741910  1
  Ni  Ni4  1  0.00370955  0.50370955  0.00741910  1
  Ni  Ni5  1  0.70515769  0.20515769  0.41031538  1
  Ni  Ni6  1  0.20515769  0.70515769  0.41031538  1
  B  B7  1  0.24815781  0.24815781  0.49631563  1
  B  B8  1  0.54507604  0.54507604  0.09015208  1
  B  B9  1  0.66407024  0.66407024  0.32814047  1
  B  B10  1  0.96051322  0.96051322  0.92102644  1
  C  C11  1  0.30765169  0.30765169  0.61530337  1
  C  C12  1  0.60464926  0.60464926  0.20929851  1
  C  C13  1  0.90099590  0.90099590  0.80199179  1
