# generated using pymatgen
data_Li4Nb2V3Sn3O16
_symmetry_space_group_name_H-M   'P 1'
_cell_length_a   6.24771301
_cell_length_b   6.20978736
_cell_length_c   9.86189180
_cell_angle_alpha   89.99537663
_cell_angle_beta   89.34470376
_cell_angle_gamma   119.79562103
_symmetry_Int_Tables_number   1
_chemical_formula_structural   Li4Nb2V3Sn3O16
_chemical_formula_sum   'Li4 Nb2 V3 Sn3 O16'
_cell_volume   332.00254494
_cell_formula_units_Z   1
loop_
 _symmetry_equiv_pos_site_id
 _symmetry_equiv_pos_as_xyz
  1  'x, y, z'
loop_
 _atom_site_type_symbol
 _atom_site_label
 _atom_site_symmetry_multiplicity
 _atom_site_fract_x
 _atom_site_fract_y
 _atom_site_fract_z
 _atom_site_occupancy
  Li  Li0  1  0.34413292  0.67209303  0.89896619  1
  Li  Li1  1  0.97943412  0.98989008  0.98671843  1
  Li  Li2  1  0.99898431  0.99932873  0.49754470  1
  Li  Li3  1  0.66055112  0.33035133  0.40351618  1
  Nb  Nb4  1  0.35480102  0.67729539  0.49851410  1
  Nb  Nb5  1  0.69810204  0.34915124  0.97914834  1
  V  V6  1  0.65955446  0.82984537  0.21345747  1
  V  V7  1  0.83187681  0.66037394  0.71085080  1
  V  V8  1  0.83193172  0.17156590  0.71067300  1
  Sn  Sn9  1  0.16870910  0.83081653  0.21431925  1
  Sn  Sn10  1  0.16881583  0.33802421  0.21434660  1
  Sn  Sn11  1  0.34174128  0.17077451  0.71675071  1
  O  O12  1  0.17405092  0.82923773  0.59007625  1
  O  O13  1  0.02845074  0.51424001  0.34157451  1
  O  O14  1  0.32715003  0.66360592  0.10107802  1
  O  O15  1  -0.00028724  -0.00011583  0.31274901  1
  O  O16  1  0.00754205  0.00381797  0.80507189  1
  O  O17  1  0.17403333  0.34469019  0.58994827  1
  O  O18  1  0.46731195  0.95407038  0.34654341  1
  O  O19  1  0.46737062  0.51333894  0.34647756  1
  O  O20  1  0.32476150  0.16240716  0.09628081  1
  O  O21  1  0.66089907  0.83033340  0.58897772  1
  O  O22  1  0.51922513  0.47729705  0.85220444  1
  O  O23  1  0.51943762  0.04194604  0.85216742  1
  O  O24  1  0.65289422  0.32655370  0.60337535  1
  O  O25  1  0.83580172  0.66308200  0.09279147  1
  O  O26  1  0.96685162  0.48340510  0.85089768  1
  O  O27  1  0.83587197  0.17288197  0.09282141  1
