# generated using pymatgen
data_Cu12As4S13
_symmetry_space_group_name_H-M   'P 1'
_cell_length_a   8.84370435
_cell_length_b   8.84370438
_cell_length_c   8.84370451
_cell_angle_alpha   109.47122325
_cell_angle_beta   109.47122332
_cell_angle_gamma   109.47121787
_symmetry_Int_Tables_number   1
_chemical_formula_structural   Cu12As4S13
_chemical_formula_sum   'Cu12 As4 S13'
_cell_volume   532.45235341
_cell_formula_units_Z   1
loop_
 _symmetry_equiv_pos_site_id
 _symmetry_equiv_pos_as_xyz
  1  'x, y, z'
loop_
 _atom_site_type_symbol
 _atom_site_label
 _atom_site_symmetry_multiplicity
 _atom_site_fract_x
 _atom_site_fract_y
 _atom_site_fract_z
 _atom_site_occupancy
  As  As0  1  0.52750823  0.52750823  0.52750823  1
  As  As1  1  0.47249177  0.00000000  1.00000000  1
  As  As2  1  0.00000000  0.47249177  1.00000000  1
  As  As3  1  1.00000000  1.00000000  0.47249177  1
  Cu  Cu4  1  0.50000000  0.25000000  0.75000000  1
  Cu  Cu5  1  0.75000000  0.50000000  0.25000000  1
  Cu  Cu6  1  0.25000000  0.50000000  0.75000000  1
  Cu  Cu7  1  0.75000000  0.25000000  0.50000000  1
  Cu  Cu8  1  0.25000000  0.75000000  0.50000000  1
  Cu  Cu9  1  0.50000000  0.75000000  0.25000000  1
  Cu  Cu10  1  1.00000000  0.22115337  0.22115337  1
  Cu  Cu11  1  0.77884663  0.00000000  0.77884663  1
  Cu  Cu12  1  0.22115337  1.00000000  0.22115337  1
  Cu  Cu13  1  0.22115337  0.22115337  1.00000000  1
  Cu  Cu14  1  0.77884663  0.77884663  0.00000000  1
  Cu  Cu15  1  0.00000000  0.77884663  0.77884663  1
  S  S16  1  0.47999494  0.47999494  0.23921039  1
  S  S17  1  0.52000506  0.75921544  0.00000000  1
  S  S18  1  0.75921544  0.52000506  0.00000000  1
  S  S19  1  0.00000000  0.75921544  0.52000506  1
  S  S20  1  0.76078961  0.24078456  0.24078456  1
  S  S21  1  0.24078456  0.76078961  0.24078456  1
  S  S22  1  0.75921544  0.00000000  0.52000506  1
  S  S23  1  0.52000506  0.00000000  0.75921544  1
  S  S24  1  0.00000000  0.52000506  0.75921544  1
  S  S25  1  0.23921039  0.47999494  0.47999494  1
  S  S26  1  0.47999494  0.23921039  0.47999494  1
  S  S27  1  0.24078456  0.24078456  0.76078961  1
  S  S28  1  0.00000000  0.00000000  0.00000000  1
