# generated using pymatgen
data_Li4Fe3Sb(PO4)4
_symmetry_space_group_name_H-M   'P 1'
_cell_length_a   4.77075800
_cell_length_b   10.75394895
_cell_length_c   6.30598892
_cell_angle_alpha   90.00000000
_cell_angle_beta   90.00000000
_cell_angle_gamma   91.71085829
_symmetry_Int_Tables_number   1
_chemical_formula_structural   Li4Fe3Sb(PO4)4
_chemical_formula_sum   'Li4 Fe3 Sb1 P4 O16'
_cell_volume   323.38131130
_cell_formula_units_Z   1
loop_
 _symmetry_equiv_pos_site_id
 _symmetry_equiv_pos_as_xyz
  1  'x, y, z'
loop_
 _atom_site_type_symbol
 _atom_site_label
 _atom_site_symmetry_multiplicity
 _atom_site_fract_x
 _atom_site_fract_y
 _atom_site_fract_z
 _atom_site_occupancy
  Li  Li0  1  0.99284981  0.00807879  0.99885132  1
  Li  Li1  1  0.99284981  0.00807879  0.50114868  1
  Li  Li2  1  0.50670780  0.49473059  0.50242285  1
  Li  Li3  1  0.50670780  0.49473059  0.99757715  1
  Fe  Fe4  1  0.46531007  0.21328962  0.75000000  1
  Fe  Fe5  1  0.51730821  0.79475675  0.25000000  1
  Fe  Fe6  1  0.96868300  0.27543159  0.25000000  1
  Sb  Sb7  1  0.07498000  0.71145289  0.75000000  1
  P  P8  1  0.08686711  0.58195819  0.25000000  1
  P  P9  1  0.41110963  0.09699224  0.25000000  1
  P  P10  1  0.57357680  0.92159750  0.75000000  1
  P  P11  1  0.92266143  0.39123344  0.75000000  1
  O  O12  1  0.19842345  0.44808788  0.25000000  1
  O  O13  1  0.23692730  0.65275425  0.06164834  1
  O  O14  1  0.23692730  0.65275425  0.43835166  1
  O  O15  1  0.24488469  0.39305342  0.75000000  1
  O  O16  1  0.24933902  0.92947828  0.75000000  1
  O  O17  1  0.28482203  0.16644736  0.05302420  1
  O  O18  1  0.28482203  0.16644736  0.44697580  1
  O  O19  1  0.27876498  0.96254760  0.25000000  1
  O  O20  1  0.71554573  0.05432631  0.75000000  1
  O  O21  1  0.68235590  0.85679077  0.54334483  1
  O  O22  1  0.68235590  0.85679077  0.95665517  1
  O  O23  1  0.73387517  0.09935153  0.25000000  1
  O  O24  1  0.76760831  0.59162788  0.25000000  1
  O  O25  1  0.78765788  0.32533434  0.55098214  1
  O  O26  1  0.78765788  0.32533434  0.94901786  1
  O  O27  1  0.80841895  0.52654262  0.75000000  1
