# generated using pymatgen
data_Mn4Nb2O9
_symmetry_space_group_name_H-M   'P 1'
_cell_length_a   5.40427645
_cell_length_b   5.40427644
_cell_length_c   14.50819966
_cell_angle_alpha   90.00000000
_cell_angle_beta   90.00000000
_cell_angle_gamma   119.99999998
_symmetry_Int_Tables_number   1
_chemical_formula_structural   Mn4Nb2O9
_chemical_formula_sum   'Mn8 Nb4 O18'
_cell_volume   366.96045743
_cell_formula_units_Z   2
loop_
 _symmetry_equiv_pos_site_id
 _symmetry_equiv_pos_as_xyz
  1  'x, y, z'
loop_
 _atom_site_type_symbol
 _atom_site_label
 _atom_site_symmetry_multiplicity
 _atom_site_fract_x
 _atom_site_fract_y
 _atom_site_fract_z
 _atom_site_occupancy
  O  O0  1  0.27831684  0.27831684  0.75000000  1
  O  O1  1  0.00000000  0.72168316  0.75000000  1
  O  O2  1  0.72168316  0.00000000  0.75000000  1
  O  O3  1  0.72168316  0.72168316  0.25000000  1
  O  O4  1  0.00000000  0.27831684  0.25000000  1
  O  O5  1  0.27831684  0.00000000  0.25000000  1
  O  O6  1  0.69215450  0.66339941  0.58551250  1
  O  O7  1  0.33660059  0.02875509  0.58551250  1
  O  O8  1  0.97124491  0.30784550  0.58551250  1
  O  O9  1  0.02875509  0.33660059  0.91448750  1
  O  O10  1  0.30784550  0.97124491  0.91448750  1
  O  O11  1  0.66339941  0.69215450  0.91448750  1
  O  O12  1  0.33660059  0.30784550  0.08551250  1
  O  O13  1  0.69215450  0.02875509  0.08551250  1
  O  O14  1  0.97124491  0.66339941  0.08551250  1
  O  O15  1  0.02875509  0.69215450  0.41448750  1
  O  O16  1  0.66339941  0.97124491  0.41448750  1
  O  O17  1  0.30784550  0.33660059  0.41448750  1
  Mn  Mn18  1  0.33333333  0.66666667  0.80412035  1
  Mn  Mn19  1  0.66666667  0.33333333  0.69587965  1
  Mn  Mn20  1  0.66666667  0.33333333  0.19587965  1
  Mn  Mn21  1  0.33333333  0.66666667  0.30412035  1
  Mn  Mn22  1  0.33333333  0.66666667  0.51899779  1
  Mn  Mn23  1  0.66666667  0.33333333  0.98100221  1
  Mn  Mn24  1  0.66666667  0.33333333  0.48100221  1
  Mn  Mn25  1  0.33333333  0.66666667  0.01899779  1
  Nb  Nb26  1  0.00000000  0.00000000  0.85746046  1
  Nb  Nb27  1  0.00000000  0.00000000  0.64253954  1
  Nb  Nb28  1  0.00000000  0.00000000  0.14253954  1
  Nb  Nb29  1  0.00000000  0.00000000  0.35746046  1
