# generated using pymatgen
data_CrSn2
_symmetry_space_group_name_H-M   'P 1'
_cell_length_a   5.42105212
_cell_length_b   5.40397381
_cell_length_c   9.61760566
_cell_angle_alpha   81.87344056
_cell_angle_beta   73.63056800
_cell_angle_gamma   59.89540212
_symmetry_Int_Tables_number   1
_chemical_formula_structural   CrSn2
_chemical_formula_sum   'Cr4 Sn8'
_cell_volume   233.86466200
_cell_formula_units_Z   4
loop_
 _symmetry_equiv_pos_site_id
 _symmetry_equiv_pos_as_xyz
  1  'x, y, z'
loop_
 _atom_site_type_symbol
 _atom_site_label
 _atom_site_symmetry_multiplicity
 _atom_site_fract_x
 _atom_site_fract_y
 _atom_site_fract_z
 _atom_site_occupancy
  Cr  Cr0  1  0.25165559  0.75000000  0.49668881  1
  Cr  Cr1  1  0.99834441  0.75000000  0.00331119  1
  Cr  Cr2  1  0.74834441  0.25000000  0.50331119  1
  Cr  Cr3  1  0.00165559  0.25000000  0.99668881  1
  Sn  Sn4  1  0.54365635  0.75000000  0.91268730  1
  Sn  Sn5  1  0.70634365  0.75000000  0.58731270  1
  Sn  Sn6  1  0.45634365  0.25000000  0.08731270  1
  Sn  Sn7  1  0.29365635  0.25000000  0.41268730  1
  Sn  Sn8  1  0.28990773  0.42018455  0.75000000  1
  Sn  Sn9  1  0.96009227  0.07981545  0.75000000  1
  Sn  Sn10  1  0.71009227  0.57981545  0.25000000  1
  Sn  Sn11  1  0.03990773  0.92018455  0.25000000  1
