# generated using pymatgen
data_Ta2FeO6
_symmetry_space_group_name_H-M   'P 1'
_cell_length_a   4.82516228
_cell_length_b   4.82516228
_cell_length_c   9.27505064
_cell_angle_alpha   90.00000000
_cell_angle_beta   90.00000000
_cell_angle_gamma   90.00000000
_symmetry_Int_Tables_number   1
_chemical_formula_structural   Ta2FeO6
_chemical_formula_sum   'Ta4 Fe2 O12'
_cell_volume   215.94350080
_cell_formula_units_Z   2
loop_
 _symmetry_equiv_pos_site_id
 _symmetry_equiv_pos_as_xyz
  1  'x, y, z'
loop_
 _atom_site_type_symbol
 _atom_site_label
 _atom_site_symmetry_multiplicity
 _atom_site_fract_x
 _atom_site_fract_y
 _atom_site_fract_z
 _atom_site_occupancy
  O  O0  1  0.68731170  0.68731170  0.00000000  1
  O  O1  1  0.81268801  0.18731111  0.50000029  1
  O  O2  1  0.18731111  0.81268801  0.50000029  1
  O  O3  1  0.31268949  0.31268949  0.00000000  1
  O  O4  1  0.70689849  0.70689849  0.68045537  1
  O  O5  1  0.29310063  0.29310063  0.68045537  1
  O  O6  1  0.29310063  0.29310063  0.31954410  1
  O  O7  1  0.20689789  0.79310123  0.81954439  1
  O  O8  1  0.79310123  0.20689789  0.81954439  1
  O  O9  1  0.70689849  0.70689849  0.31954410  1
  O  O10  1  0.20689789  0.79310123  0.18045618  1
  O  O11  1  0.79310123  0.20689789  0.18045618  1
  Fe  Fe12  1  0.50000059  0.50000059  0.50000029  1
  Fe  Fe13  1  0.00000000  0.00000000  0.00000000  1
  Ta  Ta14  1  0.50000059  0.50000059  0.16941122  1
  Ta  Ta15  1  0.00000000  0.00000000  0.66941151  1
  Ta  Ta16  1  0.50000059  0.50000059  0.83058826  1
  Ta  Ta17  1  0.00000000  0.00000000  0.33058906  1
