# generated using pymatgen
data_Gd3Al7Ag2
_symmetry_space_group_name_H-M   'P 1'
_cell_length_a   9.38901410
_cell_length_b   9.39051646
_cell_length_c   9.38937348
_cell_angle_alpha   34.57877706
_cell_angle_beta   34.57612487
_cell_angle_gamma   34.55994933
_symmetry_Int_Tables_number   1
_chemical_formula_structural   Gd3Al7Ag2
_chemical_formula_sum   'Gd3 Al7 Ag2'
_cell_volume   237.82469940
_cell_formula_units_Z   1
loop_
 _symmetry_equiv_pos_site_id
 _symmetry_equiv_pos_as_xyz
  1  'x, y, z'
loop_
 _atom_site_type_symbol
 _atom_site_label
 _atom_site_symmetry_multiplicity
 _atom_site_fract_x
 _atom_site_fract_y
 _atom_site_fract_z
 _atom_site_occupancy
  Gd  Gd0  1  0.14202080  0.14206680  0.14201568  1
  Gd  Gd1  1  0.85797910  0.85794200  0.85797391  1
  Gd  Gd2  1  0.99999928  0.99999802  0.00000325  1
  Al  Al3  1  0.58642469  0.58651042  0.07839616  1
  Al  Al4  1  0.92154379  0.41354414  0.41357534  1
  Al  Al5  1  0.07846341  0.58644887  0.58642452  1
  Al  Al6  1  0.58640275  0.07847986  0.58644519  1
  Al  Al7  1  0.41357148  0.41349240  0.92160600  1
  Al  Al8  1  0.50000045  0.50000118  0.49999870  1
  Al  Al9  1  0.41359412  0.92152165  0.41355619  1
  Ag  Ag10  1  0.33562337  0.33560749  0.33565146  1
  Ag  Ag11  1  0.66437677  0.66438717  0.66435360  1
