# generated using pymatgen
data_Li3V2(PO4)3
_symmetry_space_group_name_H-M   'P 1'
_cell_length_a   9.17321261
_cell_length_b   9.17321261
_cell_length_c   15.18375675
_cell_angle_alpha   82.04828413
_cell_angle_beta   81.77868695
_cell_angle_gamma   122.29817471
_symmetry_Int_Tables_number   1
_chemical_formula_structural   Li3V2(PO4)3
_chemical_formula_sum   'Li12 V8 P12 O48'
_cell_volume   1033.08209823
_cell_formula_units_Z   4
loop_
 _symmetry_equiv_pos_site_id
 _symmetry_equiv_pos_as_xyz
  1  'x, y, z'
loop_
 _atom_site_type_symbol
 _atom_site_label
 _atom_site_symmetry_multiplicity
 _atom_site_fract_x
 _atom_site_fract_y
 _atom_site_fract_z
 _atom_site_occupancy
  Li  Li0  1  0.17819481  0.75928412  0.35043351  1
  Li  Li1  1  0.96824454  0.24703325  0.94477348  1
  Li  Li2  1  0.11843794  0.36843794  0.25000000  1
  Li  Li3  1  0.69180674  0.91301803  0.55522652  1
  Li  Li4  1  0.60971763  0.52862932  0.14956649  1
  Li  Li5  1  0.50000000  0.50000000  0.50000000  1
  Li  Li6  1  0.39028237  0.47137068  0.85043351  1
  Li  Li7  1  0.30819326  0.08698197  0.44477348  1
  Li  Li8  1  0.88156206  0.63156206  0.75000000  1
  Li  Li9  1  0.03175546  0.75296675  0.05522652  1
  Li  Li10  1  0.82180519  0.24071588  0.64956649  1
  Li  Li11  1  0.50000000  0.00000000  0.00000000  1
  V  V12  1  0.25802822  0.70980057  0.53269395  1
  V  V13  1  0.31860873  0.80401448  0.83696326  1
  V  V14  1  0.14097873  0.15557299  0.66303674  1
  V  V15  1  0.74249451  0.79072217  0.96730605  1
  V  V16  1  0.25750549  0.20927783  0.03269395  1
  V  V17  1  0.85902127  0.84442701  0.33696326  1
  V  V18  1  0.68139127  0.19598552  0.16303674  1
  V  V19  1  0.74197178  0.29019943  0.46730605  1
  P  P20  1  0.59885633  0.96219927  0.37337659  1
  P  P21  1  0.28452518  0.56205246  0.68945787  1
  P  P22  1  0.31284659  0.59735633  0.02941931  1
  P  P23  1  0.12677565  0.34226590  0.47058069  1
  P  P24  1  0.75151033  0.97398305  0.81054213  1
  P  P25  1  0.83557486  0.97223292  0.12662341  1
  P  P26  1  0.16442514  0.02776708  0.87337659  1
  P  P27  1  0.24848967  0.02601695  0.18945787  1
  P  P28  1  0.87322435  0.65773410  0.52941931  1
  P  P29  1  0.68715341  0.40264367  0.97058069  1
  P  P30  1  0.71547482  0.43794754  0.31054213  1
  P  P31  1  0.40114367  0.03780073  0.62662341  1
  O  O32  1  0.11380301  0.91411595  0.28643098  1
  O  O33  1  0.17464755  0.94661820  0.10888155  1
  O  O34  1  0.31571780  0.99918906  0.87354788  1
  O  O35  1  0.31384885  0.94546730  0.55223093  1
  O  O36  1  0.05458481  0.69154326  0.48164850  1
  O  O37  1  0.30318987  0.89107550  0.71702503  1
  O  O38  1  0.39462929  0.87407184  0.39834065  1
  O  O39  1  0.11918906  0.54720991  0.66138054  1
  O  O40  1  0.22718730  0.67325502  0.97050684  1
  O  O41  1  0.58532786  0.97206751  0.80462304  1
  O  O42  1  0.20500864  0.51604953  0.12899753  1
  O  O43  1  0.29945308  0.59976501  0.78643098  1
  O  O44  1  0.27881024  0.52352181  0.48481111  1
  O  O45  1  0.44450125  0.71647090  0.60888155  1
  O  O46  1  0.50833292  0.76362135  0.01518889  1
  O  O47  1  0.62726305  0.81073532  0.37354788  1
  O  O48  1  0.14504706  0.33400617  0.37100247  1
  O  O49  1  0.00230176  0.13391921  0.05223093  1
  O  O50  1  0.27669055  0.38995090  0.69537696  1
  O  O51  1  0.32680924  0.46376669  0.98164850  1
  O  O52  1  0.89189947  0.97978409  0.21702503  1
  O  O53  1  0.14376186  0.19769514  0.52949316  1
  O  O54  1  0.77241149  0.79296993  0.10165935  1
  O  O55  1  0.70858945  0.78056960  0.83861946  1
  O  O56  1  0.29141055  0.21943040  0.16138054  1
  O  O57  1  0.22758851  0.20703007  0.89834065  1
  O  O58  1  0.85623814  0.80230486  0.47050684  1
  O  O59  1  0.10810053  0.02021591  0.78297497  1
  O  O60  1  0.67319076  0.53623331  0.01835150  1
  O  O61  1  0.72330945  0.61004910  0.30462304  1
  O  O62  1  0.99769824  0.86608079  0.94776907  1
  O  O63  1  0.85495294  0.66599383  0.62899753  1
  O  O64  1  0.37273595  0.18926468  0.62645212  1
  O  O65  1  0.49166708  0.23637865  0.98481111  1
  O  O66  1  0.55549875  0.28352910  0.39111845  1
  O  O67  1  0.72118976  0.47647819  0.51518889  1
  O  O68  1  0.70054692  0.40023499  0.21356902  1
  O  O69  1  0.79499136  0.48395047  0.87100247  1
  O  O70  1  0.41467214  0.02793249  0.19537696  1
  O  O71  1  0.77281270  0.32674498  0.02949316  1
  O  O72  1  0.88081094  0.45279009  0.33861946  1
  O  O73  1  0.60537071  0.12592816  0.60165935  1
  O  O74  1  0.69681013  0.10892450  0.28297497  1
  O  O75  1  0.94541519  0.30845674  0.51835150  1
  O  O76  1  0.68615115  0.05453270  0.44776907  1
  O  O77  1  0.68428220  0.00081094  0.12645212  1
  O  O78  1  0.82535245  0.05338180  0.89111845  1
  O  O79  1  0.88619699  0.08588405  0.71356902  1
