# generated using pymatgen
data_Lu(FeSi)2
_symmetry_space_group_name_H-M   'P 1'
_cell_length_a   3.92872201
_cell_length_b   3.92872267
_cell_length_c   5.46675198
_cell_angle_alpha   111.05897949
_cell_angle_beta   111.05898227
_cell_angle_gamma   89.99999921
_symmetry_Int_Tables_number   1
_chemical_formula_structural   Lu(FeSi)2
_chemical_formula_sum   'Lu1 Fe2 Si2'
_cell_volume   72.67171312
_cell_formula_units_Z   1
loop_
 _symmetry_equiv_pos_site_id
 _symmetry_equiv_pos_as_xyz
  1  'x, y, z'
loop_
 _atom_site_type_symbol
 _atom_site_label
 _atom_site_symmetry_multiplicity
 _atom_site_fract_x
 _atom_site_fract_y
 _atom_site_fract_z
 _atom_site_occupancy
  Lu  Lu0  1  0.00000000  0.00000000  0.00000000  1
  Fe  Fe1  1  0.25000000  0.75000000  0.50000000  1
  Fe  Fe2  1  0.75000000  0.25000000  0.50000000  1
  Si  Si3  1  0.36801774  0.36801774  0.73603547  1
  Si  Si4  1  0.63198226  0.63198226  0.26396453  1
