# generated using pymatgen
data_Cs(BH)6
_symmetry_space_group_name_H-M   'P 1'
_cell_length_a   8.07446175
_cell_length_b   8.07446176
_cell_length_c   8.07446176
_cell_angle_alpha   59.99999999
_cell_angle_beta   59.99999998
_cell_angle_gamma   60.00000002
_symmetry_Int_Tables_number   1
_chemical_formula_structural   Cs(BH)6
_chemical_formula_sum   'Cs2 B12 H12'
_cell_volume   372.24232155
_cell_formula_units_Z   2
loop_
 _symmetry_equiv_pos_site_id
 _symmetry_equiv_pos_as_xyz
  1  'x, y, z'
loop_
 _atom_site_type_symbol
 _atom_site_label
 _atom_site_symmetry_multiplicity
 _atom_site_fract_x
 _atom_site_fract_y
 _atom_site_fract_z
 _atom_site_occupancy
  H  H0  1  0.91641543  0.34900249  0.65099751  1
  H  H1  1  0.65099751  0.08358457  0.91641543  1
  H  H2  1  0.34900249  0.08358457  0.65099751  1
  H  H3  1  0.08358457  0.91641543  0.65099751  1
  H  H4  1  0.65099751  0.91641543  0.34900249  1
  H  H5  1  0.91641543  0.65099751  0.08358457  1
  H  H6  1  0.65099751  0.34900249  0.08358457  1
  H  H7  1  0.91641543  0.08358457  0.34900249  1
  H  H8  1  0.08358457  0.34900249  0.91641543  1
  H  H9  1  0.34900249  0.91641543  0.08358457  1
  H  H10  1  0.08358457  0.65099751  0.34900249  1
  H  H11  1  0.34900249  0.65099751  0.91641543  1
  B  B12  1  0.79602932  0.04833547  0.95166453  1
  B  B13  1  0.95166453  0.20397068  0.79602932  1
  B  B14  1  0.20397068  0.04833547  0.79602932  1
  B  B15  1  0.04833547  0.95166453  0.79602932  1
  B  B16  1  0.79602932  0.95166453  0.20397068  1
  B  B17  1  0.95166453  0.79602932  0.04833547  1
  B  B18  1  0.79602932  0.20397068  0.04833547  1
  B  B19  1  0.95166453  0.04833547  0.20397068  1
  B  B20  1  0.04833547  0.20397068  0.95166453  1
  B  B21  1  0.20397068  0.95166453  0.04833547  1
  B  B22  1  0.04833547  0.79602932  0.20397068  1
  B  B23  1  0.20397068  0.79602932  0.95166453  1
  Cs  Cs24  1  0.75000000  0.75000000  0.75000000  1
  Cs  Cs25  1  0.25000000  0.25000000  0.25000000  1
