# generated using pymatgen
data_NaSr3NbO6
_symmetry_space_group_name_H-M   'P 1'
_cell_length_a   6.91993502
_cell_length_b   6.91993502
_cell_length_c   6.91993501
_cell_angle_alpha   91.24169462
_cell_angle_beta   91.24169463
_cell_angle_gamma   91.24169465
_symmetry_Int_Tables_number   1
_chemical_formula_structural   NaSr3NbO6
_chemical_formula_sum   'Na2 Sr6 Nb2 O12'
_cell_volume   331.12768868
_cell_formula_units_Z   2
loop_
 _symmetry_equiv_pos_site_id
 _symmetry_equiv_pos_as_xyz
  1  'x, y, z'
loop_
 _atom_site_type_symbol
 _atom_site_label
 _atom_site_symmetry_multiplicity
 _atom_site_fract_x
 _atom_site_fract_y
 _atom_site_fract_z
 _atom_site_occupancy
  O  O0  1  0.05384006  0.92763449  0.71942126  1
  O  O1  1  0.92763449  0.71942126  0.05384006  1
  O  O2  1  0.71942126  0.05384006  0.92763449  1
  O  O3  1  0.78057874  0.57236551  0.44615994  1
  O  O4  1  0.57236551  0.44615994  0.78057874  1
  O  O5  1  0.44615994  0.78057874  0.57236551  1
  O  O6  1  0.94615994  0.07236551  0.28057874  1
  O  O7  1  0.07236551  0.28057874  0.94615994  1
  O  O8  1  0.28057874  0.94615994  0.07236551  1
  O  O9  1  0.21942126  0.42763449  0.55384006  1
  O  O10  1  0.55384006  0.21942126  0.42763449  1
  O  O11  1  0.42763449  0.55384006  0.21942126  1
  Na  Na12  1  0.75000000  0.75000000  0.75000000  1
  Na  Na13  1  0.25000000  0.25000000  0.25000000  1
  Sr  Sr14  1  0.10079690  0.75000000  0.39920310  1
  Sr  Sr15  1  0.75000000  0.39920310  0.10079690  1
  Sr  Sr16  1  0.39920310  0.10079690  0.75000000  1
  Sr  Sr17  1  0.89920310  0.25000000  0.60079690  1
  Sr  Sr18  1  0.25000000  0.60079690  0.89920310  1
  Sr  Sr19  1  0.60079690  0.89920310  0.25000000  1
  Nb  Nb20  1  0.00000000  0.00000000  0.00000000  1
  Nb  Nb21  1  0.50000000  0.50000000  0.50000000  1
