# generated using pymatgen
data_CeGaPd2
_symmetry_space_group_name_H-M   'P 1'
_cell_length_a   5.75923213
_cell_length_b   7.09335008
_cell_length_c   7.65134101
_cell_angle_alpha   90.00000000
_cell_angle_beta   90.00000000
_cell_angle_gamma   90.00000000
_symmetry_Int_Tables_number   1
_chemical_formula_structural   CeGaPd2
_chemical_formula_sum   'Ce4 Ga4 Pd8'
_cell_volume   312.57449340
_cell_formula_units_Z   4
loop_
 _symmetry_equiv_pos_site_id
 _symmetry_equiv_pos_as_xyz
  1  'x, y, z'
loop_
 _atom_site_type_symbol
 _atom_site_label
 _atom_site_symmetry_multiplicity
 _atom_site_fract_x
 _atom_site_fract_y
 _atom_site_fract_z
 _atom_site_occupancy
  Ce  Ce0  1  0.84454924  0.25000000  0.53430230  1
  Ce  Ce1  1  0.15545076  0.75000000  0.46569770  1
  Ce  Ce2  1  0.34454924  0.75000000  0.96569770  1
  Ce  Ce3  1  0.65545076  0.25000000  0.03430230  1
  Ga  Ga4  1  0.65292545  0.75000000  0.61809132  1
  Ga  Ga5  1  0.34707455  0.25000000  0.38190868  1
  Ga  Ga6  1  0.84707455  0.75000000  0.11809132  1
  Ga  Ga7  1  0.15292545  0.25000000  0.88190868  1
  Pd  Pd8  1  0.91346060  0.55046545  0.82075292  1
  Pd  Pd9  1  0.58653940  0.94953455  0.32075292  1
  Pd  Pd10  1  0.58653940  0.55046545  0.32075292  1
  Pd  Pd11  1  0.41346060  0.44953455  0.67924708  1
  Pd  Pd12  1  0.41346060  0.05046545  0.67924708  1
  Pd  Pd13  1  0.91346060  0.94953455  0.82075292  1
  Pd  Pd14  1  0.08653940  0.05046545  0.17924708  1
  Pd  Pd15  1  0.08653940  0.44953455  0.17924708  1
