# generated using pymatgen
data_HoB4
_symmetry_space_group_name_H-M   'P 1'
_cell_length_a   4.00815286
_cell_length_b   7.08618638
_cell_length_c   7.08618638
_cell_angle_alpha   90.00000000
_cell_angle_beta   90.00000000
_cell_angle_gamma   90.00000000
_symmetry_Int_Tables_number   1
_chemical_formula_structural   HoB4
_chemical_formula_sum   'Ho4 B16'
_cell_volume   201.26553767
_cell_formula_units_Z   4
loop_
 _symmetry_equiv_pos_site_id
 _symmetry_equiv_pos_as_xyz
  1  'x, y, z'
loop_
 _atom_site_type_symbol
 _atom_site_label
 _atom_site_symmetry_multiplicity
 _atom_site_fract_x
 _atom_site_fract_y
 _atom_site_fract_z
 _atom_site_occupancy
  Ho  Ho0  1  0.00000000  0.18233628  0.31766372  1
  Ho  Ho1  1  0.00000000  0.81766372  0.68233628  1
  Ho  Ho2  1  0.00000000  0.68233628  0.18233628  1
  Ho  Ho3  1  0.00000000  0.31766372  0.81766372  1
  B  B4  1  0.79728390  0.50000000  0.50000000  1
  B  B5  1  0.50000000  0.41306720  0.08693280  1
  B  B6  1  0.50000000  0.08693280  0.58693280  1
  B  B7  1  0.50000000  0.53854628  0.67637518  1
  B  B8  1  0.50000000  0.58693280  0.91306720  1
  B  B9  1  0.50000000  0.67637518  0.46145372  1
  B  B10  1  0.20271610  0.00000000  0.00000000  1
  B  B11  1  0.20271610  0.50000000  0.50000000  1
  B  B12  1  0.79728390  0.00000000  0.00000000  1
  B  B13  1  0.50000000  0.03854628  0.82362482  1
  B  B14  1  0.50000000  0.91306720  0.41306720  1
  B  B15  1  0.50000000  0.82362482  0.96145372  1
  B  B16  1  0.50000000  0.46145372  0.32362482  1
  B  B17  1  0.50000000  0.32362482  0.53854628  1
  B  B18  1  0.50000000  0.17637518  0.03854628  1
  B  B19  1  0.50000000  0.96145372  0.17637518  1
