# generated using pymatgen
data_Sr6Ge5N2
_symmetry_space_group_name_H-M   'P 1'
_cell_length_a   4.05461115
_cell_length_b   9.16913826
_cell_length_c   18.08919310
_cell_angle_alpha   90.00000000
_cell_angle_beta   90.00000000
_cell_angle_gamma   90.00000000
_symmetry_Int_Tables_number   1
_chemical_formula_structural   Sr6Ge5N2
_chemical_formula_sum   'Sr12 Ge10 N4'
_cell_volume   672.50718181
_cell_formula_units_Z   2
loop_
 _symmetry_equiv_pos_site_id
 _symmetry_equiv_pos_as_xyz
  1  'x, y, z'
loop_
 _atom_site_type_symbol
 _atom_site_label
 _atom_site_symmetry_multiplicity
 _atom_site_fract_x
 _atom_site_fract_y
 _atom_site_fract_z
 _atom_site_occupancy
  Sr  Sr0  1  0.25000000  0.53634852  0.61003742  1
  Sr  Sr1  1  0.75000000  0.88538441  0.93390850  1
  Sr  Sr2  1  0.75000000  0.24221045  0.75000000  1
  Sr  Sr3  1  0.75000000  0.46365148  0.11003742  1
  Sr  Sr4  1  0.25000000  0.11461559  0.43390850  1
  Sr  Sr5  1  0.25000000  0.75778955  0.25000000  1
  Sr  Sr6  1  0.75000000  0.16020380  0.25000000  1
  Sr  Sr7  1  0.75000000  0.46365148  0.38996258  1
  Sr  Sr8  1  0.25000000  0.83979620  0.75000000  1
  Sr  Sr9  1  0.25000000  0.11461559  0.06609150  1
  Sr  Sr10  1  0.75000000  0.88538441  0.56609150  1
  Sr  Sr11  1  0.25000000  0.53634852  0.88996258  1
  Ge  Ge12  1  0.75000000  0.58006526  0.75000000  1
  Ge  Ge13  1  0.25000000  0.14377018  0.88007990  1
  Ge  Ge14  1  0.75000000  0.26281145  0.94467351  1
  Ge  Ge15  1  0.25000000  0.73718855  0.05532649  1
  Ge  Ge16  1  0.25000000  0.41993474  0.25000000  1
  Ge  Ge17  1  0.75000000  0.85622982  0.38007990  1
  Ge  Ge18  1  0.25000000  0.14377018  0.61992010  1
  Ge  Ge19  1  0.75000000  0.85622982  0.11992010  1
  Ge  Ge20  1  0.75000000  0.26281145  0.55532649  1
  Ge  Ge21  1  0.25000000  0.73718855  0.44467351  1
  N  N22  1  0.75000000  0.70653152  0.66650358  1
  N  N23  1  0.25000000  0.29346848  0.33349642  1
  N  N24  1  0.25000000  0.29346848  0.16650358  1
  N  N25  1  0.75000000  0.70653152  0.83349642  1
