# generated using pymatgen
data_Li9Si2NiO10
_symmetry_space_group_name_H-M   'P 1'
_cell_length_a   5.95970727
_cell_length_b   15.76173317
_cell_length_c   5.30633310
_cell_angle_alpha   79.46895927
_cell_angle_beta   88.54548499
_cell_angle_gamma   103.31909845
_symmetry_Int_Tables_number   1
_chemical_formula_structural   Li9Si2NiO10
_chemical_formula_sum   'Li18 Si4 Ni2 O20'
_cell_volume   475.68671340
_cell_formula_units_Z   2
loop_
 _symmetry_equiv_pos_site_id
 _symmetry_equiv_pos_as_xyz
  1  'x, y, z'
loop_
 _atom_site_type_symbol
 _atom_site_label
 _atom_site_symmetry_multiplicity
 _atom_site_fract_x
 _atom_site_fract_y
 _atom_site_fract_z
 _atom_site_occupancy
  Li  Li0  1  0.89467178  0.26359383  0.78927982  1
  Li  Li1  1  0.92258967  0.38121053  0.37262530  1
  Li  Li2  1  0.75073323  0.12792315  0.11012365  1
  Li  Li3  1  0.89945818  0.75607299  0.75198825  1
  Li  Li4  1  0.72446762  0.45225386  0.70814518  1
  Li  Li5  1  0.54476871  0.01158695  0.71707262  1
  Li  Li6  1  0.35977818  0.16442358  0.15034907  1
  Li  Li7  1  0.65727686  0.73719363  0.22282661  1
  Li  Li8  1  0.58295997  0.61210800  0.59483197  1
  Li  Li9  1  0.45334012  0.38222496  0.35620160  1
  Li  Li10  1  0.33784012  0.26522727  0.75883277  1
  Li  Li11  1  0.45796075  0.97877566  0.27620972  1
  Li  Li12  1  0.27437683  0.53538370  0.31067877  1
  Li  Li13  1  0.11897847  0.26221690  0.24345402  1
  Li  Li14  1  0.32955833  0.64956244  0.90500941  1
  Li  Li15  1  0.26306616  0.87351415  0.92914775  1
  Li  Li16  1  0.05644314  0.61125233  0.58567469  1
  Li  Li17  1  0.10763146  0.73871179  0.24524774  1
  Si  Si18  1  0.58681992  0.19354790  0.51935268  1
  Si  Si19  1  0.79579493  0.56723033  0.12757766  1
  Si  Si20  1  0.43908058  0.80580897  0.52027115  1
  Si  Si21  1  0.21423204  0.43824700  0.84346437  1
  Ni  Ni22  1  0.83508743  0.90627175  0.06554792  1
  Ni  Ni23  1  0.06209265  0.07965356  0.89657938  1
  O  O24  1  0.96192608  0.38841689  0.75892933  1
  O  O25  1  0.73906714  0.00998912  0.00846616  1
  O  O26  1  0.84838849  0.25208827  0.43055880  1
  O  O27  1  0.79275192  0.56785558  0.81813641  1
  O  O28  1  0.93692695  0.80858327  0.05187715  1
  O  O29  1  0.55785375  0.17910916  0.83744246  1
  O  O30  1  0.74149677  0.46683724  0.30407062  1
  O  O31  1  0.53207309  0.09917871  0.41105870  1
  O  O32  1  0.39598380  0.24876919  0.40133621  1
  O  O33  1  0.59106231  0.61538547  0.20973736  1
  O  O34  1  0.14716264  0.97307012  0.99613045  1
  O  O35  1  0.40512114  0.38962098  0.73896263  1
  O  O36  1  0.60932418  0.73949697  0.61789815  1
  O  O37  1  0.27606122  0.54464976  0.70573367  1
  O  O38  1  0.46285243  0.89936201  0.61602203  1
  O  O39  1  0.07853136  0.18908641  0.98305168  1
  O  O40  1  0.21222957  0.42307721  0.15997686  1
  O  O41  1  0.48950666  0.83272453  0.19421769  1
  O  O42  1  0.17620976  0.74069655  0.59481331  1
  O  O43  1  0.05816062  0.61962732  0.19605724  1
