# generated using pymatgen
data_Ba3MgTa2O9
_symmetry_space_group_name_H-M   'P 1'
_cell_length_a   5.84342192
_cell_length_b   5.84342192
_cell_length_c   7.17866621
_cell_angle_alpha   90.00000000
_cell_angle_beta   90.00000000
_cell_angle_gamma   119.99999999
_symmetry_Int_Tables_number   1
_chemical_formula_structural   Ba3MgTa2O9
_chemical_formula_sum   'Ba3 Mg1 Ta2 O9'
_cell_volume   212.27990412
_cell_formula_units_Z   1
loop_
 _symmetry_equiv_pos_site_id
 _symmetry_equiv_pos_as_xyz
  1  'x, y, z'
loop_
 _atom_site_type_symbol
 _atom_site_label
 _atom_site_symmetry_multiplicity
 _atom_site_fract_x
 _atom_site_fract_y
 _atom_site_fract_z
 _atom_site_occupancy
  O  O0  1  0.82790582  0.17209418  0.67542367  1
  O  O1  1  0.82790582  0.65581164  0.67542367  1
  O  O2  1  0.34418836  0.17209418  0.67542367  1
  O  O3  1  0.65581164  0.82790582  0.32457633  1
  O  O4  1  0.17209418  0.34418836  0.32457633  1
  O  O5  1  0.17209418  0.82790582  0.32457633  1
  O  O6  1  0.50000000  0.00000000  0.00000000  1
  O  O7  1  0.00000000  0.50000000  0.00000000  1
  O  O8  1  0.50000000  0.50000000  0.00000000  1
  Mg  Mg9  1  0.00000000  0.00000000  0.50000000  1
  Ba  Ba10  1  0.33333333  0.66666667  0.66412444  1
  Ba  Ba11  1  0.00000000  0.00000000  0.00000000  1
  Ba  Ba12  1  0.66666667  0.33333333  0.33587556  1
  Ta  Ta13  1  0.33333333  0.66666667  0.17675211  1
  Ta  Ta14  1  0.66666667  0.33333333  0.82324789  1
