# generated using pymatgen
data_LiBi4O7
_symmetry_space_group_name_H-M   'P 1'
_cell_length_a   8.22277076
_cell_length_b   7.34719380
_cell_length_c   6.83060072
_cell_angle_alpha   94.76150368
_cell_angle_beta   69.71546189
_cell_angle_gamma   111.91330559
_symmetry_Int_Tables_number   1
_chemical_formula_structural   LiBi4O7
_chemical_formula_sum   'Li2 Bi8 O14'
_cell_volume   358.59690734
_cell_formula_units_Z   2
loop_
 _symmetry_equiv_pos_site_id
 _symmetry_equiv_pos_as_xyz
  1  'x, y, z'
loop_
 _atom_site_type_symbol
 _atom_site_label
 _atom_site_symmetry_multiplicity
 _atom_site_fract_x
 _atom_site_fract_y
 _atom_site_fract_z
 _atom_site_occupancy
  Li  Li0  1  0.00000000  0.00000000  -0.00000000  1
  Li  Li1  1  0.50000000  0.00000000  -0.00000000  1
  Bi  Bi2  1  0.21525542  0.61960750  0.76939042  1
  Bi  Bi3  1  0.14652450  0.86292932  0.34593071  1
  Bi  Bi4  1  0.72522865  0.60799757  0.79713645  1
  Bi  Bi5  1  0.62595593  0.85462026  0.32117594  1
  Bi  Bi6  1  0.37404407  0.14537974  0.67882406  1
  Bi  Bi7  1  0.27477135  0.39200243  0.20286355  1
  Bi  Bi8  1  0.85347550  0.13707068  0.65406929  1
  Bi  Bi9  1  0.78474458  0.38039250  0.23060958  1
  O  O10  1  0.10343490  0.85511049  0.73583688  1
  O  O11  1  0.73118292  0.92739610  0.96027078  1
  O  O12  1  0.49900146  0.91815662  0.69238705  1
  O  O13  1  0.42176080  0.48220449  0.83648598  1
  O  O14  1  0.30516520  0.67422323  0.39505570  1
  O  O15  1  0.17029222  0.22913867  0.54469248  1
  O  O16  1  0.89726945  0.38959142  0.86544245  1
  O  O17  1  0.10273055  0.61040858  0.13455755  1
  O  O18  1  0.82970778  0.77086133  0.45530752  1
  O  O19  1  0.69483480  0.32577677  0.60494430  1
  O  O20  1  0.57823920  0.51779551  0.16351402  1
  O  O21  1  0.50099854  0.08184338  0.30761295  1
  O  O22  1  0.26881708  0.07260390  0.03972922  1
  O  O23  1  0.89656510  0.14488951  0.26416312  1
