# generated using pymatgen
data_InOF
_symmetry_space_group_name_H-M   'P 1'
_cell_length_a   5.56630483
_cell_length_b   5.56630483
_cell_length_c   6.30240513
_cell_angle_alpha   111.49283514
_cell_angle_beta   111.49283519
_cell_angle_gamma   99.80684254
_symmetry_Int_Tables_number   1
_chemical_formula_structural   InOF
_chemical_formula_sum   'In4 O4 F4'
_cell_volume   158.25288332
_cell_formula_units_Z   4
loop_
 _symmetry_equiv_pos_site_id
 _symmetry_equiv_pos_as_xyz
  1  'x, y, z'
loop_
 _atom_site_type_symbol
 _atom_site_label
 _atom_site_symmetry_multiplicity
 _atom_site_fract_x
 _atom_site_fract_y
 _atom_site_fract_z
 _atom_site_occupancy
  O  O0  1  0.01140850  0.26140850  0.52281701  1
  O  O1  1  0.26140850  0.01140850  0.02281701  1
  O  O2  1  0.98859150  0.73859150  0.47718299  1
  O  O3  1  0.73859150  0.98859150  0.97718299  1
  F  F4  1  0.50000000  0.00000000  0.50000000  1
  F  F5  1  0.50000000  0.50000000  0.50000000  1
  F  F6  1  0.00000000  0.50000000  0.00000000  1
  F  F7  1  0.50000000  0.50000000  0.00000000  1
  In  In8  1  0.07556852  0.92443148  0.25000000  1
  In  In9  1  0.67443148  0.32556852  0.25000000  1
  In  In10  1  0.92443148  0.07556852  0.75000000  1
  In  In11  1  0.32556852  0.67443148  0.75000000  1
