# generated using pymatgen
data_V3AsC
_symmetry_space_group_name_H-M   'P 1'
_cell_length_a   3.11909581
_cell_length_b   5.31578992
_cell_length_c   7.69123778
_cell_angle_alpha   90.00000000
_cell_angle_beta   90.00000000
_cell_angle_gamma   107.06043687
_symmetry_Int_Tables_number   1
_chemical_formula_structural   V3AsC
_chemical_formula_sum   'V6 As2 C2'
_cell_volume   121.91264603
_cell_formula_units_Z   2
loop_
 _symmetry_equiv_pos_site_id
 _symmetry_equiv_pos_as_xyz
  1  'x, y, z'
loop_
 _atom_site_type_symbol
 _atom_site_label
 _atom_site_symmetry_multiplicity
 _atom_site_fract_x
 _atom_site_fract_y
 _atom_site_fract_z
 _atom_site_occupancy
  C  C0  1  0.50000000  0.00000000  0.50000000  1
  C  C1  1  0.50000000  0.00000000  0.00000000  1
  V  V2  1  0.12653536  0.25307071  0.55094693  1
  V  V3  1  0.54528989  0.09057977  0.25000000  1
  V  V4  1  0.45471011  0.90942023  0.75000000  1
  V  V5  1  0.12653536  0.25307071  0.94905307  1
  V  V6  1  0.87346464  0.74692929  0.05094693  1
  V  V7  1  0.87346464  0.74692929  0.44905307  1
  As  As8  1  0.24164230  0.48328461  0.25000000  1
  As  As9  1  0.75835770  0.51671539  0.75000000  1
