# generated using pymatgen
data_BaBeSiO4
_symmetry_space_group_name_H-M   'P 1'
_cell_length_a   5.12008962
_cell_length_b   5.19298790
_cell_length_c   5.19298624
_cell_angle_alpha   61.12163230
_cell_angle_beta   60.65268382
_cell_angle_gamma   60.65271021
_symmetry_Int_Tables_number   1
_chemical_formula_structural   BaBeSiO4
_chemical_formula_sum   'Ba1 Be1 Si1 O4'
_cell_volume   99.41018262
_cell_formula_units_Z   1
loop_
 _symmetry_equiv_pos_site_id
 _symmetry_equiv_pos_as_xyz
  1  'x, y, z'
loop_
 _atom_site_type_symbol
 _atom_site_label
 _atom_site_symmetry_multiplicity
 _atom_site_fract_x
 _atom_site_fract_y
 _atom_site_fract_z
 _atom_site_occupancy
  O  O0  1  0.44012800  0.37583757  0.87811970  1
  Be  Be1  1  0.26396322  0.25201218  0.25201207  1
  Si  Si2  1  0.51505907  0.50077379  0.50077363  1
  Ba  Ba3  1  0.02670062  0.98654514  0.98654572  1
  O  O4  1  0.88907005  0.32855531  0.32855473  1
  O  O5  1  0.44012637  0.87811979  0.37583646  1
  O  O6  1  0.28565268  0.42715624  0.42715769  1
