# generated using pymatgen
data_Li5Fe4(PO4)4
_symmetry_space_group_name_H-M   'P 1'
_cell_length_a   8.46982843
_cell_length_b   8.46982843
_cell_length_c   10.38752050
_cell_angle_alpha   89.99931908
_cell_angle_beta   89.99931908
_cell_angle_gamma   74.51928738
_symmetry_Int_Tables_number   1
_chemical_formula_structural   Li5Fe4(PO4)4
_chemical_formula_sum   'Li10 Fe8 P8 O32'
_cell_volume   718.14502071
_cell_formula_units_Z   2
loop_
 _symmetry_equiv_pos_site_id
 _symmetry_equiv_pos_as_xyz
  1  'x, y, z'
loop_
 _atom_site_type_symbol
 _atom_site_label
 _atom_site_symmetry_multiplicity
 _atom_site_fract_x
 _atom_site_fract_y
 _atom_site_fract_z
 _atom_site_occupancy
  Li  Li0  1  0.87808113  0.68239680  0.08367458  1
  Li  Li1  1  0.24197131  0.55685167  0.15591842  1
  Li  Li2  1  0.74236190  0.05719880  0.16131004  1
  Li  Li3  1  0.23924480  0.04829960  0.34683309  1
  Li  Li4  1  0.73870423  0.55128462  0.34588947  1
  Li  Li5  1  0.93239680  0.62808113  0.58367458  1
  Li  Li6  1  0.30719880  0.49236190  0.66131004  1
  Li  Li7  1  0.80685167  0.99197131  0.65591842  1
  Li  Li8  1  0.29829960  0.98924480  0.84683309  1
  Li  Li9  1  0.80128462  0.48870423  0.84588947  1
  Fe  Fe10  1  0.48285907  0.80967276  0.15812872  1
  Fe  Fe11  1  0.99797463  0.29495352  0.15477022  1
  Fe  Fe12  1  0.99407981  0.81398737  0.34434190  1
  Fe  Fe13  1  0.49161966  0.29816617  0.35129855  1
  Fe  Fe14  1  0.54495352  0.74797463  0.65477022  1
  Fe  Fe15  1  0.05967276  0.23285907  0.65812872  1
  Fe  Fe16  1  0.54816617  0.24161966  0.85129855  1
  Fe  Fe17  1  0.06398737  0.74407981  0.84434190  1
  P  P18  1  0.10812760  0.92686671  0.09238107  1
  P  P19  1  0.62056501  0.43448328  0.09672433  1
  P  P20  1  0.61705107  0.92738754  0.40394471  1
  P  P21  1  0.11284593  0.42839922  0.40610601  1
  P  P22  1  0.17686671  0.85812760  0.59238107  1
  P  P23  1  0.68448328  0.37056501  0.59672433  1
  P  P24  1  0.67839922  0.86284593  0.90610601  1
  P  P25  1  0.17738754  0.36705107  0.90394471  1
  O  O26  1  0.65417369  0.89291597  0.05527451  1
  O  O27  1  0.13547690  0.40908091  0.04957968  1
  O  O28  1  0.46650552  0.57888575  0.12039700  1
  O  O29  1  0.95848102  0.07710018  0.12210943  1
  O  O30  1  0.25597660  0.95835253  0.16960523  1
  O  O31  1  0.77374759  0.48545582  0.15252625  1
  O  O32  1  0.06533857  0.76767128  0.13920995  1
  O  O33  1  0.59684309  0.28154566  0.16831258  1
  O  O34  1  0.08276892  0.27209735  0.34389291  1
  O  O35  1  0.58528047  0.77252826  0.33963844  1
  O  O36  1  0.75662733  0.98128268  0.33809509  1
  O  O37  1  0.26390578  0.46701600  0.34117407  1
  O  O38  1  0.95653304  0.57302419  0.39147316  1
  O  O39  1  0.45903320  0.07333296  0.38891409  1
  O  O40  1  0.16427334  0.90060054  0.44939493  1
  O  O41  1  0.64455755  0.40208411  0.45176157  1
  O  O42  1  0.65908091  0.88547690  0.54957968  1
  O  O43  1  0.14291597  0.40417369  0.55527451  1
  O  O44  1  0.32710018  0.70848102  0.62210943  1
  O  O45  1  0.82888575  0.21650552  0.62039700  1
  O  O46  1  0.73545582  0.52374759  0.65252625  1
  O  O47  1  0.20835253  0.00597660  0.66960523  1
  O  O48  1  0.01767128  0.81533857  0.63920995  1
  O  O49  1  0.53154566  0.34684309  0.66831258  1
  O  O50  1  0.52209735  0.83276892  0.84389291  1
  O  O51  1  0.02252826  0.33528047  0.83963844  1
  O  O52  1  0.71701600  0.01390578  0.84117407  1
  O  O53  1  0.23128268  0.50662733  0.83809509  1
  O  O54  1  0.32333296  0.20903320  0.88891409  1
  O  O55  1  0.82302419  0.70653304  0.89147316  1
  O  O56  1  0.15060054  0.91427334  0.94939493  1
  O  O57  1  0.65208411  0.39455755  0.95176157  1
