# generated using pymatgen
data_NaH9O5
_symmetry_space_group_name_H-M   'P 1'
_cell_length_a   8.01817797
_cell_length_b   8.01817797
_cell_length_c   9.43724508
_cell_angle_alpha   64.16513527
_cell_angle_beta   115.83486473
_cell_angle_gamma   150.46073096
_symmetry_Int_Tables_number   1
_chemical_formula_structural   NaH9O5
_chemical_formula_sum   'Na2 H18 O10'
_cell_volume   267.03131398
_cell_formula_units_Z   2
loop_
 _symmetry_equiv_pos_site_id
 _symmetry_equiv_pos_as_xyz
  1  'x, y, z'
loop_
 _atom_site_type_symbol
 _atom_site_label
 _atom_site_symmetry_multiplicity
 _atom_site_fract_x
 _atom_site_fract_y
 _atom_site_fract_z
 _atom_site_occupancy
  Na  Na0  1  0.54599248  0.45503305  0.85901993  1
  Na  Na1  1  0.45503305  0.54599248  0.14098007  1
  H  H2  1  0.80080133  0.19930936  0.60286228  1
  H  H3  1  0.19930936  0.80080133  0.39713772  1
  H  H4  1  0.55055229  0.07030375  0.97559253  1
  H  H5  1  0.73152813  0.26580090  0.82273258  1
  H  H6  1  0.07030375  0.55055229  0.02440747  1
  H  H7  1  0.26580090  0.73152813  0.17726742  1
  H  H8  1  0.15858709  0.45531925  0.79744461  1
  H  H9  1  0.54464683  0.84131550  0.79743091  1
  H  H10  1  0.45531925  0.15858709  0.20255539  1
  H  H11  1  0.84131550  0.54464683  0.20256909  1
  H  H12  1  0.95814164  0.04170163  0.61404604  1
  H  H13  1  0.07026288  0.93029673  0.66888382  1
  H  H14  1  0.04170163  0.95814164  0.38595396  1
  H  H15  1  0.93029673  0.07026288  0.33111618  1
  H  H16  1  0.99579330  0.61103809  0.61037661  1
  H  H17  1  0.38883115  0.00419698  0.61047397  1
  H  H18  1  0.61103809  0.99579330  0.38962339  1
  H  H19  1  0.00419698  0.38883115  0.38952603  1
  O  O20  1  0.77539565  0.22476008  0.68113120  1
  O  O21  1  0.22476008  0.77539565  0.31886880  1
  O  O22  1  0.71044552  0.29309054  0.90336749  1
  O  O23  1  0.29309054  0.71044552  0.09663251  1
  O  O24  1  0.39166796  0.60825853  0.85703487  1
  O  O25  1  0.60825853  0.39166796  0.14296513  1
  O  O26  1  0.02100047  0.97857779  0.71035030  1
  O  O27  1  0.97857779  0.02100047  0.28964970  1
  O  O28  1  0.14785448  0.85193562  0.57128923  1
  O  O29  1  0.85193562  0.14785448  0.42871077  1
