# generated using pymatgen
data_EuMoO4F
_symmetry_space_group_name_H-M   'P 1'
_cell_length_a   5.40264747
_cell_length_b   6.88010682
_cell_length_c   12.72378054
_cell_angle_alpha   90.00000000
_cell_angle_beta   90.00000000
_cell_angle_gamma   113.45194755
_symmetry_Int_Tables_number   1
_chemical_formula_structural   EuMoO4F
_chemical_formula_sum   'Eu4 Mo4 O16 F4'
_cell_volume   433.88432253
_cell_formula_units_Z   4
loop_
 _symmetry_equiv_pos_site_id
 _symmetry_equiv_pos_as_xyz
  1  'x, y, z'
loop_
 _atom_site_type_symbol
 _atom_site_label
 _atom_site_symmetry_multiplicity
 _atom_site_fract_x
 _atom_site_fract_y
 _atom_site_fract_z
 _atom_site_occupancy
  Eu  Eu0  1  0.36400077  0.70357950  0.55579055  1
  Eu  Eu1  1  0.63599923  0.79642050  0.05579055  1
  Eu  Eu2  1  0.63599923  0.29642050  0.44420945  1
  Eu  Eu3  1  0.36400077  0.20357950  0.94420945  1
  Mo  Mo4  1  0.91634290  0.86396194  0.35907411  1
  Mo  Mo5  1  0.08365710  0.63603806  0.85907411  1
  Mo  Mo6  1  0.08365710  0.13603806  0.64092589  1
  Mo  Mo7  1  0.91634290  0.36396194  0.14092589  1
  O  O8  1  0.70235644  0.96470096  0.43616459  1
  O  O9  1  0.80542162  0.79014760  0.22774676  1
  O  O10  1  0.77331511  0.41462838  0.84684590  1
  O  O11  1  0.77331511  0.91462838  0.65315410  1
  O  O12  1  0.29764356  0.53529904  0.93616459  1
  O  O13  1  0.70235644  0.46470096  0.06383541  1
  O  O14  1  0.19457838  0.70985240  0.72774676  1
  O  O15  1  0.29764356  0.03529904  0.56383541  1
  O  O16  1  0.22668489  0.58537162  0.15315410  1
  O  O17  1  0.00032499  0.33475248  0.57032455  1
  O  O18  1  0.19457838  0.20985240  0.77225324  1
  O  O19  1  0.22668489  0.08537162  0.34684590  1
  O  O20  1  0.99967501  0.16524752  0.07032455  1
  O  O21  1  0.00032499  0.83475248  0.92967545  1
  O  O22  1  0.80542162  0.29014760  0.27225324  1
  O  O23  1  0.99967501  0.66524752  0.42967545  1
  F  F24  1  0.52210265  0.94619653  0.90144000  1
  F  F25  1  0.47789735  0.55380347  0.40144000  1
  F  F26  1  0.52210265  0.44619653  0.59856000  1
  F  F27  1  0.47789735  0.05380347  0.09856000  1
