# generated using pymatgen
data_Na3(TiS2)10
_symmetry_space_group_name_H-M   'P 1'
_cell_length_a   13.12769012
_cell_length_b   65.62770542
_cell_length_c   26.02701722
_cell_angle_alpha   7.49136195
_cell_angle_beta   13.03353698
_cell_angle_gamma   15.00070434
_symmetry_Int_Tables_number   1
_chemical_formula_structural   Na3(TiS2)10
_chemical_formula_sum   'Na3 Ti10 S20'
_cell_volume   659.30691825
_cell_formula_units_Z   1
loop_
 _symmetry_equiv_pos_site_id
 _symmetry_equiv_pos_as_xyz
  1  'x, y, z'
loop_
 _atom_site_type_symbol
 _atom_site_label
 _atom_site_symmetry_multiplicity
 _atom_site_fract_x
 _atom_site_fract_y
 _atom_site_fract_z
 _atom_site_occupancy
  Na  Na0  1  0.34093035  0.20000000  0.32732838  1
  Na  Na1  1  0.66183794  0.59280212  0.68917028  1
  Na  Na2  1  0.66183794  0.80719788  0.65318087  1
  Ti  Ti3  1  0.42350096  0.00292428  0.41931600  1
  Ti  Ti4  1  0.43271654  0.20000000  0.42236462  1
  Ti  Ti5  1  0.56998413  0.20000000  0.57664764  1
  Ti  Ti6  1  0.42350096  0.39707572  0.43393740  1
  Ti  Ti7  1  0.57703755  0.39846374  0.57700711  1
  Ti  Ti8  1  0.42392234  0.60006089  0.42692390  1
  Ti  Ti9  1  0.57443592  0.60104215  0.57136064  1
  Ti  Ti10  1  0.42392234  0.79993911  0.42722836  1
  Ti  Ti11  1  0.57443592  0.79895785  0.57657138  1
  Ti  Ti12  1  0.57703755  0.00153626  0.56932580  1
  S  S13  1  0.05774716  0.00106453  0.05028503  1
  S  S14  1  0.20548190  0.99971924  0.20576333  1
  S  S15  1  0.05791720  0.20000000  0.05288806  1
  S  S16  1  0.20356103  0.20000000  0.20622482  1
  S  S17  1  0.05774716  0.39893547  0.05560768  1
  S  S18  1  0.20548190  0.40028076  0.20435955  1
  S  S19  1  0.05122241  0.59908328  0.05852271  1
  S  S20  1  0.79512618  0.20000000  0.79477772  1
  S  S21  1  0.20622089  0.59986876  0.20512775  1
  S  S22  1  0.95029959  0.20000000  0.94270126  1
  S  S23  1  0.05122241  0.80091672  0.05393913  1
  S  S24  1  0.79498511  0.39998565  0.79503526  1
  S  S25  1  0.20622089  0.80013124  0.20447156  1
  S  S26  1  0.94440453  0.40103412  0.94349407  1
  S  S27  1  0.79462478  0.59949398  0.79602643  1
  S  S28  1  0.94431100  0.59999592  0.94665455  1
  S  S29  1  0.79462478  0.80050602  0.79349635  1
  S  S30  1  0.94431100  0.80000408  0.94663417  1
  S  S31  1  0.79498511  0.00001435  0.79496351  1
  S  S32  1  0.94440453  0.99896588  0.94866469  1
