# generated using pymatgen
data_K2TiAl(PO4)3
_symmetry_space_group_name_H-M   'P 1'
_cell_length_a   9.84358699
_cell_length_b   9.84358699
_cell_length_c   9.84358699
_cell_angle_alpha   90.00000000
_cell_angle_beta   90.00000000
_cell_angle_gamma   90.00000000
_symmetry_Int_Tables_number   1
_chemical_formula_structural   K2TiAl(PO4)3
_chemical_formula_sum   'K8 Ti4 Al4 P12 O48'
_cell_volume   953.80622124
_cell_formula_units_Z   4
loop_
 _symmetry_equiv_pos_site_id
 _symmetry_equiv_pos_as_xyz
  1  'x, y, z'
loop_
 _atom_site_type_symbol
 _atom_site_label
 _atom_site_symmetry_multiplicity
 _atom_site_fract_x
 _atom_site_fract_y
 _atom_site_fract_z
 _atom_site_occupancy
  K  K0  1  0.04031878  0.95968122  0.45968122  1
  K  K1  1  0.18108351  0.68108351  0.81891649  1
  K  K2  1  0.31891649  0.31891649  0.31891649  1
  K  K3  1  0.45968122  0.04031878  0.95968122  1
  K  K4  1  0.54031878  0.54031878  0.54031878  1
  K  K5  1  0.68108351  0.81891649  0.18108351  1
  K  K6  1  0.81891649  0.18108351  0.68108351  1
  K  K7  1  0.95968122  0.45968122  0.04031878  1
  Ti  Ti8  1  0.16374521  0.33625479  0.66374521  1
  Ti  Ti9  1  0.33625479  0.66374521  0.16374521  1
  Ti  Ti10  1  0.66374521  0.16374521  0.33625479  1
  Ti  Ti11  1  0.83625479  0.83625479  0.83625479  1
  Al  Al12  1  0.10808200  0.10808200  0.10808200  1
  Al  Al13  1  0.39191800  0.89191800  0.60808200  1
  Al  Al14  1  0.60808200  0.39191800  0.89191800  1
  Al  Al15  1  0.89191800  0.60808200  0.39191800  1
  P  P16  1  0.02137538  0.79607206  0.12799124  1
  P  P17  1  0.12799124  0.02137538  0.79607206  1
  P  P18  1  0.20392794  0.62799124  0.47862462  1
  P  P19  1  0.29607206  0.37200876  0.97862462  1
  P  P20  1  0.37200876  0.97862462  0.29607206  1
  P  P21  1  0.47862462  0.20392794  0.62799124  1
  P  P22  1  0.52137538  0.70392794  0.87200876  1
  P  P23  1  0.62799124  0.47862462  0.20392794  1
  P  P24  1  0.70392794  0.87200876  0.52137538  1
  P  P25  1  0.79607206  0.12799124  0.02137538  1
  P  P26  1  0.87200876  0.52137538  0.70392794  1
  P  P27  1  0.97862462  0.29607206  0.37200876  1
  O  O28  1  0.00979518  0.44621425  0.72824972  1
  O  O29  1  0.01724331  0.94592366  0.17064528  1
  O  O30  1  0.04970908  0.20434295  0.26834335  1
  O  O31  1  0.05378575  0.27175028  0.50979518  1
  O  O32  1  0.05407634  0.67064528  0.48275669  1
  O  O33  1  0.10237706  0.17063134  0.74983348  1
  O  O34  1  0.17064528  0.01724331  0.94592366  1
  O  O35  1  0.17063134  0.74983348  0.10237706  1
  O  O36  1  0.20434295  0.26834335  0.04970908  1
  O  O37  1  0.22824972  0.49020482  0.55378575  1
  O  O38  1  0.23165665  0.95029092  0.70434295  1
  O  O39  1  0.24983348  0.39762294  0.82936866  1
  O  O40  1  0.25016652  0.60237706  0.32936866  1
  O  O41  1  0.26834335  0.04970908  0.20434295  1
  O  O42  1  0.27175028  0.50979518  0.05378575  1
  O  O43  1  0.29565705  0.73165665  0.54970908  1
  O  O44  1  0.32936866  0.25016652  0.60237706  1
  O  O45  1  0.32935472  0.98275669  0.44592366  1
  O  O46  1  0.39762294  0.82936866  0.24983348  1
  O  O47  1  0.44592366  0.32935472  0.98275669  1
  O  O48  1  0.44621425  0.72824972  0.00979518  1
  O  O49  1  0.45029092  0.79565705  0.76834335  1
  O  O50  1  0.48275669  0.05407634  0.67064528  1
  O  O51  1  0.49020482  0.55378575  0.22824972  1
  O  O52  1  0.50979518  0.05378575  0.27175028  1
  O  O53  1  0.51724331  0.55407634  0.82935472  1
  O  O54  1  0.54970908  0.29565705  0.73165665  1
  O  O55  1  0.55378575  0.22824972  0.49020482  1
  O  O56  1  0.55407634  0.82935472  0.51724331  1
  O  O57  1  0.60237706  0.32936866  0.25016652  1
  O  O58  1  0.67064528  0.48275669  0.05407634  1
  O  O59  1  0.67063134  0.75016652  0.89762294  1
  O  O60  1  0.70434295  0.23165665  0.95029092  1
  O  O61  1  0.72824972  0.00979518  0.44621425  1
  O  O62  1  0.73165665  0.54970908  0.29565705  1
  O  O63  1  0.74983348  0.10237706  0.17063134  1
  O  O64  1  0.75016652  0.89762294  0.67063134  1
  O  O65  1  0.76834335  0.45029092  0.79565705  1
  O  O66  1  0.77175028  0.99020482  0.94621425  1
  O  O67  1  0.79565705  0.76834335  0.45029092  1
  O  O68  1  0.82936866  0.24983348  0.39762294  1
  O  O69  1  0.82935472  0.51724331  0.55407634  1
  O  O70  1  0.89762294  0.67063134  0.75016652  1
  O  O71  1  0.94592366  0.17064528  0.01724331  1
  O  O72  1  0.94621425  0.77175028  0.99020482  1
  O  O73  1  0.95029092  0.70434295  0.23165665  1
  O  O74  1  0.98275669  0.44592366  0.32935472  1
  O  O75  1  0.99020482  0.94621425  0.77175028  1
