# generated using pymatgen
data_Cu2Hg2SF6
_symmetry_space_group_name_H-M   'P 1'
_cell_length_a   7.71268704
_cell_length_b   7.71268704
_cell_length_c   7.71268704
_cell_angle_alpha   60.00000001
_cell_angle_beta   60.00000001
_cell_angle_gamma   60.00000001
_symmetry_Int_Tables_number   1
_chemical_formula_structural   Cu2Hg2SF6
_chemical_formula_sum   'Cu4 Hg4 S2 F12'
_cell_volume   324.41589908
_cell_formula_units_Z   2
loop_
 _symmetry_equiv_pos_site_id
 _symmetry_equiv_pos_as_xyz
  1  'x, y, z'
loop_
 _atom_site_type_symbol
 _atom_site_label
 _atom_site_symmetry_multiplicity
 _atom_site_fract_x
 _atom_site_fract_y
 _atom_site_fract_z
 _atom_site_occupancy
  F  F0  1  0.68185114  0.06814886  0.06814886  1
  F  F1  1  0.68185114  0.06814886  0.68185114  1
  F  F2  1  0.31814886  0.93185114  0.93185114  1
  F  F3  1  0.06814886  0.68185114  0.68185114  1
  F  F4  1  0.93185114  0.31814886  0.93185114  1
  F  F5  1  0.93185114  0.93185114  0.31814886  1
  F  F6  1  0.06814886  0.68185114  0.06814886  1
  F  F7  1  0.31814886  0.93185114  0.31814886  1
  F  F8  1  0.93185114  0.31814886  0.31814886  1
  F  F9  1  0.68185114  0.68185114  0.06814886  1
  F  F10  1  0.06814886  0.06814886  0.68185114  1
  F  F11  1  0.31814886  0.31814886  0.93185114  1
  S  S12  1  0.37500000  0.37500000  0.37500000  1
  S  S13  1  0.62500000  0.62500000  0.62500000  1
  Cu  Cu14  1  0.00000000  0.50000000  0.00000000  1
  Cu  Cu15  1  0.50000000  0.00000000  0.00000000  1
  Cu  Cu16  1  0.00000000  0.00000000  0.50000000  1
  Cu  Cu17  1  0.00000000  0.00000000  0.00000000  1
  Hg  Hg18  1  0.50000000  0.00000000  0.50000000  1
  Hg  Hg19  1  0.00000000  0.50000000  0.50000000  1
  Hg  Hg20  1  0.50000000  0.50000000  0.00000000  1
  Hg  Hg21  1  0.50000000  0.50000000  0.50000000  1
