# generated using pymatgen
data_U(GaFe)6
_symmetry_space_group_name_H-M   'P 1'
_cell_length_a   5.01549232
_cell_length_b   6.56692843
_cell_length_c   6.56692835
_cell_angle_alpha   83.14350827
_cell_angle_beta   67.55012457
_cell_angle_gamma   67.55011706
_symmetry_Int_Tables_number   1
_chemical_formula_structural   U(GaFe)6
_chemical_formula_sum   'U1 Ga6 Fe6'
_cell_volume   184.66088499
_cell_formula_units_Z   1
loop_
 _symmetry_equiv_pos_site_id
 _symmetry_equiv_pos_as_xyz
  1  'x, y, z'
loop_
 _atom_site_type_symbol
 _atom_site_label
 _atom_site_symmetry_multiplicity
 _atom_site_fract_x
 _atom_site_fract_y
 _atom_site_fract_z
 _atom_site_occupancy
  U  U0  1  -0.00000000  0.00000000  0.00000000  1
  Ga  Ga1  1  1.00000000  0.65228258  0.34771742  1
  Ga  Ga2  1  0.50000000  0.80588895  0.19411105  1
  Ga  Ga3  1  0.34289068  0.65710932  0.65710932  1
  Ga  Ga4  1  0.50000000  0.19411105  0.80588895  1
  Ga  Ga5  1  0.00000000  0.34771742  0.65228258  1
  Ga  Ga6  1  0.65710932  0.34289068  0.34289068  1
  Fe  Fe7  1  0.50000000  0.50000000  0.00000000  1
  Fe  Fe8  1  0.73397671  0.76602329  0.76602329  1
  Fe  Fe9  1  0.26602329  0.23397671  0.23397671  1
  Fe  Fe10  1  -0.00000000  0.00000000  0.50000000  1
  Fe  Fe11  1  0.50000000  0.00000000  0.50000000  1
  Fe  Fe12  1  -0.00000000  0.50000000  0.00000000  1
