# generated using pymatgen
data_Gd(Co2B)6
_symmetry_space_group_name_H-M   'P 1'
_cell_length_a   5.95670852
_cell_length_b   5.95706956
_cell_length_c   5.95693321
_cell_angle_alpha   104.07614958
_cell_angle_beta   104.07844913
_cell_angle_gamma   104.08188734
_symmetry_Int_Tables_number   1
_chemical_formula_structural   Gd(Co2B)6
_chemical_formula_sum   'Gd1 Co12 B6'
_cell_volume   188.31597190
_cell_formula_units_Z   1
loop_
 _symmetry_equiv_pos_site_id
 _symmetry_equiv_pos_as_xyz
  1  'x, y, z'
loop_
 _atom_site_type_symbol
 _atom_site_label
 _atom_site_symmetry_multiplicity
 _atom_site_fract_x
 _atom_site_fract_y
 _atom_site_fract_z
 _atom_site_occupancy
  Gd  Gd0  1  0.00001292  0.99999793  -0.00000527  1
  Co  Co1  1  0.86764472  0.50001030  0.13241560  1
  Co  Co2  1  0.49999105  0.86760516  0.13239543  1
  Co  Co3  1  0.13237002  0.50000549  0.86759938  1
  Co  Co4  1  0.18620055  0.45558361  0.45558581  1
  Co  Co5  1  0.54441350  0.81376373  0.54439565  1
  Co  Co6  1  0.45559200  0.18622377  0.45556782  1
  Co  Co7  1  0.54439225  0.54441878  0.81376083  1
  Co  Co8  1  0.86762705  0.13240722  0.50000470  1
  Co  Co9  1  0.13237057  0.86759314  0.49999658  1
  Co  Co10  1  0.81380536  0.54442480  0.54442865  1
  Co  Co11  1  0.49999342  0.13237228  0.86760894  1
  Co  Co12  1  0.45558044  0.45560246  0.18624716  1
  B  B13  1  0.23387442  0.67703498  0.23385949  1
  B  B14  1  0.23382753  0.23387650  0.67702938  1
  B  B15  1  0.67705269  0.23386872  0.23389810  1
  B  B16  1  0.76613903  0.76613584  0.32297806  1
  B  B17  1  0.32292464  0.76610190  0.76612230  1
  B  B18  1  0.76618782  0.32297339  0.76611138  1
