# generated using pymatgen
data_Ba4Zr(RuO4)3
_symmetry_space_group_name_H-M   'P 1'
_cell_length_a   10.32082234
_cell_length_b   10.32082234
_cell_length_c   10.32082234
_cell_angle_alpha   33.13238654
_cell_angle_beta   33.13238660
_cell_angle_gamma   33.13238652
_symmetry_Int_Tables_number   1
_chemical_formula_structural   Ba4Zr(RuO4)3
_chemical_formula_sum   'Ba4 Zr1 Ru3 O12'
_cell_volume   292.33732973
_cell_formula_units_Z   1
loop_
 _symmetry_equiv_pos_site_id
 _symmetry_equiv_pos_as_xyz
  1  'x, y, z'
loop_
 _atom_site_type_symbol
 _atom_site_label
 _atom_site_symmetry_multiplicity
 _atom_site_fract_x
 _atom_site_fract_y
 _atom_site_fract_z
 _atom_site_occupancy
  O  O0  1  0.21104854  0.21104854  0.70098718  1
  O  O1  1  0.21104854  0.70098718  0.21104854  1
  O  O2  1  0.70098718  0.21104854  0.21104854  1
  O  O3  1  0.29901282  0.78895146  0.78895146  1
  O  O4  1  0.78895146  0.78895146  0.29901282  1
  O  O5  1  0.78895146  0.29901282  0.78895146  1
  O  O6  1  0.38807117  0.38807117  0.85451346  1
  O  O7  1  0.38807117  0.85451346  0.38807117  1
  O  O8  1  0.61192883  0.14548654  0.61192883  1
  O  O9  1  0.61192883  0.61192883  0.14548654  1
  O  O10  1  0.14548654  0.61192883  0.61192883  1
  O  O11  1  0.85451346  0.38807117  0.38807117  1
  Zr  Zr12  1  0.00000000  0.00000000  0.00000000  1
  Ru  Ru13  1  0.41258240  0.41258240  0.41258240  1
  Ru  Ru14  1  0.50000000  0.50000000  0.50000000  1
  Ru  Ru15  1  0.58741760  0.58741760  0.58741760  1
  Ba  Ba16  1  0.71335902  0.71335902  0.71335902  1
  Ba  Ba17  1  0.28664098  0.28664098  0.28664098  1
  Ba  Ba18  1  0.87152649  0.87152649  0.87152649  1
  Ba  Ba19  1  0.12847351  0.12847351  0.12847351  1
