# generated using pymatgen
data_Ba8Zr3(SbO6)4
_symmetry_space_group_name_H-M   'P 1'
_cell_length_a   11.86850665
_cell_length_b   11.86850665
_cell_length_c   16.87412553
_cell_angle_alpha   90.00000000
_cell_angle_beta   90.00000000
_cell_angle_gamma   90.00000000
_symmetry_Int_Tables_number   1
_chemical_formula_structural   Ba8Zr3(SbO6)4
_chemical_formula_sum   'Ba32 Zr12 Sb16 O96'
_cell_volume   2376.91379134
_cell_formula_units_Z   4
loop_
 _symmetry_equiv_pos_site_id
 _symmetry_equiv_pos_as_xyz
  1  'x, y, z'
loop_
 _atom_site_type_symbol
 _atom_site_label
 _atom_site_symmetry_multiplicity
 _atom_site_fract_x
 _atom_site_fract_y
 _atom_site_fract_z
 _atom_site_occupancy
  Ba  Ba0  1  -0.00000000  0.23365427  0.11827896  1
  Ba  Ba1  1  0.76750383  0.50000000  0.61787102  1
  Ba  Ba2  1  0.23249617  0.50000000  0.38212898  1
  Ba  Ba3  1  0.50000000  0.76750383  0.38212898  1
  Ba  Ba4  1  -0.00000000  0.26571371  0.61854872  1
  Ba  Ba5  1  0.76634573  -0.00000000  0.88172104  1
  Ba  Ba6  1  -0.00000000  0.76634573  0.88172104  1
  Ba  Ba7  1  0.76634573  -0.00000000  0.11827896  1
  Ba  Ba8  1  0.26666344  0.50000000  0.11809356  1
  Ba  Ba9  1  -0.00000000  0.73428629  0.61854872  1
  Ba  Ba10  1  0.26571371  -0.00000000  0.61854872  1
  Ba  Ba11  1  0.50000000  0.73333656  0.11809356  1
  Ba  Ba12  1  0.50000000  0.73333656  0.88190644  1
  Ba  Ba13  1  0.73428629  -0.00000000  0.61854872  1
  Ba  Ba14  1  -0.00000000  0.73428629  0.38145128  1
  Ba  Ba15  1  0.76750383  0.50000000  0.38212898  1
  Ba  Ba16  1  0.50000000  0.76750383  0.61787102  1
  Ba  Ba17  1  0.50000000  0.26666344  0.11809356  1
  Ba  Ba18  1  0.26666344  0.50000000  0.88190644  1
  Ba  Ba19  1  -0.00000000  0.26571371  0.38145128  1
  Ba  Ba20  1  0.23249617  0.50000000  0.61787102  1
  Ba  Ba21  1  0.50000000  0.26666344  0.88190644  1
  Ba  Ba22  1  0.73428629  -0.00000000  0.38145128  1
  Ba  Ba23  1  0.50000000  0.23249617  0.61787102  1
  Ba  Ba24  1  0.73333656  0.50000000  0.11809356  1
  Ba  Ba25  1  0.23365427  -0.00000000  0.11827896  1
  Ba  Ba26  1  0.73333656  0.50000000  0.88190644  1
  Ba  Ba27  1  0.26571371  -0.00000000  0.38145128  1
  Ba  Ba28  1  -0.00000000  0.23365427  0.88172104  1
  Ba  Ba29  1  0.50000000  0.23249617  0.38212898  1
  Ba  Ba30  1  -0.00000000  0.76634573  0.11827896  1
  Ba  Ba31  1  0.23365427  -0.00000000  0.88172104  1
  Zr  Zr32  1  0.25027951  0.25027951  0.24997570  1
  Zr  Zr33  1  0.74972049  0.25027951  0.75002430  1
  Zr  Zr34  1  0.25027951  0.74972049  0.24997570  1
  Zr  Zr35  1  0.25027951  0.25027951  0.75002430  1
  Zr  Zr36  1  0.74972049  0.74972049  0.75002430  1
  Zr  Zr37  1  -0.00000000  -0.00000000  0.50000000  1
  Zr  Zr38  1  0.74972049  0.74972049  0.24997570  1
  Zr  Zr39  1  0.25027951  0.74972049  0.75002430  1
  Zr  Zr40  1  0.74972049  0.25027951  0.24997570  1
  Zr  Zr41  1  0.50000000  -0.00000000  -0.00000000  1
  Zr  Zr42  1  0.50000000  0.50000000  0.50000000  1
  Zr  Zr43  1  -0.00000000  0.50000000  -0.00000000  1
  Sb  Sb44  1  -0.00000000  -0.00000000  0.25627405  1
  Sb  Sb45  1  -0.00000000  -0.00000000  0.74372595  1
  Sb  Sb46  1  0.50000000  0.50000000  0.25645089  1
  Sb  Sb47  1  0.24993951  0.75006049  0.50000000  1
  Sb  Sb48  1  -0.00000000  0.50000000  0.75641942  1
  Sb  Sb49  1  -0.00000000  0.50000000  0.24358058  1
  Sb  Sb50  1  0.75006049  0.24993951  0.50000000  1
  Sb  Sb51  1  0.50000000  -0.00000000  0.75641942  1
  Sb  Sb52  1  0.25004754  0.25004754  -0.00000000  1
  Sb  Sb53  1  0.50000000  0.50000000  0.74354911  1
  Sb  Sb54  1  0.74995246  0.74995246  -0.00000000  1
  Sb  Sb55  1  0.50000000  -0.00000000  0.24358058  1
  Sb  Sb56  1  0.74995246  0.25004754  -0.00000000  1
  Sb  Sb57  1  0.25004754  0.74995246  -0.00000000  1
  Sb  Sb58  1  0.24993951  0.24993951  0.50000000  1
  Sb  Sb59  1  0.75006049  0.75006049  0.50000000  1
  O  O60  1  0.37387902  0.12624618  -0.00000000  1
  O  O61  1  0.36422177  0.86518815  0.50000000  1
  O  O62  1  0.62628397  0.62628397  0.50000000  1
  O  O63  1  0.37387902  0.87375382  -0.00000000  1
  O  O64  1  0.87375382  0.37387902  -0.00000000  1
  O  O65  1  0.74981184  0.74981184  0.37610142  1
  O  O66  1  0.63543381  0.36456619  -0.00000000  1
  O  O67  1  0.63577823  0.13481185  0.50000000  1
  O  O68  1  0.37371603  0.37371603  0.50000000  1
  O  O69  1  0.12300694  0.12300694  0.25474638  1
  O  O70  1  0.62612098  0.87375382  -0.00000000  1
  O  O71  1  -0.00000000  0.50000000  0.64105691  1
  O  O72  1  0.86518815  0.63577823  0.50000000  1
  O  O73  1  0.13517085  0.86482915  -0.00000000  1
  O  O74  1  0.37706857  0.62293143  0.74563014  1
  O  O75  1  0.62277736  0.87687964  0.24536080  1
  O  O76  1  -0.00000000  0.50000000  0.12585481  1
  O  O77  1  0.12609583  0.87390417  0.50000000  1
  O  O78  1  0.62293143  0.37706857  0.25436986  1
  O  O79  1  0.50000000  -0.00000000  0.35894309  1
  O  O80  1  0.12624618  0.37387902  -0.00000000  1
  O  O81  1  0.12300694  0.12300694  0.74525362  1
  O  O82  1  0.87699306  0.12300694  0.25474638  1
  O  O83  1  0.62277736  0.12312036  0.75463920  1
  O  O84  1  0.50000000  -0.00000000  0.87414519  1
  O  O85  1  0.86482915  0.13517085  -0.00000000  1
  O  O86  1  0.86482915  0.86482915  -0.00000000  1
  O  O87  1  0.87699306  0.87699306  0.25474638  1
  O  O88  1  0.87699306  0.12300694  0.74525362  1
  O  O89  1  0.62293143  0.37706857  0.74563014  1
  O  O90  1  0.87687964  0.37722264  0.24536080  1
  O  O91  1  -0.00000000  0.50000000  0.35894309  1
  O  O92  1  0.87687964  0.37722264  0.75463920  1
  O  O93  1  0.37722264  0.87687964  0.75463920  1
  O  O94  1  0.24980060  0.24980060  0.12387617  1
  O  O95  1  0.87375382  0.62612098  -0.00000000  1
  O  O96  1  0.37371603  0.62628397  0.50000000  1
  O  O97  1  0.62293143  0.62293143  0.74563014  1
  O  O98  1  0.87687964  0.62277736  0.75463920  1
  O  O99  1  0.12312036  0.62277736  0.24536080  1
  O  O100  1  0.37722264  0.12312036  0.75463920  1
  O  O101  1  0.75019940  0.24980060  0.12387617  1
  O  O102  1  0.50000000  0.50000000  0.62588317  1
  O  O103  1  0.50000000  0.50000000  0.85895316  1
  O  O104  1  0.50000000  -0.00000000  0.12585481  1
  O  O105  1  0.62277736  0.87687964  0.75463920  1
  O  O106  1  0.12300694  0.87699306  0.25474638  1
  O  O107  1  0.86518815  0.36422177  0.50000000  1
  O  O108  1  -0.00000000  0.50000000  0.87414519  1
  O  O109  1  0.87687964  0.62277736  0.24536080  1
  O  O110  1  0.75019940  0.75019940  0.87612383  1
  O  O111  1  0.87390417  0.12609583  0.50000000  1
  O  O112  1  0.37706857  0.37706857  0.74563014  1
  O  O113  1  -0.00000000  -0.00000000  0.62594060  1
  O  O114  1  0.37722264  0.12312036  0.24536080  1
  O  O115  1  0.12624618  0.62612098  -0.00000000  1
  O  O116  1  0.62293143  0.62293143  0.25436986  1
  O  O117  1  0.63577823  0.86518815  0.50000000  1
  O  O118  1  0.62612098  0.12624618  -0.00000000  1
  O  O119  1  0.24980060  0.75019940  0.87612383  1
  O  O120  1  0.12609583  0.12609583  0.50000000  1
  O  O121  1  0.62277736  0.12312036  0.24536080  1
  O  O122  1  0.50000000  0.50000000  0.37411683  1
  O  O123  1  0.50000000  0.50000000  0.14104684  1
  O  O124  1  0.25018816  0.25018816  0.37610142  1
  O  O125  1  0.36456619  0.63543381  -0.00000000  1
  O  O126  1  0.74981184  0.25018816  0.62389858  1
  O  O127  1  0.12312036  0.62277736  0.75463920  1
  O  O128  1  0.13517085  0.13517085  -0.00000000  1
  O  O129  1  0.63543381  0.63543381  -0.00000000  1
  O  O130  1  -0.00000000  -0.00000000  0.37405940  1
  O  O131  1  0.13481185  0.36422177  0.50000000  1
  O  O132  1  -0.00000000  -0.00000000  0.85906475  1
  O  O133  1  0.13481185  0.63577823  0.50000000  1
  O  O134  1  0.12300694  0.87699306  0.74525362  1
  O  O135  1  0.24980060  0.75019940  0.12387617  1
  O  O136  1  0.74981184  0.74981184  0.62389858  1
  O  O137  1  0.25018816  0.25018816  0.62389858  1
  O  O138  1  0.87390417  0.87390417  0.50000000  1
  O  O139  1  0.12312036  0.37722264  0.75463920  1
  O  O140  1  0.74981184  0.25018816  0.37610142  1
  O  O141  1  0.37706857  0.62293143  0.25436986  1
  O  O142  1  0.37706857  0.37706857  0.25436986  1
  O  O143  1  0.24980060  0.24980060  0.87612383  1
  O  O144  1  0.25018816  0.74981184  0.37610142  1
  O  O145  1  0.87699306  0.87699306  0.74525362  1
  O  O146  1  0.75019940  0.24980060  0.87612383  1
  O  O147  1  0.12312036  0.37722264  0.24536080  1
  O  O148  1  -0.00000000  -0.00000000  0.14093525  1
  O  O149  1  0.75019940  0.75019940  0.12387617  1
  O  O150  1  0.36422177  0.13481185  0.50000000  1
  O  O151  1  0.37722264  0.87687964  0.24536080  1
  O  O152  1  0.62628397  0.37371603  0.50000000  1
  O  O153  1  0.50000000  -0.00000000  0.64105691  1
  O  O154  1  0.25018816  0.74981184  0.62389858  1
  O  O155  1  0.36456619  0.36456619  -0.00000000  1
