# generated using pymatgen
data_SrO10
_symmetry_space_group_name_H-M   'P 1'
_cell_length_a   5.74228280
_cell_length_b   5.77533812
_cell_length_c   5.08498102
_cell_angle_alpha   90.17124584
_cell_angle_beta   90.28199475
_cell_angle_gamma   89.37005105
_symmetry_Int_Tables_number   1
_chemical_formula_structural   SrO10
_chemical_formula_sum   'Sr1 O10'
_cell_volume   168.62344124
_cell_formula_units_Z   1
loop_
 _symmetry_equiv_pos_site_id
 _symmetry_equiv_pos_as_xyz
  1  'x, y, z'
loop_
 _atom_site_type_symbol
 _atom_site_label
 _atom_site_symmetry_multiplicity
 _atom_site_fract_x
 _atom_site_fract_y
 _atom_site_fract_z
 _atom_site_occupancy
  Sr  Sr0  1  0.00257813  0.00122097  0.00000699  1
  O  O1  1  0.50169854  0.50075837  0.87654151  1
  O  O2  1  0.49882369  0.49921462  0.12327262  1
  O  O3  1  0.21369571  0.21504453  0.62584201  1
  O  O4  1  0.78859199  0.78902395  0.62341241  1
  O  O5  1  0.78988000  0.20743770  0.62432342  1
  O  O6  1  0.20761506  0.78881741  0.62510136  1
  O  O7  1  0.78780263  0.78840978  0.37431498  1
  O  O8  1  0.21289208  0.21437679  0.37660563  1
  O  O9  1  0.20708610  0.78855223  0.37556379  1
  O  O10  1  0.78933608  0.20714265  0.37501527  1
