# generated using pymatgen
data_Ba2YSbO6
_symmetry_space_group_name_H-M   'P 1'
_cell_length_a   6.03186402
_cell_length_b   6.03186401
_cell_length_c   6.03186401
_cell_angle_alpha   59.99999996
_cell_angle_beta   59.99999998
_cell_angle_gamma   59.99999994
_symmetry_Int_Tables_number   1
_chemical_formula_structural   Ba2YSbO6
_chemical_formula_sum   'Ba2 Y1 Sb1 O6'
_cell_volume   155.18138641
_cell_formula_units_Z   1
loop_
 _symmetry_equiv_pos_site_id
 _symmetry_equiv_pos_as_xyz
  1  'x, y, z'
loop_
 _atom_site_type_symbol
 _atom_site_label
 _atom_site_symmetry_multiplicity
 _atom_site_fract_x
 _atom_site_fract_y
 _atom_site_fract_z
 _atom_site_occupancy
  O  O0  1  0.26343347  0.73656653  0.73656653  1
  O  O1  1  0.26343347  0.73656653  0.26343347  1
  O  O2  1  0.73656653  0.26343347  0.73656653  1
  O  O3  1  0.26343347  0.26343347  0.73656653  1
  O  O4  1  0.73656653  0.26343347  0.26343347  1
  O  O5  1  0.73656653  0.73656653  0.26343347  1
  Y  Y6  1  0.00000000  0.00000000  0.00000000  1
  Sb  Sb7  1  0.50000000  0.50000000  0.50000000  1
  Ba  Ba8  1  0.75000000  0.75000000  0.75000000  1
  Ba  Ba9  1  0.25000000  0.25000000  0.25000000  1
