# generated using pymatgen
data_Na3(VSe2)5
_symmetry_space_group_name_H-M   'P 1'
_cell_length_a   38.01660943
_cell_length_b   22.29953139
_cell_length_c   14.77093146
_cell_angle_alpha   12.26883920
_cell_angle_beta   13.58720872
_cell_angle_gamma   9.06245544
_symmetry_Int_Tables_number   1
_chemical_formula_structural   Na3(VSe2)5
_chemical_formula_sum   'Na3 V5 Se10'
_cell_volume   409.72373294
_cell_formula_units_Z   1
loop_
 _symmetry_equiv_pos_site_id
 _symmetry_equiv_pos_as_xyz
  1  'x, y, z'
loop_
 _atom_site_type_symbol
 _atom_site_label
 _atom_site_symmetry_multiplicity
 _atom_site_fract_x
 _atom_site_fract_y
 _atom_site_fract_z
 _atom_site_occupancy
  Na  Na0  1  0.34601589  0.14104627  0.16846642  1
  Na  Na1  1  0.57575273  0.12097453  0.12975769  1
  Na  Na2  1  0.73681511  0.17836295  0.14278842  1
  V  V3  1  0.02940624  0.94032279  0.01547150  1
  V  V4  1  0.19392516  0.03688704  0.96326695  1
  V  V5  1  0.36353793  0.04142527  0.02885377  1
  V  V6  1  0.56576680  0.01285063  0.06520761  1
  V  V7  1  0.83008561  0.98857093  0.94125882  1
  Se  Se8  1  0.02880537  0.40258983  0.42920733  1
  Se  Se9  1  0.23457719  0.40006196  0.42578793  1
  Se  Se10  1  0.16257011  0.61432024  0.56639912  1
  Se  Se11  1  0.44651460  0.38827720  0.39430032  1
  Se  Se12  1  0.35510206  0.60623579  0.59582902  1
  Se  Se13  1  0.63887111  0.38479002  0.41587189  1
  Se  Se14  1  0.55486011  0.59919256  0.61082639  1
  Se  Se15  1  0.84039546  0.40670047  0.39209094  1
  Se  Se16  1  0.75510492  0.61254491  0.60493929  1
  Se  Se17  1  0.94185359  0.62494662  0.60977658  1
