# generated using pymatgen
data_La2MgIrO6
_symmetry_space_group_name_H-M   'P 1'
_cell_length_a   5.59841098
_cell_length_b   5.71753824
_cell_length_c   7.96373372
_cell_angle_alpha   90.00000000
_cell_angle_beta   90.07394421
_cell_angle_gamma   90.00000000
_symmetry_Int_Tables_number   1
_chemical_formula_structural   La2MgIrO6
_chemical_formula_sum   'La4 Mg2 Ir2 O12'
_cell_volume   254.91196656
_cell_formula_units_Z   2
loop_
 _symmetry_equiv_pos_site_id
 _symmetry_equiv_pos_as_xyz
  1  'x, y, z'
loop_
 _atom_site_type_symbol
 _atom_site_label
 _atom_site_symmetry_multiplicity
 _atom_site_fract_x
 _atom_site_fract_y
 _atom_site_fract_z
 _atom_site_occupancy
  O  O0  1  0.91279661  0.52292248  0.75189624  1
  O  O1  1  0.58720339  0.02292248  0.74810376  1
  O  O2  1  0.08720339  0.47707752  0.24810376  1
  O  O3  1  0.41279661  0.97707752  0.25189624  1
  O  O4  1  0.79177294  0.79426274  0.45298141  1
  O  O5  1  0.70822706  0.29426274  0.04701859  1
  O  O6  1  0.20822706  0.20573726  0.54701859  1
  O  O7  1  0.29177294  0.70573726  0.95298141  1
  O  O8  1  0.20211125  0.21099489  0.95281809  1
  O  O9  1  0.29788875  0.71099489  0.54718191  1
  O  O10  1  0.79788875  0.78900511  0.04718191  1
  O  O11  1  0.70211125  0.28900511  0.45281809  1
  Mg  Mg12  1  0.00000000  0.50000000  0.50000000  1
  Mg  Mg13  1  0.50000000  0.00000000  0.00000000  1
  La  La14  1  0.51095477  0.54856246  0.24921822  1
  La  La15  1  0.98904523  0.04856246  0.25078178  1
  La  La16  1  0.01095477  0.95143754  0.74921822  1
  La  La17  1  0.48904523  0.45143754  0.75078178  1
  Ir  Ir18  1  0.00000000  0.50000000  0.00000000  1
  Ir  Ir19  1  0.50000000  0.00000000  0.50000000  1
