# generated using pymatgen
data_Sr3ZnIrO6
_symmetry_space_group_name_H-M   'P 1'
_cell_length_a   6.76481873
_cell_length_b   6.76481873
_cell_length_c   6.76481873
_cell_angle_alpha   91.43518943
_cell_angle_beta   91.43518937
_cell_angle_gamma   91.43518944
_symmetry_Int_Tables_number   1
_chemical_formula_structural   Sr3ZnIrO6
_chemical_formula_sum   'Sr6 Zn2 Ir2 O12'
_cell_volume   309.28055326
_cell_formula_units_Z   2
loop_
 _symmetry_equiv_pos_site_id
 _symmetry_equiv_pos_as_xyz
  1  'x, y, z'
loop_
 _atom_site_type_symbol
 _atom_site_label
 _atom_site_symmetry_multiplicity
 _atom_site_fract_x
 _atom_site_fract_y
 _atom_site_fract_z
 _atom_site_occupancy
  O  O0  1  0.78467673  0.59415478  0.45957349  1
  O  O1  1  0.59415478  0.45957349  0.78467673  1
  O  O2  1  0.45957349  0.78467673  0.59415478  1
  O  O3  1  0.04042651  0.90584522  0.71532327  1
  O  O4  1  0.90584522  0.71532327  0.04042651  1
  O  O5  1  0.71532327  0.04042651  0.90584522  1
  O  O6  1  0.21532327  0.40584522  0.54042651  1
  O  O7  1  0.40584522  0.54042651  0.21532327  1
  O  O8  1  0.54042651  0.21532327  0.40584522  1
  O  O9  1  0.95957349  0.09415478  0.28467673  1
  O  O10  1  0.28467673  0.95957349  0.09415478  1
  O  O11  1  0.09415478  0.28467673  0.95957349  1
  Zn  Zn12  1  0.25000000  0.25000000  0.25000000  1
  Zn  Zn13  1  0.75000000  0.75000000  0.75000000  1
  Sr  Sr14  1  0.11229495  0.75000000  0.38770505  1
  Sr  Sr15  1  0.75000000  0.38770505  0.11229495  1
  Sr  Sr16  1  0.38770505  0.11229495  0.75000000  1
  Sr  Sr17  1  0.88770505  0.25000000  0.61229495  1
  Sr  Sr18  1  0.25000000  0.61229495  0.88770505  1
  Sr  Sr19  1  0.61229495  0.88770505  0.25000000  1
  Ir  Ir20  1  0.00000000  0.00000000  0.00000000  1
  Ir  Ir21  1  0.50000000  0.50000000  0.50000000  1
