# generated using pymatgen
data_Li2VCr3O8
_symmetry_space_group_name_H-M   'P 1'
_cell_length_a   5.93555987
_cell_length_b   5.93556025
_cell_length_c   5.94554421
_cell_angle_alpha   60.58102644
_cell_angle_beta   60.58102892
_cell_angle_gamma   59.76129010
_symmetry_Int_Tables_number   1
_chemical_formula_structural   Li2VCr3O8
_chemical_formula_sum   'Li2 V1 Cr3 O8'
_cell_volume   149.12682975
_cell_formula_units_Z   1
loop_
 _symmetry_equiv_pos_site_id
 _symmetry_equiv_pos_as_xyz
  1  'x, y, z'
loop_
 _atom_site_type_symbol
 _atom_site_label
 _atom_site_symmetry_multiplicity
 _atom_site_fract_x
 _atom_site_fract_y
 _atom_site_fract_z
 _atom_site_occupancy
  Li  Li0  1  0.00000000  0.50000000  0.50000000  1
  Li  Li1  1  0.50000000  0.00000000  0.50000000  1
  V  V2  1  0.00000000  0.00000000  -0.00000000  1
  Cr  Cr3  1  0.00000000  0.50000000  -0.00000000  1
  Cr  Cr4  1  0.50000000  0.00000000  -0.00000000  1
  Cr  Cr5  1  0.50000000  0.50000000  -0.00000000  1
  O  O6  1  0.22759046  0.22759046  0.78531744  1
  O  O7  1  0.22644307  0.75506262  0.79390253  1
  O  O8  1  0.75506262  0.22644307  0.79390253  1
  O  O9  1  0.73293788  0.73293788  0.78910254  1
  O  O10  1  0.26706212  0.26706212  0.21089746  1
  O  O11  1  0.24493738  0.77355693  0.20609747  1
  O  O12  1  0.77355693  0.24493738  0.20609747  1
  O  O13  1  0.77240954  0.77240954  0.21468256  1
