# generated using pymatgen
data_Sr19In8N7
_symmetry_space_group_name_H-M   'P 1'
_cell_length_a   11.14307252
_cell_length_b   11.14742055
_cell_length_c   11.14747288
_cell_angle_alpha   60.01062550
_cell_angle_beta   60.01883258
_cell_angle_gamma   60.05383525
_symmetry_Int_Tables_number   1
_chemical_formula_structural   Sr19In8N7
_chemical_formula_sum   'Sr19 In8 N7'
_cell_volume   979.74685848
_cell_formula_units_Z   1
loop_
 _symmetry_equiv_pos_site_id
 _symmetry_equiv_pos_as_xyz
  1  'x, y, z'
loop_
 _atom_site_type_symbol
 _atom_site_label
 _atom_site_symmetry_multiplicity
 _atom_site_fract_x
 _atom_site_fract_y
 _atom_site_fract_z
 _atom_site_occupancy
  Sr  Sr0  1  0.83327670  0.16686783  0.16696254  1
  Sr  Sr1  1  0.49993057  0.17059593  0.82968111  1
  Sr  Sr2  1  0.50010740  0.49994644  0.82954518  1
  Sr  Sr3  1  0.16693681  0.16697065  0.83318813  1
  Sr  Sr4  1  0.17032876  0.50007372  0.82963205  1
  Sr  Sr5  1  0.16706399  0.83311833  0.83298930  1
  Sr  Sr6  1  0.50013464  0.82936347  0.17038123  1
  Sr  Sr7  1  0.50001446  0.82939133  0.49992045  1
  Sr  Sr8  1  0.16700769  0.83302611  0.16681557  1
  Sr  Sr9  1  0.49992114  0.17051419  0.49998526  1
  Sr  Sr10  1  0.17027085  0.50015935  0.50005234  1
  Sr  Sr11  1  0.82964247  0.49969061  0.50004933  1
  Sr  Sr12  1  0.82980227  0.49973251  0.17056278  1
  Sr  Sr13  1  0.50015194  0.49999488  0.17046013  1
  Sr  Sr14  1  0.49999780  0.49993954  0.50003496  1
  Sr  Sr15  1  0.83318015  0.83296651  0.16689389  1
  Sr  Sr16  1  0.17033720  0.82950915  0.49995307  1
  Sr  Sr17  1  0.82949845  0.17028557  0.50012610  1
  Sr  Sr18  1  0.83305450  0.16677491  0.83322413  1
  In  In19  1  0.17821664  0.46520824  0.17830022  1
  In  In20  1  0.82161063  0.53485888  0.82186242  1
  In  In21  1  0.53429480  0.82246153  0.82164766  1
  In  In22  1  0.46543993  0.17805395  0.17816509  1
  In  In23  1  0.17846013  0.17816881  0.17817746  1
  In  In24  1  0.17822322  0.17817524  0.46532414  1
  In  In25  1  0.82156635  0.82212533  0.82187482  1
  In  In26  1  0.82172040  0.82203022  0.53400000  1
  N  N27  1  0.32618759  0.67375341  0.32627989  1
  N  N28  1  0.67375207  0.32625468  0.67374754  1
  N  N29  1  0.32612229  0.67370856  0.67385240  1
  N  N30  1  0.67383343  0.32624885  0.32628417  1
  N  N31  1  0.32621294  0.32630552  0.67373374  1
  N  N32  1  0.67379135  0.67362104  0.32625028  1
  N  N33  1  0.99991039  0.00010471  0.00004263  1
