# generated using pymatgen
data_Sr3ZnPtO6
_symmetry_space_group_name_H-M   'P 1'
_cell_length_a   6.77185123
_cell_length_b   6.77185123
_cell_length_c   6.77185123
_cell_angle_alpha   91.47305958
_cell_angle_beta   91.47305959
_cell_angle_gamma   91.47305955
_symmetry_Int_Tables_number   1
_chemical_formula_structural   Sr3ZnPtO6
_chemical_formula_sum   'Sr6 Zn2 Pt2 O12'
_cell_volume   310.23007879
_cell_formula_units_Z   2
loop_
 _symmetry_equiv_pos_site_id
 _symmetry_equiv_pos_as_xyz
  1  'x, y, z'
loop_
 _atom_site_type_symbol
 _atom_site_label
 _atom_site_symmetry_multiplicity
 _atom_site_fract_x
 _atom_site_fract_y
 _atom_site_fract_z
 _atom_site_occupancy
  O  O0  1  0.59320135  0.46037307  0.78683745  1
  O  O1  1  0.46037307  0.78683745  0.59320135  1
  O  O2  1  0.78683745  0.59320135  0.46037307  1
  O  O3  1  0.71316255  0.03962693  0.90679865  1
  O  O4  1  0.03962693  0.90679865  0.71316255  1
  O  O5  1  0.90679865  0.71316255  0.03962693  1
  O  O6  1  0.40679865  0.53962693  0.21316255  1
  O  O7  1  0.53962693  0.21316255  0.40679865  1
  O  O8  1  0.21316255  0.40679865  0.53962693  1
  O  O9  1  0.28683745  0.96037307  0.09320135  1
  O  O10  1  0.09320135  0.28683745  0.96037307  1
  O  O11  1  0.96037307  0.09320135  0.28683745  1
  Zn  Zn12  1  0.25000000  0.25000000  0.25000000  1
  Zn  Zn13  1  0.75000000  0.75000000  0.75000000  1
  Sr  Sr14  1  0.25000000  0.61339706  0.88660294  1
  Sr  Sr15  1  0.61339706  0.88660294  0.25000000  1
  Sr  Sr16  1  0.11339706  0.75000000  0.38660294  1
  Sr  Sr17  1  0.75000000  0.38660294  0.11339706  1
  Sr  Sr18  1  0.38660294  0.11339706  0.75000000  1
  Sr  Sr19  1  0.88660294  0.25000000  0.61339706  1
  Pt  Pt20  1  0.00000000  0.00000000  0.00000000  1
  Pt  Pt21  1  0.50000000  0.50000000  0.50000000  1
