# generated using pymatgen
data_Ti20H2N17
_symmetry_space_group_name_H-M   'P 1'
_cell_length_a   3.00824511
_cell_length_b   30.02713366
_cell_length_c   24.56468718
_cell_angle_alpha   12.22036043
_cell_angle_beta   56.55887116
_cell_angle_gamma   59.93903592
_symmetry_Int_Tables_number   1
_chemical_formula_structural   Ti20H2N17
_chemical_formula_sum   'Ti20 H2 N17'
_cell_volume   382.90784357
_cell_formula_units_Z   1
loop_
 _symmetry_equiv_pos_site_id
 _symmetry_equiv_pos_as_xyz
  1  'x, y, z'
loop_
 _atom_site_type_symbol
 _atom_site_label
 _atom_site_symmetry_multiplicity
 _atom_site_fract_x
 _atom_site_fract_y
 _atom_site_fract_z
 _atom_site_occupancy
  Ti  Ti0  1  0.50589489  0.07693145  0.24654397  1
  Ti  Ti1  1  0.49926555  0.16450569  0.26182355  1
  Ti  Ti2  1  0.48307065  0.26963386  0.25972446  1
  Ti  Ti3  1  0.51482110  0.37989746  0.24126480  1
  Ti  Ti4  1  0.50074565  0.48353891  0.24034662  1
  Ti  Ti5  1  0.49872085  0.01641130  0.75982726  1
  Ti  Ti6  1  0.49329702  0.12137972  0.75551209  1
  Ti  Ti7  1  0.49450454  0.57108085  0.25557583  1
  Ti  Ti8  1  0.50549546  0.22891915  0.74442417  1
  Ti  Ti9  1  0.50670298  0.67862028  0.24448791  1
  Ti  Ti10  1  0.50127915  0.78358870  0.24017274  1
  Ti  Ti11  1  0.49925435  0.31646109  0.75965338  1
  Ti  Ti12  1  0.49374925  0.87351928  0.25303430  1
  Ti  Ti13  1  0.48517890  0.42010254  0.75873520  1
  Ti  Ti14  1  0.51692935  0.53036614  0.74027554  1
  Ti  Ti15  1  0.49936044  0.97392278  0.25133903  1
  Ti  Ti16  1  0.50073445  0.63549431  0.73817645  1
  Ti  Ti17  1  0.49410511  0.72306855  0.75345603  1
  Ti  Ti18  1  0.50063956  0.82607722  0.74866097  1
  Ti  Ti19  1  0.50625075  0.92648072  0.74696570  1
  H  H20  1  0.99914528  0.25037189  0.49977672  1
  H  H21  1  0.00085472  0.54962811  0.50022328  1
  N  N22  1  0.00012350  0.99826972  0.00189509  1
  N  N23  1  0.00250328  0.10208099  0.99713150  1
  N  N24  1  0.00382465  0.20248370  0.99639042  1
  N  N25  1  0.99588205  0.30075571  0.00007542  1
  N  N26  1  0.00411795  0.49924429  -0.00007542  1
  N  N27  1  0.99617535  0.59751630  0.00360958  1
  N  N28  1  0.00447286  0.05345380  0.49516847  1
  N  N29  1  0.99749672  0.69791901  0.00286850  1
  N  N30  1  0.99621857  0.14921742  0.50170985  1
  N  N31  1  -0.00012350  0.80173028  0.99810491  1
  N  N32  1  0.00189737  0.34994003  0.49964500  1
  N  N33  1  0.99810263  0.45005997  0.50035500  1
  N  N34  1  0.00000000  0.90000000  0.00000000  1
  N  N35  1  0.00378143  0.65078258  0.49829015  1
  N  N36  1  0.99552714  0.74654620  0.50483153  1
  N  N37  1  0.99762447  0.84531934  0.50572863  1
  N  N38  1  0.00237553  0.95468066  0.49427137  1
