# generated using pymatgen
data_Y4InIr
_symmetry_space_group_name_H-M   'P 1'
_cell_length_a   9.72437984
_cell_length_b   9.72439821
_cell_length_c   9.72437206
_cell_angle_alpha   59.99992365
_cell_angle_beta   59.99997332
_cell_angle_gamma   59.99991629
_symmetry_Int_Tables_number   1
_chemical_formula_structural   Y4InIr
_chemical_formula_sum   'Y16 In4 Ir4'
_cell_volume   650.23539322
_cell_formula_units_Z   4
loop_
 _symmetry_equiv_pos_site_id
 _symmetry_equiv_pos_as_xyz
  1  'x, y, z'
loop_
 _atom_site_type_symbol
 _atom_site_label
 _atom_site_symmetry_multiplicity
 _atom_site_fract_x
 _atom_site_fract_y
 _atom_site_fract_z
 _atom_site_occupancy
  Y  Y0  1  0.19160128  0.80839800  0.19160115  1
  Y  Y1  1  0.05963870  0.05963897  0.44036120  1
  Y  Y2  1  0.44036084  0.05963908  0.44036188  1
  Y  Y3  1  0.19160206  0.19160177  0.80839794  1
  Y  Y4  1  0.80839774  0.19160144  0.80839945  1
  Y  Y5  1  0.65126702  0.65126770  0.65126702  1
  Y  Y6  1  0.05963809  0.44036182  0.44036151  1
  Y  Y7  1  0.44036087  0.44036055  0.05963936  1
  Y  Y8  1  0.80839874  0.80839799  0.19160152  1
  Y  Y9  1  0.65126735  0.65126702  0.04619806  1
  Y  Y10  1  0.44036033  0.05963894  0.05963802  1
  Y  Y11  1  0.65126713  0.04619787  0.65126776  1
  Y  Y12  1  0.80839916  0.19160196  0.19160157  1
  Y  Y13  1  0.19160175  0.80839908  0.80839770  1
  Y  Y14  1  0.05963957  0.44036119  0.05963818  1
  Y  Y15  1  0.04619798  0.65126741  0.65126717  1
  In  In16  1  0.41685138  0.74944643  0.41685131  1
  In  In17  1  0.41685109  0.41685139  0.41685137  1
  In  In18  1  0.41685179  0.41685013  0.74944626  1
  In  In19  1  0.74944570  0.41685142  0.41685124  1
  Ir  Ir20  1  0.85899772  0.85899648  0.42300875  1
  Ir  Ir21  1  0.42300975  0.85899711  0.85899686  1
  Ir  Ir22  1  0.85899705  0.85899756  0.85899783  1
  Ir  Ir23  1  0.85899692  0.42300870  0.85899691  1
