# generated using pymatgen
data_Y5Ga3
_symmetry_space_group_name_H-M   'P 1'
_cell_length_a   7.65658570
_cell_length_b   7.65658570
_cell_length_c   14.23936276
_cell_angle_alpha   90.00000000
_cell_angle_beta   90.00000000
_cell_angle_gamma   90.00000000
_symmetry_Int_Tables_number   1
_chemical_formula_structural   Y5Ga3
_chemical_formula_sum   'Y20 Ga12'
_cell_volume   834.75850013
_cell_formula_units_Z   4
loop_
 _symmetry_equiv_pos_site_id
 _symmetry_equiv_pos_as_xyz
  1  'x, y, z'
loop_
 _atom_site_type_symbol
 _atom_site_label
 _atom_site_symmetry_multiplicity
 _atom_site_fract_x
 _atom_site_fract_y
 _atom_site_fract_z
 _atom_site_occupancy
  Y  Y0  1  0.58191581  0.07999614  0.89705074  1
  Y  Y1  1  0.92000386  0.41808419  0.60294926  1
  Y  Y2  1  0.58191581  0.42000386  0.39705074  1
  Y  Y3  1  0.91808419  0.07999614  0.39705074  1
  Y  Y4  1  0.07999614  0.58191581  0.39705074  1
  Y  Y5  1  0.57999614  0.41808419  0.10294926  1
  Y  Y6  1  0.07999614  0.91808419  0.89705074  1
  Y  Y7  1  0.92000386  0.08191581  0.10294926  1
  Y  Y8  1  0.25000000  0.25000000  0.75371903  1
  Y  Y9  1  0.75000000  0.75000000  0.24628097  1
  Y  Y10  1  0.08191581  0.92000386  0.60294926  1
  Y  Y11  1  0.41808419  0.92000386  0.10294926  1
  Y  Y12  1  0.41808419  0.57999614  0.60294926  1
  Y  Y13  1  0.75000000  0.75000000  0.74628097  1
  Y  Y14  1  0.57999614  0.08191581  0.60294926  1
  Y  Y15  1  0.42000386  0.58191581  0.89705074  1
  Y  Y16  1  0.91808419  0.42000386  0.89705074  1
  Y  Y17  1  0.25000000  0.25000000  0.25371903  1
  Y  Y18  1  0.42000386  0.91808419  0.39705074  1
  Y  Y19  1  0.08191581  0.57999614  0.10294926  1
  Ga  Ga20  1  0.37305785  0.62694215  0.25000000  1
  Ga  Ga21  1  0.12694215  0.87305785  0.25000000  1
  Ga  Ga22  1  0.75000000  0.75000000  0.00242557  1
  Ga  Ga23  1  0.25000000  0.25000000  0.99757443  1
  Ga  Ga24  1  0.87305785  0.37305785  0.25000000  1
  Ga  Ga25  1  0.12694215  0.62694215  0.75000000  1
  Ga  Ga26  1  0.25000000  0.25000000  0.49757443  1
  Ga  Ga27  1  0.75000000  0.75000000  0.50242557  1
  Ga  Ga28  1  0.87305785  0.12694215  0.75000000  1
  Ga  Ga29  1  0.62694215  0.12694215  0.25000000  1
  Ga  Ga30  1  0.37305785  0.87305785  0.75000000  1
  Ga  Ga31  1  0.62694215  0.37305785  0.75000000  1
