# generated using pymatgen
data_Sc6Pb5
_symmetry_space_group_name_H-M   'P 1'
_cell_length_a   6.24751972
_cell_length_b   9.02008468
_cell_length_c   11.18353047
_cell_angle_alpha   113.78309885
_cell_angle_beta   106.21949983
_cell_angle_gamma   90.00000068
_symmetry_Int_Tables_number   1
_chemical_formula_structural   Sc6Pb5
_chemical_formula_sum   'Sc12 Pb10'
_cell_volume   549.18454614
_cell_formula_units_Z   2
loop_
 _symmetry_equiv_pos_site_id
 _symmetry_equiv_pos_as_xyz
  1  'x, y, z'
loop_
 _atom_site_type_symbol
 _atom_site_label
 _atom_site_symmetry_multiplicity
 _atom_site_fract_x
 _atom_site_fract_y
 _atom_site_fract_z
 _atom_site_occupancy
  Sc  Sc0  1  0.44537587  0.69537587  0.39075173  1
  Sc  Sc1  1  0.64265244  0.03235128  0.28530489  1
  Sc  Sc2  1  0.93988244  0.20589919  0.87976489  1
  Sc  Sc3  1  0.14265244  0.25295361  0.28530489  1
  Sc  Sc4  1  0.85734756  0.74704639  0.71469511  1
  Sc  Sc5  1  0.56011756  0.32613431  0.12023511  1
  Sc  Sc6  1  0.43988244  0.67386569  0.87976489  1
  Sc  Sc7  1  0.55462413  0.30462413  0.60924827  1
  Sc  Sc8  1  0.06011756  0.79410081  0.12023511  1
  Sc  Sc9  1  0.05462413  0.30462413  0.60924827  1
  Sc  Sc10  1  0.35734756  0.96764872  0.71469511  1
  Sc  Sc11  1  0.94537587  0.69537587  0.39075173  1
  Pb  Pb12  1  0.57513994  0.67667798  0.15027989  1
  Pb  Pb13  1  0.79343406  0.99071319  0.58686812  1
  Pb  Pb14  1  0.07513994  0.47360191  0.15027989  1
  Pb  Pb15  1  0.25000000  0.00000000  0.00000000  1
  Pb  Pb16  1  0.29343406  0.59615493  0.58686812  1
  Pb  Pb17  1  0.42486006  0.32332202  0.84972011  1
  Pb  Pb18  1  0.70656594  0.40384507  0.41313188  1
  Pb  Pb19  1  0.20656594  0.00928681  0.41313188  1
  Pb  Pb20  1  0.92486006  0.52639809  0.84972011  1
  Pb  Pb21  1  0.75000000  0.00000000  0.00000000  1
