# generated using pymatgen
data_La12Au3I13
_symmetry_space_group_name_H-M   'P 1'
_cell_length_a   11.11095192
_cell_length_b   11.04670393
_cell_length_c   11.11095246
_cell_angle_alpha   109.35412747
_cell_angle_beta   109.58806073
_cell_angle_gamma   109.35412813
_symmetry_Int_Tables_number   1
_chemical_formula_structural   La12Au3I13
_chemical_formula_sum   'La12 Au3 I13'
_cell_volume   1051.32967983
_cell_formula_units_Z   1
loop_
 _symmetry_equiv_pos_site_id
 _symmetry_equiv_pos_as_xyz
  1  'x, y, z'
loop_
 _atom_site_type_symbol
 _atom_site_label
 _atom_site_symmetry_multiplicity
 _atom_site_fract_x
 _atom_site_fract_y
 _atom_site_fract_z
 _atom_site_occupancy
  La  La0  1  0.25380456  0.76245466  0.74288284  1
  La  La1  1  0.25380456  0.99134990  0.51092172  1
  La  La2  1  0.73697150  0.98697150  0.97394301  1
  La  La3  1  0.51555057  0.76555057  0.53110114  1
  La  La4  1  0.51555057  0.25000000  0.98444943  1
  La  La5  1  0.52605699  0.51302850  0.76302850  1
  La  La6  1  0.73697150  0.25000000  0.76302850  1
  La  La7  1  0.96889886  0.73444943  0.98444943  1
  La  La8  1  0.75711716  0.51957182  0.51092172  1
  La  La9  1  0.98907828  0.98042818  0.74288284  1
  La  La10  1  0.75711716  0.73754534  0.24619544  1
  La  La11  1  0.98907828  0.50865010  0.24619544  1
  Au  Au12  1  0.74962236  0.75000000  0.75037764  1
  Au  Au13  1  0.50075528  0.00037764  0.75037764  1
  Au  Au14  1  0.74962236  0.49962236  0.99924472  1
  I  I15  1  0.01024638  0.49107573  0.74956518  1
  I  I16  1  0.23931880  0.25848945  0.74956518  1
  I  I17  1  0.23931880  0.48082935  0.48975362  1
  I  I18  1  0.01024638  0.01917065  0.26068120  1
  I  I19  1  0.02024205  0.26012103  0.01012103  1
  I  I20  1  0.25962015  0.75000000  0.24037985  1
  I  I21  1  0.48075969  0.49037985  0.24037985  1
  I  I22  1  0.48987897  0.75000000  0.01012103  1
  I  I23  1  0.25962015  0.00962015  0.01924031  1
  I  I24  1  0.48987897  0.23987897  0.47975795  1
  I  I25  1  0.75043482  0.00892427  0.48975362  1
  I  I26  1  0.75043482  0.24151055  0.26068120  1
  I  I27  1  0.00000000  0.75000000  0.50000000  1
