# generated using pymatgen
data_Sr2MgSi2O7
_symmetry_space_group_name_H-M   'P 1'
_cell_length_a   5.22654001
_cell_length_b   8.09717995
_cell_length_c   8.09717995
_cell_angle_alpha   90.00000000
_cell_angle_beta   90.00000000
_cell_angle_gamma   90.00000000
_symmetry_Int_Tables_number   1
_chemical_formula_structural   Sr2MgSi2O7
_chemical_formula_sum   'Sr4 Mg2 Si4 O14'
_cell_volume   342.67455813
_cell_formula_units_Z   2
loop_
 _symmetry_equiv_pos_site_id
 _symmetry_equiv_pos_as_xyz
  1  'x, y, z'
loop_
 _atom_site_type_symbol
 _atom_site_label
 _atom_site_symmetry_multiplicity
 _atom_site_fract_x
 _atom_site_fract_y
 _atom_site_fract_z
 _atom_site_occupancy
  O  O0  1  0.80149591  0.68990362  0.57954964  1
  O  O1  1  0.80149591  0.31009638  0.42045036  1
  O  O2  1  0.19850409  0.42045036  0.68990362  1
  O  O3  1  0.19850409  0.57954964  0.31009638  1
  O  O4  1  0.80149591  0.92045036  0.81009638  1
  O  O5  1  0.19850409  0.81009638  0.07954964  1
  O  O6  1  0.19850409  0.18990362  0.92045036  1
  O  O7  1  0.80149591  0.07954964  0.18990362  1
  O  O8  1  0.25353568  0.85997131  0.64002869  1
  O  O9  1  0.74646432  0.64002869  0.14002869  1
  O  O10  1  0.16477225  0.50000000  0.00000000  1
  O  O11  1  0.83522775  0.00000000  0.50000000  1
  O  O12  1  0.25353568  0.14002869  0.35997131  1
  O  O13  1  0.74646432  0.35997131  0.85997131  1
  Mg  Mg14  1  0.00000000  0.00000000  0.00000000  1
  Mg  Mg15  1  0.00000000  0.50000000  0.50000000  1
  Si  Si16  1  0.94352337  0.86130209  0.63869791  1
  Si  Si17  1  0.94352337  0.13869791  0.36130209  1
  Si  Si18  1  0.05647663  0.63869791  0.13869791  1
  Si  Si19  1  0.05647663  0.36130209  0.86130209  1
  Sr  Sr20  1  0.50787868  0.66614359  0.83385641  1
  Sr  Sr21  1  0.49212132  0.83385641  0.33385641  1
  Sr  Sr22  1  0.49212132  0.16614359  0.66614359  1
  Sr  Sr23  1  0.50787868  0.33385641  0.16614359  1
