# generated using pymatgen
data_Gd3CuSiSe7
_symmetry_space_group_name_H-M   'P 1'
_cell_length_a   10.54245375
_cell_length_b   10.54245408
_cell_length_c   6.08864466
_cell_angle_alpha   90.00000000
_cell_angle_beta   90.00000000
_cell_angle_gamma   119.99999896
_symmetry_Int_Tables_number   1
_chemical_formula_structural   Gd3CuSiSe7
_chemical_formula_sum   'Gd6 Cu2 Si2 Se14'
_cell_volume   586.05002354
_cell_formula_units_Z   2
loop_
 _symmetry_equiv_pos_site_id
 _symmetry_equiv_pos_as_xyz
  1  'x, y, z'
loop_
 _atom_site_type_symbol
 _atom_site_label
 _atom_site_symmetry_multiplicity
 _atom_site_fract_x
 _atom_site_fract_y
 _atom_site_fract_z
 _atom_site_occupancy
  Gd  Gd0  1  0.64161630  0.77196166  0.74021953  1
  Gd  Gd1  1  0.77196166  0.13034537  0.24021953  1
  Gd  Gd2  1  0.22803834  0.86965463  0.74021953  1
  Gd  Gd3  1  0.86965463  0.64161630  0.24021953  1
  Gd  Gd4  1  0.13034537  0.35838370  0.74021953  1
  Gd  Gd5  1  0.35838370  0.22803834  0.24021953  1
  Cu  Cu6  1  0.00000000  0.00000000  0.72085593  1
  Cu  Cu7  1  0.00000000  0.00000000  0.22085593  1
  Si  Si8  1  0.66666700  0.33333300  0.82519484  1
  Si  Si9  1  0.33333300  0.66666700  0.32519484  1
  Se  Se10  1  0.10132867  0.58048725  0.47326210  1
  Se  Se11  1  0.66666700  0.33333300  0.45143693  1
  Se  Se12  1  0.25958375  0.16779875  0.70678913  1
  Se  Se13  1  0.52084142  0.10132867  0.97326210  1
  Se  Se14  1  0.16779875  0.90821500  0.20678913  1
  Se  Se15  1  0.90821500  0.74041625  0.70678913  1
  Se  Se16  1  0.74041625  0.83220125  0.20678913  1
  Se  Se17  1  0.89867133  0.41951275  0.97326210  1
  Se  Se18  1  0.09178500  0.25958375  0.20678913  1
  Se  Se19  1  0.83220125  0.09178500  0.70678913  1
  Se  Se20  1  0.47915858  0.89867133  0.47326210  1
  Se  Se21  1  0.33333300  0.66666700  0.95143693  1
  Se  Se22  1  0.41951275  0.52084142  0.47326210  1
  Se  Se23  1  0.58048725  0.47915858  0.97326210  1
