# generated using pymatgen
data_BaLa2MnS5
_symmetry_space_group_name_H-M   'P 1'
_cell_length_a   8.02847720
_cell_length_b   8.02847720
_cell_length_c   8.92655173
_cell_angle_alpha   116.72421002
_cell_angle_beta   116.72420998
_cell_angle_gamma   89.99999998
_symmetry_Int_Tables_number   1
_chemical_formula_structural   BaLa2MnS5
_chemical_formula_sum   'Ba2 La4 Mn2 S10'
_cell_volume   444.02540169
_cell_formula_units_Z   2
loop_
 _symmetry_equiv_pos_site_id
 _symmetry_equiv_pos_as_xyz
  1  'x, y, z'
loop_
 _atom_site_type_symbol
 _atom_site_label
 _atom_site_symmetry_multiplicity
 _atom_site_fract_x
 _atom_site_fract_y
 _atom_site_fract_z
 _atom_site_occupancy
  S  S0  1  0.48469114  0.98469114  0.27039272  1
  S  S1  1  0.21429842  0.71429842  0.72960728  1
  S  S2  1  0.51530886  0.01530886  0.72960728  1
  S  S3  1  0.71429842  0.51530886  0.72960728  1
  S  S4  1  0.01530886  0.21429842  0.72960728  1
  S  S5  1  0.28570158  0.48469114  0.27039272  1
  S  S6  1  0.98469114  0.78570158  0.27039272  1
  S  S7  1  0.78570158  0.28570158  0.27039272  1
  S  S8  1  0.00000000  0.00000000  0.00000000  1
  S  S9  1  0.50000000  0.50000000  0.00000000  1
  Mn  Mn10  1  0.75000000  0.25000000  0.50000000  1
  Mn  Mn11  1  0.25000000  0.75000000  0.50000000  1
  Ba  Ba12  1  0.75000000  0.75000000  0.50000000  1
  Ba  Ba13  1  0.25000000  0.25000000  0.50000000  1
  La  La14  1  0.66288680  0.83711320  0.00000000  1
  La  La15  1  0.16288680  0.66288680  0.00000000  1
  La  La16  1  0.83711320  0.33711320  0.00000000  1
  La  La17  1  0.33711320  0.16288680  0.00000000  1
