# generated using pymatgen
data_Pr(FeSb3)5
_symmetry_space_group_name_H-M   'P 1'
_cell_length_a   39.63771242
_cell_length_b   15.17707050
_cell_length_c   15.17706998
_cell_angle_alpha   50.44522425
_cell_angle_beta   29.47606077
_cell_angle_gamma   29.47606152
_symmetry_Int_Tables_number   1
_chemical_formula_structural   Pr(FeSb3)5
_chemical_formula_sum   'Pr4 Fe20 Sb60'
_cell_volume   1914.48069997
_cell_formula_units_Z   4
loop_
 _symmetry_equiv_pos_site_id
 _symmetry_equiv_pos_as_xyz
  1  'x, y, z'
loop_
 _atom_site_type_symbol
 _atom_site_label
 _atom_site_symmetry_multiplicity
 _atom_site_fract_x
 _atom_site_fract_y
 _atom_site_fract_z
 _atom_site_occupancy
  Pr  Pr0  1  0.20025681  1.00000000  1.00000000  1
  Pr  Pr1  1  0.39995636  0.00000000  0.00000000  1
  Pr  Pr2  1  0.60004364  1.00000000  1.00000000  1
  Pr  Pr3  1  0.79974319  0.00000000  0.00000000  1
  Fe  Fe4  1  0.10094377  0.00000000  0.00000000  1
  Fe  Fe5  1  0.00000000  0.00000000  0.50000000  1
  Fe  Fe6  1  0.00000000  0.50000000  0.00000000  1
  Fe  Fe7  1  0.30009750  0.00000000  0.00000000  1
  Fe  Fe8  1  0.20199457  0.99986354  0.49510765  1
  Fe  Fe9  1  0.20185811  0.49524411  0.00013646  1
  Fe  Fe10  1  0.10037001  0.49946676  0.49980438  1
  Fe  Fe11  1  0.50000000  0.00000000  0.00000000  1
  Fe  Fe12  1  0.40016323  0.99966238  0.49946676  1
  Fe  Fe13  1  0.39982560  0.49980438  0.00033762  1
  Fe  Fe14  1  0.30289777  0.49510765  0.49524411  1
  Fe  Fe15  1  0.69990250  1.00000000  1.00000000  1
  Fe  Fe16  1  0.59983677  0.00033762  0.50053324  1
  Fe  Fe17  1  0.60017440  0.50019562  0.99966238  1
  Fe  Fe18  1  0.50000000  0.50000000  0.50000000  1
  Fe  Fe19  1  0.89905623  0.00000000  0.00000000  1
  Fe  Fe20  1  0.79800543  0.00013646  0.50489235  1
  Fe  Fe21  1  0.79814189  0.50475589  0.99986354  1
  Fe  Fe22  1  0.69710223  0.50489235  0.50475589  1
  Fe  Fe23  1  0.89962999  0.50053324  0.50019562  1
  Sb  Sb24  1  0.00209116  0.16298275  0.50014373  1
  Sb  Sb25  1  0.09986823  0.33716372  0.16326146  1
  Sb  Sb26  1  0.03407123  0.67011067  0.15986651  1
  Sb  Sb27  1  0.16510534  0.17108892  0.33436992  1
  Sb  Sb28  1  0.09969534  0.49781774  0.33491958  1
  Sb  Sb29  1  0.06212782  0.83993850  0.16965789  1
  Sb  Sb30  1  0.20246570  0.16325542  0.49783150  1
  Sb  Sb31  1  0.30032850  0.33480656  0.16331917  1
  Sb  Sb32  1  0.13605042  0.16371312  0.82905038  1
  Sb  Sb33  1  0.10034468  0.50213690  0.66538194  1
  Sb  Sb34  1  0.23427338  0.66538194  0.16324504  1
  Sb  Sb35  1  0.03489920  0.82905038  0.66533726  1
  Sb  Sb36  1  0.36486494  0.17148739  0.33480656  1
  Sb  Sb37  1  0.16507391  0.33716097  0.83701725  1
  Sb  Sb38  1  0.29970280  0.49783150  0.33457608  1
  Sb  Sb39  1  0.26312969  0.83673854  0.17390226  1
  Sb  Sb40  1  0.09793368  0.67028061  0.83993850  1
  Sb  Sb41  1  0.40248692  0.16289816  0.49781774  1
  Sb  Sb42  1  0.19393775  0.84013349  0.51024416  1
  Sb  Sb43  1  0.50052473  0.33436992  0.16328101  1
  Sb  Sb44  1  0.33619426  0.16328101  0.82891108  1
  Sb  Sb45  1  0.29581809  0.51024416  0.67011067  1
  Sb  Sb46  1  0.43461492  0.66508042  0.16289816  1
  Sb  Sb47  1  0.23178571  0.83034211  0.67028061  1
  Sb  Sb48  1  0.56296805  0.17390226  0.33716372  1
  Sb  Sb49  1  0.36572112  0.33457608  0.83674458  1
  Sb  Sb50  1  0.49776512  0.50014373  0.33716097  1
  Sb  Sb51  1  0.46364767  0.83668083  0.17148739  1
  Sb  Sb52  1  0.29976354  0.66533726  0.83628688  1
  Sb  Sb53  1  0.60248158  0.16324504  0.49786310  1
  Sb  Sb54  1  0.39751842  0.83675496  0.50213690  1
  Sb  Sb55  1  0.70023646  0.33466274  0.16371312  1
  Sb  Sb56  1  0.53635233  0.16331917  0.82851261  1
  Sb  Sb57  1  0.50223488  0.49985627  0.66283903  1
  Sb  Sb58  1  0.63427888  0.66542392  0.16325542  1
  Sb  Sb59  1  0.43703195  0.82609774  0.66283628  1
  Sb  Sb60  1  0.76821429  0.16965789  0.32971939  1
  Sb  Sb61  1  0.56538508  0.33491958  0.83710184  1
  Sb  Sb62  1  0.70418191  0.48975584  0.32988933  1
  Sb  Sb63  1  0.66380574  0.83671899  0.17108892  1
  Sb  Sb64  1  0.49947527  0.66563008  0.83671899  1
  Sb  Sb65  1  0.80606225  0.15986651  0.48975584  1
  Sb  Sb66  1  0.59751308  0.83710184  0.50218226  1
  Sb  Sb67  1  0.90206632  0.32971939  0.16006150  1
  Sb  Sb68  1  0.73687031  0.16326146  0.82609774  1
  Sb  Sb69  1  0.70029720  0.50216850  0.66542392  1
  Sb  Sb70  1  0.83492609  0.66283903  0.16298275  1
  Sb  Sb71  1  0.63513506  0.82851261  0.66519344  1
  Sb  Sb72  1  0.96510080  0.17094962  0.33466274  1
  Sb  Sb73  1  0.76572662  0.33461806  0.83675496  1
  Sb  Sb74  1  0.89965532  0.49786310  0.33461806  1
  Sb  Sb75  1  0.86394958  0.83628688  0.17094962  1
  Sb  Sb76  1  0.69967150  0.66519344  0.83668083  1
  Sb  Sb77  1  0.79753430  0.83674458  0.50216850  1
  Sb  Sb78  1  0.93787218  0.16006150  0.83034211  1
  Sb  Sb79  1  0.90030466  0.50218226  0.66508042  1
  Sb  Sb80  1  0.83489466  0.82891108  0.66563008  1
  Sb  Sb81  1  0.96592877  0.32988933  0.84013349  1
  Sb  Sb82  1  0.90013177  0.66283628  0.83673854  1
  Sb  Sb83  1  0.99790884  0.83701725  0.49985627  1
