# generated using pymatgen
data_Al6B5(O5F)3
_symmetry_space_group_name_H-M   'P 1'
_cell_length_a   8.64915206
_cell_length_b   8.64915206
_cell_length_c   8.26594239
_cell_angle_alpha   90.00000000
_cell_angle_beta   90.00000000
_cell_angle_gamma   119.99999999
_symmetry_Int_Tables_number   1
_chemical_formula_structural   Al6B5(O5F)3
_chemical_formula_sum   'Al12 B10 O30 F6'
_cell_volume   535.51306486
_cell_formula_units_Z   2
loop_
 _symmetry_equiv_pos_site_id
 _symmetry_equiv_pos_as_xyz
  1  'x, y, z'
loop_
 _atom_site_type_symbol
 _atom_site_label
 _atom_site_symmetry_multiplicity
 _atom_site_fract_x
 _atom_site_fract_y
 _atom_site_fract_z
 _atom_site_occupancy
  B  B0  1  0.66666667  0.33333333  0.44772282  1
  B  B1  1  0.33333333  0.66666667  0.55227718  1
  B  B2  1  0.66666667  0.33333333  0.05227718  1
  B  B3  1  0.33333333  0.66666667  0.94772282  1
  B  B4  1  0.00235134  0.23279672  0.75000000  1
  B  B5  1  0.76955461  0.00235134  0.25000000  1
  B  B6  1  0.23279672  0.23044539  0.25000000  1
  B  B7  1  0.76720328  0.76955461  0.75000000  1
  B  B8  1  0.23044539  0.99764866  0.75000000  1
  B  B9  1  0.99764866  0.76720328  0.25000000  1
  O  O10  1  0.41131912  0.84943142  0.55259785  1
  O  O11  1  0.84943142  0.43811230  0.05259785  1
  O  O12  1  0.43811230  0.58868088  0.55259785  1
  O  O13  1  0.56188770  0.41131912  0.05259785  1
  O  O14  1  0.58868088  0.15056858  0.05259785  1
  O  O15  1  0.15056858  0.56188770  0.55259785  1
  O  O16  1  0.81457654  0.69743164  0.25000000  1
  O  O17  1  0.11714490  0.81457654  0.75000000  1
  O  O18  1  0.69743164  0.88285510  0.75000000  1
  O  O19  1  0.18542346  0.30256836  0.75000000  1
  O  O20  1  0.30256836  0.11714490  0.25000000  1
  O  O21  1  0.88285510  0.18542346  0.25000000  1
  O  O22  1  0.84943142  0.43811230  0.44740215  1
  O  O23  1  0.41131912  0.84943142  0.94740215  1
  O  O24  1  0.43811230  0.58868088  0.94740215  1
  O  O25  1  0.56188770  0.41131912  0.44740215  1
  O  O26  1  0.58868088  0.15056858  0.44740215  1
  O  O27  1  0.15056858  0.56188770  0.94740215  1
  O  O28  1  0.19592291  0.28391553  0.10214225  1
  O  O29  1  0.91200738  0.19592291  0.60214225  1
  O  O30  1  0.28391553  0.08799262  0.60214225  1
  O  O31  1  0.71608447  0.91200738  0.10214225  1
  O  O32  1  0.08799262  0.80407709  0.10214225  1
  O  O33  1  0.80407709  0.71608447  0.60214225  1
  O  O34  1  0.80407709  0.71608447  0.89785775  1
  O  O35  1  0.08799262  0.80407709  0.39785775  1
  O  O36  1  0.71608447  0.91200738  0.39785775  1
  O  O37  1  0.28391553  0.08799262  0.89785775  1
  O  O38  1  0.91200738  0.19592291  0.89785775  1
  O  O39  1  0.19592291  0.28391553  0.39785775  1
  F  F40  1  0.88932531  0.50168775  0.75000000  1
  F  F41  1  0.38763756  0.88932531  0.25000000  1
  F  F42  1  0.50168775  0.61236244  0.25000000  1
  F  F43  1  0.49831225  0.38763756  0.75000000  1
  F  F44  1  0.61236244  0.11067469  0.75000000  1
  F  F45  1  0.11067469  0.49831225  0.25000000  1
  Al  Al46  1  0.01445978  0.35161848  0.42519928  1
  Al  Al47  1  0.66284130  0.01445978  0.92519928  1
  Al  Al48  1  0.35161848  0.33715870  0.92519928  1
  Al  Al49  1  0.64838152  0.66284130  0.42519928  1
  Al  Al50  1  0.33715870  0.98554022  0.42519928  1
  Al  Al51  1  0.98554022  0.64838152  0.92519928  1
  Al  Al52  1  0.98554022  0.64838152  0.57480072  1
  Al  Al53  1  0.33715870  0.98554022  0.07480072  1
  Al  Al54  1  0.64838152  0.66284130  0.07480072  1
  Al  Al55  1  0.35161848  0.33715870  0.57480072  1
  Al  Al56  1  0.66284130  0.01445978  0.57480072  1
  Al  Al57  1  0.01445978  0.35161848  0.07480072  1
