# generated using pymatgen
data_Ce3(AgGe)4
_symmetry_space_group_name_H-M   'P 1'
_cell_length_a   4.45975018
_cell_length_b   7.24308088
_cell_length_c   8.51197617
_cell_angle_alpha   115.18004266
_cell_angle_beta   105.18693021
_cell_angle_gamma   90.00000051
_symmetry_Int_Tables_number   1
_chemical_formula_structural   Ce3(AgGe)4
_chemical_formula_sum   'Ce3 Ag4 Ge4'
_cell_volume   238.17541948
_cell_formula_units_Z   1
loop_
 _symmetry_equiv_pos_site_id
 _symmetry_equiv_pos_as_xyz
  1  'x, y, z'
loop_
 _atom_site_type_symbol
 _atom_site_label
 _atom_site_symmetry_multiplicity
 _atom_site_fract_x
 _atom_site_fract_y
 _atom_site_fract_z
 _atom_site_occupancy
  Ce  Ce0  1  0.12734180  0.12734180  0.25468360  1
  Ce  Ce1  1  0.87265820  0.87265820  0.74531640  1
  Ce  Ce2  1  0.00000000  0.50000000  0.00000000  1
  Ag  Ag3  1  0.33306919  0.14023225  0.66613839  1
  Ag  Ag4  1  0.66693081  0.85976775  0.33386161  1
  Ag  Ag5  1  0.66693081  0.47409386  0.33386161  1
  Ag  Ag6  1  0.33306919  0.52590614  0.66613839  1
  Ge  Ge7  1  0.50000000  0.18061300  1.00000000  1
  Ge  Ge8  1  0.78186034  0.28186034  0.56372069  1
  Ge  Ge9  1  0.50000000  0.81938700  0.00000000  1
  Ge  Ge10  1  0.21813966  0.71813966  0.43627931  1
