# generated using pymatgen
data_CeAl5Pt3
_symmetry_space_group_name_H-M   'P 1'
_cell_length_a   4.15626253
_cell_length_b   7.32978310
_cell_length_c   20.76501885
_cell_angle_alpha   90.03444555
_cell_angle_beta   90.00002525
_cell_angle_gamma   90.00026986
_symmetry_Int_Tables_number   1
_chemical_formula_structural   CeAl5Pt3
_chemical_formula_sum   'Ce4 Al20 Pt12'
_cell_volume   632.59586169
_cell_formula_units_Z   4
loop_
 _symmetry_equiv_pos_site_id
 _symmetry_equiv_pos_as_xyz
  1  'x, y, z'
loop_
 _atom_site_type_symbol
 _atom_site_label
 _atom_site_symmetry_multiplicity
 _atom_site_fract_x
 _atom_site_fract_y
 _atom_site_fract_z
 _atom_site_occupancy
  Ce  Ce0  1  0.74999738  0.11812832  0.64050877  1
  Ce  Ce1  1  0.25000005  0.88191967  0.35945352  1
  Ce  Ce2  1  0.75000069  0.38193869  0.14050601  1
  Ce  Ce3  1  0.25000056  0.61812834  0.85949661  1
  Al  Al4  1  0.25000001  0.35604683  0.38280360  1
  Al  Al5  1  0.24999996  0.88634964  0.98272496  1
  Al  Al6  1  0.25000003  0.68786589  0.20064161  1
  Al  Al7  1  0.74999985  0.86866305  0.49250213  1
  Al  Al8  1  0.75000076  0.63129613  0.99243926  1
  Al  Al9  1  0.75000128  0.31194240  0.79928613  1
  Al  Al10  1  0.25000046  0.07480355  0.20811331  1
  Al  Al11  1  0.74999955  0.64398502  0.61722299  1
  Al  Al12  1  0.74999987  0.57432363  0.29168924  1
  Al  Al13  1  0.74999976  0.18842093  0.29917505  1
  Al  Al14  1  0.25000045  0.14402608  0.88279280  1
  Al  Al15  1  0.74999969  0.92538384  0.79182861  1
  Al  Al16  1  0.25000001  0.36868358  0.00763564  1
  Al  Al17  1  0.24999966  0.61343291  0.48282135  1
  Al  Al18  1  0.24999948  0.13137844  0.50759358  1
  Al  Al19  1  0.74999973  0.11372729  0.01731099  1
  Al  Al20  1  0.74999934  0.85589719  0.11718273  1
  Al  Al21  1  0.75000048  0.38645745  0.51726641  1
  Al  Al22  1  0.24999902  0.42552533  0.70822737  1
  Al  Al23  1  0.25000106  0.81176273  0.70076412  1
  Pt  Pt24  1  0.24999933  0.38295620  0.26173337  1
  Pt  Pt25  1  0.75000067  0.88297278  0.23816212  1
  Pt  Pt26  1  0.75000041  0.61702883  0.73826608  1
  Pt  Pt27  1  0.25000011  0.11705155  0.76177853  1
  Pt  Pt28  1  0.74999930  0.16089811  0.42686829  1
  Pt  Pt29  1  0.25000134  0.41986610  0.58457864  1
  Pt  Pt30  1  0.24999993  0.08019537  0.08459926  1
  Pt  Pt31  1  0.74999935  0.91978683  0.91543265  1
  Pt  Pt32  1  0.25000010  0.83916926  0.57313789  1
  Pt  Pt33  1  0.74999980  0.33920933  0.92687382  1
  Pt  Pt34  1  0.25000009  0.66077526  0.07315777  1
  Pt  Pt35  1  0.75000043  0.58000342  0.41542480  1
