# generated using pymatgen
data_Ba6In5N
_symmetry_space_group_name_H-M   'P 1'
_cell_length_a   8.32109057
_cell_length_b   8.32109057
_cell_length_c   44.78165566
_cell_angle_alpha   90.00000000
_cell_angle_beta   90.00000000
_cell_angle_gamma   119.99999814
_symmetry_Int_Tables_number   1
_chemical_formula_structural   Ba6In5N
_chemical_formula_sum   'Ba36 In30 N6'
_cell_volume   2685.29055171
_cell_formula_units_Z   6
loop_
 _symmetry_equiv_pos_site_id
 _symmetry_equiv_pos_as_xyz
  1  'x, y, z'
loop_
 _atom_site_type_symbol
 _atom_site_label
 _atom_site_symmetry_multiplicity
 _atom_site_fract_x
 _atom_site_fract_y
 _atom_site_fract_z
 _atom_site_occupancy
  Ba  Ba0  1  0.01700418  0.44976455  0.20160936  1
  Ba  Ba1  1  0.56723963  0.55023545  0.29839064  1
  Ba  Ba2  1  0.44976455  0.01700418  0.29839064  1
  Ba  Ba3  1  0.09942737  0.78309755  0.03494236  1
  Ba  Ba4  1  0.21690245  0.31632882  0.03494236  1
  Ba  Ba5  1  0.68367118  0.90057263  0.03494236  1
  Ba  Ba6  1  0.11643155  0.76609337  0.13172364  1
  Ba  Ba7  1  0.43276037  0.98299582  0.20160936  1
  Ba  Ba8  1  0.64966282  0.88356845  0.13172364  1
  Ba  Ba9  1  0.55023545  0.56723963  0.20160936  1
  Ba  Ba10  1  0.23390663  0.35033718  0.13172364  1
  Ba  Ba11  1  0.98299582  0.43276037  0.29839064  1
  Ba  Ba12  1  0.68367118  0.78309755  0.53494236  1
  Ba  Ba13  1  0.23390663  0.88356845  0.63172364  1
  Ba  Ba14  1  0.11643155  0.35033718  0.63172364  1
  Ba  Ba15  1  0.76609337  0.11643155  0.36827636  1
  Ba  Ba16  1  0.88356845  0.64966282  0.36827636  1
  Ba  Ba17  1  0.35033718  0.23390663  0.36827636  1
  Ba  Ba18  1  0.78309755  0.09942737  0.46505764  1
  Ba  Ba19  1  0.09942737  0.31632882  0.53494236  1
  Ba  Ba20  1  0.31632882  0.21690245  0.46505764  1
  Ba  Ba21  1  0.21690245  0.90057263  0.53494236  1
  Ba  Ba22  1  0.90057263  0.68367118  0.46505764  1
  Ba  Ba23  1  0.64966282  0.76609337  0.63172364  1
  Ba  Ba24  1  0.35033718  0.11643155  0.86827636  1
  Ba  Ba25  1  0.90057263  0.21690245  0.96505764  1
  Ba  Ba26  1  0.78309755  0.68367118  0.96505764  1
  Ba  Ba27  1  0.43276037  0.44976455  0.70160936  1
  Ba  Ba28  1  0.55023545  0.98299582  0.70160936  1
  Ba  Ba29  1  0.01700418  0.56723963  0.70160936  1
  Ba  Ba30  1  0.44976455  0.43276037  0.79839064  1
  Ba  Ba31  1  0.76609337  0.64966282  0.86827636  1
  Ba  Ba32  1  0.98299582  0.55023545  0.79839064  1
  Ba  Ba33  1  0.88356845  0.23390663  0.86827636  1
  Ba  Ba34  1  0.56723963  0.01700418  0.79839064  1
  Ba  Ba35  1  0.31632882  0.09942737  0.96505764  1
  In  In36  1  0.88298558  0.33333300  0.08333300  1
  In  In37  1  0.00000000  0.00000000  0.19327179  1
  In  In38  1  0.66666700  0.33333300  0.14006121  1
  In  In39  1  0.45034842  0.11701442  0.08333300  1
  In  In40  1  0.66666700  0.54965158  0.08333300  1
  In  In41  1  0.66666700  0.33333300  0.02660479  1
  In  In42  1  0.78368142  1.00000000  0.25000000  1
  In  In43  1  1.00000000  0.78368142  0.25000000  1
  In  In44  1  0.21631858  0.21631858  0.25000000  1
  In  In45  1  0.00000000  0.00000000  0.30672821  1
  In  In46  1  0.54965158  0.66666700  0.41666700  1
  In  In47  1  0.66666700  0.33333300  0.52660479  1
  In  In48  1  0.33333300  0.66666700  0.47339521  1
  In  In49  1  0.11701442  0.45034842  0.41666700  1
  In  In50  1  0.33333300  0.88298558  0.41666700  1
  In  In51  1  0.33333300  0.66666700  0.35993879  1
  In  In52  1  0.45034842  0.33333300  0.58333300  1
  In  In53  1  0.66666700  0.11701442  0.58333300  1
  In  In54  1  0.88298558  0.54965158  0.58333300  1
  In  In55  1  0.66666700  0.33333300  0.64006121  1
  In  In56  1  0.21631858  0.00000000  0.75000000  1
  In  In57  1  0.33333300  0.66666700  0.85993879  1
  In  In58  1  0.00000000  0.00000000  0.80672821  1
  In  In59  1  0.78368142  0.78368142  0.75000000  1
  In  In60  1  0.00000000  0.21631858  0.75000000  1
  In  In61  1  0.00000000  0.00000000  0.69327179  1
  In  In62  1  0.11701442  0.66666700  0.91666700  1
  In  In63  1  0.33333300  0.45034842  0.91666700  1
  In  In64  1  0.54965158  0.88298558  0.91666700  1
  In  In65  1  0.33333300  0.66666700  0.97339521  1
  N  N66  1  0.00000000  0.00000000  0.00000000  1
  N  N67  1  0.33333300  0.66666700  0.16666700  1
  N  N68  1  0.66666700  0.33333300  0.33333300  1
  N  N69  1  0.00000000  0.00000000  0.50000000  1
  N  N70  1  0.33333300  0.66666700  0.66666700  1
  N  N71  1  0.66666700  0.33333300  0.83333300  1
