# generated using pymatgen
data_RbHF2
_symmetry_space_group_name_H-M   'P 1'
_cell_length_a   5.60161760
_cell_length_b   5.60161702
_cell_length_c   5.60161769
_cell_angle_alpha   97.43667121
_cell_angle_beta   116.33680373
_cell_angle_gamma   115.27243045
_symmetry_Int_Tables_number   1
_chemical_formula_structural   RbHF2
_chemical_formula_sum   'Rb2 H2 F4'
_cell_volume   130.96007606
_cell_formula_units_Z   2
loop_
 _symmetry_equiv_pos_site_id
 _symmetry_equiv_pos_as_xyz
  1  'x, y, z'
loop_
 _atom_site_type_symbol
 _atom_site_label
 _atom_site_symmetry_multiplicity
 _atom_site_fract_x
 _atom_site_fract_y
 _atom_site_fract_z
 _atom_site_occupancy
  Rb  Rb0  1  0.13156164  0.38156164  0.25000000  1
  Rb  Rb1  1  0.13156164  0.88156164  0.75000000  1
  H  H2  1  0.63636333  0.64014823  0.99621510  1
  H  H3  1  0.64393312  0.14014823  0.50378490  1
  F  F4  1  0.91884262  0.27107252  0.64777010  1
  F  F5  1  0.62330242  0.77107252  0.85222990  1
  F  F6  1  0.65179362  0.51221762  0.13957601  1
  F  F7  1  0.37264161  0.01221761  0.36042399  1
