# generated using pymatgen
data_Li2VSi2O7
_symmetry_space_group_name_H-M   'P 1'
_cell_length_a   8.57121187
_cell_length_b   8.58442542
_cell_length_c   12.97702487
_cell_angle_alpha   88.97499165
_cell_angle_beta   90.11938327
_cell_angle_gamma   119.88372072
_symmetry_Int_Tables_number   1
_chemical_formula_structural   Li2VSi2O7
_chemical_formula_sum   'Li12 V6 Si12 O42'
_cell_volume   827.72091297
_cell_formula_units_Z   6
loop_
 _symmetry_equiv_pos_site_id
 _symmetry_equiv_pos_as_xyz
  1  'x, y, z'
loop_
 _atom_site_type_symbol
 _atom_site_label
 _atom_site_symmetry_multiplicity
 _atom_site_fract_x
 _atom_site_fract_y
 _atom_site_fract_z
 _atom_site_occupancy
  Li  Li0  1  0.02921059  0.68937637  0.89655612  1
  Li  Li1  1  0.30269614  0.33428119  0.89904654  1
  Li  Li2  1  0.66777302  0.97301620  0.89911843  1
  Li  Li3  1  0.66493303  0.96803340  0.56432963  1
  Li  Li4  1  0.34071216  0.02496344  0.39439256  1
  Li  Li5  1  0.68885037  0.67062823  0.39392266  1
  Li  Li6  1  0.66654927  0.34228827  0.22959291  1
  Li  Li7  1  0.66348677  0.33561311  0.72309055  1
  Li  Li8  1  0.01162004  0.99605568  0.45453221  1
  Li  Li9  1  0.99328303  0.98035785  0.96682776  1
  Li  Li10  1  0.97642325  0.30853985  0.39386079  1
  Li  Li11  1  0.97269632  0.30766442  0.06947157  1
  V  V12  1  0.00336996  0.00073607  0.72695215  1
  V  V13  1  0.32436439  0.65872618  0.51437908  1
  V  V14  1  0.33225555  0.67013284  0.95544280  1
  V  V15  1  0.00456259  0.99880135  0.22457515  1
  V  V16  1  0.65849360  0.33147044  0.01359444  1
  V  V17  1  0.66311781  0.33404485  0.45684156  1
  Si  Si18  1  0.03009129  0.67534643  0.12180886  1
  Si  Si19  1  0.03802237  0.67681899  0.34571554  1
  Si  Si20  1  0.32413333  0.36024281  0.34733029  1
  Si  Si21  1  0.33051158  0.36299157  0.12538258  1
  Si  Si22  1  0.63907628  0.96625100  0.12096150  1
  Si  Si23  1  0.64822301  0.97304682  0.34233336  1
  Si  Si24  1  0.35291453  0.02430627  0.62005793  1
  Si  Si25  1  0.35761309  0.03467677  0.84733352  1
  Si  Si26  1  0.66661833  0.64129408  0.61952355  1
  Si  Si27  1  0.67213436  0.63935562  0.84857222  1
  Si  Si28  1  0.97153159  0.32586440  0.84638132  1
  Si  Si29  1  0.97029751  0.33005781  0.62125939  1
  O  O30  1  0.13729964  0.94107300  0.84073454  1
  O  O31  1  0.13594840  0.94422205  0.63126634  1
  O  O32  1  0.12834375  0.69047806  0.23228256  1
  O  O33  1  0.17982777  0.73709389  0.02868154  1
  O  O34  1  0.20866649  0.75912604  0.42497001  1
  O  O35  1  0.11941680  0.53429918  0.59814093  1
  O  O36  1  0.12333355  0.53304897  0.86730909  1
  O  O37  1  0.06139404  0.19647662  0.83807132  1
  O  O38  1  0.04764859  0.19113258  0.63836362  1
  O  O39  1  0.41888582  0.88663769  0.86927399  1
  O  O40  1  0.41491606  0.88022816  0.59603017  1
  O  O41  1  0.23598079  0.43923253  0.42796673  1
  O  O42  1  0.24240119  0.42861167  0.03422830  1
  O  O43  1  0.31497958  0.44633289  0.23424789  1
  O  O44  1  0.55741933  0.87507233  0.23362104  1
  O  O45  1  0.20322561  0.13892368  0.34336568  1
  O  O46  1  0.19704220  0.14270999  0.14037556  1
  O  O47  1  0.54766860  0.81595729  0.03289635  1
  O  O48  1  0.57707431  0.81869823  0.43274484  1
  O  O49  1  0.46298668  0.59386780  0.59375306  1
  O  O50  1  0.46700272  0.58516303  0.87536328  1
  O  O51  1  0.53844352  0.41992926  0.36299114  1
  O  O52  1  0.53581809  0.40502342  0.10661843  1
  O  O53  1  0.44267551  0.20775196  0.92368499  1
  O  O54  1  0.44340715  0.18434755  0.53037762  1
  O  O55  1  0.80120361  0.85808209  0.62637900  1
  O  O56  1  0.80496392  0.85787848  0.84033260  1
  O  O57  1  0.44178012  0.12530231  0.73109273  1
  O  O58  1  0.67153112  0.55437732  0.73390801  1
  O  O59  1  0.73077656  0.54052952  0.53775189  1
  O  O60  1  0.75942511  0.54529122  0.92356165  1
  O  O61  1  0.59963827  0.13442644  0.10023263  1
  O  O62  1  0.59687203  0.13299611  0.35976293  1
  O  O63  1  0.94718664  0.81178658  0.12502630  1
  O  O64  1  0.94292190  0.80442923  0.34172678  1
  O  O65  1  0.87941634  0.46669199  0.36674958  1
  O  O66  1  0.87509215  0.46425424  0.10639401  1
  O  O67  1  0.81006850  0.23940789  0.93289690  1
  O  O68  1  0.80655507  0.24091337  0.53643904  1
  O  O69  1  0.87200945  0.32067676  0.73447341  1
  O  O70  1  0.85967386  0.05628666  0.12429456  1
  O  O71  1  0.86944202  0.06582361  0.33245202  1
