# generated using pymatgen
data_Sr3Rh4Pb13
_symmetry_space_group_name_H-M   'P 1'
_cell_length_a   10.29919310
_cell_length_b   10.29917256
_cell_length_c   10.29920044
_cell_angle_alpha   90.00056836
_cell_angle_beta   90.00245823
_cell_angle_gamma   90.00220939
_symmetry_Int_Tables_number   1
_chemical_formula_structural   Sr3Rh4Pb13
_chemical_formula_sum   'Sr6 Rh8 Pb26'
_cell_volume   1092.46880695
_cell_formula_units_Z   2
loop_
 _symmetry_equiv_pos_site_id
 _symmetry_equiv_pos_as_xyz
  1  'x, y, z'
loop_
 _atom_site_type_symbol
 _atom_site_label
 _atom_site_symmetry_multiplicity
 _atom_site_fract_x
 _atom_site_fract_y
 _atom_site_fract_z
 _atom_site_occupancy
  Sr  Sr0  1  0.49999544  0.00000276  0.24999866  1
  Sr  Sr1  1  0.00000771  0.25000012  0.50000259  1
  Sr  Sr2  1  0.50000092  0.99999879  0.74999864  1
  Sr  Sr3  1  0.25000087  0.49999508  0.00000519  1
  Sr  Sr4  1  0.74999922  0.50000632  0.99999516  1
  Sr  Sr5  1  0.99999692  0.74999787  0.49999741  1
  Rh  Rh6  1  0.25000093  0.25000098  0.25000033  1
  Rh  Rh7  1  0.24999978  0.74999864  0.74999920  1
  Rh  Rh8  1  0.25000172  0.74999824  0.24999833  1
  Rh  Rh9  1  0.75000347  0.74999993  0.25000035  1
  Rh  Rh10  1  0.24999624  0.25000122  0.74999949  1
  Rh  Rh11  1  0.74999980  0.24999990  0.74999998  1
  Rh  Rh12  1  0.74999892  0.24999779  0.25000023  1
  Rh  Rh13  1  0.74999975  0.74999678  0.75000217  1
  Pb  Pb14  1  0.30278030  0.15535135  0.99999901  1
  Pb  Pb15  1  0.69721969  0.84464737  0.00000116  1
  Pb  Pb16  1  0.34464673  0.80277992  0.50000191  1
  Pb  Pb17  1  0.19721945  0.50000166  0.34464884  1
  Pb  Pb18  1  0.80278071  0.49999981  0.65535202  1
  Pb  Pb19  1  0.50000119  0.34464776  0.80278020  1
  Pb  Pb20  1  0.30277944  0.84464577  0.99999821  1
  Pb  Pb21  1  0.99999794  0.30278082  0.15535335  1
  Pb  Pb22  1  0.99999902  0.69722048  0.15535265  1
  Pb  Pb23  1  0.84464771  0.00000108  0.69721964  1
  Pb  Pb24  1  0.15535330  0.99999732  0.69722062  1
  Pb  Pb25  1  0.69722015  0.15535315  0.99999958  1
  Pb  Pb26  1  0.34464805  0.19722009  0.50000155  1
  Pb  Pb27  1  0.50000029  0.65535421  0.19721979  1
  Pb  Pb28  1  0.50000234  0.34464789  0.19721974  1
  Pb  Pb29  1  0.49999706  0.65535368  0.80277980  1
  Pb  Pb30  1  0.99999952  0.99999937  0.99999980  1
  Pb  Pb31  1  0.00000262  0.69722026  0.84464702  1
  Pb  Pb32  1  0.84464585  0.00000042  0.30278031  1
  Pb  Pb33  1  0.15535167  0.99999795  0.30278048  1
  Pb  Pb34  1  0.19721987  0.50000252  0.65535398  1
  Pb  Pb35  1  -0.00000009  0.30278052  0.84464668  1
  Pb  Pb36  1  0.65535395  0.19722044  0.50000004  1
  Pb  Pb37  1  0.49999980  0.50000070  0.50000021  1
  Pb  Pb38  1  0.80277975  0.50000127  0.34464698  1
  Pb  Pb39  1  0.65535200  0.80277976  0.49999869  1
