# generated using pymatgen
data_Ba3MgRu2O9
_symmetry_space_group_name_H-M   'P 1'
_cell_length_a   5.85598156
_cell_length_b   5.85598156
_cell_length_c   14.12379697
_cell_angle_alpha   90.00000000
_cell_angle_beta   90.00000000
_cell_angle_gamma   120.00000002
_symmetry_Int_Tables_number   1
_chemical_formula_structural   Ba3MgRu2O9
_chemical_formula_sum   'Ba6 Mg2 Ru4 O18'
_cell_volume   419.45125505
_cell_formula_units_Z   2
loop_
 _symmetry_equiv_pos_site_id
 _symmetry_equiv_pos_as_xyz
  1  'x, y, z'
loop_
 _atom_site_type_symbol
 _atom_site_label
 _atom_site_symmetry_multiplicity
 _atom_site_fract_x
 _atom_site_fract_y
 _atom_site_fract_z
 _atom_site_occupancy
  O  O0  1  0.82707773  0.65415545  0.41475369  1
  O  O1  1  0.34584455  0.17292227  0.41475369  1
  O  O2  1  0.82707773  0.17292227  0.41475369  1
  O  O3  1  0.17292227  0.82707773  0.91475369  1
  O  O4  1  0.17292227  0.82707773  0.58524631  1
  O  O5  1  0.17292227  0.34584455  0.91475369  1
  O  O6  1  0.65415545  0.82707773  0.91475369  1
  O  O7  1  0.34584455  0.17292227  0.08524631  1
  O  O8  1  0.82707773  0.65415545  0.08524631  1
  O  O9  1  0.17292227  0.34584455  0.58524631  1
  O  O10  1  0.65415545  0.82707773  0.58524631  1
  O  O11  1  0.82707773  0.17292227  0.08524631  1
  O  O12  1  0.50771437  0.49228563  0.25000000  1
  O  O13  1  0.01542873  0.50771437  0.75000000  1
  O  O14  1  0.49228563  0.98457127  0.75000000  1
  O  O15  1  0.50771437  0.01542873  0.25000000  1
  O  O16  1  0.98457127  0.49228563  0.25000000  1
  O  O17  1  0.49228563  0.50771437  0.75000000  1
  Mg  Mg18  1  0.00000000  0.00000000  0.00000000  1
  Mg  Mg19  1  0.00000000  0.00000000  0.50000000  1
  Ru  Ru20  1  0.66666667  0.33333333  0.33919862  1
  Ru  Ru21  1  0.33333333  0.66666667  0.83919862  1
  Ru  Ru22  1  0.66666667  0.33333333  0.16080138  1
  Ru  Ru23  1  0.33333333  0.66666667  0.66080138  1
  Ba  Ba24  1  0.33333333  0.66666667  0.41136874  1
  Ba  Ba25  1  0.66666667  0.33333333  0.91136874  1
  Ba  Ba26  1  0.66666667  0.33333333  0.58863126  1
  Ba  Ba27  1  0.33333333  0.66666667  0.08863126  1
  Ba  Ba28  1  0.00000000  0.00000000  0.75000000  1
  Ba  Ba29  1  0.00000000  0.00000000  0.25000000  1
