# generated using pymatgen
data_Eu3Ga2
_symmetry_space_group_name_H-M   'P 1'
_cell_length_a   5.98148310
_cell_length_b   5.98148307
_cell_length_c   8.53683364
_cell_angle_alpha   76.85355254
_cell_angle_beta   76.85355264
_cell_angle_gamma   88.91789173
_symmetry_Int_Tables_number   1
_chemical_formula_structural   Eu3Ga2
_chemical_formula_sum   'Eu6 Ga4'
_cell_volume   289.45845937
_cell_formula_units_Z   2
loop_
 _symmetry_equiv_pos_site_id
 _symmetry_equiv_pos_as_xyz
  1  'x, y, z'
loop_
 _atom_site_type_symbol
 _atom_site_label
 _atom_site_symmetry_multiplicity
 _atom_site_fract_x
 _atom_site_fract_y
 _atom_site_fract_z
 _atom_site_occupancy
  Eu  Eu0  1  0.66404252  0.74414499  0.03041741  1
  Eu  Eu1  1  0.25585501  0.33595748  0.46958259  1
  Eu  Eu2  1  0.33595748  0.25585501  0.96958259  1
  Eu  Eu3  1  0.82474483  0.17525517  0.25000000  1
  Eu  Eu4  1  0.17525517  0.82474483  0.75000000  1
  Eu  Eu5  1  0.74414499  0.66404252  0.53041741  1
  Ga  Ga6  1  0.88365559  0.30616125  0.84113716  1
  Ga  Ga7  1  0.69383875  0.11634441  0.65886284  1
  Ga  Ga8  1  0.30616125  0.88365559  0.34113716  1
  Ga  Ga9  1  0.11634441  0.69383875  0.15886284  1
