# generated using pymatgen
data_La3Ga5SnO14
_symmetry_space_group_name_H-M   'P 1'
_cell_length_a   8.35378362
_cell_length_b   8.35378362
_cell_length_c   5.21875181
_cell_angle_alpha   90.00000000
_cell_angle_beta   90.00000000
_cell_angle_gamma   120.00000001
_symmetry_Int_Tables_number   1
_chemical_formula_structural   La3Ga5SnO14
_chemical_formula_sum   'La3 Ga5 Sn1 O14'
_cell_volume   315.40147421
_cell_formula_units_Z   1
loop_
 _symmetry_equiv_pos_site_id
 _symmetry_equiv_pos_as_xyz
  1  'x, y, z'
loop_
 _atom_site_type_symbol
 _atom_site_label
 _atom_site_symmetry_multiplicity
 _atom_site_fract_x
 _atom_site_fract_y
 _atom_site_fract_z
 _atom_site_occupancy
  O  O0  1  0.08223640  0.22791607  0.75810462  1
  O  O1  1  0.77208393  0.85432033  0.75810462  1
  O  O2  1  0.14567967  0.91776360  0.75810462  1
  O  O3  1  0.85432033  0.77208393  0.24189538  1
  O  O4  1  0.91776360  0.14567967  0.24189538  1
  O  O5  1  0.22791607  0.08223640  0.24189538  1
  O  O6  1  0.31568392  0.46009115  0.30244562  1
  O  O7  1  0.53990885  0.85559277  0.30244562  1
  O  O8  1  0.14440723  0.68431608  0.30244562  1
  O  O9  1  0.33333333  0.66666667  0.81908451  1
  O  O10  1  0.66666667  0.33333333  0.18091549  1
  O  O11  1  0.46009115  0.31568392  0.69755438  1
  O  O12  1  0.68431608  0.14440723  0.69755438  1
  O  O13  1  0.85559277  0.53990885  0.69755438  1
  Ga  Ga14  1  0.66666667  0.33333333  0.53028834  1
  Ga  Ga15  1  0.33333333  0.66666667  0.46971166  1
  Ga  Ga16  1  0.24514882  0.24514882  0.50000000  1
  Ga  Ga17  1  0.00000000  0.75485118  0.50000000  1
  Ga  Ga18  1  0.75485118  0.00000000  0.50000000  1
  Sn  Sn19  1  0.00000000  0.00000000  0.00000000  1
  La  La20  1  0.57254016  0.57254016  0.00000000  1
  La  La21  1  0.00000000  0.42745984  0.00000000  1
  La  La22  1  0.42745984  0.00000000  0.00000000  1
