# generated using pymatgen
data_Sm2Pd2Pb
_symmetry_space_group_name_H-M   'P 1'
_cell_length_a   3.78154243
_cell_length_b   7.96070139
_cell_length_c   7.96224045
_cell_angle_alpha   90.01610189
_cell_angle_beta   90.03506975
_cell_angle_gamma   89.98701691
_symmetry_Int_Tables_number   1
_chemical_formula_structural   Sm2Pd2Pb
_chemical_formula_sum   'Sm4 Pd4 Pb2'
_cell_volume   239.69307661
_cell_formula_units_Z   2
loop_
 _symmetry_equiv_pos_site_id
 _symmetry_equiv_pos_as_xyz
  1  'x, y, z'
loop_
 _atom_site_type_symbol
 _atom_site_label
 _atom_site_symmetry_multiplicity
 _atom_site_fract_x
 _atom_site_fract_y
 _atom_site_fract_z
 _atom_site_occupancy
  Sm  Sm0  1  0.50047420  0.82456666  0.32490113  1
  Sm  Sm1  1  0.49962892  0.17537121  0.67520692  1
  Sm  Sm2  1  0.50005643  0.67525454  0.82453698  1
  Sm  Sm3  1  0.49981729  0.32484902  0.17542964  1
  Pd  Pd4  1  0.00010099  0.62446795  0.12418990  1
  Pd  Pd5  1  0.00001027  0.12444708  0.37559974  1
  Pd  Pd6  1  0.00014868  0.37555830  0.87563680  1
  Pd  Pd7  1  0.99996022  0.87564786  0.62443497  1
  Pb  Pb8  1  0.00021123  0.99998484  0.99996214  1
  Pb  Pb9  1  0.99959178  0.49985256  0.50010177  1
