# generated using pymatgen
data_Eu3(B3Rh4)2
_symmetry_space_group_name_H-M   'P 1'
_cell_length_a   5.56422866
_cell_length_b   5.65754994
_cell_length_c   9.03364345
_cell_angle_alpha   81.28924603
_cell_angle_beta   72.06291197
_cell_angle_gamma   60.54416455
_symmetry_Int_Tables_number   1
_chemical_formula_structural   Eu3(B3Rh4)2
_chemical_formula_sum   'Eu3 B6 Rh8'
_cell_volume   235.58264531
_cell_formula_units_Z   1
loop_
 _symmetry_equiv_pos_site_id
 _symmetry_equiv_pos_as_xyz
  1  'x, y, z'
loop_
 _atom_site_type_symbol
 _atom_site_label
 _atom_site_symmetry_multiplicity
 _atom_site_fract_x
 _atom_site_fract_y
 _atom_site_fract_z
 _atom_site_occupancy
  Eu  Eu0  1  0.68313459  1.00000000  0.63373083  1
  Eu  Eu1  1  0.50000000  0.00000000  0.00000000  1
  Eu  Eu2  1  0.31686541  0.00000000  0.36626917  1
  B  B3  1  0.16502617  0.66994765  1.00000000  1
  B  B4  1  0.33189968  0.67781490  0.65838573  1
  B  B5  1  0.00971459  0.32218510  0.65838573  1
  B  B6  1  0.99028541  0.67781490  0.34161427  1
  B  B7  1  0.66810032  0.32218510  0.34161427  1
  B  B8  1  0.83497383  0.33005235  0.00000000  1
  Rh  Rh9  1  0.08473435  0.50000000  0.83053131  1
  Rh  Rh10  1  0.91526565  0.50000000  0.16946869  1
  Rh  Rh11  1  0.25000000  0.50000000  0.50000000  1
  Rh  Rh12  1  0.91270691  0.00000000  0.17458618  1
  Rh  Rh13  1  0.08729309  1.00000000  0.82541382  1
  Rh  Rh14  1  0.58473435  0.50000000  0.83053131  1
  Rh  Rh15  1  0.41526565  0.50000000  0.16946869  1
  Rh  Rh16  1  0.75000000  0.50000000  0.50000000  1
