# generated using pymatgen
data_Ru4Pb4O13
_symmetry_space_group_name_H-M   'P 1'
_cell_length_a   7.33820425
_cell_length_b   7.34122134
_cell_length_c   7.34022903
_cell_angle_alpha   60.00576100
_cell_angle_beta   59.99146596
_cell_angle_gamma   59.97640337
_symmetry_Int_Tables_number   1
_chemical_formula_structural   Ru4Pb4O13
_chemical_formula_sum   'Ru4 Pb4 O13'
_cell_volume   279.55425511
_cell_formula_units_Z   1
loop_
 _symmetry_equiv_pos_site_id
 _symmetry_equiv_pos_as_xyz
  1  'x, y, z'
loop_
 _atom_site_type_symbol
 _atom_site_label
 _atom_site_symmetry_multiplicity
 _atom_site_fract_x
 _atom_site_fract_y
 _atom_site_fract_z
 _atom_site_occupancy
  Ru  Ru0  1  0.37490947  0.37484790  0.37501522  1
  Ru  Ru1  1  0.37487328  0.37494305  0.87526933  1
  Ru  Ru2  1  0.37482112  0.87526341  0.37498530  1
  Ru  Ru3  1  0.87522340  0.37480668  0.37500506  1
  Pb  Pb4  1  0.36925562  0.87684398  0.87699453  1
  Pb  Pb5  1  0.87678052  0.36942051  0.87686198  1
  Pb  Pb6  1  0.87675361  0.87649759  0.36914685  1
  Pb  Pb7  1  0.87716002  0.87689230  0.87708619  1
  O  O8  1  0.05215870  0.05208808  0.44800100  1
  O  O9  1  0.05209935  0.44813336  0.05197763  1
  O  O10  1  0.69537776  0.69553122  0.30446194  1
  O  O11  1  0.69514747  0.30466297  0.69541280  1
  O  O12  1  0.30443885  0.69539955  0.69520375  1
  O  O13  1  0.44820724  0.05205573  0.05221734  1
  O  O14  1  0.69549657  0.30431242  0.30440205  1
  O  O15  1  0.44799072  0.05207781  0.44796621  1
  O  O16  1  0.44811456  0.44830133  0.05195876  1
  O  O17  1  0.30445418  0.69550666  0.30438767  1
  O  O18  1  0.30462486  0.30450099  0.69537569  1
  O  O19  1  0.05208866  0.44798569  0.44821751  1
  O  O20  1  0.75002403  0.74992876  0.75005318  1
