# generated using pymatgen
data_Co2C2O7
_symmetry_space_group_name_H-M   'P 1'
_cell_length_a   8.33279538
_cell_length_b   8.39649900
_cell_length_c   8.22898764
_cell_angle_alpha   87.68074058
_cell_angle_beta   90.00000000
_cell_angle_gamma   60.25065321
_symmetry_Int_Tables_number   1
_chemical_formula_structural   Co2C2O7
_chemical_formula_sum   'Co6 C6 O21'
_cell_volume   499.32706525
_cell_formula_units_Z   3
loop_
 _symmetry_equiv_pos_site_id
 _symmetry_equiv_pos_as_xyz
  1  'x, y, z'
loop_
 _atom_site_type_symbol
 _atom_site_label
 _atom_site_symmetry_multiplicity
 _atom_site_fract_x
 _atom_site_fract_y
 _atom_site_fract_z
 _atom_site_occupancy
  Co  Co0  1  0.99844574  0.00065089  0.28378275  1
  Co  Co1  1  0.99909663  -0.00065089  0.71621725  1
  Co  Co2  1  0.33542852  0.32460079  0.82943365  1
  Co  Co3  1  0.33599160  0.33433097  0.26266476  1
  Co  Co4  1  0.66002931  0.67539921  0.17056635  1
  Co  Co5  1  0.67032257  0.66566903  0.73733524  1
  C  C6  1  -0.00163500  0.34192647  0.26795934  1
  C  C7  1  0.33461765  0.66596694  0.26985358  1
  C  C8  1  0.66659757  -0.00683565  0.26844234  1
  C  C9  1  0.34029048  0.65807353  0.73204066  1
  C  C10  1  0.00058460  0.33403306  0.73014642  1
  C  C11  1  0.65976191  0.00683565  0.73155766  1
  O  O12  1  0.99596284  1.00000000  0.50000000  1
  O  O13  1  0.06843379  0.16771499  0.78969855  1
  O  O14  1  0.16426445  0.26293256  0.33483229  1
  O  O15  1  0.09700780  0.41544270  0.73287186  1
  O  O16  1  0.33031759  0.33654704  0.04349550  1
  O  O17  1  0.25732576  0.57647763  0.33195707  1
  O  O18  1  0.48161384  0.09756972  0.73137230  1
  O  O19  1  0.17541146  0.75581862  0.78481698  1
  O  O20  1  0.23614878  0.83228501  0.21030145  1
  O  O21  1  0.42389402  0.48226192  0.74514137  1
  O  O22  1  0.58485075  0.15788116  0.32300280  1
  O  O23  1  0.75443550  0.07750132  0.78642909  1
  O  O24  1  0.42719700  0.73706744  0.66516771  1
  O  O25  1  0.51245050  0.58455730  0.26712814  1
  O  O26  1  0.66686563  0.66345296  0.95650450  1
  O  O27  1  0.83380340  0.42352237  0.66804293  1
  O  O28  1  0.57918356  0.90243028  0.26862770  1
  O  O29  1  0.93123108  0.24418138  0.21518302  1
  O  O30  1  0.90615694  0.51773808  0.25485863  1
  O  O31  1  0.74273192  0.84211884  0.67699720  1
  O  O32  1  0.83193681  0.92249868  0.21357091  1
