# generated using pymatgen
data_Cs2NaAlF6
_symmetry_space_group_name_H-M   'P 1'
_cell_length_a   10.75842489
_cell_length_b   10.75842490
_cell_length_c   10.75842490
_cell_angle_alpha   33.92177566
_cell_angle_beta   33.92177564
_cell_angle_gamma   33.92177563
_symmetry_Int_Tables_number   1
_chemical_formula_structural   Cs2NaAlF6
_chemical_formula_sum   'Cs4 Na2 Al2 F12'
_cell_volume   345.63140523
_cell_formula_units_Z   2
loop_
 _symmetry_equiv_pos_site_id
 _symmetry_equiv_pos_as_xyz
  1  'x, y, z'
loop_
 _atom_site_type_symbol
 _atom_site_label
 _atom_site_symmetry_multiplicity
 _atom_site_fract_x
 _atom_site_fract_y
 _atom_site_fract_z
 _atom_site_occupancy
  F  F0  1  0.32469985  0.74620401  0.32469985  1
  F  F1  1  0.67530015  0.67530015  0.25379599  1
  F  F2  1  0.25379599  0.67530015  0.67530015  1
  F  F3  1  0.74620401  0.32469985  0.32469985  1
  F  F4  1  0.10017167  0.69113190  0.10017167  1
  F  F5  1  0.10017167  0.10017167  0.69113190  1
  F  F6  1  0.69113190  0.10017167  0.10017167  1
  F  F7  1  0.32469985  0.32469985  0.74620401  1
  F  F8  1  0.89982833  0.30886810  0.89982833  1
  F  F9  1  0.89982833  0.89982833  0.30886810  1
  F  F10  1  0.30886810  0.89982833  0.89982833  1
  F  F11  1  0.67530015  0.25379599  0.67530015  1
  Na  Na12  1  0.90210316  0.90210316  0.90210316  1
  Na  Na13  1  0.09789684  0.09789684  0.09789684  1
  Al  Al14  1  0.00000000  0.00000000  0.00000000  1
  Al  Al15  1  0.50000000  0.50000000  0.50000000  1
  Cs  Cs16  1  0.21946775  0.21946775  0.21946775  1
  Cs  Cs17  1  0.78053225  0.78053225  0.78053225  1
  Cs  Cs18  1  0.62814012  0.62814012  0.62814012  1
  Cs  Cs19  1  0.37185988  0.37185988  0.37185988  1
