# generated using pymatgen
data_Sr3LiRuO6
_symmetry_space_group_name_H-M   'P 1'
_cell_length_a   6.75347928
_cell_length_b   6.75347929
_cell_length_c   6.75347929
_cell_angle_alpha   92.27915811
_cell_angle_beta   92.27915810
_cell_angle_gamma   92.27915809
_symmetry_Int_Tables_number   1
_chemical_formula_structural   Sr3LiRuO6
_chemical_formula_sum   'Sr6 Li2 Ru2 O12'
_cell_volume   307.27169104
_cell_formula_units_Z   2
loop_
 _symmetry_equiv_pos_site_id
 _symmetry_equiv_pos_as_xyz
  1  'x, y, z'
loop_
 _atom_site_type_symbol
 _atom_site_label
 _atom_site_symmetry_multiplicity
 _atom_site_fract_x
 _atom_site_fract_y
 _atom_site_fract_z
 _atom_site_occupancy
  Li  Li0  1  0.25000000  0.25000000  0.25000000  1
  Li  Li1  1  0.75000000  0.75000000  0.75000000  1
  O  O2  1  0.45252932  0.78031580  0.58263101  1
  O  O3  1  0.04747068  0.91736899  0.71968420  1
  O  O4  1  0.91736899  0.71968420  0.04747068  1
  O  O5  1  0.71968420  0.04747068  0.91736899  1
  O  O6  1  0.78031580  0.58263101  0.45252932  1
  O  O7  1  0.58263101  0.45252932  0.78031580  1
  O  O8  1  0.21968420  0.41736899  0.54747068  1
  O  O9  1  0.41736899  0.54747068  0.21968420  1
  O  O10  1  0.28031580  0.95252932  0.08263101  1
  O  O11  1  0.08263101  0.28031580  0.95252932  1
  O  O12  1  0.95252932  0.08263101  0.28031580  1
  O  O13  1  0.54747068  0.21968420  0.41736899  1
  Sr  Sr14  1  0.60830457  0.89169543  0.25000000  1
  Sr  Sr15  1  0.25000000  0.60830457  0.89169543  1
  Sr  Sr16  1  0.10830457  0.75000000  0.39169543  1
  Sr  Sr17  1  0.75000000  0.39169543  0.10830457  1
  Sr  Sr18  1  0.39169543  0.10830457  0.75000000  1
  Sr  Sr19  1  0.89169543  0.25000000  0.60830457  1
  Ru  Ru20  1  0.00000000  0.00000000  0.00000000  1
  Ru  Ru21  1  0.50000000  0.50000000  0.50000000  1
