# generated using pymatgen
data_Zr10HN8
_symmetry_space_group_name_H-M   'P 1'
_cell_length_a   16.22942854
_cell_length_b   5.63742944
_cell_length_c   8.63035381
_cell_angle_alpha   40.20011766
_cell_angle_beta   41.29882495
_cell_angle_gamma   30.29648571
_symmetry_Int_Tables_number   1
_chemical_formula_structural   Zr10HN8
_chemical_formula_sum   'Zr10 H1 N8'
_cell_volume   246.68257127
_cell_formula_units_Z   1
loop_
 _symmetry_equiv_pos_site_id
 _symmetry_equiv_pos_as_xyz
  1  'x, y, z'
loop_
 _atom_site_type_symbol
 _atom_site_label
 _atom_site_symmetry_multiplicity
 _atom_site_fract_x
 _atom_site_fract_y
 _atom_site_fract_z
 _atom_site_occupancy
  Zr  Zr0  1  0.14831877  0.48638300  0.25262065  1
  Zr  Zr1  1  0.04617992  0.51970016  0.73650343  1
  Zr  Zr2  1  0.35498064  0.47871705  0.25909449  1
  Zr  Zr3  1  0.25321240  0.51211498  0.74268331  1
  Zr  Zr4  1  0.54689373  0.51506238  0.24186685  1
  Zr  Zr5  1  0.45145780  0.49678582  0.74932639  1
  Zr  Zr6  1  0.75339171  0.50744229  0.24271893  1
  Zr  Zr7  1  0.64757538  0.49055316  0.75328619  1
  Zr  Zr8  1  0.95019262  0.50015037  0.24620525  1
  Zr  Zr9  1  0.85491832  0.48035554  0.75460620  1
  H  H10  1  0.69843562  0.00504592  0.50255976  1
  N  N11  1  0.00168675  0.99958931  0.99528389  1
  N  N12  1  0.10193834  0.99611280  0.49745374  1
  N  N13  1  0.40011065  0.99583633  0.00109426  1
  N  N14  1  0.29964713  0.00291751  0.49751301  1
  N  N15  1  0.60084995  0.99917575  0.99849271  1
  N  N16  1  0.50008028  0.00198260  0.49824212  1
  N  N17  1  0.80042679  0.99830790  0.99681859  1
  N  N18  1  0.90104520  0.99556215  0.49775621  1
