# generated using pymatgen
data_NdInPt
_symmetry_space_group_name_H-M   'P 1'
_cell_length_a   7.73741899
_cell_length_b   7.73029623
_cell_length_c   4.09866575
_cell_angle_alpha   90.00036480
_cell_angle_beta   89.99721612
_cell_angle_gamma   120.00828106
_symmetry_Int_Tables_number   1
_chemical_formula_structural   NdInPt
_chemical_formula_sum   'Nd3 In3 Pt3'
_cell_volume   212.28980573
_cell_formula_units_Z   3
loop_
 _symmetry_equiv_pos_site_id
 _symmetry_equiv_pos_as_xyz
  1  'x, y, z'
loop_
 _atom_site_type_symbol
 _atom_site_label
 _atom_site_symmetry_multiplicity
 _atom_site_fract_x
 _atom_site_fract_y
 _atom_site_fract_z
 _atom_site_occupancy
  Nd  Nd0  1  0.99989761  0.58761770  0.49973026  1
  Nd  Nd1  1  0.58806221  0.00000730  0.50029834  1
  Nd  Nd2  1  0.41220214  0.41226169  0.49957894  1
  In  In3  1  0.00000836  0.25056532  0.99994415  1
  In  In4  1  0.25035290  0.99994917  0.00016098  1
  In  In5  1  0.74934837  0.74947891  0.99982683  1
  Pt  Pt6  1  0.99992466  0.99997300  0.49995523  1
  Pt  Pt7  1  0.66682480  0.33337956  0.00040193  1
  Pt  Pt8  1  0.33337894  0.66676734  0.00010335  1
