# generated using pymatgen
data_Li13Si4
_symmetry_space_group_name_H-M   'P 1'
_cell_length_a   4.42921600
_cell_length_b   7.92537335
_cell_length_c   15.07076222
_cell_angle_alpha   90.00000000
_cell_angle_beta   90.00000000
_cell_angle_gamma   90.00000000
_symmetry_Int_Tables_number   1
_chemical_formula_structural   Li13Si4
_chemical_formula_sum   'Li26 Si8'
_cell_volume   529.03183640
_cell_formula_units_Z   2
loop_
 _symmetry_equiv_pos_site_id
 _symmetry_equiv_pos_as_xyz
  1  'x, y, z'
loop_
 _atom_site_type_symbol
 _atom_site_label
 _atom_site_symmetry_multiplicity
 _atom_site_fract_x
 _atom_site_fract_y
 _atom_site_fract_z
 _atom_site_occupancy
  Li  Li0  1  0.00000000  0.76979659  0.15435220  1
  Li  Li1  1  0.00000000  0.34663450  0.52582621  1
  Li  Li2  1  0.00000000  0.15336550  0.02582621  1
  Li  Li3  1  0.50000000  0.75852408  0.40405504  1
  Li  Li4  1  0.00000000  0.23020341  0.84564780  1
  Li  Li5  1  0.00000000  0.40495740  0.69444258  1
  Li  Li6  1  0.00000000  0.90495740  0.80555742  1
  Li  Li7  1  0.50000000  0.58942652  0.74467685  1
  Li  Li8  1  0.50000000  0.90535295  0.60532174  1
  Li  Li9  1  0.00000000  0.73020341  0.65435220  1
  Li  Li10  1  0.50000000  0.24147592  0.59594496  1
  Li  Li11  1  0.50000000  0.25852408  0.09594496  1
  Li  Li12  1  0.50000000  0.09464705  0.39467826  1
  Li  Li13  1  0.50000000  0.74147592  0.90405504  1
  Li  Li14  1  0.50000000  0.08942652  0.75532315  1
  Li  Li15  1  0.00000000  0.26979659  0.34564780  1
  Li  Li16  1  0.50000000  0.41057348  0.25532315  1
  Li  Li17  1  0.00000000  0.00000000  0.50000000  1
  Li  Li18  1  0.00000000  0.09504260  0.19444258  1
  Li  Li19  1  0.50000000  0.40535295  0.89467826  1
  Li  Li20  1  0.00000000  0.65336550  0.47417379  1
  Li  Li21  1  0.00000000  0.84663450  0.97417379  1
  Li  Li22  1  0.50000000  0.91057348  0.24467685  1
  Li  Li23  1  0.00000000  0.50000000  0.00000000  1
  Li  Li24  1  0.50000000  0.59464705  0.10532174  1
  Li  Li25  1  0.00000000  0.59504260  0.30555742  1
  Si  Si26  1  0.50000000  0.92662775  0.06902486  1
  Si  Si27  1  0.00000000  0.58376170  0.84000739  1
  Si  Si28  1  0.00000000  0.41623830  0.15999261  1
  Si  Si29  1  0.50000000  0.57337225  0.56902486  1
  Si  Si30  1  0.00000000  0.08376170  0.65999261  1
  Si  Si31  1  0.50000000  0.42662775  0.43097514  1
  Si  Si32  1  0.50000000  0.07337225  0.93097514  1
  Si  Si33  1  0.00000000  0.91623830  0.34000739  1
