# generated using pymatgen
data_Co2TeBr2O3
_symmetry_space_group_name_H-M   'P 1'
_cell_length_a   7.83619169
_cell_length_b   10.67811471
_cell_length_c   16.26008269
_cell_angle_alpha   89.98594605
_cell_angle_beta   89.99084226
_cell_angle_gamma   89.98610722
_symmetry_Int_Tables_number   1
_chemical_formula_structural   Co2TeBr2O3
_chemical_formula_sum   'Co16 Te8 Br16 O24'
_cell_volume   1360.57457757
_cell_formula_units_Z   8
loop_
 _symmetry_equiv_pos_site_id
 _symmetry_equiv_pos_as_xyz
  1  'x, y, z'
loop_
 _atom_site_type_symbol
 _atom_site_label
 _atom_site_symmetry_multiplicity
 _atom_site_fract_x
 _atom_site_fract_y
 _atom_site_fract_z
 _atom_site_occupancy
  Co  Co0  1  0.89422587  0.77116470  0.03676095  1
  Co  Co1  1  0.39418657  0.77116113  0.46323514  1
  Co  Co2  1  0.10576029  0.22881767  0.96323613  1
  Co  Co3  1  0.60587161  0.22883766  0.53677724  1
  Co  Co4  1  0.34516687  0.00710271  0.89884283  1
  Co  Co5  1  0.10590045  0.27117227  0.53676376  1
  Co  Co6  1  0.84509932  0.49293096  0.89882723  1
  Co  Co7  1  0.15489848  0.50703516  0.10116897  1
  Co  Co8  1  0.60581295  0.27120922  0.96324942  1
  Co  Co9  1  0.65481560  0.99291688  0.10116140  1
  Co  Co10  1  0.65491649  0.50708030  0.39883584  1
  Co  Co11  1  0.84513894  0.00709248  0.60115249  1
  Co  Co12  1  0.39419648  0.72880482  0.03674798  1
  Co  Co13  1  0.15484629  0.99290271  0.39884301  1
  Co  Co14  1  0.89414264  0.72882772  0.46322199  1
  Co  Co15  1  0.34508588  0.49292767  0.60116107  1
  Te  Te16  1  0.71118878  0.52666104  0.09804185  1
  Te  Te17  1  0.28888056  0.02666284  0.59803298  1
  Te  Te18  1  0.21111693  0.97328857  0.09805207  1
  Te  Te19  1  0.71110111  0.97334897  0.40195425  1
  Te  Te20  1  0.78884986  0.02673033  0.90196315  1
  Te  Te21  1  0.78881679  0.47327620  0.59803137  1
  Te  Te22  1  0.21119116  0.52672231  0.40196178  1
  Te  Te23  1  0.28880381  0.47331637  0.90196584  1
  Br  Br24  1  0.05814558  0.20868096  0.38294288  1
  Br  Br25  1  0.15717640  0.41085451  0.70515809  1
  Br  Br26  1  0.34276275  0.58911037  0.20511962  1
  Br  Br27  1  0.84282350  0.58913969  0.29482998  1
  Br  Br28  1  0.05807307  0.29133664  0.11710389  1
  Br  Br29  1  0.44189906  0.70861504  0.61710730  1
  Br  Br30  1  0.44191658  0.79135854  0.88290337  1
  Br  Br31  1  0.94185475  0.79131820  0.61705544  1
  Br  Br32  1  0.84278242  0.91088650  0.20515884  1
  Br  Br33  1  0.65723875  0.41087240  0.79487220  1
  Br  Br34  1  0.15721355  0.08912475  0.79484140  1
  Br  Br35  1  0.65718770  0.08915348  0.70515168  1
  Br  Br36  1  0.55812431  0.29138402  0.38291753  1
  Br  Br37  1  0.94191548  0.70863451  0.88290084  1
  Br  Br38  1  0.34281061  0.91087126  0.29483501  1
  Br  Br39  1  0.55808050  0.20866717  0.11708841  1
  O  O40  1  0.56309883  0.41090950  0.58172768  1
  O  O41  1  0.69341513  0.44504548  0.99185471  1
  O  O42  1  0.56309764  0.08910917  0.91828273  1
  O  O43  1  0.35663478  0.18808616  0.56039076  1
  O  O44  1  0.85665246  0.31187821  0.56039623  1
  O  O45  1  0.19343855  0.44504241  0.50815784  1
  O  O46  1  0.69338731  0.05496278  0.50815004  1
  O  O47  1  0.06313059  0.08905901  0.58172682  1
  O  O48  1  0.80656486  0.55497738  0.49183694  1
  O  O49  1  0.64337147  0.81189878  0.43960071  1
  O  O50  1  0.19340433  0.05497774  0.99185112  1
  O  O51  1  0.43693353  0.58910383  0.41827300  1
  O  O52  1  0.30655644  0.55497954  0.00814008  1
  O  O53  1  0.14341592  0.81186323  0.06040077  1
  O  O54  1  0.64339399  0.68811376  0.06039334  1
  O  O55  1  0.80656349  0.94500456  0.00815245  1
  O  O56  1  0.14338893  0.68815174  0.43960985  1
  O  O57  1  0.85655883  0.18812419  0.93962072  1
  O  O58  1  0.06308683  0.41092164  0.91828816  1
  O  O59  1  0.35660711  0.31189794  0.93962754  1
  O  O60  1  0.43689899  0.91089980  0.08172584  1
  O  O61  1  0.93687405  0.91092639  0.41825442  1
  O  O62  1  0.30657836  0.94500497  0.49184657  1
  O  O63  1  0.93692885  0.58906307  0.08171647  1
