# generated using pymatgen
data_Fe5O7F3
_symmetry_space_group_name_H-M   'P 1'
_cell_length_a   4.67611808
_cell_length_b   4.67396445
_cell_length_c   15.20086895
_cell_angle_alpha   89.94573216
_cell_angle_beta   90.14462637
_cell_angle_gamma   91.65986320
_symmetry_Int_Tables_number   1
_chemical_formula_structural   Fe5O7F3
_chemical_formula_sum   'Fe10 O14 F6'
_cell_volume   332.08974919
_cell_formula_units_Z   2
loop_
 _symmetry_equiv_pos_site_id
 _symmetry_equiv_pos_as_xyz
  1  'x, y, z'
loop_
 _atom_site_type_symbol
 _atom_site_label
 _atom_site_symmetry_multiplicity
 _atom_site_fract_x
 _atom_site_fract_y
 _atom_site_fract_z
 _atom_site_occupancy
  Fe  Fe0  1  0.00019202  0.99574006  -0.00030015  1
  Fe  Fe1  1  0.99654057  0.99462415  0.20030067  1
  Fe  Fe2  1  0.02866234  0.00868451  0.40468504  1
  Fe  Fe3  1  0.02732386  0.00894521  0.59486379  1
  Fe  Fe4  1  0.01174297  0.97955752  0.79914917  1
  Fe  Fe5  1  0.52743169  0.46900694  0.09895554  1
  Fe  Fe6  1  0.49116573  0.47562820  0.50039307  1
  Fe  Fe7  1  0.46460906  0.51897305  0.29355845  1
  Fe  Fe8  1  0.47031205  0.51306085  0.70580684  1
  Fe  Fe9  1  0.47790839  0.51780990  0.90140528  1
  O  O10  1  0.18067715  0.81814870  0.29796314  1
  O  O11  1  0.21200452  0.80139101  0.50009816  1
  O  O12  1  0.18782183  0.81475551  0.69757530  1
  O  O13  1  0.18124463  0.81220916  0.90339188  1
  O  O14  1  0.31080828  0.30022114  -0.00004466  1
  O  O15  1  0.30553575  0.29466385  0.19602830  1
  O  O16  1  0.31259298  0.31883207  0.39599628  1
  O  O17  1  0.31293179  0.31450528  0.60443066  1
  O  O18  1  0.29439393  0.30750176  0.80487690  1
  O  O19  1  0.69431009  0.68524174  -0.00030515  1
  O  O20  1  0.69452248  0.68904303  0.19771431  1
  O  O21  1  0.68407982  0.69707965  0.80258438  1
  O  O22  1  0.82253038  0.17237518  0.09935120  1
  O  O23  1  0.81164618  0.19675499  0.50134602  1
  F  F24  1  0.20324437  0.78931424  0.09974069  1
  F  F25  1  0.69820618  0.70520445  0.39759990  1
  F  F26  1  0.70113084  0.70003396  0.60261766  1
  F  F27  1  0.79836705  0.20387232  0.30130018  1
  F  F28  1  0.79807636  0.19653912  0.89883595  1
  F  F29  1  0.79998670  0.20028147  0.70008019  1
