# generated using pymatgen
data_Ba3MgNb2O9
_symmetry_space_group_name_H-M   'P 1'
_cell_length_a   5.86239871
_cell_length_b   5.86239871
_cell_length_c   7.19450192
_cell_angle_alpha   90.00000000
_cell_angle_beta   90.00000000
_cell_angle_gamma   120.00000004
_symmetry_Int_Tables_number   1
_chemical_formula_structural   Ba3MgNb2O9
_chemical_formula_sum   'Ba3 Mg1 Nb2 O9'
_cell_volume   214.13224424
_cell_formula_units_Z   1
loop_
 _symmetry_equiv_pos_site_id
 _symmetry_equiv_pos_as_xyz
  1  'x, y, z'
loop_
 _atom_site_type_symbol
 _atom_site_label
 _atom_site_symmetry_multiplicity
 _atom_site_fract_x
 _atom_site_fract_y
 _atom_site_fract_z
 _atom_site_occupancy
  O  O0  1  0.82870984  0.17129016  0.67379303  1
  O  O1  1  0.82870984  0.65741967  0.67379303  1
  O  O2  1  0.34258033  0.17129016  0.67379303  1
  O  O3  1  0.65741967  0.82870984  0.32620697  1
  O  O4  1  0.17129016  0.34258033  0.32620697  1
  O  O5  1  0.17129016  0.82870984  0.32620697  1
  O  O6  1  0.50000000  0.00000000  0.00000000  1
  O  O7  1  0.00000000  0.50000000  0.00000000  1
  O  O8  1  0.50000000  0.50000000  0.00000000  1
  Mg  Mg9  1  0.00000000  0.00000000  0.50000000  1
  Nb  Nb10  1  0.33333333  0.66666667  0.17929902  1
  Nb  Nb11  1  0.66666667  0.33333333  0.82070098  1
  Ba  Ba12  1  0.00000000  0.00000000  0.00000000  1
  Ba  Ba13  1  0.33333333  0.66666667  0.66800524  1
  Ba  Ba14  1  0.66666667  0.33333333  0.33199476  1
