# generated using pymatgen
data_Co5(P2O7)4
_symmetry_space_group_name_H-M   'P 1'
_cell_length_a   6.55904925
_cell_length_b   8.20710365
_cell_length_c   10.19385678
_cell_angle_alpha   108.41130190
_cell_angle_beta   89.16775043
_cell_angle_gamma   93.94584419
_symmetry_Int_Tables_number   1
_chemical_formula_structural   Co5(P2O7)4
_chemical_formula_sum   'Co5 P8 O28'
_cell_volume   519.40604893
_cell_formula_units_Z   1
loop_
 _symmetry_equiv_pos_site_id
 _symmetry_equiv_pos_as_xyz
  1  'x, y, z'
loop_
 _atom_site_type_symbol
 _atom_site_label
 _atom_site_symmetry_multiplicity
 _atom_site_fract_x
 _atom_site_fract_y
 _atom_site_fract_z
 _atom_site_occupancy
  Co  Co0  1  0.27561341  0.88153327  0.61611094  1
  Co  Co1  1  0.33968224  0.87342338  0.06042330  1
  Co  Co2  1  0.50000000  0.50000000  0.00000000  1
  Co  Co3  1  0.66031776  0.12657662  0.93957670  1
  Co  Co4  1  0.72438659  0.11846673  0.38388906  1
  P  P5  1  0.16273762  0.20178056  0.01403089  1
  P  P6  1  0.19053905  0.18287423  0.30361432  1
  P  P7  1  0.27239468  0.55197031  0.74214616  1
  P  P8  1  0.47906808  0.75004761  0.31707906  1
  P  P9  1  0.52093192  0.24995239  0.68292094  1
  P  P10  1  0.72760432  0.44802969  0.25785384  1
  P  P11  1  0.80946095  0.81712577  0.69638568  1
  P  P12  1  0.83726238  0.79821944  0.98596911  1
  O  O13  1  0.03431222  0.85229308  0.06844339  1
  O  O14  1  0.01394538  0.09768274  0.36544886  1
  O  O15  1  0.07174995  0.45142991  0.73202491  1
  O  O16  1  0.09909241  0.21946908  0.17034744  1
  O  O17  1  0.25227212  0.37865305  0.01311914  1
  O  O18  1  0.24912201  0.35185899  0.41379561  1
  O  O19  1  0.28784369  0.68839362  0.66655554  1
  O  O20  1  0.30783188  0.80362271  0.42018147  1
  O  O21  1  0.35407265  0.64149814  0.89403838  1
  O  O22  1  0.33678863  0.11551086  0.65247123  1
  O  O23  1  0.33102795  0.06904584  0.97069065  1
  O  O24  1  0.41026225  0.70653418  0.16408196  1
  O  O25  1  0.36423644  0.06323263  0.25075079  1
  O  O26  1  0.45067448  0.42617551  0.67000165  1
  O  O27  1  0.54932552  0.57382449  0.32999835  1
  O  O28  1  0.63576356  0.93676737  0.74924921  1
  O  O29  1  0.58973775  0.29346582  0.83591804  1
  O  O30  1  0.66897205  0.93095416  0.02930935  1
  O  O31  1  0.66321137  0.88448914  0.34752877  1
  O  O32  1  0.64592735  0.35850186  0.10596162  1
  O  O33  1  0.69216812  0.19637729  0.57981853  1
  O  O34  1  0.71215631  0.31160638  0.33344446  1
  O  O35  1  0.75087799  0.64814101  0.58620439  1
  O  O36  1  0.74772788  0.62134695  0.98688086  1
  O  O37  1  0.90090759  0.78053092  0.82965256  1
  O  O38  1  0.92825005  0.54857009  0.26797509  1
  O  O39  1  0.98605462  0.90231726  0.63455114  1
  O  O40  1  0.96568778  0.14770692  0.93155661  1
