# generated using pymatgen
data_Mn7FeCl3O10
_symmetry_space_group_name_H-M   'P 1'
_cell_length_a   9.43894207
_cell_length_b   9.43894647
_cell_length_c   9.43893885
_cell_angle_alpha   59.99970800
_cell_angle_beta   59.99976846
_cell_angle_gamma   59.99973805
_symmetry_Int_Tables_number   1
_chemical_formula_structural   Mn7FeCl3O10
_chemical_formula_sum   'Mn14 Fe2 Cl6 O20'
_cell_volume   594.63770080
_cell_formula_units_Z   2
loop_
 _symmetry_equiv_pos_site_id
 _symmetry_equiv_pos_as_xyz
  1  'x, y, z'
loop_
 _atom_site_type_symbol
 _atom_site_label
 _atom_site_symmetry_multiplicity
 _atom_site_fract_x
 _atom_site_fract_y
 _atom_site_fract_z
 _atom_site_occupancy
  Mn  Mn0  1  0.00000111  0.35136084  0.64863450  1
  Mn  Mn1  1  0.64863215  0.00000336  0.35136220  1
  Mn  Mn2  1  0.00000205  0.35136327  -0.00000081  1
  Mn  Mn3  1  0.00000126  0.00000104  0.64863390  1
  Mn  Mn4  1  0.00000210  0.64863404  0.35136305  1
  Mn  Mn5  1  0.35136202  0.64863330  0.00000211  1
  Mn  Mn6  1  0.35136232  0.00000158  0.00000173  1
  Mn  Mn7  1  0.35136376  0.00000260  0.64863452  1
  Mn  Mn8  1  0.50000081  0.50000056  0.50000119  1
  Mn  Mn9  1  0.64863474  0.00000206  0.00000167  1
  Mn  Mn10  1  0.00000339  0.64863378  0.00000423  1
  Mn  Mn11  1  0.64863423  0.35136092  0.00000266  1
  Mn  Mn12  1  0.00000286  0.00000183  0.35136068  1
  Mn  Mn13  1  -0.00000055  0.00000541  0.99999843  1
  Fe  Fe14  1  0.24999905  0.24999786  0.25000111  1
  Fe  Fe15  1  0.74999803  0.75000178  0.74999856  1
  Cl  Cl16  1  0.30349147  0.30349086  0.69650895  1
  Cl  Cl17  1  0.69650879  0.69650716  0.30349144  1
  Cl  Cl18  1  0.69650883  0.30349059  0.69650920  1
  Cl  Cl19  1  0.69650935  0.30349072  0.30349011  1
  Cl  Cl20  1  0.30348947  0.69650955  0.69650977  1
  Cl  Cl21  1  0.30349143  0.69650985  0.30348994  1
  O  O22  1  0.90371899  0.90371897  0.59628121  1
  O  O23  1  0.90371917  0.59628001  0.59628149  1
  O  O24  1  0.89998576  0.89998544  0.30004244  1
  O  O25  1  0.59628070  0.90371907  0.59628034  1
  O  O26  1  0.59628191  0.90371920  0.90371909  1
  O  O27  1  0.09628641  0.40371254  0.09628633  1
  O  O28  1  0.09628547  0.09628647  0.40371304  1
  O  O29  1  0.59628109  0.59628018  0.90371871  1
  O  O30  1  0.69994842  0.10001786  0.10001770  1
  O  O31  1  0.30004265  0.89998466  0.89998548  1
  O  O32  1  0.10001727  0.10001721  0.10001668  1
  O  O33  1  0.40371386  0.09628673  0.40371425  1
  O  O34  1  0.90371907  0.59628216  0.90371944  1
  O  O35  1  0.10001723  0.10001695  0.69994878  1
  O  O36  1  0.40371402  0.40371330  0.09628702  1
  O  O37  1  0.89998517  0.30004307  0.89998523  1
  O  O38  1  0.09628661  0.40371347  0.40371406  1
  O  O39  1  0.89998570  0.89998583  0.89998585  1
  O  O40  1  0.10001838  0.69994827  0.10001798  1
  O  O41  1  0.40371344  0.09628563  0.09628571  1
