# generated using pymatgen
data_La2EuS4
_symmetry_space_group_name_H-M   'P 1'
_cell_length_a   7.58418936
_cell_length_b   7.58418921
_cell_length_c   7.58418932
_cell_angle_alpha   109.26701108
_cell_angle_beta   109.26701071
_cell_angle_gamma   109.88041359
_symmetry_Int_Tables_number   1
_chemical_formula_structural   La2EuS4
_chemical_formula_sum   'La4 Eu2 S8'
_cell_volume   335.80641677
_cell_formula_units_Z   2
loop_
 _symmetry_equiv_pos_site_id
 _symmetry_equiv_pos_as_xyz
  1  'x, y, z'
loop_
 _atom_site_type_symbol
 _atom_site_label
 _atom_site_symmetry_multiplicity
 _atom_site_fract_x
 _atom_site_fract_y
 _atom_site_fract_z
 _atom_site_occupancy
  Eu  Eu0  1  0.62500000  0.37500000  0.25000000  1
  Eu  Eu1  1  0.87500000  0.12500000  0.75000000  1
  La  La2  1  0.12180745  0.75000000  0.87180745  1
  La  La3  1  0.25000000  0.62180745  0.37180745  1
  La  La4  1  0.37819255  0.25000000  0.62819255  1
  La  La5  1  0.75000000  0.87819255  0.12819255  1
  S  S6  1  0.00307866  0.85122961  0.49934307  1
  S  S7  1  0.00373560  0.35188654  0.50065693  1
  S  S8  1  0.14877039  0.14811346  0.15184906  1
  S  S9  1  0.35122961  0.50307866  -0.00065693  1
  S  S10  1  0.49692134  -0.00373560  0.84815094  1
  S  S11  1  0.64811346  0.64877039  0.65184906  1
  S  S12  1  0.49626440  0.99692134  0.34815094  1
  S  S13  1  0.85188654  0.50373560  0.00065693  1
