# generated using pymatgen
data_GdGa2Co
_symmetry_space_group_name_H-M   'P 1'
_cell_length_a   3.98294751
_cell_length_b   4.13695830
_cell_length_c   9.21440860
_cell_angle_alpha   103.01970609
_cell_angle_beta   90.02325731
_cell_angle_gamma   89.99567098
_symmetry_Int_Tables_number   1
_chemical_formula_structural   GdGa2Co
_chemical_formula_sum   'Gd2 Ga4 Co2'
_cell_volume   147.92534071
_cell_formula_units_Z   2
loop_
 _symmetry_equiv_pos_site_id
 _symmetry_equiv_pos_as_xyz
  1  'x, y, z'
loop_
 _atom_site_type_symbol
 _atom_site_label
 _atom_site_symmetry_multiplicity
 _atom_site_fract_x
 _atom_site_fract_y
 _atom_site_fract_z
 _atom_site_occupancy
  Gd  Gd0  1  0.00153452  0.13846815  0.28192338  1
  Gd  Gd1  1  0.00200231  0.86088818  0.71774420  1
  Ga  Ga2  1  0.50244080  0.29202622  0.58286346  1
  Ga  Ga3  1  0.50286403  0.70810205  0.41691105  1
  Ga  Ga4  1  0.00176236  0.50062987  -0.00001864  1
  Ga  Ga5  1  0.50103872  0.00335338  0.99980724  1
  Co  Co6  1  0.50168958  0.42877992  0.85015165  1
  Co  Co7  1  0.50212969  0.57926423  0.14979565  1
