# generated using pymatgen
data_Hf2Nb3Ge4
_symmetry_space_group_name_H-M   'P 1'
_cell_length_a   6.82163990
_cell_length_b   6.98005089
_cell_length_c   13.26900599
_cell_angle_alpha   90.00000000
_cell_angle_beta   90.00000000
_cell_angle_gamma   90.00000000
_symmetry_Int_Tables_number   1
_chemical_formula_structural   Hf2Nb3Ge4
_chemical_formula_sum   'Hf8 Nb12 Ge16'
_cell_volume   631.80894363
_cell_formula_units_Z   4
loop_
 _symmetry_equiv_pos_site_id
 _symmetry_equiv_pos_as_xyz
  1  'x, y, z'
loop_
 _atom_site_type_symbol
 _atom_site_label
 _atom_site_symmetry_multiplicity
 _atom_site_fract_x
 _atom_site_fract_y
 _atom_site_fract_z
 _atom_site_occupancy
  Hf  Hf0  1  0.51268385  0.32537551  0.90906047  1
  Hf  Hf1  1  0.01268385  0.17462449  0.59093953  1
  Hf  Hf2  1  0.48731615  0.67462449  0.40906047  1
  Hf  Hf3  1  0.98731615  0.82537551  0.09093953  1
  Hf  Hf4  1  0.48731615  0.67462449  0.09093953  1
  Hf  Hf5  1  0.98731615  0.82537551  0.40906047  1
  Hf  Hf6  1  0.51268385  0.32537551  0.59093953  1
  Hf  Hf7  1  0.01268385  0.17462449  0.90906047  1
  Nb  Nb8  1  0.34128151  0.83515023  0.87541495  1
  Nb  Nb9  1  0.84128151  0.66484977  0.62458505  1
  Nb  Nb10  1  0.65871849  0.16484977  0.37541495  1
  Nb  Nb11  1  0.15871849  0.33515023  0.12458505  1
  Nb  Nb12  1  0.65871849  0.16484977  0.12458505  1
  Nb  Nb13  1  0.15871849  0.33515023  0.37541495  1
  Nb  Nb14  1  0.34128151  0.83515023  0.62458505  1
  Nb  Nb15  1  0.84128151  0.66484977  0.87541495  1
  Nb  Nb16  1  0.16629880  0.50482168  0.75000000  1
  Nb  Nb17  1  0.66629880  0.99517832  0.75000000  1
  Nb  Nb18  1  0.83370120  0.49517832  0.25000000  1
  Nb  Nb19  1  0.33370120  0.00482168  0.25000000  1
  Ge  Ge20  1  0.31587247  0.03821255  0.04071609  1
  Ge  Ge21  1  0.81587247  0.46178745  0.45928391  1
  Ge  Ge22  1  0.68412753  0.96178745  0.54071609  1
  Ge  Ge23  1  0.18412753  0.53821255  0.95928391  1
  Ge  Ge24  1  0.68412753  0.96178745  0.95928391  1
  Ge  Ge25  1  0.18412753  0.53821255  0.54071609  1
  Ge  Ge26  1  0.31587247  0.03821255  0.45928391  1
  Ge  Ge27  1  0.81587247  0.46178745  0.04071609  1
  Ge  Ge28  1  0.53866653  0.61288651  0.75000000  1
  Ge  Ge29  1  0.03866653  0.88711349  0.75000000  1
  Ge  Ge30  1  0.46133347  0.38711349  0.25000000  1
  Ge  Ge31  1  0.96133347  0.11288651  0.25000000  1
  Ge  Ge32  1  0.30936028  0.14928272  0.75000000  1
  Ge  Ge33  1  0.80936028  0.35071728  0.75000000  1
  Ge  Ge34  1  0.69063972  0.85071728  0.25000000  1
  Ge  Ge35  1  0.19063972  0.64928272  0.25000000  1
