# generated using pymatgen
data_Li15Fe15SiO32
_symmetry_space_group_name_H-M   'P 1'
_cell_length_a   10.63040386
_cell_length_b   10.67797101
_cell_length_c   6.68666200
_cell_angle_alpha   89.92110832
_cell_angle_beta   90.11705408
_cell_angle_gamma   89.54066444
_symmetry_Int_Tables_number   1
_chemical_formula_structural   Li15Fe15SiO32
_chemical_formula_sum   'Li15 Fe15 Si1 O32'
_cell_volume   758.98394312
_cell_formula_units_Z   1
loop_
 _symmetry_equiv_pos_site_id
 _symmetry_equiv_pos_as_xyz
  1  'x, y, z'
loop_
 _atom_site_type_symbol
 _atom_site_label
 _atom_site_symmetry_multiplicity
 _atom_site_fract_x
 _atom_site_fract_y
 _atom_site_fract_z
 _atom_site_occupancy
  Li  Li0  1  0.09535885  0.89945093  0.24524149  1
  Li  Li1  1  0.09472333  0.65028728  0.50447354  1
  Li  Li2  1  0.16172101  0.16738306  0.48567991  1
  Li  Li3  1  0.33914075  0.65807225  0.75026943  1
  Li  Li4  1  0.40031833  0.16675782  0.74667061  1
  Li  Li5  1  0.40664003  0.41063251  0.00185254  1
  Li  Li6  1  0.33780494  0.89460406  0.99747915  1
  Li  Li7  1  0.66042804  0.09518229  0.49859103  1
  Li  Li8  1  0.59658965  0.59413208  0.50046611  1
  Li  Li9  1  0.59668709  0.84118451  0.24911521  1
  Li  Li10  1  0.65819959  0.34177199  0.24994567  1
  Li  Li11  1  0.84110495  0.83902409  0.99912889  1
  Li  Li12  1  0.90623807  0.33921490  0.00345712  1
  Li  Li13  1  0.90648069  0.09600377  0.75152444  1
  Li  Li14  1  0.84071481  0.59467684  0.75087033  1
  Fe  Fe15  1  0.08997197  0.90949281  0.75365129  1
  Fe  Fe16  1  0.09537121  0.65933902  0.00351477  1
  Fe  Fe17  1  0.16650501  0.39888936  0.75518559  1
  Fe  Fe18  1  0.34240880  0.66354292  0.25300241  1
  Fe  Fe19  1  0.33843283  0.91032941  0.49900709  1
  Fe  Fe20  1  0.40402712  0.16523490  0.24804782  1
  Fe  Fe21  1  0.41344928  0.41512468  0.49907738  1
  Fe  Fe22  1  0.59106261  0.59073888  0.99926354  1
  Fe  Fe23  1  0.59544108  0.83801322  0.74732228  1
  Fe  Fe24  1  0.66177454  0.09214617  0.99611140  1
  Fe  Fe25  1  0.66162384  0.33957026  0.75135482  1
  Fe  Fe26  1  0.84236101  0.84065212  0.49890322  1
  Fe  Fe27  1  0.83924977  0.59358151  0.25069355  1
  Fe  Fe28  1  0.90828394  0.33845355  0.50069840  1
  Fe  Fe29  1  0.91062837  0.08996470  0.24459224  1
  Si  Si30  1  0.15424266  0.15530789  -0.00013155  1
  O  O31  1  0.08365893  0.33270085  0.53118553  1
  O  O32  1  0.09174958  0.09862995  0.20860886  1
  O  O33  1  0.10070280  0.08750828  0.79220562  1
  O  O34  1  0.10956078  0.30259569  0.98085317  1
  O  O35  1  0.15713776  0.83116717  0.98381596  1
  O  O36  1  0.15471402  0.57757558  0.76749919  1
  O  O37  1  0.17062280  0.61704118  0.24744998  1
  O  O38  1  0.16605090  0.85409683  0.51351141  1
  O  O39  1  0.34053060  0.34902469  0.73690136  1
  O  O40  1  0.30702545  0.11617898  0.01062376  1
  O  O41  1  0.33904306  0.08970024  0.48596897  1
  O  O42  1  0.36529100  0.33607755  0.26033415  1
  O  O43  1  0.40248147  0.83676721  0.26060662  1
  O  O44  1  0.40633291  0.59364236  0.49404083  1
  O  O45  1  0.41258679  0.60272135  0.00929178  1
  O  O46  1  0.41591253  0.85007345  0.73864410  1
  O  O47  1  0.58252016  0.14851282  0.23512735  1
  O  O48  1  0.59359872  0.40407193  0.51069251  1
  O  O49  1  0.59999728  0.41261923  0.99039188  1
  O  O50  1  0.59666879  0.16839718  0.75980406  1
  O  O51  1  0.65594951  0.66718722  0.76167453  1
  O  O52  1  0.65763024  0.91369905  0.98657217  1
  O  O53  1  0.67088522  0.90213878  0.50952587  1
  O  O54  1  0.66725986  0.65524725  0.23737366  1
  O  O55  1  0.83218027  0.15556739  0.01056749  1
  O  O56  1  0.83331307  0.39999159  0.74168177  1
  O  O57  1  0.84546615  0.41512424  0.26135635  1
  O  O58  1  0.85035921  0.16452401  0.48404757  1
  O  O59  1  0.90200143  0.66934835  0.49030040  1
  O  O60  1  0.90558553  0.91272402  0.25792837  1
  O  O61  1  0.91186193  0.90544177  0.74019601  1
  O  O62  1  0.91513809  0.65594302  0.01196000  1
