# generated using pymatgen
data_EuPPt
_symmetry_space_group_name_H-M   'P 1'
_cell_length_a   4.14243746
_cell_length_b   4.14932729
_cell_length_c   8.62218329
_cell_angle_alpha   89.99999998
_cell_angle_beta   89.98734258
_cell_angle_gamma   120.05503580
_symmetry_Int_Tables_number   1
_chemical_formula_structural   EuPPt
_chemical_formula_sum   'Eu2 P2 Pt2'
_cell_volume   128.27452190
_cell_formula_units_Z   2
loop_
 _symmetry_equiv_pos_site_id
 _symmetry_equiv_pos_as_xyz
  1  'x, y, z'
loop_
 _atom_site_type_symbol
 _atom_site_label
 _atom_site_symmetry_multiplicity
 _atom_site_fract_x
 _atom_site_fract_y
 _atom_site_fract_z
 _atom_site_occupancy
  Eu  Eu0  1  0.00000000  -0.00000000  -0.00000000  1
  Eu  Eu1  1  0.00000000  -0.00000000  0.50000000  1
  P  P2  1  0.33351379  0.66675690  0.24988015  1
  P  P3  1  0.66648621  0.33324310  0.75011985  1
  Pt  Pt4  1  0.66651841  0.33325920  0.25340054  1
  Pt  Pt5  1  0.33348159  0.66674080  0.74659946  1
