# generated using pymatgen
data_Cs2LiGaF6
_symmetry_space_group_name_H-M   'P 1'
_cell_length_a   6.36087573
_cell_length_b   6.36087573
_cell_length_c   5.17959732
_cell_angle_alpha   90.00000000
_cell_angle_beta   90.00000000
_cell_angle_gamma   120.00000005
_symmetry_Int_Tables_number   1
_chemical_formula_structural   Cs2LiGaF6
_chemical_formula_sum   'Cs2 Li1 Ga1 F6'
_cell_volume   181.49323888
_cell_formula_units_Z   1
loop_
 _symmetry_equiv_pos_site_id
 _symmetry_equiv_pos_as_xyz
  1  'x, y, z'
loop_
 _atom_site_type_symbol
 _atom_site_label
 _atom_site_symmetry_multiplicity
 _atom_site_fract_x
 _atom_site_fract_y
 _atom_site_fract_z
 _atom_site_occupancy
  Li  Li0  1  0.00000000  0.00000000  0.50000000  1
  F  F1  1  0.27670411  0.13835205  0.22929005  1
  F  F2  1  0.86164795  0.13835205  0.22929005  1
  F  F3  1  0.86164795  0.72329589  0.22929005  1
  F  F4  1  0.13835205  0.86164795  0.77070995  1
  F  F5  1  0.13835205  0.27670411  0.77070995  1
  F  F6  1  0.72329589  0.86164795  0.77070995  1
  Ga  Ga7  1  0.00000000  0.00000000  0.00000000  1
  Cs  Cs8  1  0.66666667  0.33333333  0.73177031  1
  Cs  Cs9  1  0.33333333  0.66666667  0.26822969  1
