# generated using pymatgen
data_Ba14Na14CaN6
_symmetry_space_group_name_H-M   'P 1'
_cell_length_a   12.63522718
_cell_length_b   12.63522718
_cell_length_c   12.63522718
_cell_angle_alpha   60.00000000
_cell_angle_beta   60.00000000
_cell_angle_gamma   59.99999998
_symmetry_Int_Tables_number   1
_chemical_formula_structural   Ba14Na14CaN6
_chemical_formula_sum   'Ba14 Na14 Ca1 N6'
_cell_volume   1426.37647264
_cell_formula_units_Z   1
loop_
 _symmetry_equiv_pos_site_id
 _symmetry_equiv_pos_as_xyz
  1  'x, y, z'
loop_
 _atom_site_type_symbol
 _atom_site_label
 _atom_site_symmetry_multiplicity
 _atom_site_fract_x
 _atom_site_fract_y
 _atom_site_fract_z
 _atom_site_occupancy
  N  N0  1  0.85530874  0.14469126  0.14469126  1
  N  N1  1  0.85530874  0.14469126  0.85530874  1
  N  N2  1  0.14469126  0.85530874  0.14469126  1
  N  N3  1  0.85530874  0.85530874  0.14469126  1
  N  N4  1  0.14469126  0.14469126  0.85530874  1
  N  N5  1  0.14469126  0.85530874  0.85530874  1
  Na  Na6  1  0.67114295  0.67114295  0.67114295  1
  Na  Na7  1  0.32885705  0.32885705  0.01342886  1
  Na  Na8  1  0.32885705  0.01342886  0.32885705  1
  Na  Na9  1  0.01342886  0.32885705  0.32885705  1
  Na  Na10  1  0.67114295  0.98657114  0.67114295  1
  Na  Na11  1  0.98657114  0.67114295  0.67114295  1
  Na  Na12  1  0.67114295  0.67114295  0.98657114  1
  Na  Na13  1  0.32885705  0.32885705  0.32885705  1
  Na  Na14  1  0.00000000  0.00000000  0.50000000  1
  Na  Na15  1  0.50000000  0.50000000  0.00000000  1
  Na  Na16  1  0.50000000  0.00000000  0.00000000  1
  Na  Na17  1  0.00000000  0.50000000  0.50000000  1
  Na  Na18  1  0.50000000  0.00000000  0.50000000  1
  Na  Na19  1  0.00000000  0.50000000  0.00000000  1
  Ca  Ca20  1  0.00000000  0.00000000  0.00000000  1
  Ba  Ba21  1  0.89301238  0.89301238  0.89301238  1
  Ba  Ba22  1  0.10698762  0.10698762  0.67903714  1
  Ba  Ba23  1  0.10698762  0.67903714  0.10698762  1
  Ba  Ba24  1  0.67903714  0.10698762  0.10698762  1
  Ba  Ba25  1  0.89301238  0.32096286  0.89301238  1
  Ba  Ba26  1  0.32096286  0.89301238  0.89301238  1
  Ba  Ba27  1  0.89301238  0.89301238  0.32096286  1
  Ba  Ba28  1  0.10698762  0.10698762  0.10698762  1
  Ba  Ba29  1  0.71376913  0.28623087  0.28623087  1
  Ba  Ba30  1  0.71376913  0.28623087  0.71376913  1
  Ba  Ba31  1  0.28623087  0.71376913  0.28623087  1
  Ba  Ba32  1  0.71376913  0.71376913  0.28623087  1
  Ba  Ba33  1  0.28623087  0.28623087  0.71376913  1
  Ba  Ba34  1  0.28623087  0.71376913  0.71376913  1
