# generated using pymatgen
data_PbO
_symmetry_space_group_name_H-M   'P 1'
_cell_length_a   5.40601694
_cell_length_b   5.74551440
_cell_length_c   45.93145454
_cell_angle_alpha   90.00000000
_cell_angle_beta   90.00000000
_cell_angle_gamma   90.00000000
_symmetry_Int_Tables_number   1
_chemical_formula_structural   PbO
_chemical_formula_sum   'Pb32 O32'
_cell_volume   1426.64697022
_cell_formula_units_Z   32
loop_
 _symmetry_equiv_pos_site_id
 _symmetry_equiv_pos_as_xyz
  1  'x, y, z'
loop_
 _atom_site_type_symbol
 _atom_site_label
 _atom_site_symmetry_multiplicity
 _atom_site_fract_x
 _atom_site_fract_y
 _atom_site_fract_z
 _atom_site_occupancy
  Pb  Pb0  1  0.22065976  0.76657398  0.12502641  1
  Pb  Pb1  1  0.22056558  0.22853646  0.93750810  1
  Pb  Pb2  1  0.77934024  0.23342602  0.87497359  1
  Pb  Pb3  1  0.77944762  0.74483761  0.18749251  1
  Pb  Pb4  1  0.77886666  0.22876547  0.25000000  1
  Pb  Pb5  1  0.77943442  0.72853646  0.56249190  1
  Pb  Pb6  1  0.77943442  0.77146354  0.06249190  1
  Pb  Pb7  1  0.22055238  0.25516239  0.81250749  1
  Pb  Pb8  1  0.77886666  0.27123453  0.75000000  1
  Pb  Pb9  1  0.22113334  0.72876547  0.25000000  1
  Pb  Pb10  1  0.22113334  0.77123453  0.75000000  1
  Pb  Pb11  1  0.77944762  0.75516239  0.81250749  1
  Pb  Pb12  1  0.22056558  0.27146354  0.43750810  1
  Pb  Pb13  1  0.77934024  0.26657398  0.37497359  1
  Pb  Pb14  1  0.22065976  0.73342602  0.87497359  1
  Pb  Pb15  1  0.22065976  0.76657398  0.37497359  1
  Pb  Pb16  1  0.77967777  0.25000000  0.50000000  1
  Pb  Pb17  1  0.22065976  0.73342602  0.62502641  1
  Pb  Pb18  1  0.22032223  0.75000000  -0.00000000  1
  Pb  Pb19  1  0.22032223  0.75000000  0.50000000  1
  Pb  Pb20  1  0.22055238  0.25516239  0.68749251  1
  Pb  Pb21  1  0.77967777  0.25000000  -0.00000000  1
  Pb  Pb22  1  0.77943442  0.72853646  0.93750810  1
  Pb  Pb23  1  0.77943442  0.77146354  0.43750810  1
  Pb  Pb24  1  0.77944762  0.74483761  0.31250749  1
  Pb  Pb25  1  0.77934024  0.23342602  0.62502641  1
  Pb  Pb26  1  0.77934024  0.26657398  0.12502641  1
  Pb  Pb27  1  0.22056558  0.22853646  0.56249190  1
  Pb  Pb28  1  0.22055238  0.24483761  0.18749251  1
  Pb  Pb29  1  0.22056558  0.27146354  0.06249190  1
  Pb  Pb30  1  0.77944762  0.75516239  0.68749251  1
  Pb  Pb31  1  0.22055238  0.24483761  0.31250749  1
  O  O32  1  0.99693566  0.97604625  0.90623127  1
  O  O33  1  0.99157864  0.48167229  0.28125398  1
  O  O34  1  0.99157864  0.01832771  0.71874602  1
  O  O35  1  0.00842136  0.98167229  0.21874602  1
  O  O36  1  0.00842136  0.51832771  0.78125398  1
  O  O37  1  0.00306434  0.47604625  0.59376873  1
  O  O38  1  0.99157864  0.48167229  0.21874602  1
  O  O39  1  0.98946436  0.00755007  0.15627171  1
  O  O40  1  0.98918505  0.98554575  0.53123394  1
  O  O41  1  0.99157864  0.01832771  0.78125398  1
  O  O42  1  0.01081495  0.01445425  0.46876606  1
  O  O43  1  0.01081495  0.48554575  0.53123394  1
  O  O44  1  0.98946436  0.49244993  0.65627171  1
  O  O45  1  0.98918505  0.51445425  0.46876606  1
  O  O46  1  0.01081495  0.01445425  0.03123394  1
  O  O47  1  0.01053564  0.99244993  0.65627171  1
  O  O48  1  0.01081495  0.48554575  0.96876606  1
  O  O49  1  0.98946436  0.00755007  0.34372829  1
  O  O50  1  0.00306434  0.47604625  0.90623127  1
  O  O51  1  0.00842136  0.98167229  0.28125398  1
  O  O52  1  0.98918505  0.98554575  0.96876606  1
  O  O53  1  0.98946436  0.49244993  0.84372829  1
  O  O54  1  0.99693566  0.52395375  0.40623127  1
  O  O55  1  0.99693566  0.97604625  0.59376873  1
  O  O56  1  0.98918505  0.51445425  0.03123394  1
  O  O57  1  0.01053564  0.99244993  0.84372829  1
  O  O58  1  0.01053564  0.50755007  0.15627171  1
  O  O59  1  0.99693566  0.52395375  0.09376873  1
  O  O60  1  0.00306434  0.02395375  0.40623127  1
  O  O61  1  0.00306434  0.02395375  0.09376873  1
  O  O62  1  0.00842136  0.51832771  0.71874602  1
  O  O63  1  0.01053564  0.50755007  0.34372829  1
