# generated using pymatgen
data_V12P7
_symmetry_space_group_name_H-M   'P 1'
_cell_length_a   9.31298390
_cell_length_b   9.31298372
_cell_length_c   3.22405960
_cell_angle_alpha   90.00000000
_cell_angle_beta   90.00000000
_cell_angle_gamma   120.00000060
_symmetry_Int_Tables_number   1
_chemical_formula_structural   V12P7
_chemical_formula_sum   'V12 P7'
_cell_volume   242.16500655
_cell_formula_units_Z   1
loop_
 _symmetry_equiv_pos_site_id
 _symmetry_equiv_pos_as_xyz
  1  'x, y, z'
loop_
 _atom_site_type_symbol
 _atom_site_label
 _atom_site_symmetry_multiplicity
 _atom_site_fract_x
 _atom_site_fract_y
 _atom_site_fract_z
 _atom_site_occupancy
  V  V0  1  0.19872839  0.99335119  0.25000000  1
  V  V1  1  0.13234881  0.62150728  0.25000000  1
  V  V2  1  0.00664881  0.20537720  0.25000000  1
  V  V3  1  0.48915847  0.86765119  0.25000000  1
  V  V4  1  0.26510623  0.25172366  0.75000000  1
  V  V5  1  0.37849272  0.51084153  0.25000000  1
  V  V6  1  0.79462280  0.80127161  0.25000000  1
  V  V7  1  0.62635993  0.49734886  0.75000000  1
  V  V8  1  0.50265114  0.12901107  0.75000000  1
  V  V9  1  0.98661743  0.73489377  0.75000000  1
  V  V10  1  0.87098893  0.37364007  0.75000000  1
  V  V11  1  0.74827634  0.01338257  0.75000000  1
  P  P12  1  0.28394928  0.84126656  0.75000000  1
  P  P13  1  0.15873344  0.44268272  0.75000000  1
  P  P14  1  0.55731728  0.71605072  0.75000000  1
  P  P15  1  0.46248578  0.29121716  0.25000000  1
  P  P16  1  0.00000000  0.00000000  0.75000000  1
  P  P17  1  0.82873138  0.53751422  0.25000000  1
  P  P18  1  0.70878284  0.17126862  0.25000000  1
