# generated using pymatgen
data_La21Fe8Bi7C12
_symmetry_space_group_name_H-M   'P 1'
_cell_length_a   11.66424761
_cell_length_b   11.66348647
_cell_length_c   11.66350671
_cell_angle_alpha   60.00071267
_cell_angle_beta   60.00274764
_cell_angle_gamma   60.00289332
_symmetry_Int_Tables_number   1
_chemical_formula_structural   La21Fe8Bi7C12
_chemical_formula_sum   'La21 Fe8 Bi7 C12'
_cell_volume   1122.07043211
_cell_formula_units_Z   1
loop_
 _symmetry_equiv_pos_site_id
 _symmetry_equiv_pos_as_xyz
  1  'x, y, z'
loop_
 _atom_site_type_symbol
 _atom_site_label
 _atom_site_symmetry_multiplicity
 _atom_site_fract_x
 _atom_site_fract_y
 _atom_site_fract_z
 _atom_site_occupancy
  La  La0  1  0.34216807  0.99997377  0.99996270  1
  La  La1  1  0.65784130  0.34212190  0.00001770  1
  La  La2  1  0.36260548  0.36257485  0.36256021  1
  La  La3  1  0.34215463  0.65787906  0.99998374  1
  La  La4  1  0.99997156  0.99997497  0.34212296  1
  La  La5  1  0.08781242  0.63741704  0.63737994  1
  La  La6  1  0.36262750  0.91222960  0.36258224  1
  La  La7  1  0.65787390  0.00000003  0.34213498  1
  La  La8  1  0.65786484  0.00000978  0.00000078  1
  La  La9  1  0.63737777  0.63743929  0.08777017  1
  La  La10  1  0.99999838  0.34211144  0.99998948  1
  La  La11  1  0.63739774  0.08773912  0.63742462  1
  La  La12  1  0.99999197  0.65791323  0.34210894  1
  La  La13  1  -0.00000022  0.65790623  0.99999218  1
  La  La14  1  0.91218282  0.36262234  0.36260758  1
  La  La15  1  0.63738377  0.63744878  0.63740994  1
  La  La16  1  0.00000794  0.34210363  0.65788216  1
  La  La17  1  0.99999095  -0.00000346  0.65790288  1
  La  La18  1  0.36262526  0.36259375  0.91222402  1
  La  La19  1  0.34215781  0.99998614  0.65787810  1
  La  La20  1  0.50000387  0.50000455  0.49999595  1
  Fe  Fe21  1  0.80364631  0.58908888  0.80361949  1
  Fe  Fe22  1  0.19639539  0.41081297  0.19640225  1
  Fe  Fe23  1  0.80361290  0.80364169  0.80358779  1
  Fe  Fe24  1  0.41084407  0.19636867  0.19641558  1
  Fe  Fe25  1  0.58909740  0.80363273  0.80362477  1
  Fe  Fe26  1  0.19635891  0.19634185  0.41093692  1
  Fe  Fe27  1  0.19638192  0.19635120  0.19639817  1
  Fe  Fe28  1  0.80361560  0.80364129  0.58912494  1
  Bi  Bi29  1  0.29091314  0.70909167  0.70907426  1
  Bi  Bi30  1  0.70909189  0.29092279  0.70906743  1
  Bi  Bi31  1  0.29091666  0.29092864  0.70907321  1
  Bi  Bi32  1  0.70908868  0.70908358  0.29091359  1
  Bi  Bi33  1  0.00000311  0.00000638  -0.00000734  1
  Bi  Bi34  1  0.29091598  0.70908857  0.29091882  1
  Bi  Bi35  1  0.70908831  0.29092387  0.29091460  1
  C  C36  1  0.89138425  0.60860712  0.60861451  1
  C  C37  1  0.60863681  0.89138603  0.60861009  1
  C  C38  1  0.10862037  0.10861239  0.39138666  1
  C  C39  1  0.89137850  0.89140668  0.60861287  1
  C  C40  1  0.39135571  0.10861542  0.10861610  1
  C  C41  1  0.39137425  0.39140654  0.10861776  1
  C  C42  1  0.10862778  0.39136677  0.39140341  1
  C  C43  1  0.10860732  0.39138617  0.10859416  1
  C  C44  1  0.60863970  0.60860263  0.89137638  1
  C  C45  1  0.39133737  0.10863594  0.39140795  1
  C  C46  1  0.60863632  0.89139525  0.89137022  1
  C  C47  1  0.89139361  0.60860824  0.89139415  1
