# generated using pymatgen
data_Sr11In3Ga4
_symmetry_space_group_name_H-M   'P 1'
_cell_length_a   12.34493240
_cell_length_b   12.34468276
_cell_length_c   12.34454443
_cell_angle_alpha   59.99963492
_cell_angle_beta   59.99886820
_cell_angle_gamma   60.00032685
_symmetry_Int_Tables_number   1
_chemical_formula_structural   Sr11In3Ga4
_chemical_formula_sum   'Sr22 In6 Ga8'
_cell_volume   1330.22430459
_cell_formula_units_Z   2
loop_
 _symmetry_equiv_pos_site_id
 _symmetry_equiv_pos_as_xyz
  1  'x, y, z'
loop_
 _atom_site_type_symbol
 _atom_site_label
 _atom_site_symmetry_multiplicity
 _atom_site_fract_x
 _atom_site_fract_y
 _atom_site_fract_z
 _atom_site_occupancy
  Sr  Sr0  1  0.16461986  0.50002445  0.49999132  1
  Sr  Sr1  1  0.16462804  0.83537381  0.49998177  1
  Sr  Sr2  1  0.49999518  0.49998928  0.16465125  1
  Sr  Sr3  1  0.13264316  0.13264163  0.60203924  1
  Sr  Sr4  1  0.86736073  0.86732273  0.39795857  1
  Sr  Sr5  1  0.13264276  0.60204318  0.13265822  1
  Sr  Sr6  1  0.83536123  0.16465285  0.49998787  1
  Sr  Sr7  1  0.13265568  0.13267378  0.13263272  1
  Sr  Sr8  1  0.60204599  0.13267782  0.13263876  1
  Sr  Sr9  1  0.50001944  0.49997588  0.50001048  1
  Sr  Sr10  1  0.49998361  0.83535138  0.16463689  1
  Sr  Sr11  1  0.49999809  0.83537198  0.49997914  1
  Sr  Sr12  1  0.16464508  0.50001168  0.83537670  1
  Sr  Sr13  1  0.50000804  0.49999863  0.83536473  1
  Sr  Sr14  1  0.86734248  0.39797165  0.86733955  1
  Sr  Sr15  1  0.83537792  0.49998487  0.49998490  1
  Sr  Sr16  1  0.50001097  0.16463493  0.83535527  1
  Sr  Sr17  1  0.49999174  0.16464366  0.50001280  1
  Sr  Sr18  1  0.83538873  0.50002293  0.16460932  1
  Sr  Sr19  1  0.39796352  0.86735327  0.86732968  1
  Sr  Sr20  1  0.00000795  0.99999961  0.99998871  1
  Sr  Sr21  1  0.86734101  0.86736714  0.86732323  1
  In  In22  1  0.21722645  0.78275004  0.21722221  1
  In  In23  1  0.21722197  0.78271801  0.78284128  1
  In  In24  1  0.21724006  0.21722408  0.78272171  1
  In  In25  1  0.78276359  0.21718965  0.78275102  1
  In  In26  1  0.78283795  0.21718340  0.21723859  1
  In  In27  1  0.78270255  0.78281743  0.21729768  1
  Ga  Ga28  1  0.30621642  0.08137126  0.30622191  1
  Ga  Ga29  1  0.69379356  0.69377410  0.69379086  1
  Ga  Ga30  1  0.91862304  0.69376151  0.69382249  1
  Ga  Ga31  1  0.08136952  0.30621017  0.30622945  1
  Ga  Ga32  1  0.30624706  0.30618045  0.08136072  1
  Ga  Ga33  1  0.69374469  0.69380983  0.91865642  1
  Ga  Ga34  1  0.30619981  0.30624411  0.30622340  1
  Ga  Ga35  1  0.69378214  0.91867885  0.69377115  1
