# generated using pymatgen
data_Na(Ce2Se3)4
_symmetry_space_group_name_H-M   'P 1'
_cell_length_a   23.23537728
_cell_length_b   8.93325275
_cell_length_c   8.93325331
_cell_angle_alpha   90.00000000
_cell_angle_beta   54.78111425
_cell_angle_gamma   54.78111465
_symmetry_Int_Tables_number   1
_chemical_formula_structural   Na(Ce2Se3)4
_chemical_formula_sum   'Na2 Ce16 Se24'
_cell_volume   1072.95493586
_cell_formula_units_Z   2
loop_
 _symmetry_equiv_pos_site_id
 _symmetry_equiv_pos_as_xyz
  1  'x, y, z'
loop_
 _atom_site_type_symbol
 _atom_site_label
 _atom_site_symmetry_multiplicity
 _atom_site_fract_x
 _atom_site_fract_y
 _atom_site_fract_z
 _atom_site_occupancy
  Na  Na0  1  0.41666700  0.62500000  0.37500000  1
  Na  Na1  1  0.91666700  0.87500000  0.12500000  1
  Ce  Ce2  1  0.99750311  0.12464147  0.75572086  1
  Ce  Ce3  1  0.08335090  0.62497315  0.37497315  1
  Ce  Ce4  1  0.16666700  0.25000000  0.62899962  1
  Ce  Ce5  1  0.33582989  0.37535853  0.24823020  1
  Ce  Ce6  1  0.24998210  0.87502685  0.12502685  1
  Ce  Ce7  1  0.33582989  0.11715081  0.74427914  1
  Ce  Ce8  1  0.16666700  0.75000000  0.87100038  1
  Ce  Ce9  1  0.49750311  0.25572086  0.62464147  1
  Ce  Ce10  1  0.58335090  0.87497315  0.12497315  1
  Ce  Ce11  1  0.66666700  0.37100038  0.25000000  1
  Ce  Ce12  1  0.66666700  0.12899962  0.75000000  1
  Ce  Ce13  1  0.49750311  0.75176980  0.88284919  1
  Ce  Ce14  1  0.74998210  0.62502685  0.37502685  1
  Ce  Ce15  1  0.83582989  0.24427914  0.61715081  1
  Ce  Ce16  1  0.99750311  0.38284919  0.25176980  1
  Ce  Ce17  1  0.83582989  0.74823020  0.87535853  1
  Se  Se18  1  0.05055897  0.99964798  0.34892755  1
  Se  Se19  1  0.12212811  0.49184485  0.99669164  1
  Se  Se20  1  0.05055897  0.34867410  0.49939453  1
  Se  Se21  1  0.28277403  0.15132590  0.15107245  1
  Se  Se22  1  0.28277403  0.50035202  0.00060547  1
  Se  Se23  1  0.21120489  0.00815515  0.86307697  1
  Se  Se24  1  0.12212811  0.64176983  0.63692303  1
  Se  Se25  1  0.38424525  0.00073265  0.34607108  1
  Se  Se26  1  0.21120489  0.85823017  0.50330836  1
  Se  Se27  1  0.44908875  0.49880585  -0.00073265  1
  Se  Se28  1  0.38424525  0.34653259  0.50119415  1
  Se  Se29  1  0.62212811  0.13692303  0.14176983  1
  Se  Se30  1  0.62212811  0.49669164  0.99184485  1
  Se  Se31  1  0.55055897  0.99939453  0.84867410  1
  Se  Se32  1  0.44908875  0.65392892  0.65346741  1
  Se  Se33  1  0.71120489  0.00330836  0.35823017  1
  Se  Se34  1  0.55055897  0.84892755  0.49964798  1
  Se  Se35  1  0.78277403  0.50060547  0.00035202  1
  Se  Se36  1  0.71120489  0.36307697  0.50815515  1
  Se  Se37  1  0.94908875  0.15346741  0.15392892  1
  Se  Se38  1  0.94908875  0.49926735  0.99880585  1
  Se  Se39  1  0.88424525  0.00119415  0.84653259  1
  Se  Se40  1  0.78277403  0.65107245  0.65132590  1
  Se  Se41  1  0.88424525  0.84607108  0.50073265  1
