# generated using pymatgen
data_CsH3(SeO4)2
_symmetry_space_group_name_H-M   'P 1'
_cell_length_a   8.20113863
_cell_length_b   13.53541997
_cell_length_c   9.04131562
_cell_angle_alpha   90.00000000
_cell_angle_beta   90.22794143
_cell_angle_gamma   90.00000000
_symmetry_Int_Tables_number   1
_chemical_formula_structural   CsH3(SeO4)2
_chemical_formula_sum   'Cs4 H12 Se8 O32'
_cell_volume   1003.63103317
_cell_formula_units_Z   4
loop_
 _symmetry_equiv_pos_site_id
 _symmetry_equiv_pos_as_xyz
  1  'x, y, z'
loop_
 _atom_site_type_symbol
 _atom_site_label
 _atom_site_symmetry_multiplicity
 _atom_site_fract_x
 _atom_site_fract_y
 _atom_site_fract_z
 _atom_site_occupancy
  Cs  Cs0  1  0.23973041  0.42302533  0.70167998  1
  Cs  Cs1  1  0.23973041  0.07697467  0.20167998  1
  Cs  Cs2  1  0.76026959  0.92302533  0.79832002  1
  Cs  Cs3  1  0.76026959  0.57697467  0.29832002  1
  H  H4  1  0.03595564  0.63429498  0.58280898  1
  H  H5  1  0.03595564  0.86570502  0.08280898  1
  H  H6  1  0.33544014  0.95251382  0.62624846  1
  H  H7  1  0.33544014  0.54748618  0.12624846  1
  H  H8  1  0.79159556  0.14958669  0.61852310  1
  H  H9  1  0.20840444  0.64958669  0.88147690  1
  H  H10  1  0.79159556  0.35041331  0.11852310  1
  H  H11  1  0.20840444  0.85041331  0.38147690  1
  H  H12  1  0.66455986  0.45251382  0.87375154  1
  H  H13  1  0.66455986  0.04748618  0.37375154  1
  H  H14  1  0.96404436  0.13429498  0.91719102  1
  H  H15  1  0.96404436  0.36570502  0.41719102  1
  Se  Se16  1  0.24177407  0.81151769  0.83062274  1
  Se  Se17  1  0.27164120  0.11645812  0.67489977  1
  Se  Se18  1  0.24177407  0.68848231  0.33062274  1
  Se  Se19  1  0.27164120  0.38354188  0.17489977  1
  Se  Se20  1  0.72835880  0.61645812  0.82510023  1
  Se  Se21  1  0.75822593  0.31151769  0.66937726  1
  Se  Se22  1  0.72835880  0.88354188  0.32510023  1
  Se  Se23  1  0.75822593  0.18848231  0.16937726  1
  O  O24  1  0.07281299  0.81471009  0.73233828  1
  O  O25  1  0.05692435  0.08232252  0.73364174  1
  O  O26  1  0.07281299  0.68528991  0.23233828  1
  O  O27  1  0.05692435  0.41767748  0.23364174  1
  O  O28  1  0.22247872  0.84768118  0.00431966  1
  O  O29  1  0.22247872  0.65231882  0.50431966  1
  O  O30  1  0.24486423  0.20105335  0.54795523  1
  O  O31  1  0.24486423  0.29894665  0.04795523  1
  O  O32  1  0.30444615  0.68370113  0.84129900  1
  O  O33  1  0.30255832  0.01010299  0.56028847  1
  O  O34  1  0.30444615  0.81629887  0.34129900  1
  O  O35  1  0.30255832  0.48989701  0.06028847  1
  O  O36  1  0.39961407  0.86487008  0.74792463  1
  O  O37  1  0.06185816  0.09153666  0.89525592  1
  O  O38  1  0.39961407  0.63512992  0.24792463  1
  O  O39  1  0.06185816  0.40846334  0.39525592  1
  O  O40  1  0.93814184  0.59153666  0.60474408  1
  O  O41  1  0.60038593  0.36487008  0.75207537  1
  O  O42  1  0.93814184  0.90846334  0.10474408  1
  O  O43  1  0.60038593  0.13512992  0.25207537  1
  O  O44  1  0.69744168  0.51010299  0.93971153  1
  O  O45  1  0.69555385  0.18370113  0.65870100  1
  O  O46  1  0.69744168  0.98989701  0.43971153  1
  O  O47  1  0.69555385  0.31629887  0.15870100  1
  O  O48  1  0.75513577  0.70105335  0.95204477  1
  O  O49  1  0.75513577  0.79894665  0.45204477  1
  O  O50  1  0.77752128  0.34768118  0.49568034  1
  O  O51  1  0.77752128  0.15231882  0.99568034  1
  O  O52  1  0.94307565  0.58232252  0.76635826  1
  O  O53  1  0.92718701  0.31471009  0.76766172  1
  O  O54  1  0.94307565  0.91767748  0.26635826  1
  O  O55  1  0.92718701  0.18528991  0.26766172  1
