# generated using pymatgen
data_Sr3GaO4F
_symmetry_space_group_name_H-M   'P 1'
_cell_length_a   6.84993128
_cell_length_b   6.84993128
_cell_length_c   7.51718691
_cell_angle_alpha   117.10470430
_cell_angle_beta   117.10470428
_cell_angle_gamma   89.99999998
_symmetry_Int_Tables_number   1
_chemical_formula_structural   Sr3GaO4F
_chemical_formula_sum   'Sr6 Ga2 O8 F2'
_cell_volume   269.73701669
_cell_formula_units_Z   2
loop_
 _symmetry_equiv_pos_site_id
 _symmetry_equiv_pos_as_xyz
  1  'x, y, z'
loop_
 _atom_site_type_symbol
 _atom_site_label
 _atom_site_symmetry_multiplicity
 _atom_site_fract_x
 _atom_site_fract_y
 _atom_site_fract_z
 _atom_site_occupancy
  O  O0  1  0.49667864  0.99667864  0.28822757  1
  O  O1  1  0.20845106  0.70845106  0.71177243  1
  O  O2  1  0.50332136  0.00332136  0.71177243  1
  O  O3  1  0.70845106  0.50332136  0.71177243  1
  O  O4  1  0.00332136  0.20845106  0.71177243  1
  O  O5  1  0.29154894  0.49667864  0.28822757  1
  O  O6  1  0.99667864  0.79154894  0.28822757  1
  O  O7  1  0.79154894  0.29154894  0.28822757  1
  F  F8  1  0.00000000  0.00000000  0.00000000  1
  F  F9  1  0.50000000  0.50000000  0.00000000  1
  Ga  Ga10  1  0.75000000  0.25000000  0.50000000  1
  Ga  Ga11  1  0.25000000  0.75000000  0.50000000  1
  Sr  Sr12  1  0.83256664  0.33256664  0.00000000  1
  Sr  Sr13  1  0.66743336  0.83256664  0.00000000  1
  Sr  Sr14  1  0.33256664  0.16743336  0.00000000  1
  Sr  Sr15  1  0.16743336  0.66743336  0.00000000  1
  Sr  Sr16  1  0.75000000  0.75000000  0.50000000  1
  Sr  Sr17  1  0.25000000  0.25000000  0.50000000  1
