# generated using pymatgen
data_Sm3Eu3S8
_symmetry_space_group_name_H-M   'P 1'
_cell_length_a   7.44791018
_cell_length_b   7.41044874
_cell_length_c   7.41044888
_cell_angle_alpha   109.21426165
_cell_angle_beta   109.46633141
_cell_angle_gamma   109.52820739
_symmetry_Int_Tables_number   1
_chemical_formula_structural   Sm3Eu3S8
_chemical_formula_sum   'Sm3 Eu3 S8'
_cell_volume   315.63996888
_cell_formula_units_Z   1
loop_
 _symmetry_equiv_pos_site_id
 _symmetry_equiv_pos_as_xyz
  1  'x, y, z'
loop_
 _atom_site_type_symbol
 _atom_site_label
 _atom_site_symmetry_multiplicity
 _atom_site_fract_x
 _atom_site_fract_y
 _atom_site_fract_z
 _atom_site_occupancy
  Eu  Eu0  1  0.75000000  0.87597345  0.12597345  1
  Eu  Eu1  1  0.62502100  0.37441706  0.24822012  1
  Eu  Eu2  1  0.87497900  0.12319912  0.74939605  1
  Sm  Sm3  1  0.12529215  0.75128781  0.87498852  1
  Sm  Sm4  1  0.25000000  0.62319545  0.37319545  1
  Sm  Sm5  1  0.37470785  0.24969637  0.62599565  1
  S  S6  1  0.48908830  0.99440092  0.84345338  1
  S  S7  1  0.15062136  0.14933200  0.15422043  1
  S  S8  1  0.34937864  0.50359907  0.99871064  1
  S  S9  1  0.64127379  0.63891516  0.64313936  1
  S  S10  1  0.48767365  0.99458277  0.35284381  1
  S  S11  1  0.01091170  0.85436509  0.50531262  1
  S  S12  1  0.85872621  0.50186558  0.99764137  1
  S  S13  1  0.01232635  0.36517016  0.50690912  1
