# generated using pymatgen
data_BaNa2Al4(SiO4)4
_symmetry_space_group_name_H-M   'P 1'
_cell_length_a   8.68737237
_cell_length_b   10.07988442
_cell_length_c   10.77495532
_cell_angle_alpha   117.88808347
_cell_angle_beta   113.77387107
_cell_angle_gamma   89.99999999
_symmetry_Int_Tables_number   1
_chemical_formula_structural   BaNa2Al4(SiO4)4
_chemical_formula_sum   'Ba2 Na4 Al8 Si8 O32'
_cell_volume   742.16428565
_cell_formula_units_Z   2
loop_
 _symmetry_equiv_pos_site_id
 _symmetry_equiv_pos_as_xyz
  1  'x, y, z'
loop_
 _atom_site_type_symbol
 _atom_site_label
 _atom_site_symmetry_multiplicity
 _atom_site_fract_x
 _atom_site_fract_y
 _atom_site_fract_z
 _atom_site_occupancy
  O  O0  1  0.40790099  0.87997396  0.06383643  1
  O  O1  1  0.65593544  0.18386246  0.06383643  1
  O  O2  1  0.15593544  0.37997396  0.06383643  1
  O  O3  1  0.90790099  0.68386246  0.06383643  1
  O  O4  1  0.90036008  0.11658341  0.54390625  1
  O  O5  1  0.64354617  0.42732284  0.54390625  1
  O  O6  1  0.14354617  0.61658341  0.54390625  1
  O  O7  1  0.40036008  0.92732284  0.54390625  1
  O  O8  1  0.36351433  0.46109265  0.62301809  1
  O  O9  1  0.25950377  0.16192544  0.62301809  1
  O  O10  1  0.75950377  0.96109265  0.62301809  1
  O  O11  1  0.86351433  0.66192544  0.62301809  1
  O  O12  1  0.77688278  0.48566910  0.11019926  1
  O  O13  1  0.33331648  0.62453016  0.11019926  1
  O  O14  1  0.83331648  0.98566910  0.11019926  1
  O  O15  1  0.27688278  0.12453016  0.11019926  1
  O  O16  1  0.96948349  0.83648621  0.50023719  1
  O  O17  1  0.53075370  0.66375099  0.50023719  1
  O  O18  1  0.03075370  0.33648621  0.50023719  1
  O  O19  1  0.46948349  0.16375099  0.50023719  1
  O  O20  1  0.41939350  0.34782000  0.98980718  1
  O  O21  1  0.57041368  0.64198717  0.98980718  1
  O  O22  1  0.19309678  0.89145609  0.81497921  1
  O  O23  1  0.62188243  0.92352311  0.81497921  1
  O  O24  1  0.12188243  0.39145609  0.81497921  1
  O  O25  1  0.69309678  0.42352311  0.81497921  1
  O  O26  1  0.15460394  0.36665961  0.31588630  1
  O  O27  1  0.16128236  0.94922669  0.31588630  1
  O  O28  1  0.66128236  0.86665961  0.31588630  1
  O  O29  1  0.65460394  0.44922669  0.31588630  1
  O  O30  1  0.91939350  0.14198717  0.98980718  1
  O  O31  1  0.07041368  0.84782000  0.98980718  1
  Na  Na32  1  0.86437284  0.23174852  0.80950635  1
  Na  Na33  1  0.36437284  0.07775783  0.80950635  1
  Na  Na34  1  0.94513351  0.57775783  0.80950635  1
  Na  Na35  1  0.44513351  0.73174852  0.80950635  1
  Al  Al36  1  0.13368967  0.24906276  0.12599192  1
  Al  Al37  1  0.99230225  0.87692916  0.12599192  1
  Al  Al38  1  0.03211966  0.75427694  0.62181474  1
  Al  Al39  1  0.49230225  0.74906276  0.12599192  1
  Al  Al40  1  0.53211966  0.36753780  0.62181474  1
  Al  Al41  1  0.08969509  0.25427694  0.62181474  1
  Al  Al42  1  0.58969509  0.86753780  0.62181474  1
  Al  Al43  1  0.63368967  0.37692916  0.12599192  1
  Si  Si44  1  0.82272399  0.93935632  0.49198838  1
  Si  Si45  1  0.73069954  0.55828100  0.99451701  1
  Si  Si46  1  0.26381748  0.43623602  0.99451701  1
  Si  Si47  1  0.76381748  0.05828100  0.99451701  1
  Si  Si48  1  0.23069954  0.93623602  0.99451701  1
  Si  Si49  1  0.32272399  0.05263205  0.49198838  1
  Si  Si50  1  0.16926438  0.43935632  0.49198838  1
  Si  Si51  1  0.66926438  0.55263205  0.49198838  1
  Ba  Ba52  1  0.65391169  0.15391169  0.30782338  1
  Ba  Ba53  1  0.15391169  0.65391169  0.30782338  1
