# generated using pymatgen
data_Gd3Se4
_symmetry_space_group_name_H-M   'P 1'
_cell_length_a   7.58828389
_cell_length_b   7.58839703
_cell_length_c   7.58823886
_cell_angle_alpha   109.46857868
_cell_angle_beta   109.47688294
_cell_angle_gamma   109.46890239
_symmetry_Int_Tables_number   1
_chemical_formula_structural   Gd3Se4
_chemical_formula_sum   'Gd6 Se8'
_cell_volume   336.36356955
_cell_formula_units_Z   2
loop_
 _symmetry_equiv_pos_site_id
 _symmetry_equiv_pos_as_xyz
  1  'x, y, z'
loop_
 _atom_site_type_symbol
 _atom_site_label
 _atom_site_symmetry_multiplicity
 _atom_site_fract_x
 _atom_site_fract_y
 _atom_site_fract_z
 _atom_site_occupancy
  Gd  Gd0  1  0.12499994  0.74999746  0.87499664  1
  Gd  Gd1  1  0.62499673  0.37500202  0.24999936  1
  Gd  Gd2  1  0.37500066  0.24999639  0.62499796  1
  Gd  Gd3  1  0.75000300  0.87500135  0.12500283  1
  Gd  Gd4  1  0.25000236  0.62499958  0.37500211  1
  Gd  Gd5  1  0.87499792  0.12500381  0.75000176  1
  Se  Se6  1  0.35204248  0.49998484  0.99999334  1
  Se  Se7  1  0.49999533  0.00000523  0.35206391  1
  Se  Se8  1  0.85204342  0.49998697  0.99999920  1
  Se  Se9  1  0.64793493  0.64793876  0.64793837  1
  Se  Se10  1  0.14796260  0.14796970  0.14796418  1
  Se  Se11  1  0.00001348  0.85205699  0.50000607  1
  Se  Se12  1  0.49999906  0.00000754  0.85203617  1
  Se  Se13  1  0.00000809  0.35204936  0.49999810  1
