# generated using pymatgen
data_K2LiAlP2
_symmetry_space_group_name_H-M   'P 1'
_cell_length_a   6.12420285
_cell_length_b   6.16256130
_cell_length_c   8.62913856
_cell_angle_alpha   110.92089035
_cell_angle_beta   110.78461804
_cell_angle_gamma   90.00000004
_symmetry_Int_Tables_number   1
_chemical_formula_structural   K2LiAlP2
_chemical_formula_sum   'K4 Li2 Al2 P4'
_cell_volume   281.39355306
_cell_formula_units_Z   2
loop_
 _symmetry_equiv_pos_site_id
 _symmetry_equiv_pos_as_xyz
  1  'x, y, z'
loop_
 _atom_site_type_symbol
 _atom_site_label
 _atom_site_symmetry_multiplicity
 _atom_site_fract_x
 _atom_site_fract_y
 _atom_site_fract_z
 _atom_site_occupancy
  Li  Li0  1  0.25000000  0.50000000  0.00000000  1
  Li  Li1  1  0.75000000  0.50000000  0.00000000  1
  Al  Al2  1  0.25000000  0.00000000  0.00000000  1
  Al  Al3  1  0.75000000  0.00000000  0.00000000  1
  P  P4  1  0.91163632  0.69058280  0.82327264  1
  P  P5  1  0.41163632  0.13268984  0.82327264  1
  P  P6  1  0.58836368  0.86731016  0.17672736  1
  P  P7  1  0.08836368  0.30941720  0.17672736  1
  K  K8  1  0.82684703  0.09954282  0.65369405  1
  K  K9  1  0.17315297  0.90045718  0.34630595  1
  K  K10  1  0.67315297  0.44584877  0.34630595  1
  K  K11  1  0.32684703  0.55415123  0.65369405  1
