# generated using pymatgen
data_La3SiAgSe7
_symmetry_space_group_name_H-M   'P 1'
_cell_length_a   10.91615110
_cell_length_b   10.91615110
_cell_length_c   6.12578440
_cell_angle_alpha   90.00000000
_cell_angle_beta   90.00000000
_cell_angle_gamma   119.99999998
_symmetry_Int_Tables_number   1
_chemical_formula_structural   La3SiAgSe7
_chemical_formula_sum   'La6 Si2 Ag2 Se14'
_cell_volume   632.16641037
_cell_formula_units_Z   2
loop_
 _symmetry_equiv_pos_site_id
 _symmetry_equiv_pos_as_xyz
  1  'x, y, z'
loop_
 _atom_site_type_symbol
 _atom_site_label
 _atom_site_symmetry_multiplicity
 _atom_site_fract_x
 _atom_site_fract_y
 _atom_site_fract_z
 _atom_site_occupancy
  Si  Si0  1  0.33333333  0.66666667  0.32993276  1
  Si  Si1  1  0.66666667  0.33333333  0.82993276  1
  Se  Se2  1  0.52314350  0.11127479  0.97739247  1
  Se  Se3  1  0.47685650  0.88872521  0.47739247  1
  Se  Se4  1  0.11127479  0.58813129  0.47739247  1
  Se  Se5  1  0.58813129  0.47685650  0.97739247  1
  Se  Se6  1  0.09251553  0.26777410  0.22615374  1
  Se  Se7  1  0.82474144  0.09251553  0.72615374  1
  Se  Se8  1  0.41186871  0.52314350  0.47739247  1
  Se  Se9  1  0.88872521  0.41186871  0.97739247  1
  Se  Se10  1  0.33333333  0.66666667  0.95891090  1
  Se  Se11  1  0.66666667  0.33333333  0.45891090  1
  Se  Se12  1  0.90748447  0.73222590  0.72615374  1
  Se  Se13  1  0.17525856  0.90748447  0.22615374  1
  Se  Se14  1  0.73222590  0.82474144  0.22615374  1
  Se  Se15  1  0.26777410  0.17525856  0.72615374  1
  Ag  Ag16  1  0.00000000  0.00000000  0.19381740  1
  Ag  Ag17  1  0.00000000  0.00000000  0.69381740  1
  La  La18  1  0.12466075  0.35723641  0.74018343  1
  La  La19  1  0.76742435  0.12466075  0.24018343  1
  La  La20  1  0.35723641  0.23257565  0.24018343  1
  La  La21  1  0.64276359  0.76742435  0.74018343  1
  La  La22  1  0.23257565  0.87533925  0.74018343  1
  La  La23  1  0.87533925  0.64276359  0.24018343  1
