# generated using pymatgen
data_NdGe
_symmetry_space_group_name_H-M   'P 1'
_cell_length_a   4.07256366
_cell_length_b   4.49502459
_cell_length_c   5.99522780
_cell_angle_alpha   112.01711582
_cell_angle_beta   90.00000000
_cell_angle_gamma   90.00000000
_symmetry_Int_Tables_number   1
_chemical_formula_structural   NdGe
_chemical_formula_sum   'Nd2 Ge2'
_cell_volume   101.74640297
_cell_formula_units_Z   2
loop_
 _symmetry_equiv_pos_site_id
 _symmetry_equiv_pos_as_xyz
  1  'x, y, z'
loop_
 _atom_site_type_symbol
 _atom_site_label
 _atom_site_symmetry_multiplicity
 _atom_site_fract_x
 _atom_site_fract_y
 _atom_site_fract_z
 _atom_site_occupancy
  Ge  Ge0  1  0.25000000  0.58115684  0.16231368  1
  Ge  Ge1  1  0.75000000  0.41884316  0.83768632  1
  Nd  Nd2  1  0.25000000  0.86189850  0.72379700  1
  Nd  Nd3  1  0.75000000  0.13810150  0.27620300  1
