# generated using pymatgen
data_ErCd3
_symmetry_space_group_name_H-M   'P 1'
_cell_length_a   4.86996683
_cell_length_b   6.49540074
_cell_length_c   6.49540074
_cell_angle_alpha   112.74964148
_cell_angle_beta   90.00000000
_cell_angle_gamma   90.00000000
_symmetry_Int_Tables_number   1
_chemical_formula_structural   ErCd3
_chemical_formula_sum   'Er2 Cd6'
_cell_volume   189.48054250
_cell_formula_units_Z   2
loop_
 _symmetry_equiv_pos_site_id
 _symmetry_equiv_pos_as_xyz
  1  'x, y, z'
loop_
 _atom_site_type_symbol
 _atom_site_label
 _atom_site_symmetry_multiplicity
 _atom_site_fract_x
 _atom_site_fract_y
 _atom_site_fract_z
 _atom_site_occupancy
  Cd  Cd0  1  0.75000000  0.88075797  0.68858910  1
  Cd  Cd1  1  0.25000000  0.11924203  0.31141090  1
  Cd  Cd2  1  0.75000000  0.82270509  0.17729491  1
  Cd  Cd3  1  0.25000000  0.17729491  0.82270509  1
  Cd  Cd4  1  0.75000000  0.31141090  0.11924203  1
  Cd  Cd5  1  0.25000000  0.68858910  0.88075797  1
  Er  Er6  1  0.25000000  0.63227552  0.36772448  1
  Er  Er7  1  0.75000000  0.36772448  0.63227552  1
