# generated using pymatgen
data_LiCd2HSe2O7
_symmetry_space_group_name_H-M   'P 1'
_cell_length_a   5.91651622
_cell_length_b   10.46481857
_cell_length_c   11.70288347
_cell_angle_alpha   90.00000000
_cell_angle_beta   90.50281950
_cell_angle_gamma   90.00000000
_symmetry_Int_Tables_number   1
_chemical_formula_structural   LiCd2HSe2O7
_chemical_formula_sum   'Li4 Cd8 H4 Se8 O28'
_cell_volume   724.55927337
_cell_formula_units_Z   4
loop_
 _symmetry_equiv_pos_site_id
 _symmetry_equiv_pos_as_xyz
  1  'x, y, z'
loop_
 _atom_site_type_symbol
 _atom_site_label
 _atom_site_symmetry_multiplicity
 _atom_site_fract_x
 _atom_site_fract_y
 _atom_site_fract_z
 _atom_site_occupancy
  Li  Li0  1  0.37097369  0.18838364  0.86074703  1
  Li  Li1  1  0.62902631  0.68838364  0.63925297  1
  Li  Li2  1  0.62902631  0.81161636  0.13925297  1
  Li  Li3  1  0.37097369  0.31161636  0.36074703  1
  Cd  Cd4  1  0.61910146  0.10295693  0.60456423  1
  Cd  Cd5  1  0.38089854  0.60295693  0.89543577  1
  Cd  Cd6  1  0.38089854  0.89704307  0.39543577  1
  Cd  Cd7  1  0.61910146  0.39704307  0.10456423  1
  Cd  Cd8  1  0.14769611  0.88189449  0.70516198  1
  Cd  Cd9  1  0.85230389  0.38189449  0.79483802  1
  Cd  Cd10  1  0.85230389  0.11810551  0.29483802  1
  Cd  Cd11  1  0.14769611  0.61810551  0.20516198  1
  H  H12  1  0.17193851  0.08269468  0.54489779  1
  H  H13  1  0.82806149  0.58269468  0.95510221  1
  H  H14  1  0.82806149  0.91730532  0.45510221  1
  H  H15  1  0.17193851  0.41730532  0.04489779  1
  Se  Se16  1  0.89558807  0.33462750  0.49838293  1
  Se  Se17  1  0.10441193  0.83462750  0.00161707  1
  Se  Se18  1  0.10441193  0.66537250  0.50161707  1
  Se  Se19  1  0.89558807  0.16537250  0.99838293  1
  Se  Se20  1  0.37844256  0.41060137  0.65598247  1
  Se  Se21  1  0.62155744  0.91060137  0.84401753  1
  Se  Se22  1  0.62155744  0.58939863  0.34401753  1
  Se  Se23  1  0.37844256  0.08939863  0.15598247  1
  O  O24  1  0.94132474  0.25424380  0.62641529  1
  O  O25  1  0.05867526  0.75424380  0.87358471  1
  O  O26  1  0.05867526  0.74575620  0.37358471  1
  O  O27  1  0.94132474  0.24575620  0.12641529  1
  O  O28  1  0.63488226  0.27046306  0.46197475  1
  O  O29  1  0.36511774  0.77046306  0.03802525  1
  O  O30  1  0.36511774  0.72953694  0.53802525  1
  O  O31  1  0.63488226  0.22953694  0.96197475  1
  O  O32  1  0.07050741  0.25067008  0.40736149  1
  O  O33  1  0.92949259  0.75067008  0.09263851  1
  O  O34  1  0.92949259  0.74932992  0.59263851  1
  O  O35  1  0.07050741  0.24932992  0.90736149  1
  O  O36  1  0.61970183  0.50285359  0.66927332  1
  O  O37  1  0.38029817  0.00285359  0.83072668  1
  O  O38  1  0.38029817  0.49714641  0.33072668  1
  O  O39  1  0.61970183  0.99714641  0.16927332  1
  O  O40  1  0.47865144  0.27480694  0.72391793  1
  O  O41  1  0.52134856  0.77480694  0.77608207  1
  O  O42  1  0.52134856  0.72519306  0.27608207  1
  O  O43  1  0.47865144  0.22519306  0.22391793  1
  O  O44  1  0.20463165  0.48252462  0.75759408  1
  O  O45  1  0.79536835  0.98252462  0.74240592  1
  O  O46  1  0.79536835  0.51747538  0.24240592  1
  O  O47  1  0.20463165  0.01747538  0.25759408  1
  O  O48  1  0.27631470  0.01210698  0.56031498  1
  O  O49  1  0.72368530  0.51210698  0.93968502  1
  O  O50  1  0.72368530  0.98789302  0.43968502  1
  O  O51  1  0.27631470  0.48789302  0.06031498  1
