# generated using pymatgen
data_LiYO2
_symmetry_space_group_name_H-M   'P 1'
_cell_length_a   6.26870697
_cell_length_b   6.17436798
_cell_length_c   6.36226096
_cell_angle_alpha   90.00000000
_cell_angle_beta   119.71701209
_cell_angle_gamma   90.00000000
_symmetry_Int_Tables_number   1
_chemical_formula_structural   LiYO2
_chemical_formula_sum   'Li4 Y4 O8'
_cell_volume   213.86709075
_cell_formula_units_Z   4
loop_
 _symmetry_equiv_pos_site_id
 _symmetry_equiv_pos_as_xyz
  1  'x, y, z'
loop_
 _atom_site_type_symbol
 _atom_site_label
 _atom_site_symmetry_multiplicity
 _atom_site_fract_x
 _atom_site_fract_y
 _atom_site_fract_z
 _atom_site_occupancy
  Li  Li0  1  0.29531798  0.65776403  0.07096234  1
  Li  Li1  1  0.70468202  0.15776403  0.42903766  1
  Li  Li2  1  0.70468202  0.34223597  0.92903766  1
  Li  Li3  1  0.29531798  0.84223597  0.57096234  1
  O  O4  1  0.45123217  0.39249442  0.26347915  1
  O  O5  1  0.98661987  0.17501227  0.14902206  1
  O  O6  1  0.54876783  0.89249442  0.23652085  1
  O  O7  1  0.54876783  0.60750558  0.73652085  1
  O  O8  1  0.01338013  0.82498773  0.85097794  1
  O  O9  1  0.01338013  0.67501227  0.35097794  1
  O  O10  1  0.98661987  0.32498773  0.64902206  1
  O  O11  1  0.45123217  0.10750558  0.76347915  1
  Y  Y12  1  0.23128430  0.13137429  0.97568659  1
  Y  Y13  1  0.23128430  0.36862571  0.47568659  1
  Y  Y14  1  0.76871570  0.86862571  0.02431341  1
  Y  Y15  1  0.76871570  0.63137429  0.52431341  1
