# generated using pymatgen
data_Li2Co3(SeO3)4
_symmetry_space_group_name_H-M   'P 1'
_cell_length_a   7.86681941
_cell_length_b   8.28138418
_cell_length_c   9.34648593
_cell_angle_alpha   90.00000000
_cell_angle_beta   90.00000000
_cell_angle_gamma   115.45986609
_symmetry_Int_Tables_number   1
_chemical_formula_structural   Li2Co3(SeO3)4
_chemical_formula_sum   'Li4 Co6 Se8 O24'
_cell_volume   549.77335553
_cell_formula_units_Z   2
loop_
 _symmetry_equiv_pos_site_id
 _symmetry_equiv_pos_as_xyz
  1  'x, y, z'
loop_
 _atom_site_type_symbol
 _atom_site_label
 _atom_site_symmetry_multiplicity
 _atom_site_fract_x
 _atom_site_fract_y
 _atom_site_fract_z
 _atom_site_occupancy
  Li  Li0  1  0.92471144  0.09933738  0.36094192  1
  Li  Li1  1  0.07528856  0.90066262  0.63905808  1
  Li  Li2  1  0.42471144  0.09933738  0.13905808  1
  Li  Li3  1  0.57528856  0.90066262  0.86094192  1
  Co  Co4  1  0.82857886  0.29654669  0.00631778  1
  Co  Co5  1  0.17142114  0.70345331  0.99368222  1
  Co  Co6  1  0.67142114  0.70345331  0.50631778  1
  Co  Co7  1  0.00000000  0.00000000  0.00000000  1
  Co  Co8  1  0.50000000  0.00000000  0.50000000  1
  Co  Co9  1  0.32857886  0.29654669  0.49368222  1
  Se  Se10  1  0.26438701  0.40119307  0.17252340  1
  Se  Se11  1  0.12531441  0.82408684  0.31599398  1
  Se  Se12  1  0.37468559  0.17591316  0.81599398  1
  Se  Se13  1  0.87468559  0.17591316  0.68400602  1
  Se  Se14  1  0.76438701  0.40119307  0.32747660  1
  Se  Se15  1  0.23561299  0.59880693  0.67252340  1
  Se  Se16  1  0.73561299  0.59880693  0.82747660  1
  Se  Se17  1  0.62531441  0.82408684  0.18400602  1
  O  O18  1  0.18455167  0.96769619  0.84722462  1
  O  O19  1  0.73723730  0.21104127  0.41818970  1
  O  O20  1  0.23723730  0.21104127  0.08181030  1
  O  O21  1  0.07853305  0.83510090  0.13175342  1
  O  O22  1  0.44691827  0.85834385  0.10367157  1
  O  O23  1  0.16327923  0.32177389  0.33778844  1
  O  O24  1  0.42146695  0.16489910  0.63175342  1
  O  O25  1  0.83672077  0.67822611  0.66221156  1
  O  O26  1  0.76276270  0.78895873  0.91818970  1
  O  O27  1  0.33672077  0.67822611  0.83778844  1
  O  O28  1  0.05308173  0.14165615  0.60367157  1
  O  O29  1  0.09129168  0.45592287  0.09943860  1
  O  O30  1  0.55308173  0.14165615  0.89632843  1
  O  O31  1  0.59129168  0.45592287  0.40056140  1
  O  O32  1  0.57853305  0.83510090  0.36824658  1
  O  O33  1  0.26276270  0.78895873  0.58181030  1
  O  O34  1  0.68455167  0.96769619  0.65277538  1
  O  O35  1  0.92146695  0.16489910  0.86824658  1
  O  O36  1  0.81544833  0.03230381  0.15277538  1
  O  O37  1  0.40870832  0.54407713  0.59943860  1
  O  O38  1  0.94691827  0.85834385  0.39632843  1
  O  O39  1  0.66327923  0.32177389  0.16221156  1
  O  O40  1  0.31544833  0.03230381  0.34722462  1
  O  O41  1  0.90870832  0.54407713  0.90056140  1
