# generated using pymatgen
data_CeCoSi2
_symmetry_space_group_name_H-M   'P 1'
_cell_length_a   4.02270060
_cell_length_b   4.05591913
_cell_length_c   8.48429672
_cell_angle_alpha   103.82900593
_cell_angle_beta   90.00000000
_cell_angle_gamma   90.00000000
_symmetry_Int_Tables_number   1
_chemical_formula_structural   CeCoSi2
_chemical_formula_sum   'Ce2 Co2 Si4'
_cell_volume   134.41510270
_cell_formula_units_Z   2
loop_
 _symmetry_equiv_pos_site_id
 _symmetry_equiv_pos_as_xyz
  1  'x, y, z'
loop_
 _atom_site_type_symbol
 _atom_site_label
 _atom_site_symmetry_multiplicity
 _atom_site_fract_x
 _atom_site_fract_y
 _atom_site_fract_z
 _atom_site_occupancy
  Si  Si0  1  0.25000000  0.24976067  0.49952134  1
  Si  Si1  1  0.75000000  0.75023933  0.50047866  1
  Si  Si2  1  0.75000000  0.45918981  0.91837963  1
  Si  Si3  1  0.25000000  0.54081019  0.08162037  1
  Co  Co4  1  0.75000000  0.32170546  0.64341092  1
  Co  Co5  1  0.25000000  0.67829454  0.35658908  1
  Ce  Ce6  1  0.25000000  0.89096443  0.78192886  1
  Ce  Ce7  1  0.75000000  0.10903557  0.21807114  1
