# generated using pymatgen
data_CrAuS2
_symmetry_space_group_name_H-M   'P 1'
_cell_length_a   7.43469400
_cell_length_b   7.43469400
_cell_length_c   7.43469399
_cell_angle_alpha   27.66529216
_cell_angle_beta   27.66529217
_cell_angle_gamma   27.66529217
_symmetry_Int_Tables_number   1
_chemical_formula_structural   CrAuS2
_chemical_formula_sum   'Cr1 Au1 S2'
_cell_volume   78.21247251
_cell_formula_units_Z   1
loop_
 _symmetry_equiv_pos_site_id
 _symmetry_equiv_pos_as_xyz
  1  'x, y, z'
loop_
 _atom_site_type_symbol
 _atom_site_label
 _atom_site_symmetry_multiplicity
 _atom_site_fract_x
 _atom_site_fract_y
 _atom_site_fract_z
 _atom_site_occupancy
  S  S0  1  0.72448124  0.72448124  0.72448124  1
  S  S1  1  0.94137073  0.94137073  0.94137073  1
  Cr  Cr2  1  0.33292222  0.33292222  0.33292222  1
  Au  Au3  1  0.83292580  0.83292580  0.83292580  1
