# generated using pymatgen
data_Tm2FeC4
_symmetry_space_group_name_H-M   'P 1'
_cell_length_a   4.97168537
_cell_length_b   6.49927288
_cell_length_c   6.49927288
_cell_angle_alpha   69.93330569
_cell_angle_beta   67.51260802
_cell_angle_gamma   67.51260803
_symmetry_Int_Tables_number   1
_chemical_formula_structural   Tm2FeC4
_chemical_formula_sum   'Tm4 Fe2 C8'
_cell_volume   174.45476620
_cell_formula_units_Z   2
loop_
 _symmetry_equiv_pos_site_id
 _symmetry_equiv_pos_as_xyz
  1  'x, y, z'
loop_
 _atom_site_type_symbol
 _atom_site_label
 _atom_site_symmetry_multiplicity
 _atom_site_fract_x
 _atom_site_fract_y
 _atom_site_fract_z
 _atom_site_occupancy
  C  C0  1  0.42179648  0.24504329  0.91136375  1
  C  C1  1  0.57820352  0.75495671  0.08863625  1
  C  C2  1  0.07820352  0.08863625  0.75495671  1
  C  C3  1  0.92179648  0.91136375  0.24504329  1
  C  C4  1  0.37009972  0.46960848  0.79019208  1
  C  C5  1  0.62990028  0.53039152  0.20980792  1
  C  C6  1  0.87009972  0.79019208  0.46960848  1
  C  C7  1  0.12990028  0.20980792  0.53039152  1
  Fe  Fe8  1  0.25000000  0.00000000  0.00000000  1
  Fe  Fe9  1  0.75000000  0.00000000  0.00000000  1
  Tm  Tm10  1  0.14470575  0.51022653  0.20036197  1
  Tm  Tm11  1  0.85529425  0.48977347  0.79963803  1
  Tm  Tm12  1  0.35529425  0.79963803  0.48977347  1
  Tm  Tm13  1  0.64470575  0.20036197  0.51022653  1
