# generated using pymatgen
data_Li5Mn7O16
_symmetry_space_group_name_H-M   'P 1'
_cell_length_a   5.82573663
_cell_length_b   23.57772416
_cell_length_c   10.21518854
_cell_angle_alpha   29.94421178
_cell_angle_beta   55.22960264
_cell_angle_gamma   60.38546867
_symmetry_Int_Tables_number   1
_chemical_formula_structural   Li5Mn7O16
_chemical_formula_sum   'Li10 Mn14 O32'
_cell_volume   575.32575082
_cell_formula_units_Z   2
loop_
 _symmetry_equiv_pos_site_id
 _symmetry_equiv_pos_as_xyz
  1  'x, y, z'
loop_
 _atom_site_type_symbol
 _atom_site_label
 _atom_site_symmetry_multiplicity
 _atom_site_fract_x
 _atom_site_fract_y
 _atom_site_fract_z
 _atom_site_occupancy
  Li  Li0  1  0.50000000  0.12500000  0.00000000  1
  Li  Li1  1  0.12235961  0.24555825  0.13649534  1
  Li  Li2  1  0.12235961  0.50444175  0.11872832  1
  Li  Li3  1  0.87764039  0.00444175  0.86350466  1
  Li  Li4  1  0.11237853  0.74728742  0.14303598  1
  Li  Li5  1  0.50000000  0.62500000  0.50000000  1
  Li  Li6  1  0.88762147  0.24728742  0.86781435  1
  Li  Li7  1  0.11237853  0.00271258  0.13218565  1
  Li  Li8  1  0.88762147  0.50271258  0.85696402  1
  Li  Li9  1  0.87764039  0.74555825  0.88127168  1
  Mn  Mn10  1  0.99283286  0.25253864  0.49995153  1
  Mn  Mn11  1  0.50000000  0.12500000  0.50000000  1
  Mn  Mn12  1  0.50106009  0.37505581  0.99879896  1
  Mn  Mn13  1  0.99283286  0.49746136  0.51010610  1
  Mn  Mn14  1  0.49712132  0.25253219  0.49995703  1
  Mn  Mn15  1  0.50106009  0.37494419  0.49902219  1
  Mn  Mn16  1  0.50000000  0.62500000  0.00000000  1
  Mn  Mn17  1  0.49712132  0.49746781  0.51008578  1
  Mn  Mn18  1  0.00716714  0.75253864  0.48989390  1
  Mn  Mn19  1  0.49893991  0.87494419  0.00120104  1
  Mn  Mn20  1  0.00716714  0.99746136  0.50004847  1
  Mn  Mn21  1  0.50287868  0.75253219  0.48991422  1
  Mn  Mn22  1  0.49893991  0.87505581  0.50097781  1
  Mn  Mn23  1  0.50287868  0.99746781  0.50004297  1
  O  O24  1  0.24843320  0.98629808  0.29855712  1
  O  O25  1  0.25145590  0.10224761  0.29404501  1
  O  O26  1  0.70926982  0.98631472  0.29852929  1
  O  O27  1  0.29478455  0.00023371  0.73106308  1
  O  O28  1  0.25780316  0.24977159  0.26893609  1
  O  O29  1  0.76070125  0.10350815  0.28230164  1
  O  O30  1  0.23929875  0.14649185  0.71769836  1
  O  O31  1  0.26870581  0.36648497  0.24832556  1
  O  O32  1  0.74219684  0.00022841  0.73106391  1
  O  O33  1  0.70521545  0.24976629  0.26893692  1
  O  O34  1  0.29073018  0.26368528  0.70147071  1
  O  O35  1  0.25780316  0.50022841  0.26802244  1
  O  O36  1  0.73647819  0.36655849  0.28038024  1
  O  O37  1  0.74854410  0.14775239  0.70595499  1
  O  O38  1  0.26870581  0.38351503  0.71426546  1
  O  O39  1  0.23929875  0.60350815  0.30366575  1
  O  O40  1  0.75156680  0.26370192  0.70144288  1
  O  O41  1  0.70521545  0.50023371  0.26800208  1
  O  O42  1  0.29073018  0.48631472  0.75621184  1
  O  O43  1  0.24843320  0.76370192  0.24374944  1
  O  O44  1  0.74854410  0.60224761  0.29696455  1
  O  O45  1  0.73647819  0.38344151  0.74661419  1
  O  O46  1  0.25145590  0.64775239  0.70303545  1
  O  O47  1  0.26352181  0.86655849  0.25338581  1
  O  O48  1  0.75156680  0.48629808  0.75625056  1
  O  O49  1  0.70926982  0.76368528  0.24378816  1
  O  O50  1  0.29478455  0.74976629  0.73199792  1
  O  O51  1  0.76070125  0.64649185  0.69633425  1
  O  O52  1  0.73129419  0.86648497  0.28573454  1
  O  O53  1  0.26352181  0.88344151  0.71961976  1
  O  O54  1  0.74219684  0.74977159  0.73197756  1
  O  O55  1  0.73129419  0.88351503  0.75167444  1
