# generated using pymatgen
data_Er2Si2O7
_symmetry_space_group_name_H-M   'P 1'
_cell_length_a   4.77438415
_cell_length_b   5.65667318
_cell_length_c   5.65667318
_cell_angle_alpha   105.37123055
_cell_angle_beta   97.29082713
_cell_angle_gamma   97.29082718
_symmetry_Int_Tables_number   1
_chemical_formula_structural   Er2Si2O7
_chemical_formula_sum   'Er2 Si2 O7'
_cell_volume   144.04150327
_cell_formula_units_Z   1
loop_
 _symmetry_equiv_pos_site_id
 _symmetry_equiv_pos_as_xyz
  1  'x, y, z'
loop_
 _atom_site_type_symbol
 _atom_site_label
 _atom_site_symmetry_multiplicity
 _atom_site_fract_x
 _atom_site_fract_y
 _atom_site_fract_z
 _atom_site_occupancy
  O  O0  1  0.78104650  0.91516084  0.61460848  1
  O  O1  1  0.21895350  0.38539152  0.08483916  1
  O  O2  1  0.21895350  0.08483916  0.38539152  1
  O  O3  1  0.78104650  0.61460848  0.91516084  1
  O  O4  1  0.50000000  0.00000000  0.00000000  1
  O  O5  1  0.28575024  0.61700642  0.61700642  1
  O  O6  1  0.71424976  0.38299358  0.38299358  1
  Si  Si7  1  0.41035310  0.21876771  0.21876771  1
  Si  Si8  1  0.58964690  0.78123229  0.78123229  1
  Er  Er9  1  0.00000000  0.30803992  0.69196008  1
  Er  Er10  1  0.00000000  0.69196008  0.30803992  1
