# generated using pymatgen
data_ThC2
_symmetry_space_group_name_H-M   'P 1'
_cell_length_a   3.98753225
_cell_length_b   3.98753226
_cell_length_c   6.71096036
_cell_angle_alpha   78.21459616
_cell_angle_beta   78.21459615
_cell_angle_gamma   65.10008505
_symmetry_Int_Tables_number   1
_chemical_formula_structural   ThC2
_chemical_formula_sum   'Th2 C4'
_cell_volume   93.90370934
_cell_formula_units_Z   2
loop_
 _symmetry_equiv_pos_site_id
 _symmetry_equiv_pos_as_xyz
  1  'x, y, z'
loop_
 _atom_site_type_symbol
 _atom_site_label
 _atom_site_symmetry_multiplicity
 _atom_site_fract_x
 _atom_site_fract_y
 _atom_site_fract_z
 _atom_site_occupancy
  C  C0  1  0.16944482  0.43239163  0.44743531  1
  C  C1  1  0.56760837  0.83055518  0.05256469  1
  C  C2  1  0.43239163  0.16944482  0.94743531  1
  C  C3  1  0.83055518  0.56760837  0.55256469  1
  Th  Th4  1  0.79107083  0.20892917  0.25000000  1
  Th  Th5  1  0.20892917  0.79107083  0.75000000  1
