# generated using pymatgen
data_NaTbO2
_symmetry_space_group_name_H-M   'P 1'
_cell_length_a   4.64320950
_cell_length_b   4.64320950
_cell_length_c   6.19781146
_cell_angle_alpha   111.99864124
_cell_angle_beta   111.99864124
_cell_angle_gamma   89.99999994
_symmetry_Int_Tables_number   1
_chemical_formula_structural   NaTbO2
_chemical_formula_sum   'Na2 Tb2 O4'
_cell_volume   113.33183227
_cell_formula_units_Z   2
loop_
 _symmetry_equiv_pos_site_id
 _symmetry_equiv_pos_as_xyz
  1  'x, y, z'
loop_
 _atom_site_type_symbol
 _atom_site_label
 _atom_site_symmetry_multiplicity
 _atom_site_fract_x
 _atom_site_fract_y
 _atom_site_fract_z
 _atom_site_occupancy
  O  O0  1  0.15490116  0.40490116  0.30980232  1
  O  O1  1  0.40490116  0.15490116  0.80980232  1
  O  O2  1  0.59509884  0.84509884  0.19019768  1
  O  O3  1  0.84509884  0.59509884  0.69019768  1
  Na  Na4  1  0.87500000  0.12500000  0.75000000  1
  Na  Na5  1  0.12500000  0.87500000  0.25000000  1
  Tb  Tb6  1  0.62500000  0.37500000  0.25000000  1
  Tb  Tb7  1  0.37500000  0.62500000  0.75000000  1
