# generated using pymatgen
data_UP3HO11
_symmetry_space_group_name_H-M   'P 1'
_cell_length_a   9.92462837
_cell_length_b   21.03153846
_cell_length_c   8.78477609
_cell_angle_alpha   90.00000000
_cell_angle_beta   90.00000000
_cell_angle_gamma   94.14276704
_symmetry_Int_Tables_number   1
_chemical_formula_structural   UP3HO11
_chemical_formula_sum   'U8 P24 H8 O88'
_cell_volume   1828.85702810
_cell_formula_units_Z   8
loop_
 _symmetry_equiv_pos_site_id
 _symmetry_equiv_pos_as_xyz
  1  'x, y, z'
loop_
 _atom_site_type_symbol
 _atom_site_label
 _atom_site_symmetry_multiplicity
 _atom_site_fract_x
 _atom_site_fract_y
 _atom_site_fract_z
 _atom_site_occupancy
  U  U0  1  0.69736680  0.09724733  0.38082169  1
  U  U1  1  0.30263320  0.40275267  0.88082169  1
  U  U2  1  0.30263320  0.90275267  0.61917831  1
  U  U3  1  0.69736680  0.59724733  0.11917831  1
  U  U4  1  0.21022408  0.64347918  0.38339801  1
  U  U5  1  0.78977592  0.85652082  0.88339801  1
  U  U6  1  0.78977592  0.35652082  0.61660199  1
  U  U7  1  0.21022408  0.14347918  0.11660199  1
  P  P8  1  0.86111210  0.94687725  0.25039715  1
  P  P9  1  0.13888790  0.55312275  0.75039715  1
  P  P10  1  0.13888790  0.05312275  0.74960285  1
  P  P11  1  0.86111210  0.44687725  0.24960285  1
  P  P12  1  0.79168949  0.83365479  0.45504194  1
  P  P13  1  0.20831051  0.66634521  0.95504194  1
  P  P14  1  0.20831051  0.16634521  0.54495806  1
  P  P15  1  0.79168949  0.33365479  0.04495806  1
  P  P16  1  0.37928567  0.80972614  0.28049098  1
  P  P17  1  0.62071433  0.69027386  0.78049098  1
  P  P18  1  0.62071433  0.19027386  0.71950902  1
  P  P19  1  0.37928567  0.30972614  0.21950902  1
  P  P20  1  0.64786982  0.76496628  0.20952582  1
  P  P21  1  0.35213018  0.73503372  0.70952582  1
  P  P22  1  0.35213018  0.23503372  0.79047418  1
  P  P23  1  0.64786982  0.26496628  0.29047418  1
  P  P24  1  0.29535786  0.90107912  0.04905070  1
  P  P25  1  0.70464214  0.59892088  0.54905070  1
  P  P26  1  0.70464214  0.09892088  0.95094930  1
  P  P27  1  0.29535786  0.40107912  0.45094930  1
  P  P28  1  0.15198087  0.97915342  0.27828548  1
  P  P29  1  0.84801913  0.52084658  0.77828548  1
  P  P30  1  0.84801913  0.02084658  0.72171452  1
  P  P31  1  0.15198087  0.47915342  0.22171452  1
  H  H32  1  0.01067453  0.82422833  0.48741706  1
  H  H33  1  0.98932547  0.67577167  0.98741706  1
  H  H34  1  0.98932547  0.17577167  0.51258294  1
  H  H35  1  0.01067453  0.32422833  0.01258294  1
  H  H36  1  0.51045830  0.92474563  0.01518895  1
  H  H37  1  0.48954170  0.57525437  0.51518895  1
  H  H38  1  0.48954170  0.07525437  0.98481105  1
  H  H39  1  0.51045830  0.42474563  0.48481105  1
  O  O40  1  0.12902067  0.54620793  0.26614630  1
  O  O41  1  0.87097933  0.95379207  0.76614630  1
  O  O42  1  0.87097933  0.45379207  0.73385370  1
  O  O43  1  0.12902067  0.04620793  0.23385370  1
  O  O44  1  0.54081443  0.55302120  0.15891000  1
  O  O45  1  0.45918557  0.94697880  0.65891000  1
  O  O46  1  0.45918557  0.44697880  0.84109000  1
  O  O47  1  0.54081443  0.05302120  0.34109000  1
  O  O48  1  0.77449329  0.89528496  0.35353557  1
  O  O49  1  0.22550671  0.60471504  0.85353557  1
  O  O50  1  0.22550671  0.10471504  0.64646443  1
  O  O51  1  0.77449329  0.39528496  0.14646443  1
  O  O52  1  0.85632443  0.64313782  0.07537396  1
  O  O53  1  0.14367557  0.85686218  0.57537396  1
  O  O54  1  0.14367557  0.35686218  0.92462604  1
  O  O55  1  0.85632443  0.14313782  0.42462604  1
  O  O56  1  0.40609019  0.85907508  0.40234265  1
  O  O57  1  0.59390981  0.64092492  0.90234265  1
  O  O58  1  0.59390981  0.14092492  0.59765735  1
  O  O59  1  0.40609019  0.35907508  0.09765735  1
  O  O60  1  0.73890712  0.61432974  0.38852719  1
  O  O61  1  0.26109288  0.88567026  0.88852719  1
  O  O62  1  0.26109288  0.38567026  0.61147281  1
  O  O63  1  0.73890712  0.11432974  0.11147281  1
  O  O64  1  0.51607511  0.80402655  0.18399991  1
  O  O65  1  0.48392489  0.69597345  0.68399991  1
  O  O66  1  0.48392489  0.19597345  0.81600009  1
  O  O67  1  0.51607511  0.30402655  0.31600009  1
  O  O68  1  0.68500975  0.78106210  0.38705692  1
  O  O69  1  0.31499025  0.71893790  0.88705692  1
  O  O70  1  0.31499025  0.21893790  0.61294308  1
  O  O71  1  0.68500975  0.28106210  0.11294308  1
  O  O72  1  0.37511114  0.61209721  0.41063083  1
  O  O73  1  0.62488886  0.88790279  0.91063083  1
  O  O74  1  0.62488886  0.38790279  0.58936917  1
  O  O75  1  0.37511114  0.11209721  0.08936917  1
  O  O76  1  0.75778297  0.79562017  0.11156784  1
  O  O77  1  0.24221703  0.70437983  0.61156784  1
  O  O78  1  0.24221703  0.20437983  0.88843216  1
  O  O79  1  0.75778297  0.29562017  0.38843216  1
  O  O80  1  0.00931778  0.94262398  0.32486207  1
  O  O81  1  0.99068222  0.55737602  0.82486207  1
  O  O82  1  0.99068222  0.05737602  0.67513793  1
  O  O83  1  0.00931778  0.44262398  0.17513793  1
  O  O84  1  0.04641921  0.67322810  0.36271395  1
  O  O85  1  0.95358079  0.82677190  0.86271395  1
  O  O86  1  0.95358079  0.32677190  0.63728605  1
  O  O87  1  0.04641921  0.17322810  0.13728605  1
  O  O88  1  0.93091865  0.80775686  0.42306906  1
  O  O89  1  0.06908135  0.69224314  0.92306906  1
  O  O90  1  0.06908135  0.19224314  0.57693094  1
  O  O91  1  0.93091865  0.30775686  0.07693094  1
  O  O92  1  0.24471415  0.65294544  0.11508220  1
  O  O93  1  0.75528585  0.84705456  0.61508220  1
  O  O94  1  0.75528585  0.34705456  0.88491780  1
  O  O95  1  0.24471415  0.15294544  0.38491780  1
  O  O96  1  0.86376324  0.92427524  0.08880296  1
  O  O97  1  0.13623676  0.57572476  0.58880296  1
  O  O98  1  0.13623676  0.07572476  0.91119704  1
  O  O99  1  0.86376324  0.42427524  0.41119704  1
  O  O100  1  0.80934493  0.51033115  0.21647139  1
  O  O101  1  0.19065507  0.98966885  0.71647139  1
  O  O102  1  0.19065507  0.48966885  0.78352861  1
  O  O103  1  0.80934493  0.01033115  0.28352861  1
  O  O104  1  0.43382307  0.93847876  0.08035631  1
  O  O105  1  0.56617693  0.56152124  0.58035631  1
  O  O106  1  0.56617693  0.06152124  0.91964369  1
  O  O107  1  0.43382307  0.43847876  0.41964369  1
  O  O108  1  0.18577569  0.94251943  0.12135891  1
  O  O109  1  0.81422431  0.55748057  0.62135891  1
  O  O110  1  0.81422431  0.05748057  0.87864109  1
  O  O111  1  0.18577569  0.44251943  0.37864109  1
  O  O112  1  0.28557749  0.83686547  0.14780642  1
  O  O113  1  0.71442251  0.66313453  0.64780642  1
  O  O114  1  0.71442251  0.16313453  0.85219358  1
  O  O115  1  0.28557749  0.33686547  0.35219358  1
  O  O116  1  0.60923795  0.69506384  0.19904415  1
  O  O117  1  0.39076205  0.80493616  0.69904415  1
  O  O118  1  0.39076205  0.30493616  0.80095585  1
  O  O119  1  0.60923795  0.19506384  0.30095585  1
  O  O120  1  0.31823681  0.74549305  0.32398870  1
  O  O121  1  0.68176319  0.75450695  0.82398870  1
  O  O122  1  0.68176319  0.25450695  0.67601130  1
  O  O123  1  0.31823681  0.24549305  0.17601130  1
  O  O124  1  0.25066879  0.96581125  0.40052308  1
  O  O125  1  0.74933121  0.53418875  0.90052308  1
  O  O126  1  0.74933121  0.03418875  0.59947692  1
  O  O127  1  0.25066879  0.46581125  0.09947692  1
