# generated using pymatgen
data_ReAgO4
_symmetry_space_group_name_H-M   'P 1'
_cell_length_a   5.54673954
_cell_length_b   5.54563425
_cell_length_c   7.05000818
_cell_angle_alpha   113.18329311
_cell_angle_beta   113.25764622
_cell_angle_gamma   90.02508263
_symmetry_Int_Tables_number   1
_chemical_formula_structural   ReAgO4
_chemical_formula_sum   'Re2 Ag2 O8'
_cell_volume   180.00195166
_cell_formula_units_Z   2
loop_
 _symmetry_equiv_pos_site_id
 _symmetry_equiv_pos_as_xyz
  1  'x, y, z'
loop_
 _atom_site_type_symbol
 _atom_site_label
 _atom_site_symmetry_multiplicity
 _atom_site_fract_x
 _atom_site_fract_y
 _atom_site_fract_z
 _atom_site_occupancy
  O  O0  1  0.18947570  0.83791635  0.92132945  1
  O  O1  1  0.08305903  0.68939375  0.42096470  1
  O  O2  1  0.33760754  0.23238959  0.42114586  1
  O  O3  1  0.73208871  0.58285613  0.92079929  1
  O  O4  1  0.26791129  0.41714387  0.07920071  1
  O  O5  1  0.66239246  0.76761041  0.57885414  1
  O  O6  1  0.91694097  0.31060625  0.57903530  1
  O  O7  1  0.81052430  0.16208365  0.07867055  1
  Ag  Ag8  1  0.62560243  0.87428479  0.24989955  1
  Ag  Ag9  1  0.37439757  0.12571521  0.75010045  1
  Re  Re10  1  0.87518151  0.62468204  0.75001497  1
  Re  Re11  1  0.12481849  0.37531796  0.24998503  1
