# generated using pymatgen
data_Ho2H4CO7
_symmetry_space_group_name_H-M   'P 1'
_cell_length_a   6.30527070
_cell_length_b   6.03492141
_cell_length_c   15.46622174
_cell_angle_alpha   90.00000000
_cell_angle_beta   96.98373094
_cell_angle_gamma   90.00000000
_symmetry_Int_Tables_number   1
_chemical_formula_structural   Ho2H4CO7
_chemical_formula_sum   'Ho8 H16 C4 O28'
_cell_volume   584.15139965
_cell_formula_units_Z   4
loop_
 _symmetry_equiv_pos_site_id
 _symmetry_equiv_pos_as_xyz
  1  'x, y, z'
loop_
 _atom_site_type_symbol
 _atom_site_label
 _atom_site_symmetry_multiplicity
 _atom_site_fract_x
 _atom_site_fract_y
 _atom_site_fract_z
 _atom_site_occupancy
  Ho  Ho0  1  0.58887749  0.24971900  0.56541115  1
  Ho  Ho1  1  0.41112251  0.74971900  0.93458885  1
  Ho  Ho2  1  0.41112251  0.75028100  0.43458885  1
  Ho  Ho3  1  0.58887749  0.25028100  0.06541115  1
  Ho  Ho4  1  0.57878632  0.26369219  0.81845174  1
  Ho  Ho5  1  0.42121368  0.76369219  0.68154826  1
  Ho  Ho6  1  0.42121368  0.73630781  0.18154826  1
  Ho  Ho7  1  0.57878632  0.23630781  0.31845174  1
  H  H8  1  0.22049376  0.33164425  0.92862288  1
  H  H9  1  0.77950624  0.83164425  0.57137712  1
  H  H10  1  0.77950624  0.66835575  0.07137712  1
  H  H11  1  0.22049376  0.16835575  0.42862288  1
  H  H12  1  0.80926546  0.97342978  0.94694894  1
  H  H13  1  0.19073454  0.47342978  0.55305106  1
  H  H14  1  0.19073454  0.02657022  0.05305106  1
  H  H15  1  0.80926546  0.52657022  0.44694894  1
  H  H16  1  0.82242015  0.96768699  0.70849885  1
  H  H17  1  0.17757985  0.46768699  0.79150115  1
  H  H18  1  0.17757985  0.03231301  0.29150115  1
  H  H19  1  0.82242015  0.53231301  0.20849885  1
  H  H20  1  0.18694068  0.01331010  0.80440276  1
  H  H21  1  0.81305932  0.51331010  0.69559724  1
  H  H22  1  0.81305932  0.98668990  0.19559724  1
  H  H23  1  0.18694068  0.48668990  0.30440276  1
  C  C24  1  0.09756377  0.07521438  0.61734065  1
  C  C25  1  0.90243623  0.57521438  0.88265935  1
  C  C26  1  0.90243623  0.92478562  0.38265935  1
  C  C27  1  0.09756377  0.42478562  0.11734065  1
  O  O28  1  0.69661754  0.61214090  0.87627700  1
  O  O29  1  0.30338246  0.11214090  0.62372300  1
  O  O30  1  0.30338246  0.38785910  0.12372300  1
  O  O31  1  0.69661754  0.88785910  0.37627700  1
  O  O32  1  0.95477576  0.38027876  0.85547188  1
  O  O33  1  0.04522424  0.88027876  0.64452812  1
  O  O34  1  0.04522424  0.61972124  0.14452812  1
  O  O35  1  0.95477576  0.11972124  0.35547188  1
  O  O36  1  0.37260242  0.36804285  0.94233549  1
  O  O37  1  0.62739758  0.86804285  0.55766451  1
  O  O38  1  0.62739758  0.63195715  0.05766451  1
  O  O39  1  0.37260242  0.13195715  0.44233549  1
  O  O40  1  0.67272924  0.05070626  0.94789185  1
  O  O41  1  0.32727076  0.55070626  0.55210815  1
  O  O42  1  0.32727076  0.94929374  0.05210815  1
  O  O43  1  0.67272924  0.44929374  0.44789185  1
  O  O44  1  0.68789325  0.00197071  0.73144658  1
  O  O45  1  0.31210675  0.50197071  0.76855342  1
  O  O46  1  0.31210675  0.99802929  0.26855342  1
  O  O47  1  0.68789325  0.49802929  0.23144658  1
  O  O48  1  0.96358042  0.22244631  0.58713793  1
  O  O49  1  0.03641958  0.72244631  0.91286207  1
  O  O50  1  0.03641958  0.77755369  0.41286207  1
  O  O51  1  0.96358042  0.27755369  0.08713793  1
  O  O52  1  0.66265987  0.47252162  0.68913496  1
  O  O53  1  0.33734013  0.97252162  0.81086504  1
  O  O54  1  0.33734013  0.52747838  0.31086504  1
  O  O55  1  0.66265987  0.02747838  0.18913496  1
