# generated using pymatgen
data_NaCa2Al4H8C4ClO20
_symmetry_space_group_name_H-M   'P 1'
_cell_length_a   11.32833534
_cell_length_b   11.32833534
_cell_length_c   6.61888930
_cell_angle_alpha   90.00000000
_cell_angle_beta   90.00000000
_cell_angle_gamma   90.00000000
_symmetry_Int_Tables_number   1
_chemical_formula_structural   NaCa2Al4H8C4ClO20
_chemical_formula_sum   'Na2 Ca4 Al8 H16 C8 Cl2 O40'
_cell_volume   849.40988459
_cell_formula_units_Z   2
loop_
 _symmetry_equiv_pos_site_id
 _symmetry_equiv_pos_as_xyz
  1  'x, y, z'
loop_
 _atom_site_type_symbol
 _atom_site_label
 _atom_site_symmetry_multiplicity
 _atom_site_fract_x
 _atom_site_fract_y
 _atom_site_fract_z
 _atom_site_occupancy
  Na  Na0  1  0.75000000  0.75000000  0.06741729  1
  Na  Na1  1  0.25000000  0.25000000  0.93258271  1
  Ca  Ca2  1  0.50000000  0.50000000  0.00000000  1
  Ca  Ca3  1  0.00000000  0.50000000  0.00000000  1
  Ca  Ca4  1  0.50000000  0.00000000  0.00000000  1
  Ca  Ca5  1  0.00000000  0.00000000  0.00000000  1
  Al  Al6  1  0.09507143  0.90492857  0.50000000  1
  Al  Al7  1  0.40492857  0.90492857  0.50000000  1
  Al  Al8  1  0.09507143  0.59507143  0.50000000  1
  Al  Al9  1  0.40492857  0.59507143  0.50000000  1
  Al  Al10  1  0.90492857  0.09507143  0.50000000  1
  Al  Al11  1  0.59507143  0.09507143  0.50000000  1
  Al  Al12  1  0.90492857  0.40492857  0.50000000  1
  Al  Al13  1  0.59507143  0.40492857  0.50000000  1
  H  H14  1  0.43955311  0.75000000  0.26199140  1
  H  H15  1  0.06044689  0.75000000  0.26199140  1
  H  H16  1  0.75000000  0.43955311  0.26199140  1
  H  H17  1  0.75000000  0.06044689  0.26199140  1
  H  H18  1  0.56044689  0.25000000  0.73800860  1
  H  H19  1  0.93955311  0.25000000  0.73800860  1
  H  H20  1  0.25000000  0.56044689  0.73800860  1
  H  H21  1  0.25000000  0.93955311  0.73800860  1
  H  H22  1  0.87862441  0.87862441  0.42120669  1
  H  H23  1  0.62137559  0.87862441  0.42120669  1
  H  H24  1  0.87862441  0.62137559  0.42120669  1
  H  H25  1  0.62137559  0.62137559  0.42120669  1
  H  H26  1  0.12137559  0.12137559  0.57879331  1
  H  H27  1  0.37862441  0.12137559  0.57879331  1
  H  H28  1  0.12137559  0.37862441  0.57879331  1
  H  H29  1  0.37862441  0.37862441  0.57879331  1
  C  C30  1  0.01438086  0.75000000  0.84395982  1
  C  C31  1  0.48561914  0.75000000  0.84395982  1
  C  C32  1  0.75000000  0.01438086  0.84395982  1
  C  C33  1  0.75000000  0.48561914  0.84395982  1
  C  C34  1  0.98561914  0.25000000  0.15604018  1
  C  C35  1  0.51438086  0.25000000  0.15604018  1
  C  C36  1  0.25000000  0.98561914  0.15604018  1
  C  C37  1  0.25000000  0.51438086  0.15604018  1
  Cl  Cl38  1  0.75000000  0.75000000  0.52229938  1
  Cl  Cl39  1  0.25000000  0.25000000  0.47770062  1
  O  O40  1  0.40776910  0.75000000  0.40002961  1
  O  O41  1  0.09223090  0.75000000  0.40002961  1
  O  O42  1  0.75000000  0.40776910  0.40002961  1
  O  O43  1  0.75000000  0.09223090  0.40002961  1
  O  O44  1  0.59223090  0.25000000  0.59997039  1
  O  O45  1  0.90776910  0.25000000  0.59997039  1
  O  O46  1  0.25000000  0.59223090  0.59997039  1
  O  O47  1  0.25000000  0.90776910  0.59997039  1
  O  O48  1  0.93889513  0.93889513  0.39194747  1
  O  O49  1  0.56110487  0.93889513  0.39194747  1
  O  O50  1  0.93889513  0.56110487  0.39194747  1
  O  O51  1  0.56110487  0.56110487  0.39194747  1
  O  O52  1  0.06110487  0.06110487  0.60805253  1
  O  O53  1  0.43889513  0.06110487  0.60805253  1
  O  O54  1  0.06110487  0.43889513  0.60805253  1
  O  O55  1  0.43889513  0.43889513  0.60805253  1
  O  O56  1  0.14981493  0.96085032  0.24081265  1
  O  O57  1  0.35018507  0.96085032  0.24081265  1
  O  O58  1  0.14981493  0.53914968  0.24081265  1
  O  O59  1  0.35018507  0.53914968  0.24081265  1
  O  O60  1  0.96085032  0.14981493  0.24081265  1
  O  O61  1  0.53914968  0.14981493  0.24081265  1
  O  O62  1  0.96085032  0.35018507  0.24081265  1
  O  O63  1  0.53914968  0.35018507  0.24081265  1
  O  O64  1  0.85018507  0.03914968  0.75918735  1
  O  O65  1  0.64981493  0.03914968  0.75918735  1
  O  O66  1  0.85018507  0.46085032  0.75918735  1
  O  O67  1  0.64981493  0.46085032  0.75918735  1
  O  O68  1  0.03914968  0.85018507  0.75918735  1
  O  O69  1  0.46085032  0.85018507  0.75918735  1
  O  O70  1  0.03914968  0.64981493  0.75918735  1
  O  O71  1  0.46085032  0.64981493  0.75918735  1
  O  O72  1  0.96598061  0.75000000  0.01944572  1
  O  O73  1  0.53401939  0.75000000  0.01944572  1
  O  O74  1  0.75000000  0.96598061  0.01944572  1
  O  O75  1  0.75000000  0.53401939  0.01944572  1
  O  O76  1  0.03401939  0.25000000  0.98055428  1
  O  O77  1  0.46598061  0.25000000  0.98055428  1
  O  O78  1  0.25000000  0.03401939  0.98055428  1
  O  O79  1  0.25000000  0.46598061  0.98055428  1
