# generated using pymatgen
data_Ba(CuO)2
_symmetry_space_group_name_H-M   'P 1'
_cell_length_a   5.79748461
_cell_length_b   5.79748461
_cell_length_c   6.52359170
_cell_angle_alpha   116.38160582
_cell_angle_beta   116.38160578
_cell_angle_gamma   90.00000001
_symmetry_Int_Tables_number   1
_chemical_formula_structural   Ba(CuO)2
_chemical_formula_sum   'Ba2 Cu4 O4'
_cell_volume   170.56239969
_cell_formula_units_Z   2
loop_
 _symmetry_equiv_pos_site_id
 _symmetry_equiv_pos_as_xyz
  1  'x, y, z'
loop_
 _atom_site_type_symbol
 _atom_site_label
 _atom_site_symmetry_multiplicity
 _atom_site_fract_x
 _atom_site_fract_y
 _atom_site_fract_z
 _atom_site_occupancy
  O  O0  1  0.61292212  0.86292212  0.22584425  1
  O  O1  1  0.86292212  0.61292212  0.72584425  1
  O  O2  1  0.38707788  0.13707788  0.77415575  1
  O  O3  1  0.13707788  0.38707788  0.27415575  1
  Cu  Cu4  1  0.50000000  0.50000000  0.50000000  1
  Cu  Cu5  1  0.50000000  0.00000000  0.00000000  1
  Cu  Cu6  1  0.00000000  0.50000000  0.50000000  1
  Cu  Cu7  1  0.50000000  0.50000000  0.00000000  1
  Ba  Ba8  1  0.87500000  0.12500000  0.75000000  1
  Ba  Ba9  1  0.12500000  0.87500000  0.25000000  1
