# generated using pymatgen
data_BaSeO3
_symmetry_space_group_name_H-M   'P 1'
_cell_length_a   4.76147813
_cell_length_b   5.77056924
_cell_length_c   7.06238920
_cell_angle_alpha   90.00000000
_cell_angle_beta   107.91654024
_cell_angle_gamma   90.00000000
_symmetry_Int_Tables_number   1
_chemical_formula_structural   BaSeO3
_chemical_formula_sum   'Ba2 Se2 O6'
_cell_volume   184.63901006
_cell_formula_units_Z   2
loop_
 _symmetry_equiv_pos_site_id
 _symmetry_equiv_pos_as_xyz
  1  'x, y, z'
loop_
 _atom_site_type_symbol
 _atom_site_label
 _atom_site_symmetry_multiplicity
 _atom_site_fract_x
 _atom_site_fract_y
 _atom_site_fract_z
 _atom_site_occupancy
  O  O0  1  0.17289680  0.98254088  0.32450981  1
  O  O1  1  0.82710320  0.48254088  0.67549019  1
  O  O2  1  0.82710320  0.01745912  0.67549019  1
  O  O3  1  0.17289680  0.51745912  0.32450981  1
  O  O4  1  0.68628950  0.75000000  0.11385212  1
  O  O5  1  0.31371050  0.25000000  0.88614788  1
  Se  Se6  1  0.93525858  0.25000000  0.83643807  1
  Se  Se7  1  0.06474142  0.75000000  0.16356193  1
  Ba  Ba8  1  0.34592850  0.75000000  0.70527350  1
  Ba  Ba9  1  0.65407150  0.25000000  0.29472650  1
