# generated using pymatgen
data_NaMgFe(SO4)3
_symmetry_space_group_name_H-M   'P 1'
_cell_length_a   8.95886740
_cell_length_b   8.95886790
_cell_length_c   8.95886748
_cell_angle_alpha   57.51167067
_cell_angle_beta   57.51166863
_cell_angle_gamma   57.51166863
_symmetry_Int_Tables_number   1
_chemical_formula_structural   NaMgFe(SO4)3
_chemical_formula_sum   'Na2 Mg2 Fe2 S6 O24'
_cell_volume   479.34871628
_cell_formula_units_Z   2
loop_
 _symmetry_equiv_pos_site_id
 _symmetry_equiv_pos_as_xyz
  1  'x, y, z'
loop_
 _atom_site_type_symbol
 _atom_site_label
 _atom_site_symmetry_multiplicity
 _atom_site_fract_x
 _atom_site_fract_y
 _atom_site_fract_z
 _atom_site_occupancy
  Na  Na0  1  0.00000000  0.00000000  0.00000000  1
  Na  Na1  1  0.50000000  0.50000000  0.50000000  1
  Mg  Mg2  1  0.14790144  0.14790144  0.14790144  1
  Mg  Mg3  1  0.85209856  0.85209856  0.85209856  1
  Fe  Fe4  1  0.35148066  0.35148066  0.35148066  1
  Fe  Fe5  1  0.64851934  0.64851934  0.64851934  1
  S  S6  1  0.04001486  0.75551716  0.45143844  1
  S  S7  1  0.45143844  0.04001486  0.75551716  1
  S  S8  1  0.75551716  0.45143844  0.04001486  1
  S  S9  1  0.24448284  0.54856156  0.95998514  1
  S  S10  1  0.54856156  0.95998514  0.24448284  1
  S  S11  1  0.95998514  0.24448284  0.54856156  1
  O  O12  1  0.12380069  0.27657930  0.51777616  1
  O  O13  1  0.27657930  0.51777616  0.12380069  1
  O  O14  1  0.06961557  0.91307116  0.27200204  1
  O  O15  1  0.51777616  0.12380069  0.27657930  1
  O  O16  1  0.21379019  0.58147523  0.43652330  1
  O  O17  1  0.00658073  0.79376157  0.60834415  1
  O  O18  1  0.27200204  0.06961557  0.91307116  1
  O  O19  1  0.43652330  0.21379019  0.58147523  1
  O  O20  1  0.58147523  0.43652330  0.21379019  1
  O  O21  1  0.20623843  0.39165585  0.99341927  1
  O  O22  1  0.08692884  0.72799796  0.93038443  1
  O  O23  1  0.60834415  0.00658073  0.79376157  1
  O  O24  1  0.39165585  0.99341927  0.20623843  1
  O  O25  1  0.91307116  0.27200204  0.06961557  1
  O  O26  1  0.79376157  0.60834415  0.00658073  1
  O  O27  1  0.41852477  0.56347670  0.78620981  1
  O  O28  1  0.56347670  0.78620981  0.41852477  1
  O  O29  1  0.72799796  0.93038443  0.08692884  1
  O  O30  1  0.99341927  0.20623843  0.39165585  1
  O  O31  1  0.78620981  0.41852477  0.56347670  1
  O  O32  1  0.48222384  0.87619931  0.72342070  1
  O  O33  1  0.93038443  0.08692884  0.72799796  1
  O  O34  1  0.72342070  0.48222384  0.87619931  1
  O  O35  1  0.87619931  0.72342070  0.48222384  1
