# generated using pymatgen
data_Na2Ca4ZrNbSi4O17F
_symmetry_space_group_name_H-M   'P 1'
_cell_length_a   7.37812351
_cell_length_b   10.40146963
_cell_length_c   10.96446701
_cell_angle_alpha   90.00000000
_cell_angle_beta   108.91783729
_cell_angle_gamma   90.00000000
_symmetry_Int_Tables_number   1
_chemical_formula_structural   Na2Ca4ZrNbSi4O17F
_chemical_formula_sum   'Na4 Ca8 Zr2 Nb2 Si8 O34 F2'
_cell_volume   795.99833412
_cell_formula_units_Z   2
loop_
 _symmetry_equiv_pos_site_id
 _symmetry_equiv_pos_as_xyz
  1  'x, y, z'
loop_
 _atom_site_type_symbol
 _atom_site_label
 _atom_site_symmetry_multiplicity
 _atom_site_fract_x
 _atom_site_fract_y
 _atom_site_fract_z
 _atom_site_occupancy
  O  O0  1  0.63806009  0.37647139  0.52280348  1
  O  O1  1  0.36193991  0.87647139  0.47719652  1
  O  O2  1  0.42167314  0.10044842  0.08508592  1
  O  O3  1  0.57832686  0.60044842  0.91491408  1
  O  O4  1  0.22539700  0.60690529  0.21410786  1
  O  O5  1  0.77460300  0.10690529  0.78589214  1
  O  O6  1  0.43620822  0.37981357  0.22179480  1
  O  O7  1  0.56379178  0.87981357  0.77820520  1
  O  O8  1  0.04434341  0.38298633  0.24397248  1
  O  O9  1  0.95565659  0.88298633  0.75602752  1
  O  O10  1  0.02359166  0.82897887  0.28990120  1
  O  O11  1  0.97640834  0.32897887  0.71009880  1
  O  O12  1  0.20894747  0.12543774  0.23243361  1
  O  O13  1  0.48230908  0.36030821  0.71353930  1
  O  O14  1  0.90954787  0.28171995  0.46378339  1
  O  O15  1  0.51769092  0.86030821  0.28646070  1
  O  O16  1  0.31786983  0.26542960  0.47410180  1
  O  O17  1  0.68213017  0.76542960  0.52589820  1
  O  O18  1  0.07208161  0.03421350  0.45865819  1
  O  O19  1  0.92791839  0.53421350  0.54134181  1
  O  O20  1  0.65029607  0.02980593  0.48782566  1
  O  O21  1  0.34970393  0.52980593  0.51217434  1
  O  O22  1  0.77109683  0.16457243  0.22183157  1
  O  O23  1  0.22890317  0.66457243  0.77816843  1
  O  O24  1  0.87897347  0.76360408  0.99104165  1
  O  O25  1  0.12102653  0.26360408  0.00895835  1
  O  O26  1  0.38689583  0.75925592  0.01948648  1
  O  O27  1  0.61310417  0.25925592  0.98051352  1
  O  O28  1  0.91685400  0.49914325  0.99373821  1
  O  O29  1  0.08314600  0.99914325  0.00626179  1
  O  O30  1  0.29766113  0.50197424  0.97999183  1
  O  O31  1  0.70233887  0.00197424  0.02000817  1
  O  O32  1  0.79105253  0.62543774  0.76756639  1
  O  O33  1  0.09045213  0.78171995  0.53621661  1
  F  F34  1  0.25321339  0.11149838  0.75878593  1
  F  F35  1  0.74678661  0.61149838  0.24121407  1
  Na  Na36  1  0.31227269  0.93190120  0.87817744  1
  Na  Na37  1  0.68772731  0.43190120  0.12182256  1
  Na  Na38  1  0.44743905  0.08293374  0.63241157  1
  Na  Na39  1  0.55256095  0.58293374  0.36758843  1
  Si  Si40  1  0.80261764  0.62580435  0.92040070  1
  Si  Si41  1  0.19738236  0.12580435  0.07959930  1
  Si  Si42  1  0.36528585  0.63526661  0.92731540  1
  Si  Si43  1  0.63471415  0.13526661  0.07268460  1
  Si  Si44  1  0.43612754  0.38771948  0.56143182  1
  Si  Si45  1  0.56387246  0.88771948  0.43856818  1
  Si  Si46  1  0.87514261  0.38647765  0.56691421  1
  Si  Si47  1  0.12485739  0.88647765  0.43308579  1
  Ca  Ca48  1  0.30034352  0.31668007  0.84516932  1
  Ca  Ca49  1  0.94365800  0.08865285  0.63258939  1
  Ca  Ca50  1  0.20077265  0.81786103  0.14503711  1
  Ca  Ca51  1  0.79922735  0.31786103  0.85496289  1
  Ca  Ca52  1  0.05634200  0.58865285  0.36741061  1
  Ca  Ca53  1  0.69965648  0.81668007  0.15483068  1
  Ca  Ca54  1  0.44776447  0.70290196  0.65256130  1
  Ca  Ca55  1  0.55223553  0.20290196  0.34743870  1
  Zr  Zr56  1  0.05333380  0.20866800  0.34218587  1
  Zr  Zr57  1  0.94666620  0.70866800  0.65781413  1
  Nb  Nb58  1  0.80431938  0.94685591  0.86615138  1
  Nb  Nb59  1  0.19568062  0.44685591  0.13384862  1
