# generated using pymatgen
data_P2H16N4O7
_symmetry_space_group_name_H-M   'P 1'
_cell_length_a   6.76780133
_cell_length_b   6.76780133
_cell_length_c   13.78735816
_cell_angle_alpha   76.95208306
_cell_angle_beta   103.04791694
_cell_angle_gamma   122.43318238
_symmetry_Int_Tables_number   1
_chemical_formula_structural   P2H16N4O7
_chemical_formula_sum   'P4 H32 N8 O14'
_cell_volume   515.01378354
_cell_formula_units_Z   2
loop_
 _symmetry_equiv_pos_site_id
 _symmetry_equiv_pos_as_xyz
  1  'x, y, z'
loop_
 _atom_site_type_symbol
 _atom_site_label
 _atom_site_symmetry_multiplicity
 _atom_site_fract_x
 _atom_site_fract_y
 _atom_site_fract_z
 _atom_site_occupancy
  P  P0  1  0.26080760  0.44777604  0.65241290  1
  P  P1  1  0.44777604  0.26080760  0.84758710  1
  P  P2  1  0.73919240  0.55222396  0.34758710  1
  P  P3  1  0.55222396  0.73919240  0.15241290  1
  H  H4  1  0.52772231  0.95645703  0.61292936  1
  H  H5  1  0.95645703  0.52772231  0.88707064  1
  H  H6  1  0.47227769  0.04354297  0.38707064  1
  H  H7  1  0.04354297  0.47227769  0.11292936  1
  H  H8  1  0.50402974  0.14534915  0.66490854  1
  H  H9  1  0.14534915  0.50402974  0.83509146  1
  H  H10  1  0.49597026  0.85465085  0.33509146  1
  H  H11  1  0.85465085  0.49597026  0.16490854  1
  H  H12  1  0.77533178  0.22182024  0.64830292  1
  H  H13  1  0.22182024  0.77533178  0.85169708  1
  H  H14  1  0.22466822  0.77817976  0.35169708  1
  H  H15  1  0.77817976  0.22466822  0.14830292  1
  H  H16  1  0.58554375  0.22218628  0.54490627  1
  H  H17  1  0.22218628  0.58554375  0.95509373  1
  H  H18  1  0.41445625  0.77781372  0.45509373  1
  H  H19  1  0.77781372  0.41445625  0.04490627  1
  H  H20  1  0.95491733  0.64116929  0.64927440  1
  H  H21  1  0.64116929  0.95491733  0.85072560  1
  H  H22  1  0.04508267  0.35883071  0.35072560  1
  H  H23  1  0.35883071  0.04508267  0.14927440  1
  H  H24  1  0.00773597  0.92878977  0.61879775  1
  H  H25  1  0.92878977  0.00773597  0.88120225  1
  H  H26  1  0.99226403  0.07121023  0.38120225  1
  H  H27  1  0.07121023  0.99226403  0.11879775  1
  H  H28  1  0.88807616  0.74493532  0.52934852  1
  H  H29  1  0.74493532  0.88807616  0.97065148  1
  H  H30  1  0.11192384  0.25506468  0.47065148  1
  H  H31  1  0.25506468  0.11192384  0.02934852  1
  H  H32  1  0.72426053  0.70080342  0.61406731  1
  H  H33  1  0.70080342  0.72426053  0.88593269  1
  H  H34  1  0.27573947  0.29919658  0.38593269  1
  H  H35  1  0.29919658  0.27573947  0.11406731  1
  N  N36  1  0.59727084  0.13658570  0.61761189  1
  N  N37  1  0.13658570  0.59727084  0.88238811  1
  N  N38  1  0.40272916  0.86341430  0.38238811  1
  N  N39  1  0.86341430  0.40272916  0.11761189  1
  N  N40  1  0.89466914  0.75149047  0.60549700  1
  N  N41  1  0.75149047  0.89466914  0.89450300  1
  N  N42  1  0.10533086  0.24850953  0.39450300  1
  N  N43  1  0.24850953  0.10533086  0.10549700  1
  O  O44  1  0.45485338  0.45485338  0.75000000  1
  O  O45  1  0.54514662  0.54514662  0.25000000  1
  O  O46  1  0.17009155  0.22821562  0.60295019  1
  O  O47  1  0.22821562  0.17009155  0.89704981  1
  O  O48  1  0.82990845  0.77178438  0.39704981  1
  O  O49  1  0.77178438  0.82990845  0.10295019  1
  O  O50  1  0.41601058  0.67763108  0.58729902  1
  O  O51  1  0.67763108  0.41601058  0.91270098  1
  O  O52  1  0.58398942  0.32236892  0.41270098  1
  O  O53  1  0.32236892  0.58398942  0.08729902  1
  O  O54  1  0.06603060  0.44709589  0.69251045  1
  O  O55  1  0.44709589  0.06603060  0.80748955  1
  O  O56  1  0.93396940  0.55290411  0.30748955  1
  O  O57  1  0.55290411  0.93396940  0.19251045  1
