# generated using pymatgen
data_CrP4
_symmetry_space_group_name_H-M   'P 1'
_cell_length_a   5.19715700
_cell_length_b   5.72203848
_cell_length_c   5.97423618
_cell_angle_alpha   81.26808516
_cell_angle_beta   64.21698795
_cell_angle_gamma   69.57258309
_symmetry_Int_Tables_number   1
_chemical_formula_structural   CrP4
_chemical_formula_sum   'Cr2 P8'
_cell_volume   149.91685275
_cell_formula_units_Z   2
loop_
 _symmetry_equiv_pos_site_id
 _symmetry_equiv_pos_as_xyz
  1  'x, y, z'
loop_
 _atom_site_type_symbol
 _atom_site_label
 _atom_site_symmetry_multiplicity
 _atom_site_fract_x
 _atom_site_fract_y
 _atom_site_fract_z
 _atom_site_occupancy
  P  P0  1  0.49173440  0.30906598  0.56260166  1
  P  P1  1  0.94566393  0.19093402  0.56260166  1
  P  P2  1  0.18267493  0.32370867  0.17880855  1
  P  P3  1  0.63851652  0.17629133  0.17880855  1
  P  P4  1  0.81732507  0.67629133  0.82119145  1
  P  P5  1  0.36148348  0.82370867  0.82119145  1
  P  P6  1  0.05433607  0.80906598  0.43739834  1
  P  P7  1  0.50826560  0.69093402  0.43739834  1
  Cr  Cr8  1  0.06024570  0.25000000  0.87950860  1
  Cr  Cr9  1  0.93975430  0.75000000  0.12049140  1
