# generated using pymatgen
data_SbH12C4NF4
_symmetry_space_group_name_H-M   'P 1'
_cell_length_a   5.39923489
_cell_length_b   9.65010602
_cell_length_c   19.62346551
_cell_angle_alpha   90.00000000
_cell_angle_beta   88.33641203
_cell_angle_gamma   90.00000000
_symmetry_Int_Tables_number   1
_chemical_formula_structural   SbH12C4NF4
_chemical_formula_sum   'Sb4 H48 C16 N4 F16'
_cell_volume   1022.01418527
_cell_formula_units_Z   4
loop_
 _symmetry_equiv_pos_site_id
 _symmetry_equiv_pos_as_xyz
  1  'x, y, z'
loop_
 _atom_site_type_symbol
 _atom_site_label
 _atom_site_symmetry_multiplicity
 _atom_site_fract_x
 _atom_site_fract_y
 _atom_site_fract_z
 _atom_site_occupancy
  Sb  Sb0  1  0.55679379  0.59377725  0.91982238  1
  Sb  Sb1  1  0.55679379  0.90622275  0.41982238  1
  Sb  Sb2  1  0.44320621  0.09377725  0.58017762  1
  Sb  Sb3  1  0.44320621  0.40622275  0.08017762  1
  H  H4  1  0.17174720  0.35464368  0.42907825  1
  H  H5  1  0.69942293  0.75789570  0.22208208  1
  H  H6  1  0.92065355  0.87934673  0.70986507  1
  H  H7  1  0.76687346  0.00648645  0.93638676  1
  H  H8  1  0.92065355  0.62065327  0.20986507  1
  H  H9  1  0.03641361  0.59822410  0.44138618  1
  H  H10  1  0.72066249  0.66700963  0.14225885  1
  H  H11  1  0.00446697  0.57836444  0.75162935  1
  H  H12  1  0.03641361  0.90177590  0.94138618  1
  H  H13  1  0.71423748  0.05920817  0.79902766  1
  H  H14  1  0.12641413  0.09447315  0.13452035  1
  H  H15  1  0.85321512  0.25535189  0.86646584  1
  H  H16  1  0.96358639  0.40177590  0.55861382  1
  H  H17  1  0.22895718  0.78569183  0.24853980  1
  H  H18  1  0.27933751  0.33299037  0.85774115  1
  H  H19  1  0.73641987  0.95275346  0.14394918  1
  H  H20  1  0.73641987  0.54724654  0.64394918  1
  H  H21  1  0.07934645  0.37934673  0.79013493  1
  H  H22  1  0.23312654  0.99351355  0.06361324  1
  H  H23  1  0.23312654  0.50648645  0.56361324  1
  H  H24  1  0.76687346  0.49351355  0.43638676  1
  H  H25  1  0.99553303  0.07836444  0.74837065  1
  H  H26  1  0.07934645  0.12065327  0.29013493  1
  H  H27  1  0.26358013  0.04724654  0.85605082  1
  H  H28  1  0.99553303  0.42163556  0.24837065  1
  H  H29  1  0.71423748  0.44079183  0.29902766  1
  H  H30  1  0.14678488  0.74464811  0.13353516  1
  H  H31  1  0.82825280  0.85464368  0.07092175  1
  H  H32  1  0.17174720  0.14535632  0.92907825  1
  H  H33  1  0.30057707  0.25789570  0.27791792  1
  H  H34  1  0.28576252  0.94079183  0.20097234  1
  H  H35  1  0.77104282  0.28569183  0.25146020  1
  H  H36  1  0.87358587  0.59447315  0.36547965  1
  H  H37  1  0.72066249  0.83299037  0.64225885  1
  H  H38  1  0.00446697  0.92163556  0.25162935  1
  H  H39  1  0.87358587  0.90552685  0.86547965  1
  H  H40  1  0.69942293  0.74210430  0.72208208  1
  H  H41  1  0.77104282  0.21430817  0.75146020  1
  H  H42  1  0.14678488  0.75535189  0.63353416  1
  H  H43  1  0.27933751  0.16700963  0.35774115  1
  H  H44  1  0.22895718  0.71430817  0.74853980  1
  H  H45  1  0.12641413  0.40552685  0.63452035  1
  H  H46  1  0.26358013  0.45275346  0.35605082  1
  H  H47  1  0.96358639  0.09822410  0.05861382  1
  H  H48  1  0.82825280  0.64535632  0.57092175  1
  H  H49  1  0.30057707  0.24210430  0.77791792  1
  H  H50  1  0.85321512  0.24464811  0.36646584  1
  H  H51  1  0.28576252  0.55920817  0.70097234  1
  C  C52  1  0.89779928  0.58739923  0.61458950  1
  C  C53  1  0.06743782  0.47033997  0.59206197  1
  C  C54  1  0.14314595  0.86827857  0.21928589  1
  C  C55  1  0.93256218  0.97033997  0.90793803  1
  C  C56  1  0.14314595  0.63172143  0.71928589  1
  C  C57  1  0.82410817  0.70557269  0.18535667  1
  C  C58  1  0.85685405  0.13172143  0.78071411  1
  C  C59  1  0.17589183  0.20557269  0.31464333  1
  C  C60  1  0.10220072  0.08739923  0.88541050  1
  C  C61  1  0.17589183  0.29442731  0.81464333  1
  C  C62  1  0.85685405  0.36827857  0.28071411  1
  C  C63  1  0.10220072  0.41260077  0.38541050  1
  C  C64  1  0.06743782  0.02966003  0.09206197  1
  C  C65  1  0.93256218  0.52966003  0.40793803  1
  C  C66  1  0.89779928  0.91260077  0.11458950  1
  C  C67  1  0.82410817  0.79442731  0.68535667  1
  N  N68  1  0.98456787  0.19376593  0.83973997  1
  N  N69  1  0.01543213  0.69376593  0.66026003  1
  N  N70  1  0.98456787  0.30623407  0.33973997  1
  N  N71  1  0.01543213  0.80623407  0.16026003  1
  F  F72  1  0.31814977  0.59049782  0.13367624  1
  F  F73  1  0.56448051  0.68163065  0.82926853  1
  F  F74  1  0.31814977  0.90950218  0.63367624  1
  F  F75  1  0.51117406  0.78418184  0.96081392  1
  F  F76  1  0.91054434  0.88124298  0.43286438  1
  F  F77  1  0.43551949  0.18163065  0.67073147  1
  F  F78  1  0.51117406  0.71581816  0.46081392  1
  F  F79  1  0.48882594  0.21581816  0.03918608  1
  F  F80  1  0.08945566  0.11875702  0.56713562  1
  F  F81  1  0.48882594  0.28418184  0.53918608  1
  F  F82  1  0.91054434  0.61875702  0.93286438  1
  F  F83  1  0.56448051  0.81836935  0.32926853  1
  F  F84  1  0.68185023  0.40950218  0.86632376  1
  F  F85  1  0.43551949  0.31836935  0.17073147  1
  F  F86  1  0.08945566  0.38124298  0.06713562  1
  F  F87  1  0.68185023  0.09049782  0.36632376  1
