# generated using pymatgen
data_TiSnSb
_symmetry_space_group_name_H-M   'P 1'
_cell_length_a   5.51052612
_cell_length_b   5.63826203
_cell_length_c   10.16575956
_cell_angle_alpha   82.38900092
_cell_angle_beta   74.27421484
_cell_angle_gamma   60.74664009
_symmetry_Int_Tables_number   1
_chemical_formula_structural   TiSnSb
_chemical_formula_sum   'Ti4 Sn4 Sb4'
_cell_volume   265.25257057
_cell_formula_units_Z   4
loop_
 _symmetry_equiv_pos_site_id
 _symmetry_equiv_pos_as_xyz
  1  'x, y, z'
loop_
 _atom_site_type_symbol
 _atom_site_label
 _atom_site_symmetry_multiplicity
 _atom_site_fract_x
 _atom_site_fract_y
 _atom_site_fract_z
 _atom_site_occupancy
  Ti  Ti0  1  0.00142898  0.25000000  0.99714205  1
  Ti  Ti1  1  0.74857102  0.25000000  0.50285795  1
  Ti  Ti2  1  0.99857102  0.75000000  0.00285795  1
  Ti  Ti3  1  0.25142898  0.75000000  0.49714205  1
  Sn  Sn4  1  0.70776886  0.58446228  0.25000000  1
  Sn  Sn5  1  0.04223114  0.91553772  0.25000000  1
  Sn  Sn6  1  0.29223114  0.41553772  0.75000000  1
  Sn  Sn7  1  0.95776886  0.08446228  0.75000000  1
  Sb  Sb8  1  0.45267971  0.25000000  0.09464059  1
  Sb  Sb9  1  0.29732029  0.25000000  0.40535941  1
  Sb  Sb10  1  0.54732029  0.75000000  0.90535941  1
  Sb  Sb11  1  0.70267971  0.75000000  0.59464059  1
