# generated using pymatgen
data_TcAgO4
_symmetry_space_group_name_H-M   'P 1'
_cell_length_a   5.43436485
_cell_length_b   5.43379347
_cell_length_c   7.05064140
_cell_angle_alpha   112.66233047
_cell_angle_beta   112.65989338
_cell_angle_gamma   90.08270733
_symmetry_Int_Tables_number   1
_chemical_formula_structural   TcAgO4
_chemical_formula_sum   'Tc2 Ag2 O8'
_cell_volume   174.52671373
_cell_formula_units_Z   2
loop_
 _symmetry_equiv_pos_site_id
 _symmetry_equiv_pos_as_xyz
  1  'x, y, z'
loop_
 _atom_site_type_symbol
 _atom_site_label
 _atom_site_symmetry_multiplicity
 _atom_site_fract_x
 _atom_site_fract_y
 _atom_site_fract_z
 _atom_site_occupancy
  O  O0  1  0.22596859  0.07752275  0.91679185  1
  O  O1  1  0.83887123  0.72634021  0.41700443  1
  O  O2  1  0.57807239  0.19106229  0.41707558  1
  O  O3  1  0.69105937  0.33922803  0.91708311  1
  O  O4  1  0.30894063  0.66077197  0.08291689  1
  O  O5  1  0.42192761  0.80893771  0.58292442  1
  O  O6  1  0.16112877  0.27365979  0.58299557  1
  O  O7  1  0.77403141  0.92247725  0.08320815  1
  Tc  Tc8  1  0.37499769  0.12482984  0.74993083  1
  Tc  Tc9  1  0.62500231  0.87517016  0.25006917  1
  Ag  Ag10  1  0.87505620  0.62508273  0.75004469  1
  Ag  Ag11  1  0.12494380  0.37491727  0.24995531  1
