# generated using pymatgen
data_Mo2H12C4N2O15
_symmetry_space_group_name_H-M   'P 1'
_cell_length_a   7.12851937
_cell_length_b   7.81119076
_cell_length_c   14.37299302
_cell_angle_alpha   90.00000000
_cell_angle_beta   90.00000000
_cell_angle_gamma   96.79215734
_symmetry_Int_Tables_number   1
_chemical_formula_structural   Mo2H12C4N2O15
_chemical_formula_sum   'Mo4 H24 C8 N4 O30'
_cell_volume   794.70334337
_cell_formula_units_Z   2
loop_
 _symmetry_equiv_pos_site_id
 _symmetry_equiv_pos_as_xyz
  1  'x, y, z'
loop_
 _atom_site_type_symbol
 _atom_site_label
 _atom_site_symmetry_multiplicity
 _atom_site_fract_x
 _atom_site_fract_y
 _atom_site_fract_z
 _atom_site_occupancy
  Mo  Mo0  1  0.87814632  0.40272662  0.89103918  1
  Mo  Mo1  1  0.12185368  0.59727338  0.10896082  1
  Mo  Mo2  1  0.62185368  0.59727338  0.39103918  1
  Mo  Mo3  1  0.37814632  0.40272662  0.60896082  1
  H  H4  1  0.71934572  0.25764542  0.67637632  1
  H  H5  1  0.78615423  0.76029573  0.58574416  1
  H  H6  1  0.28065428  0.74235458  0.32362368  1
  H  H7  1  0.77997892  0.76938390  0.06594742  1
  H  H8  1  0.86424670  0.57066779  0.61451277  1
  H  H9  1  0.22002108  0.23061610  0.93405258  1
  H  H10  1  0.27997892  0.76938390  0.43405258  1
  H  H11  1  0.49493269  0.24229445  0.12993911  1
  H  H12  1  0.72002108  0.23061610  0.56594742  1
  H  H13  1  0.13575330  0.42933221  0.38548723  1
  H  H14  1  0.50506731  0.75770555  0.87006089  1
  H  H15  1  0.99493269  0.24229445  0.37006089  1
  H  H16  1  0.36424670  0.57066779  0.88548723  1
  H  H17  1  0.68364027  0.29401934  0.19880656  1
  H  H18  1  0.28615423  0.76029573  0.91425584  1
  H  H19  1  0.63575330  0.42933221  0.11451277  1
  H  H20  1  0.78065428  0.74235458  0.17637632  1
  H  H21  1  0.81635973  0.70598066  0.69880656  1
  H  H22  1  0.18364027  0.29401934  0.30119344  1
  H  H23  1  0.00506731  0.75770555  0.62993911  1
  H  H24  1  0.21934572  0.25764542  0.82362368  1
  H  H25  1  0.31635973  0.70598066  0.80119344  1
  H  H26  1  0.71384577  0.23970427  0.08574416  1
  H  H27  1  0.21384577  0.23970427  0.41425584  1
  C  C28  1  0.24397886  0.04508135  0.67335102  1
  C  C29  1  0.74134365  0.97741917  0.43371094  1
  C  C30  1  0.24134365  0.97741917  0.06628906  1
  C  C31  1  0.74397886  0.04508135  0.82664898  1
  C  C32  1  0.75602114  0.95491865  0.32664898  1
  C  C33  1  0.25602114  0.95491865  0.17335102  1
  C  C34  1  0.25865635  0.02258083  0.56628906  1
  C  C35  1  0.75865635  0.02258083  0.93371094  1
  N  N36  1  0.86698612  0.69878122  0.63218696  1
  N  N37  1  0.13301388  0.30121878  0.36781304  1
  N  N38  1  0.36698612  0.69878122  0.86781304  1
  N  N39  1  0.63301388  0.30121878  0.13218696  1
  O  O40  1  0.83063130  0.16007835  0.97686688  1
  O  O41  1  0.82108498  0.69566213  0.11683117  1
  O  O42  1  0.19944030  0.88102537  0.53131667  1
  O  O43  1  0.33063130  0.16007835  0.52313312  1
  O  O44  1  0.35228562  0.55520243  0.09203891  1
  O  O45  1  0.46373525  0.54083989  0.69783827  1
  O  O46  1  0.17787920  0.92509679  0.72309715  1
  O  O47  1  0.96373525  0.54083989  0.80216173  1
  O  O48  1  0.17891502  0.30433787  0.88316883  1
  O  O49  1  0.69568006  0.79905176  0.29617911  1
  O  O50  1  0.32212080  0.07490321  0.22309715  1
  O  O51  1  0.80431994  0.20094824  0.79617911  1
  O  O52  1  0.30431994  0.20094824  0.70382089  1
  O  O53  1  0.67787920  0.92509679  0.77690285  1
  O  O54  1  0.16936870  0.83992165  0.02313312  1
  O  O55  1  0.66936870  0.83992165  0.47686688  1
  O  O56  1  0.80055970  0.11897463  0.46868333  1
  O  O57  1  0.85228562  0.55520243  0.40796109  1
  O  O58  1  0.67891502  0.30433787  0.61683117  1
  O  O59  1  0.50000000  0.50000000  0.50000000  1
  O  O60  1  0.82212080  0.07490321  0.27690285  1
  O  O61  1  0.19568006  0.79905176  0.20382089  1
  O  O62  1  0.69944030  0.88102537  0.96868333  1
  O  O63  1  0.03626475  0.45916011  0.19783827  1
  O  O64  1  0.32108498  0.69566213  0.38316883  1
  O  O65  1  0.30055970  0.11897463  0.03131667  1
  O  O66  1  0.00000000  0.50000000  -0.00000000  1
  O  O67  1  0.14771438  0.44479757  0.59203891  1
  O  O68  1  0.64771438  0.44479757  0.90796109  1
  O  O69  1  0.53626475  0.45916011  0.30216173  1
