# generated using pymatgen
data_Ca4GdB3O10
_symmetry_space_group_name_H-M   'P 1'
_cell_length_a   3.58311321
_cell_length_b   8.15072789
_cell_length_c   9.05739423
_cell_angle_alpha   63.25959899
_cell_angle_beta   84.95874565
_cell_angle_gamma   78.73801079
_symmetry_Int_Tables_number   1
_chemical_formula_structural   Ca4GdB3O10
_chemical_formula_sum   'Ca4 Gd1 B3 O10'
_cell_volume   231.68287501
_cell_formula_units_Z   1
loop_
 _symmetry_equiv_pos_site_id
 _symmetry_equiv_pos_as_xyz
  1  'x, y, z'
loop_
 _atom_site_type_symbol
 _atom_site_label
 _atom_site_symmetry_multiplicity
 _atom_site_fract_x
 _atom_site_fract_y
 _atom_site_fract_z
 _atom_site_occupancy
  B  B0  1  0.08033088  0.85611588  0.38981839  1
  B  B1  1  0.08033088  0.24593427  0.61018161  1
  B  B2  1  0.70119047  0.62472073  0.00000000  1
  O  O3  1  0.60698425  0.79891875  0.00000000  1
  O  O4  1  0.27158599  0.76311677  0.53936908  1
  O  O5  1  0.42176299  0.17186967  0.00000000  1
  O  O6  1  0.74798963  0.46456968  0.14893012  1
  O  O7  1  0.74798963  0.61349980  0.85106988  1
  O  O8  1  0.88309120  0.38057520  0.65517850  1
  O  O9  1  0.88309120  0.03575370  0.34482150  1
  O  O10  1  0.08166797  0.05663661  0.71377707  1
  O  O11  1  0.08166797  0.77041368  0.28622293  1
  O  O12  1  0.27158599  0.30248585  0.46063092  1
  Ca  Ca13  1  0.65751051  0.55450033  0.36374265  1
  Ca  Ca14  1  0.65751051  0.91824298  0.63625735  1
  Ca  Ca15  1  0.32740336  0.47128683  0.77430140  1
  Ca  Ca16  1  0.32740336  0.24558823  0.22569860  1
  Gd  Gd17  1  0.00210321  0.99887104  0.00000000  1
