# generated using pymatgen
data_ThAs2
_symmetry_space_group_name_H-M   'P 1'
_cell_length_a   4.12765433
_cell_length_b   4.12765433
_cell_length_c   8.54400173
_cell_angle_alpha   90.00000000
_cell_angle_beta   90.00000000
_cell_angle_gamma   90.00000000
_symmetry_Int_Tables_number   1
_chemical_formula_structural   ThAs2
_chemical_formula_sum   'Th2 As4'
_cell_volume   145.56868808
_cell_formula_units_Z   2
loop_
 _symmetry_equiv_pos_site_id
 _symmetry_equiv_pos_as_xyz
  1  'x, y, z'
loop_
 _atom_site_type_symbol
 _atom_site_label
 _atom_site_symmetry_multiplicity
 _atom_site_fract_x
 _atom_site_fract_y
 _atom_site_fract_z
 _atom_site_occupancy
  As  As0  1  0.25000000  0.75000000  0.00000000  1
  As  As1  1  0.75000000  0.25000000  0.00000000  1
  As  As2  1  0.75000000  0.75000000  0.63960212  1
  As  As3  1  0.25000000  0.25000000  0.36039788  1
  Th  Th4  1  0.75000000  0.75000000  0.28186525  1
  Th  Th5  1  0.25000000  0.25000000  0.71813475  1
