# generated using pymatgen
data_Fe8H10O17
_symmetry_space_group_name_H-M   'P 1'
_cell_length_a   10.35028897
_cell_length_b   6.15534973
_cell_length_c   10.74646566
_cell_angle_alpha   89.48985802
_cell_angle_beta   85.96669887
_cell_angle_gamma   90.60534594
_symmetry_Int_Tables_number   1
_chemical_formula_structural   Fe8H10O17
_chemical_formula_sum   'Fe16 H20 O34'
_cell_volume   682.88783882
_cell_formula_units_Z   2
loop_
 _symmetry_equiv_pos_site_id
 _symmetry_equiv_pos_as_xyz
  1  'x, y, z'
loop_
 _atom_site_type_symbol
 _atom_site_label
 _atom_site_symmetry_multiplicity
 _atom_site_fract_x
 _atom_site_fract_y
 _atom_site_fract_z
 _atom_site_occupancy
  Fe  Fe0  1  0.32399896  0.01081069  0.09004512  1
  Fe  Fe1  1  0.16925409  0.99187222  0.60987924  1
  Fe  Fe2  1  0.83766469  0.25102087  0.57958543  1
  Fe  Fe3  1  0.70127584  0.22877483  0.08621541  1
  Fe  Fe4  1  0.67092025  0.00070022  0.79932818  1
  Fe  Fe5  1  0.85652215  0.00806236  0.28527987  1
  Fe  Fe6  1  0.17541798  0.24468539  0.31784824  1
  Fe  Fe7  1  0.35231000  0.24465026  0.80353243  1
  Fe  Fe8  1  0.32922991  0.49635177  0.09378749  1
  Fe  Fe9  1  0.15424037  0.49013644  0.61313313  1
  Fe  Fe10  1  0.84103797  0.73961982  0.58614317  1
  Fe  Fe11  1  0.84193698  0.75045622  0.97701205  1
  Fe  Fe12  1  0.67840929  0.48257581  0.80613393  1
  Fe  Fe13  1  0.85429323  0.51003073  0.28027136  1
  Fe  Fe14  1  0.16910537  0.75744488  0.32191680  1
  Fe  Fe15  1  0.33835738  0.74251368  0.80436955  1
  H  H16  1  0.39107830  0.98425715  0.33708340  1
  H  H17  1  0.43808582  0.98972491  0.60846890  1
  H  H18  1  0.89944369  0.16104962  0.85974200  1
  H  H19  1  0.66181835  0.97932872  0.51494531  1
  H  H20  1  0.99784400  0.99715879  0.47441305  1
  H  H21  1  0.68024197  0.87789503  0.19852406  1
  H  H22  1  0.49796831  0.25968424  0.98207324  1
  H  H23  1  0.09074711  0.18981340  0.81543690  1
  H  H24  1  0.37099156  0.52575772  0.35966321  1
  H  H25  1  0.01385387  0.49538823  0.42991027  1
  H  H26  1  0.42193648  0.49249255  0.60160483  1
  H  H27  1  0.52626657  0.74564385  0.92420717  1
  H  H28  1  0.64904688  0.50639849  0.52777005  1
  H  H29  1  0.12238359  0.73133056  0.06889577  1
  H  H30  1  0.52500720  0.82081876  0.13533233  1
  H  H31  1  0.09042029  0.71124406  0.82629987  1
  H  H32  1  0.03093521  0.49511458  0.95972561  1
  H  H33  1  0.95218043  0.16471163  0.99818579  1
  H  H34  1  0.56024461  0.51446873  0.20919705  1
  H  H35  1  0.60007702  0.31631644  0.29488443  1
  O  O36  1  0.31516317  0.99454612  0.28927020  1
  O  O37  1  0.04865108  0.00078977  0.32864615  1
  O  O38  1  0.36264758  0.99129435  0.66751103  1
  O  O39  1  0.31156467  0.99344544  0.91278405  1
  O  O40  1  0.80201938  0.23871679  0.76334997  1
  O  O41  1  0.54184807  0.24497035  0.81881562  1
  O  O42  1  0.86874583  0.25938638  0.15643000  1
  O  O43  1  0.81478108  0.25699253  0.40115608  1
  O  O44  1  0.69701861  0.98881706  0.59668393  1
  O  O45  1  0.97293773  0.99656280  0.56883118  1
  O  O46  1  0.65106404  0.01671647  0.23546387  1
  O  O47  1  0.70925603  0.98472131  0.97640638  1
  O  O48  1  0.20895737  0.25478537  0.13320194  1
  O  O49  1  0.47467443  0.25643714  0.07468949  1
  O  O50  1  0.15564829  0.23042487  0.74445748  1
  O  O51  1  0.20242592  0.24651557  0.49881351  1
  O  O52  1  0.31269210  0.50890556  0.29344472  1
  O  O53  1  0.04439250  0.49865860  0.33642929  1
  O  O54  1  0.35461145  0.49403984  0.66894387  1
  O  O55  1  0.31434445  0.49269227  0.91517726  1
  O  O56  1  0.79889487  0.74686096  0.77699802  1
  O  O57  1  0.53671626  0.74065257  0.83077450  1
  O  O58  1  0.85612971  0.75725953  0.16049650  1
  O  O59  1  0.81920380  0.74925995  0.40471354  1
  O  O60  1  0.69563408  0.49811698  0.60307718  1
  O  O61  1  0.96845039  0.49537281  0.57700250  1
  O  O62  1  0.72096354  0.49272435  0.98111462  1
  O  O63  1  0.19482754  0.74628017  0.12626579  1
  O  O64  1  0.45575820  0.75990216  0.08826358  1
  O  O65  1  0.15179914  0.73783199  0.74417189  1
  O  O66  1  0.20185043  0.74329657  0.49880152  1
  O  O67  1  0.02250574  0.65141117  0.94701716  1
  O  O68  1  0.96714400  0.09713136  0.91506296  1
  O  O69  1  0.62712679  0.46042217  0.26172558  1
