# generated using pymatgen
data_Rb2Ti(CuS2)2
_symmetry_space_group_name_H-M   'P 1'
_cell_length_a   5.63214823
_cell_length_b   5.63214823
_cell_length_c   13.38336134
_cell_angle_alpha   90.00000000
_cell_angle_beta   90.00000000
_cell_angle_gamma   90.00000000
_symmetry_Int_Tables_number   1
_chemical_formula_structural   Rb2Ti(CuS2)2
_chemical_formula_sum   'Rb4 Ti2 Cu4 S8'
_cell_volume   424.53485888
_cell_formula_units_Z   2
loop_
 _symmetry_equiv_pos_site_id
 _symmetry_equiv_pos_as_xyz
  1  'x, y, z'
loop_
 _atom_site_type_symbol
 _atom_site_label
 _atom_site_symmetry_multiplicity
 _atom_site_fract_x
 _atom_site_fract_y
 _atom_site_fract_z
 _atom_site_occupancy
  S  S0  1  0.73800546  0.73800546  0.65452311  1
  S  S1  1  0.26199454  0.26199454  0.65452311  1
  S  S2  1  0.73800546  0.73800546  0.34547689  1
  S  S3  1  0.73800546  0.26199454  0.15452311  1
  S  S4  1  0.26199454  0.73800546  0.84547689  1
  S  S5  1  0.26199454  0.26199454  0.34547689  1
  S  S6  1  0.26199454  0.73800546  0.15452311  1
  S  S7  1  0.73800546  0.26199454  0.84547689  1
  Ti  Ti8  1  0.50000000  0.50000000  0.75000000  1
  Ti  Ti9  1  0.50000000  0.50000000  0.25000000  1
  Cu  Cu10  1  0.00000000  0.50000000  0.75000000  1
  Cu  Cu11  1  0.50000000  0.00000000  0.75000000  1
  Cu  Cu12  1  0.00000000  0.50000000  0.25000000  1
  Cu  Cu13  1  0.50000000  0.00000000  0.25000000  1
  Rb  Rb14  1  0.75973534  0.75973534  0.00000000  1
  Rb  Rb15  1  0.24026466  0.75973534  0.50000000  1
  Rb  Rb16  1  0.75973534  0.24026466  0.50000000  1
  Rb  Rb17  1  0.24026466  0.24026466  0.00000000  1
