# generated using pymatgen
data_TbSiPt
_symmetry_space_group_name_H-M   'P 1'
_cell_length_a   4.31179704
_cell_length_b   7.05988670
_cell_length_c   7.47018478
_cell_angle_alpha   90.00000000
_cell_angle_beta   90.00000000
_cell_angle_gamma   90.00000000
_symmetry_Int_Tables_number   1
_chemical_formula_structural   TbSiPt
_chemical_formula_sum   'Tb4 Si4 Pt4'
_cell_volume   227.39839021
_cell_formula_units_Z   4
loop_
 _symmetry_equiv_pos_site_id
 _symmetry_equiv_pos_as_xyz
  1  'x, y, z'
loop_
 _atom_site_type_symbol
 _atom_site_label
 _atom_site_symmetry_multiplicity
 _atom_site_fract_x
 _atom_site_fract_y
 _atom_site_fract_z
 _atom_site_occupancy
  Tb  Tb0  1  0.75000000  0.50431655  0.70232305  1
  Tb  Tb1  1  0.75000000  0.00431655  0.79767695  1
  Tb  Tb2  1  0.25000000  0.49568345  0.29767695  1
  Tb  Tb3  1  0.25000000  0.99568345  0.20232305  1
  Si  Si4  1  0.75000000  0.68627080  0.08702853  1
  Si  Si5  1  0.75000000  0.18627080  0.41297147  1
  Si  Si6  1  0.25000000  0.31372920  0.91297147  1
  Si  Si7  1  0.25000000  0.81372920  0.58702853  1
  Pt  Pt8  1  0.75000000  0.29886182  0.08493061  1
  Pt  Pt9  1  0.75000000  0.79886182  0.41506939  1
  Pt  Pt10  1  0.25000000  0.70113818  0.91506939  1
  Pt  Pt11  1  0.25000000  0.20113818  0.58493061  1
