# generated using pymatgen
data_SrLaFeRuO6
_symmetry_space_group_name_H-M   'P 1'
_cell_length_a   5.63457661
_cell_length_b   5.63868834
_cell_length_c   7.92702879
_cell_angle_alpha   90.00000000
_cell_angle_beta   90.12167176
_cell_angle_gamma   90.00000000
_symmetry_Int_Tables_number   1
_chemical_formula_structural   SrLaFeRuO6
_chemical_formula_sum   'Sr2 La2 Fe2 Ru2 O12'
_cell_volume   251.85399007
_cell_formula_units_Z   2
loop_
 _symmetry_equiv_pos_site_id
 _symmetry_equiv_pos_as_xyz
  1  'x, y, z'
loop_
 _atom_site_type_symbol
 _atom_site_label
 _atom_site_symmetry_multiplicity
 _atom_site_fract_x
 _atom_site_fract_y
 _atom_site_fract_z
 _atom_site_occupancy
  Sr  Sr0  1  0.99483177  0.02583109  0.75054540  1
  Sr  Sr1  1  0.49483177  0.47416891  0.25054540  1
  La  La2  1  0.51033323  0.53462142  0.75026427  1
  La  La3  1  0.01033323  0.96537858  0.25026427  1
  Fe  Fe4  1  0.50025376  0.00272965  0.00015099  1
  Fe  Fe5  1  0.00025376  0.49727035  0.50015099  1
  Ru  Ru6  1  0.49981429  0.00112736  0.49994037  1
  Ru  Ru7  1  0.99981429  0.49887264  0.99994037  1
  O  O8  1  0.08273987  0.49114479  0.75049517  1
  O  O9  1  0.22032098  0.21821913  0.45829346  1
  O  O10  1  0.21706941  0.21939166  0.04236220  1
  O  O11  1  0.27134152  0.73013059  0.46066883  1
  O  O12  1  0.26970979  0.72820261  0.03813870  1
  O  O13  1  0.43358536  0.98503288  0.74914063  1
  O  O14  1  0.58273987  0.00885521  0.25049517  1
  O  O15  1  0.72032098  0.28178087  0.95829346  1
  O  O16  1  0.71706941  0.28060834  0.54236220  1
  O  O17  1  0.77134152  0.76986941  0.96066883  1
  O  O18  1  0.76970979  0.77179739  0.53813870  1
  O  O19  1  0.93358536  0.51496712  0.24914063  1
