# generated using pymatgen
data_Sr(BRh)2
_symmetry_space_group_name_H-M   'P 1'
_cell_length_a   5.62313149
_cell_length_b   5.62313149
_cell_length_c   6.16374626
_cell_angle_alpha   105.41202930
_cell_angle_beta   105.41202939
_cell_angle_gamma   114.66942797
_symmetry_Int_Tables_number   1
_chemical_formula_structural   Sr(BRh)2
_chemical_formula_sum   'Sr2 B4 Rh4'
_cell_volume   154.14962454
_cell_formula_units_Z   2
loop_
 _symmetry_equiv_pos_site_id
 _symmetry_equiv_pos_as_xyz
  1  'x, y, z'
loop_
 _atom_site_type_symbol
 _atom_site_label
 _atom_site_symmetry_multiplicity
 _atom_site_fract_x
 _atom_site_fract_y
 _atom_site_fract_z
 _atom_site_occupancy
  B  B0  1  0.54663680  0.45336320  0.25000000  1
  B  B1  1  0.79663680  0.20336320  0.75000000  1
  B  B2  1  0.20336320  0.79663680  0.25000000  1
  B  B3  1  0.45336320  0.54663680  0.75000000  1
  Sr  Sr4  1  0.87500000  0.12500000  0.25000000  1
  Sr  Sr5  1  0.12500000  0.87500000  0.75000000  1
  Rh  Rh6  1  0.50571933  0.75571933  0.51143866  1
  Rh  Rh7  1  0.75571933  0.50571933  0.01143866  1
  Rh  Rh8  1  0.49428067  0.24428067  0.48856134  1
  Rh  Rh9  1  0.24428067  0.49428067  0.98856134  1
