# generated using pymatgen
data_SeO2
_symmetry_space_group_name_H-M   'P 1'
_cell_length_a   5.20306999
_cell_length_b   8.71289833
_cell_length_c   8.71289833
_cell_angle_alpha   90.00000000
_cell_angle_beta   90.00000000
_cell_angle_gamma   90.00000000
_symmetry_Int_Tables_number   1
_chemical_formula_structural   SeO2
_chemical_formula_sum   'Se8 O16'
_cell_volume   394.98896306
_cell_formula_units_Z   8
loop_
 _symmetry_equiv_pos_site_id
 _symmetry_equiv_pos_as_xyz
  1  'x, y, z'
loop_
 _atom_site_type_symbol
 _atom_site_label
 _atom_site_symmetry_multiplicity
 _atom_site_fract_x
 _atom_site_fract_y
 _atom_site_fract_z
 _atom_site_occupancy
  O  O0  1  0.50000000  0.32024520  0.55387651  1
  O  O1  1  0.50000000  0.67975480  0.44612349  1
  O  O2  1  0.00000000  0.55387651  0.67975480  1
  O  O3  1  0.00000000  0.44612349  0.32024520  1
  O  O4  1  0.00000000  0.05387651  0.82024520  1
  O  O5  1  0.50000000  0.17975480  0.05387651  1
  O  O6  1  0.50000000  0.82024520  0.94612349  1
  O  O7  1  0.00000000  0.94612349  0.17975480  1
  O  O8  1  0.25000000  0.13808731  0.36191269  1
  O  O9  1  0.75000000  0.63808731  0.13808731  1
  O  O10  1  0.75000000  0.36191269  0.86191269  1
  O  O11  1  0.25000000  0.86191269  0.63808731  1
  O  O12  1  0.75000000  0.86191269  0.63808731  1
  O  O13  1  0.25000000  0.36191269  0.86191269  1
  O  O14  1  0.25000000  0.63808731  0.13808731  1
  O  O15  1  0.75000000  0.13808731  0.36191269  1
  Se  Se16  1  0.50000000  0.28716206  0.36737669  1
  Se  Se17  1  0.50000000  0.71283794  0.63262331  1
  Se  Se18  1  0.00000000  0.36737669  0.71283794  1
  Se  Se19  1  0.00000000  0.63262331  0.28716206  1
  Se  Se20  1  0.00000000  0.86737669  0.78716206  1
  Se  Se21  1  0.50000000  0.21283794  0.86737669  1
  Se  Se22  1  0.50000000  0.78716206  0.13262331  1
  Se  Se23  1  0.00000000  0.13262331  0.21283794  1
