# generated using pymatgen
data_Ca2As2O7
_symmetry_space_group_name_H-M   'P 1'
_cell_length_a   4.98852436
_cell_length_b   5.92819791
_cell_length_c   5.92819790
_cell_angle_alpha   105.67934142
_cell_angle_beta   97.03799424
_cell_angle_gamma   97.03799415
_symmetry_Int_Tables_number   1
_chemical_formula_structural   Ca2As2O7
_chemical_formula_sum   'Ca2 As2 O7'
_cell_volume   165.28179317
_cell_formula_units_Z   1
loop_
 _symmetry_equiv_pos_site_id
 _symmetry_equiv_pos_as_xyz
  1  'x, y, z'
loop_
 _atom_site_type_symbol
 _atom_site_label
 _atom_site_symmetry_multiplicity
 _atom_site_fract_x
 _atom_site_fract_y
 _atom_site_fract_z
 _atom_site_occupancy
  O  O0  1  0.27813765  0.91645988  0.61583428  1
  O  O1  1  0.72186235  0.38416572  0.08354012  1
  O  O2  1  0.72186235  0.08354012  0.38416572  1
  O  O3  1  0.27813765  0.61583428  0.91645988  1
  O  O4  1  0.00000000  0.00000000  0.00000000  1
  O  O5  1  0.78595174  0.61733544  0.61733544  1
  O  O6  1  0.21404826  0.38266456  0.38266456  1
  Ca  Ca7  1  0.50000000  0.69291265  0.30708735  1
  Ca  Ca8  1  0.50000000  0.30708735  0.69291265  1
  As  As9  1  0.09196606  0.77369923  0.77369923  1
  As  As10  1  0.90803394  0.22630077  0.22630077  1
