# generated using pymatgen
data_KSrAs(H4O3)4
_symmetry_space_group_name_H-M   'P 1'
_cell_length_a   12.87174439
_cell_length_b   12.87174439
_cell_length_c   12.87174439
_cell_angle_alpha   147.55917285
_cell_angle_beta   147.55917285
_cell_angle_gamma   46.53654292
_symmetry_Int_Tables_number   1
_chemical_formula_structural   KSrAs(H4O3)4
_chemical_formula_sum   'K2 Sr2 As2 H32 O24'
_cell_volume   611.46937139
_cell_formula_units_Z   2
loop_
 _symmetry_equiv_pos_site_id
 _symmetry_equiv_pos_as_xyz
  1  'x, y, z'
loop_
 _atom_site_type_symbol
 _atom_site_label
 _atom_site_symmetry_multiplicity
 _atom_site_fract_x
 _atom_site_fract_y
 _atom_site_fract_z
 _atom_site_occupancy
  K  K0  1  0.58978512  0.08978512  0.50000000  1
  K  K1  1  0.83978512  0.83978512  0.00000000  1
  Sr  Sr2  1  0.75052100  0.25052100  0.50000000  1
  Sr  Sr3  1  0.00052100  0.00052100  0.00000000  1
  As  As4  1  0.17244821  0.67244821  0.50000000  1
  As  As5  1  0.42244821  0.42244821  0.00000000  1
  H  H6  1  0.55660267  0.52344550  0.74817307  1
  H  H7  1  0.77527242  0.80842960  0.25182693  1
  H  H8  1  0.55842960  0.02527242  0.75182693  1
  H  H9  1  0.27344550  0.80660267  0.24817307  1
  H  H10  1  0.55660267  0.80842960  0.03315718  1
  H  H11  1  0.77527242  0.52344550  0.96684282  1
  H  H12  1  0.55842960  0.80660267  0.53315718  1
  H  H13  1  0.27344550  0.02527242  0.46684282  1
  H  H14  1  0.33035901  0.29464411  0.25595468  1
  H  H15  1  0.03868943  0.07440433  0.74404532  1
  H  H16  1  0.82440433  0.28868943  0.24404532  1
  H  H17  1  0.04464411  0.58035901  0.75595468  1
  H  H18  1  0.33035901  0.07440433  0.03571490  1
  H  H19  1  0.03868943  0.29464411  0.96428510  1
  H  H20  1  0.82440433  0.58035901  0.53571490  1
  H  H21  1  0.04464411  0.28868943  0.46428510  1
  H  H22  1  0.43774476  0.54159035  0.44837438  1
  H  H23  1  0.09321597  0.98937038  0.55162562  1
  H  H24  1  0.73937038  0.34321597  0.05162562  1
  H  H25  1  0.29159035  0.68774476  0.94837438  1
  H  H26  1  0.43774476  0.98937038  0.89615441  1
  H  H27  1  0.09321597  0.54159035  0.10384559  1
  H  H28  1  0.73937038  0.68774476  0.39615441  1
  H  H29  1  0.29159035  0.34321597  0.60384559  1
  H  H30  1  0.50500656  0.54446413  0.39168144  1
  H  H31  1  0.15278269  0.11332511  0.60831856  1
  H  H32  1  0.86332511  0.40278269  0.10831856  1
  H  H33  1  0.29446413  0.75500656  0.89168144  1
  H  H34  1  0.50500656  0.11332511  0.96054242  1
  H  H35  1  0.15278269  0.54446413  0.03945758  1
  H  H36  1  0.86332511  0.75500656  0.46054242  1
  H  H37  1  0.29446413  0.40278269  0.53945758  1
  O  O38  1  0.93119638  0.63265778  0.29853861  1
  O  O39  1  0.33411917  0.63265778  0.70146139  1
  O  O40  1  0.38265778  0.58411917  0.20146139  1
  O  O41  1  0.38265778  0.18119638  0.79853861  1
  O  O42  1  0.21255952  0.91444370  0.70188418  1
  O  O43  1  0.21255952  0.51067534  0.29811582  1
  O  O44  1  0.26067534  0.46255952  0.79811582  1
  O  O45  1  0.66444370  0.46255952  0.20188418  1
  O  O46  1  0.67867881  0.46443216  0.78575335  1
  O  O47  1  0.67867881  0.89292546  0.21424665  1
  O  O48  1  0.64292546  0.92867881  0.71424665  1
  O  O49  1  0.21443216  0.92867881  0.28575335  1
  O  O50  1  0.39860947  0.17553741  0.22307207  1
  O  O51  1  0.95246534  0.17553741  0.77692793  1
  O  O52  1  0.92553741  0.20246534  0.27692793  1
  O  O53  1  0.92553741  0.64860947  0.72307207  1
  O  O54  1  0.55575115  0.53618213  0.49955746  1
  O  O55  1  0.03662467  0.05619369  0.50044254  1
  O  O56  1  0.80619369  0.28662467  0.00044254  1
  O  O57  1  0.28618213  0.80575115  -0.00044254  1
  O  O58  1  0.55575115  0.05619369  0.01956902  1
  O  O59  1  0.03662467  0.53618213  0.98043098  1
  O  O60  1  0.80619369  0.80575115  0.51956902  1
  O  O61  1  0.28618213  0.28662467  0.48043098  1
