# generated using pymatgen
data_Li2Mn3ZnO8
_symmetry_space_group_name_H-M   'P 1'
_cell_length_a   8.30234767
_cell_length_b   8.30234767
_cell_length_c   8.30234767
_cell_angle_alpha   90.00000000
_cell_angle_beta   90.00000000
_cell_angle_gamma   90.00000000
_symmetry_Int_Tables_number   1
_chemical_formula_structural   Li2Mn3ZnO8
_chemical_formula_sum   'Li8 Mn12 Zn4 O32'
_cell_volume   572.27233021
_cell_formula_units_Z   4
loop_
 _symmetry_equiv_pos_site_id
 _symmetry_equiv_pos_as_xyz
  1  'x, y, z'
loop_
 _atom_site_type_symbol
 _atom_site_label
 _atom_site_symmetry_multiplicity
 _atom_site_fract_x
 _atom_site_fract_y
 _atom_site_fract_z
 _atom_site_occupancy
  Li  Li0  1  0.12505674  0.87494326  0.37494326  1
  Li  Li1  1  0.24938035  0.24938035  0.24938035  1
  Li  Li2  1  0.75061965  0.74938035  0.25061965  1
  Li  Li3  1  0.87494326  0.37494326  0.12505674  1
  Li  Li4  1  0.37494326  0.12505674  0.87494326  1
  Li  Li5  1  0.25061965  0.75061965  0.74938035  1
  Li  Li6  1  0.74938035  0.25061965  0.75061965  1
  Li  Li7  1  0.62505674  0.62505674  0.62505674  1
  Mn  Mn8  1  0.37780087  0.87601245  0.12304180  1
  Mn  Mn9  1  0.12398755  0.62304180  0.12219913  1
  Mn  Mn10  1  0.12304180  0.37780087  0.87601245  1
  Mn  Mn11  1  0.12219913  0.12398755  0.62304180  1
  Mn  Mn12  1  0.37695820  0.62219913  0.37601245  1
  Mn  Mn13  1  0.62398755  0.87695820  0.87780087  1
  Mn  Mn14  1  0.62219913  0.37601245  0.37695820  1
  Mn  Mn15  1  0.37601245  0.37695820  0.62219913  1
  Mn  Mn16  1  0.62304180  0.12219913  0.12398755  1
  Mn  Mn17  1  0.87780087  0.62398755  0.87695820  1
  Mn  Mn18  1  0.87695820  0.87780087  0.62398755  1
  Mn  Mn19  1  0.87601245  0.12304180  0.37780087  1
  Zn  Zn20  1  0.49870574  0.99870574  0.50129426  1
  Zn  Zn21  1  0.00129426  0.00129426  0.00129426  1
  Zn  Zn22  1  0.99870574  0.50129426  0.49870574  1
  Zn  Zn23  1  0.50129426  0.49870574  0.99870574  1
  O  O24  1  0.60603563  0.60129645  0.37115482  1
  O  O25  1  0.38669427  0.38669427  0.38669427  1
  O  O26  1  0.10603563  0.89870355  0.62884518  1
  O  O27  1  0.62884518  0.10603563  0.89870355  1
  O  O28  1  0.87877038  0.64808338  0.64146104  1
  O  O29  1  0.64808338  0.64146104  0.87877038  1
  O  O30  1  0.12884518  0.39396437  0.10129645  1
  O  O31  1  0.60129645  0.37115482  0.60603563  1
  O  O32  1  0.89396437  0.39870355  0.87115482  1
  O  O33  1  0.14808338  0.85853896  0.12122962  1
  O  O34  1  0.64146104  0.87877038  0.64808338  1
  O  O35  1  0.37115482  0.60603563  0.60129645  1
  O  O36  1  0.10129645  0.12884518  0.39396437  1
  O  O37  1  0.88669427  0.11330573  0.61330573  1
  O  O38  1  0.37877038  0.85191662  0.35853896  1
  O  O39  1  0.39870355  0.87115482  0.89396437  1
  O  O40  1  0.35853896  0.37877038  0.85191662  1
  O  O41  1  0.35191662  0.14146104  0.62122962  1
  O  O42  1  0.61330573  0.88669427  0.11330573  1
  O  O43  1  0.86290455  0.86290455  0.86290455  1
  O  O44  1  0.11330573  0.61330573  0.88669427  1
  O  O45  1  0.36290455  0.63709545  0.13709545  1
  O  O46  1  0.12122962  0.14808338  0.85853896  1
  O  O47  1  0.89870355  0.62884518  0.10603563  1
  O  O48  1  0.63709545  0.13709545  0.36290455  1
  O  O49  1  0.85191662  0.35853896  0.37877038  1
  O  O50  1  0.14146104  0.62122962  0.35191662  1
  O  O51  1  0.39396437  0.10129645  0.12884518  1
  O  O52  1  0.87115482  0.89396437  0.39870355  1
  O  O53  1  0.13709545  0.36290455  0.63709545  1
  O  O54  1  0.62122962  0.35191662  0.14146104  1
  O  O55  1  0.85853896  0.12122962  0.14808338  1
