# generated using pymatgen
data_Mg7P2(HO2)8
_symmetry_space_group_name_H-M   'P 1'
_cell_length_a   5.31895739
_cell_length_b   11.74682968
_cell_length_c   9.79872067
_cell_angle_alpha   90.00000000
_cell_angle_beta   96.56355256
_cell_angle_gamma   90.00000000
_symmetry_Int_Tables_number   1
_chemical_formula_structural   Mg7P2(HO2)8
_chemical_formula_sum   'Mg14 P4 H16 O32'
_cell_volume   608.21998403
_cell_formula_units_Z   2
loop_
 _symmetry_equiv_pos_site_id
 _symmetry_equiv_pos_as_xyz
  1  'x, y, z'
loop_
 _atom_site_type_symbol
 _atom_site_label
 _atom_site_symmetry_multiplicity
 _atom_site_fract_x
 _atom_site_fract_y
 _atom_site_fract_z
 _atom_site_occupancy
  Mg  Mg0  1  0.50000000  0.50000000  0.50000000  1
  Mg  Mg1  1  0.00000000  0.00000000  0.00000000  1
  Mg  Mg2  1  0.23914085  0.67488531  0.28910991  1
  Mg  Mg3  1  0.73914085  0.82511469  0.78910991  1
  Mg  Mg4  1  0.76085915  0.32511469  0.71089009  1
  Mg  Mg5  1  0.26085915  0.17488531  0.21089009  1
  Mg  Mg6  1  0.25110022  0.92954076  0.50390620  1
  Mg  Mg7  1  0.75110022  0.57045924  0.00390620  1
  Mg  Mg8  1  0.74889978  0.07045924  0.49609380  1
  Mg  Mg9  1  0.24889978  0.42954076  0.99609380  1
  Mg  Mg10  1  0.25808639  0.71018637  0.00559748  1
  Mg  Mg11  1  0.75808639  0.78981363  0.50559748  1
  Mg  Mg12  1  0.74191361  0.28981363  0.99440252  1
  Mg  Mg13  1  0.24191361  0.21018637  0.49440252  1
  P  P14  1  0.47076345  0.08053047  0.78804687  1
  P  P15  1  0.97076345  0.41946953  0.28804687  1
  P  P16  1  0.52923655  0.91946953  0.21195313  1
  P  P17  1  0.02923655  0.58053047  0.71195313  1
  H  H18  1  0.49639230  0.52369798  0.19581861  1
  H  H19  1  0.99639230  0.97630202  0.69581861  1
  H  H20  1  0.50360770  0.47630202  0.80418139  1
  H  H21  1  0.00360770  0.02369798  0.30418139  1
  H  H22  1  0.30670497  0.37215350  0.64938153  1
  H  H23  1  0.80670497  0.12784650  0.14938153  1
  H  H24  1  0.69329503  0.62784650  0.35061847  1
  H  H25  1  0.19329503  0.87215350  0.85061847  1
  H  H26  1  0.98208038  0.83637336  0.30763851  1
  H  H27  1  0.48208038  0.66362664  0.80763851  1
  H  H28  1  0.01791962  0.16362664  0.69236149  1
  H  H29  1  0.51791962  0.33637336  0.19236149  1
  H  H30  1  0.86701778  0.75261529  0.12397586  1
  H  H31  1  0.36701778  0.74738471  0.62397586  1
  H  H32  1  0.13298222  0.24738471  0.87602414  1
  H  H33  1  0.63298222  0.25261529  0.37602414  1
  O  O34  1  0.05639516  0.79633825  0.39092283  1
  O  O35  1  0.55639516  0.70366175  0.89092283  1
  O  O36  1  0.94360484  0.20366175  0.60907717  1
  O  O37  1  0.44360484  0.29633825  0.10907717  1
  O  O38  1  0.43917451  0.07023653  0.62502231  1
  O  O39  1  0.93917451  0.42976347  0.12502231  1
  O  O40  1  0.56082549  0.92976347  0.37497769  1
  O  O41  1  0.06082549  0.57023653  0.87497769  1
  O  O42  1  0.42669884  0.34705567  0.58751524  1
  O  O43  1  0.92669884  0.15294433  0.08751524  1
  O  O44  1  0.57330116  0.65294433  0.41248476  1
  O  O45  1  0.07330116  0.84705567  0.91248476  1
  O  O46  1  0.58257137  0.19917537  0.82600173  1
  O  O47  1  0.08257137  0.30082463  0.32600173  1
  O  O48  1  0.41742863  0.80082463  0.17399827  1
  O  O49  1  0.91742863  0.69917537  0.67399827  1
  O  O50  1  0.42835192  0.56249227  0.11076644  1
  O  O51  1  0.92835192  0.93750773  0.61076644  1
  O  O52  1  0.57164808  0.43750773  0.88923356  1
  O  O53  1  0.07164808  0.06249227  0.38923356  1
  O  O54  1  0.96417193  0.68193622  0.12374563  1
  O  O55  1  0.46417193  0.81806378  0.62374563  1
  O  O56  1  0.03582807  0.31806378  0.87625437  1
  O  O57  1  0.53582807  0.18193622  0.37625437  1
  O  O58  1  0.65234864  0.98661229  0.85326754  1
  O  O59  1  0.15234864  0.51338771  0.35326754  1
  O  O60  1  0.34765136  0.01338771  0.14673246  1
  O  O61  1  0.84765136  0.48661229  0.64673246  1
  O  O62  1  0.20184149  0.06931897  0.83475513  1
  O  O63  1  0.70184149  0.43068103  0.33475513  1
  O  O64  1  0.79815851  0.93068103  0.16524487  1
  O  O65  1  0.29815851  0.56931897  0.66524487  1
