# generated using pymatgen
data_CsHIF7
_symmetry_space_group_name_H-M   'P 1'
_cell_length_a   5.42341873
_cell_length_b   8.30770554
_cell_length_c   8.63617744
_cell_angle_alpha   109.39108348
_cell_angle_beta   107.53372412
_cell_angle_gamma   91.85868297
_symmetry_Int_Tables_number   1
_chemical_formula_structural   CsHIF7
_chemical_formula_sum   'Cs2 H2 I2 F14'
_cell_volume   346.17157167
_cell_formula_units_Z   2
loop_
 _symmetry_equiv_pos_site_id
 _symmetry_equiv_pos_as_xyz
  1  'x, y, z'
loop_
 _atom_site_type_symbol
 _atom_site_label
 _atom_site_symmetry_multiplicity
 _atom_site_fract_x
 _atom_site_fract_y
 _atom_site_fract_z
 _atom_site_occupancy
  Cs  Cs0  1  0.84652129  0.16723966  0.77044184  1
  Cs  Cs1  1  0.15347564  0.83276100  0.22955734  1
  H  H2  1  0.81746761  0.77849933  0.44288004  1
  H  H3  1  0.18253284  0.22150051  0.55711962  1
  I  I4  1  0.69367410  0.34913300  0.26131730  1
  I  I5  1  0.30632548  0.65086726  0.73868268  1
  F  F6  1  0.72950993  0.87637066  0.41324604  1
  F  F7  1  0.27049087  0.12362959  0.58675499  1
  F  F8  1  0.94716774  0.64750593  0.46980683  1
  F  F9  1  0.05283248  0.35249313  0.53019291  1
  F  F10  1  0.52531081  0.19055218  0.33549592  1
  F  F11  1  0.47468954  0.80944743  0.66450390  1
  F  F12  1  0.88572578  0.16639489  0.16395682  1
  F  F13  1  0.11427443  0.83360470  0.83604318  1
  F  F14  1  0.77605801  0.46090621  0.11022157  1
  F  F15  1  0.22394226  0.53909330  0.88977816  1
  F  F16  1  0.40925144  0.48566471  0.28232246  1
  F  F17  1  0.59074954  0.51433692  0.71767846  1
  F  F18  1  0.43196956  0.21983202  0.04548701  1
  F  F19  1  0.56803065  0.78016756  0.95451293  1
