# generated using pymatgen
data_GdMn2O5
_symmetry_space_group_name_H-M   'P 1'
_cell_length_a   5.80304351
_cell_length_b   7.44479186
_cell_length_c   8.63177165
_cell_angle_alpha   90.00000000
_cell_angle_beta   90.00000000
_cell_angle_gamma   90.00000000
_symmetry_Int_Tables_number   1
_chemical_formula_structural   GdMn2O5
_chemical_formula_sum   'Gd4 Mn8 O20'
_cell_volume   372.91369250
_cell_formula_units_Z   4
loop_
 _symmetry_equiv_pos_site_id
 _symmetry_equiv_pos_as_xyz
  1  'x, y, z'
loop_
 _atom_site_type_symbol
 _atom_site_label
 _atom_site_symmetry_multiplicity
 _atom_site_fract_x
 _atom_site_fract_y
 _atom_site_fract_z
 _atom_site_occupancy
  Gd  Gd0  1  0.00000000  0.86023746  0.82852907  1
  Gd  Gd1  1  0.00000000  0.13976254  0.17147093  1
  Gd  Gd2  1  0.00000000  0.36023746  0.67147093  1
  Gd  Gd3  1  0.00000000  0.63976254  0.32852907  1
  Mn  Mn4  1  0.74503857  0.00000000  0.50000000  1
  Mn  Mn5  1  0.50000000  0.58949840  0.65016352  1
  Mn  Mn6  1  0.50000000  0.41050160  0.34983648  1
  Mn  Mn7  1  0.50000000  0.91050160  0.15016352  1
  Mn  Mn8  1  0.50000000  0.08949840  0.84983648  1
  Mn  Mn9  1  0.25496143  0.50000000  0.00000000  1
  Mn  Mn10  1  0.74503857  0.50000000  0.00000000  1
  Mn  Mn11  1  0.25496143  0.00000000  0.50000000  1
  O  O12  1  0.00000000  0.33841945  0.94513976  1
  O  O13  1  0.72793768  0.00000000  0.00000000  1
  O  O14  1  0.27206232  0.00000000  0.00000000  1
  O  O15  1  0.50000000  0.15200581  0.43485918  1
  O  O16  1  0.00000000  0.16158055  0.44513976  1
  O  O17  1  0.72793768  0.50000000  0.50000000  1
  O  O18  1  0.00000000  0.83841945  0.55486024  1
  O  O19  1  0.75708121  0.60282518  0.79301610  1
  O  O20  1  0.24291879  0.10282518  0.70698390  1
  O  O21  1  0.50000000  0.65200581  0.06514082  1
  O  O22  1  0.50000000  0.34799419  0.93485918  1
  O  O23  1  0.00000000  0.66158055  0.05486024  1
  O  O24  1  0.75708121  0.89717482  0.29301610  1
  O  O25  1  0.75708121  0.39717482  0.20698390  1
  O  O26  1  0.75708121  0.10282518  0.70698390  1
  O  O27  1  0.24291879  0.60282518  0.79301610  1
  O  O28  1  0.27206232  0.50000000  0.50000000  1
  O  O29  1  0.24291879  0.89717482  0.29301610  1
  O  O30  1  0.24291879  0.39717482  0.20698390  1
  O  O31  1  0.50000000  0.84799419  0.56514082  1
