# generated using pymatgen
data_PH8N3O2
_symmetry_space_group_name_H-M   'P 1'
_cell_length_a   6.96105812
_cell_length_b   8.50897267
_cell_length_c   9.32760936
_cell_angle_alpha   90.00000000
_cell_angle_beta   112.26586114
_cell_angle_gamma   90.00000000
_symmetry_Int_Tables_number   1
_chemical_formula_structural   PH8N3O2
_chemical_formula_sum   'P4 H32 N12 O8'
_cell_volume   511.29195903
_cell_formula_units_Z   4
loop_
 _symmetry_equiv_pos_site_id
 _symmetry_equiv_pos_as_xyz
  1  'x, y, z'
loop_
 _atom_site_type_symbol
 _atom_site_label
 _atom_site_symmetry_multiplicity
 _atom_site_fract_x
 _atom_site_fract_y
 _atom_site_fract_z
 _atom_site_occupancy
  P  P0  1  0.30345918  0.32712727  0.57756381  1
  P  P1  1  0.69654082  0.82712727  0.92243619  1
  P  P2  1  0.69654082  0.67287273  0.42243619  1
  P  P3  1  0.30345918  0.17287273  0.07756381  1
  H  H4  1  0.12218848  0.49501727  0.67232767  1
  H  H5  1  0.87781152  0.99501727  0.82767233  1
  H  H6  1  0.87781152  0.50498273  0.32767233  1
  H  H7  1  0.12218848  0.00498273  0.17232767  1
  H  H8  1  0.62597159  0.45266274  0.26445115  1
  H  H9  1  0.37402841  0.95266274  0.23554885  1
  H  H10  1  0.37402841  0.54733726  0.73554885  1
  H  H11  1  0.62597159  0.04733726  0.76445115  1
  H  H12  1  0.28693342  0.51487432  0.39658328  1
  H  H13  1  0.71306658  0.01487432  0.10341672  1
  H  H14  1  0.71306658  0.48512568  0.60341672  1
  H  H15  1  0.28693342  0.98512568  0.89658328  1
  H  H16  1  0.19769013  0.34296503  0.31166019  1
  H  H17  1  0.80230987  0.84296503  0.18833981  1
  H  H18  1  0.80230987  0.65703497  0.68833981  1
  H  H19  1  0.19769013  0.15703497  0.81166019  1
  H  H20  1  0.66880469  0.32998788  0.84360207  1
  H  H21  1  0.33119531  0.82998788  0.65639793  1
  H  H22  1  0.33119531  0.67001212  0.15639793  1
  H  H23  1  0.66880469  0.17001212  0.34360207  1
  H  H24  1  0.90213197  0.32540462  0.00026938  1
  H  H25  1  0.09786803  0.82540462  0.49973062  1
  H  H26  1  0.09786803  0.67459538  0.99973062  1
  H  H27  1  0.90213197  0.17459538  0.50026938  1
  H  H28  1  0.75088959  0.48540463  0.96283116  1
  H  H29  1  0.24911041  0.98540463  0.53716884  1
  H  H30  1  0.24911041  0.51459537  0.03716884  1
  H  H31  1  0.75088959  0.01459537  0.46283116  1
  H  H32  1  0.66712442  0.31604342  0.02524050  1
  H  H33  1  0.33287558  0.81604342  0.47475950  1
  H  H34  1  0.33287558  0.68395658  0.97475950  1
  H  H35  1  0.66712442  0.18395658  0.52524050  1
  N  N36  1  0.27187223  0.45553021  0.70269245  1
  N  N37  1  0.72812777  0.95553021  0.79730755  1
  N  N38  1  0.72812777  0.54446979  0.29730755  1
  N  N39  1  0.27187223  0.04446979  0.20269245  1
  N  N40  1  0.20713523  0.41476690  0.40249304  1
  N  N41  1  0.79286477  0.91476690  0.09750696  1
  N  N42  1  0.79286477  0.58523310  0.59750696  1
  N  N43  1  0.20713523  0.08523310  0.90249304  1
  N  N44  1  0.74612475  0.36265743  0.95951267  1
  N  N45  1  0.25387525  0.86265743  0.54048733  1
  N  N46  1  0.25387525  0.63734257  0.04048733  1
  N  N47  1  0.74612475  0.13734257  0.45951267  1
  O  O48  1  0.16794668  0.31617068  0.06855150  1
  O  O49  1  0.83205332  0.81617068  0.43144850  1
  O  O50  1  0.83205332  0.68382932  0.93144850  1
  O  O51  1  0.16794668  0.18382932  0.56855150  1
  O  O52  1  0.53690457  0.29323579  0.63384596  1
  O  O53  1  0.46309543  0.79323579  0.86615404  1
  O  O54  1  0.46309543  0.70676421  0.36615404  1
  O  O55  1  0.53690457  0.20676421  0.13384596  1
