# generated using pymatgen
data_Cr2P4Pb3O16
_symmetry_space_group_name_H-M   'P 1'
_cell_length_a   9.11049610
_cell_length_b   9.11049610
_cell_length_c   16.75098609
_cell_angle_alpha   90.00000000
_cell_angle_beta   90.00000000
_cell_angle_gamma   90.00000000
_symmetry_Int_Tables_number   1
_chemical_formula_structural   Cr2P4Pb3O16
_chemical_formula_sum   'Cr8 P16 Pb12 O64'
_cell_volume   1390.35092799
_cell_formula_units_Z   4
loop_
 _symmetry_equiv_pos_site_id
 _symmetry_equiv_pos_as_xyz
  1  'x, y, z'
loop_
 _atom_site_type_symbol
 _atom_site_label
 _atom_site_symmetry_multiplicity
 _atom_site_fract_x
 _atom_site_fract_y
 _atom_site_fract_z
 _atom_site_occupancy
  Cr  Cr0  1  0.26520644  0.50061068  0.87901324  1
  Cr  Cr1  1  0.99938932  0.76520644  0.12901324  1
  Cr  Cr2  1  0.73479356  0.49938932  0.37901324  1
  Cr  Cr3  1  0.49938932  0.73479356  0.62098676  1
  Cr  Cr4  1  0.50061068  0.26520644  0.12098676  1
  Cr  Cr5  1  0.00061068  0.23479356  0.62901324  1
  Cr  Cr6  1  0.23479356  0.00061068  0.37098676  1
  Cr  Cr7  1  0.76520644  0.99938932  0.87098676  1
  P  P8  1  0.27377375  0.45467651  0.67958996  1
  P  P9  1  0.00524064  0.72469117  0.32873958  1
  P  P10  1  0.77377375  0.04532349  0.07041004  1
  P  P11  1  0.45467651  0.27377375  0.32041004  1
  P  P12  1  0.22469117  0.49475936  0.07873958  1
  P  P13  1  0.72622625  0.54532349  0.17958996  1
  P  P14  1  0.49475936  0.22469117  0.92126042  1
  P  P15  1  0.72469117  0.00524064  0.67126042  1
  P  P16  1  0.22622625  0.95467651  0.57041004  1
  P  P17  1  0.50524064  0.77530883  0.42126042  1
  P  P18  1  0.04532349  0.77377375  0.92958996  1
  P  P19  1  0.54532349  0.72622625  0.82041004  1
  P  P20  1  0.27530883  0.99475936  0.17126042  1
  P  P21  1  0.95467651  0.22622625  0.42958996  1
  P  P22  1  0.99475936  0.27530883  0.82873958  1
  P  P23  1  0.77530883  0.50524064  0.57873958  1
  Pb  Pb24  1  0.65583622  0.92215322  0.23573159  1
  Pb  Pb25  1  0.13383421  0.13383421  0.00000000  1
  Pb  Pb26  1  0.07784678  0.34416378  0.26426841  1
  Pb  Pb27  1  0.84416378  0.42215322  0.01426841  1
  Pb  Pb28  1  0.36616579  0.63383421  0.25000000  1
  Pb  Pb29  1  0.42215322  0.84416378  0.98573159  1
  Pb  Pb30  1  0.92215322  0.65583622  0.76426841  1
  Pb  Pb31  1  0.34416378  0.07784678  0.73573159  1
  Pb  Pb32  1  0.86616579  0.86616579  0.50000000  1
  Pb  Pb33  1  0.57784678  0.15583622  0.48573159  1
  Pb  Pb34  1  0.15583622  0.57784678  0.51426841  1
  Pb  Pb35  1  0.63383421  0.36616579  0.75000000  1
  O  O36  1  0.88010416  0.17638568  0.06571834  1
  O  O37  1  0.41269486  0.13315700  0.36896026  1
  O  O38  1  0.63315700  0.08730514  0.11896026  1
  O  O39  1  0.17342142  0.62573404  0.13281683  1
  O  O40  1  0.38493396  0.09682121  0.93268346  1
  O  O41  1  0.38010416  0.32361432  0.68428166  1
  O  O42  1  0.41867231  0.66346506  0.87349423  1
  O  O43  1  0.11989584  0.82361432  0.56571834  1
  O  O44  1  0.71437824  0.45358532  0.49752206  1
  O  O45  1  0.67638568  0.61989584  0.81571834  1
  O  O46  1  0.14954099  0.92651368  0.11996059  1
  O  O47  1  0.82657858  0.37426596  0.63281683  1
  O  O48  1  0.16346506  0.08132769  0.62349423  1
  O  O49  1  0.54641468  0.28562176  0.00247794  1
  O  O50  1  0.67342142  0.87426596  0.61718317  1
  O  O51  1  0.82361432  0.11989584  0.43428166  1
  O  O52  1  0.61506604  0.90317879  0.43268346  1
  O  O53  1  0.35045901  0.42651368  0.13003941  1
  O  O54  1  0.57348632  0.64954099  0.36996059  1
  O  O55  1  0.17638568  0.88010416  0.93428166  1
  O  O56  1  0.04641468  0.21437824  0.74752206  1
  O  O57  1  0.08730514  0.63315700  0.88103974  1
  O  O58  1  0.90317879  0.61506604  0.56731654  1
  O  O59  1  0.07348632  0.85045901  0.38003941  1
  O  O60  1  0.95358532  0.78562176  0.24752206  1
  O  O61  1  0.78562176  0.95358532  0.75247794  1
  O  O62  1  0.58730514  0.86684300  0.86896026  1
  O  O63  1  0.40317879  0.88493396  0.18268346  1
  O  O64  1  0.98606524  0.73050286  0.01200936  1
  O  O65  1  0.28562176  0.54641468  0.99752206  1
  O  O66  1  0.08132769  0.16346506  0.37650577  1
  O  O67  1  0.58132769  0.33653494  0.37349423  1
  O  O68  1  0.88493396  0.40317879  0.81731654  1
  O  O69  1  0.86684300  0.58730514  0.13103974  1
  O  O70  1  0.66346506  0.41867231  0.12650577  1
  O  O71  1  0.36684300  0.91269486  0.61896026  1
  O  O72  1  0.33653494  0.58132769  0.62650577  1
  O  O73  1  0.12573404  0.32657858  0.88281683  1
  O  O74  1  0.61989584  0.67638568  0.18428166  1
  O  O75  1  0.32361432  0.38010416  0.31571834  1
  O  O76  1  0.48606524  0.76949714  0.73799064  1
  O  O77  1  0.42651368  0.35045901  0.86996059  1
  O  O78  1  0.87426596  0.67342142  0.38281683  1
  O  O79  1  0.62573404  0.17342142  0.86718317  1
  O  O80  1  0.76949714  0.48606524  0.26200936  1
  O  O81  1  0.45358532  0.71437824  0.50247794  1
  O  O82  1  0.73050286  0.98606524  0.98799064  1
  O  O83  1  0.92651368  0.14954099  0.88003941  1
  O  O84  1  0.32657858  0.12573404  0.11718317  1
  O  O85  1  0.91867231  0.83653494  0.87650577  1
  O  O86  1  0.85045901  0.07348632  0.61996059  1
  O  O87  1  0.64954099  0.57348632  0.63003941  1
  O  O88  1  0.59682121  0.11506604  0.68268346  1
  O  O89  1  0.11506604  0.59682121  0.31731654  1
  O  O90  1  0.23050286  0.51393476  0.76200936  1
  O  O91  1  0.13315700  0.41269486  0.63103974  1
  O  O92  1  0.83653494  0.91867231  0.12349423  1
  O  O93  1  0.91269486  0.36684300  0.38103974  1
  O  O94  1  0.21437824  0.04641468  0.25247794  1
  O  O95  1  0.51393476  0.23050286  0.23799064  1
  O  O96  1  0.26949714  0.01393476  0.48799064  1
  O  O97  1  0.09682121  0.38493396  0.06731654  1
  O  O98  1  0.01393476  0.26949714  0.51200936  1
  O  O99  1  0.37426596  0.82657858  0.36718317  1
