# generated using pymatgen
data_Dy(BrO2)3
_symmetry_space_group_name_H-M   'P 1'
_cell_length_a   6.42435156
_cell_length_b   5.87125323
_cell_length_c   11.07903609
_cell_angle_alpha   75.24358231
_cell_angle_beta   90.00000000
_cell_angle_gamma   90.00000000
_symmetry_Int_Tables_number   1
_chemical_formula_structural   Dy(BrO2)3
_chemical_formula_sum   'Dy2 Br6 O12'
_cell_volume   404.10700958
_cell_formula_units_Z   2
loop_
 _symmetry_equiv_pos_site_id
 _symmetry_equiv_pos_as_xyz
  1  'x, y, z'
loop_
 _atom_site_type_symbol
 _atom_site_label
 _atom_site_symmetry_multiplicity
 _atom_site_fract_x
 _atom_site_fract_y
 _atom_site_fract_z
 _atom_site_occupancy
  Dy  Dy0  1  0.65927434  0.75000000  0.75000000  1
  Dy  Dy1  1  0.34072566  0.25000000  0.25000000  1
  Br  Br2  1  0.04694673  0.25000000  0.75000000  1
  Br  Br3  1  0.95305327  0.75000000  0.25000000  1
  Br  Br4  1  0.19489088  0.77322421  0.55465166  1
  Br  Br5  1  0.80510912  0.22677579  0.44534834  1
  Br  Br6  1  0.19489088  0.72677579  0.94534834  1
  Br  Br7  1  0.80510912  0.27322421  0.05465166  1
  O  O8  1  0.88865114  0.49684258  0.69103250  1
  O  O9  1  0.11134886  0.50315742  0.30896750  1
  O  O10  1  0.88865114  0.00315742  0.80896750  1
  O  O11  1  0.11134886  0.99684258  0.19103250  1
  O  O12  1  0.71008975  0.99416069  0.56329451  1
  O  O13  1  0.28991025  0.00583931  0.43670549  1
  O  O14  1  0.71008975  0.50583931  0.93670549  1
  O  O15  1  0.28991025  0.49416069  0.06329451  1
  O  O16  1  0.39825478  0.61892540  0.64791936  1
  O  O17  1  0.60174522  0.38107460  0.35208064  1
  O  O18  1  0.39825478  0.88107460  0.85208064  1
  O  O19  1  0.60174522  0.11892540  0.14791936  1
