# generated using pymatgen
data_ZrPbF6
_symmetry_space_group_name_H-M   'P 1'
_cell_length_a   5.46866835
_cell_length_b   6.81735544
_cell_length_c   6.81735545
_cell_angle_alpha   111.40427543
_cell_angle_beta   90.00000000
_cell_angle_gamma   90.00000000
_symmetry_Int_Tables_number   1
_chemical_formula_structural   ZrPbF6
_chemical_formula_sum   'Zr2 Pb2 F12'
_cell_volume   236.63363639
_cell_formula_units_Z   2
loop_
 _symmetry_equiv_pos_site_id
 _symmetry_equiv_pos_as_xyz
  1  'x, y, z'
loop_
 _atom_site_type_symbol
 _atom_site_label
 _atom_site_symmetry_multiplicity
 _atom_site_fract_x
 _atom_site_fract_y
 _atom_site_fract_z
 _atom_site_occupancy
  F  F0  1  0.74255404  0.43933863  0.18497608  1
  F  F1  1  0.74255404  0.06066137  0.31502392  1
  F  F2  1  0.25744596  0.18497608  0.43933863  1
  F  F3  1  0.25744596  0.31502392  0.06066137  1
  F  F4  1  0.84488307  0.42652776  0.57347224  1
  F  F5  1  0.84488307  0.07347224  0.92652776  1
  F  F6  1  0.15511693  0.57347224  0.42652776  1
  F  F7  1  0.15511693  0.92652776  0.07347224  1
  F  F8  1  0.74255404  0.68497608  0.93933863  1
  F  F9  1  0.74255404  0.81502392  0.56066137  1
  F  F10  1  0.25744596  0.93933863  0.68497608  1
  F  F11  1  0.25744596  0.56066137  0.81502392  1
  Zr  Zr12  1  0.00000000  0.75000000  0.75000000  1
  Zr  Zr13  1  0.00000000  0.25000000  0.25000000  1
  Pb  Pb14  1  0.47362185  0.75000000  0.25000000  1
  Pb  Pb15  1  0.52637815  0.25000000  0.75000000  1
