# generated using pymatgen
data_SrLaNiRuO6
_symmetry_space_group_name_H-M   'P 1'
_cell_length_a   5.67450500
_cell_length_b   5.58916418
_cell_length_c   7.90643580
_cell_angle_alpha   90.02187755
_cell_angle_beta   90.00000000
_cell_angle_gamma   90.00000000
_symmetry_Int_Tables_number   1
_chemical_formula_structural   SrLaNiRuO6
_chemical_formula_sum   'Sr2 La2 Ni2 Ru2 O12'
_cell_volume   250.75844489
_cell_formula_units_Z   2
loop_
 _symmetry_equiv_pos_site_id
 _symmetry_equiv_pos_as_xyz
  1  'x, y, z'
loop_
 _atom_site_type_symbol
 _atom_site_label
 _atom_site_symmetry_multiplicity
 _atom_site_fract_x
 _atom_site_fract_y
 _atom_site_fract_z
 _atom_site_occupancy
  Sr  Sr0  1  0.03931117  0.00730922  0.25000762  1
  Sr  Sr1  1  0.46068883  0.50730922  0.75000762  1
  La  La2  1  0.54734257  0.48951022  0.25187954  1
  La  La3  1  0.95265743  0.98951022  0.75187954  1
  Ni  Ni4  1  0.00210146  0.49959765  0.50027342  1
  Ni  Ni5  1  0.49789854  0.99959765  0.00027342  1
  Ru  Ru6  1  0.00242602  0.49987683  0.00010240  1
  Ru  Ru7  1  0.49757398  0.99987683  0.50010240  1
  O  O8  1  0.01604319  0.41509649  0.75579644  1
  O  O9  1  0.20233844  0.78530727  0.95784958  1
  O  O10  1  0.21357967  0.80131858  0.54348913  1
  O  O11  1  0.28642033  0.30131858  0.04348913  1
  O  O12  1  0.29766156  0.28530727  0.45784958  1
  O  O13  1  0.48395681  0.91509649  0.25579644  1
  O  O14  1  0.52060818  0.06794583  0.74425994  1
  O  O15  1  0.71061936  0.72313535  0.53625348  1
  O  O16  1  0.72655530  0.71090256  0.96008844  1
  O  O17  1  0.77344470  0.21090256  0.46008844  1
  O  O18  1  0.78938064  0.22313535  0.03625348  1
  O  O19  1  0.97939182  0.56794583  0.24425994  1
