# generated using pymatgen
data_CsU2O6
_symmetry_space_group_name_H-M   'P 1'
_cell_length_a   7.95327282
_cell_length_b   7.95327282
_cell_length_c   7.95327283
_cell_angle_alpha   60.00000002
_cell_angle_beta   60.00000002
_cell_angle_gamma   60.00000003
_symmetry_Int_Tables_number   1
_chemical_formula_structural   CsU2O6
_chemical_formula_sum   'Cs2 U4 O12'
_cell_volume   355.73176250
_cell_formula_units_Z   2
loop_
 _symmetry_equiv_pos_site_id
 _symmetry_equiv_pos_as_xyz
  1  'x, y, z'
loop_
 _atom_site_type_symbol
 _atom_site_label
 _atom_site_symmetry_multiplicity
 _atom_site_fract_x
 _atom_site_fract_y
 _atom_site_fract_z
 _atom_site_occupancy
  O  O0  1  0.31538712  0.31538712  0.93461288  1
  O  O1  1  0.06538712  0.06538712  0.68461288  1
  O  O2  1  0.93461288  0.31538712  0.31538712  1
  O  O3  1  0.31538712  0.93461288  0.31538712  1
  O  O4  1  0.93461288  0.31538712  0.93461288  1
  O  O5  1  0.31538712  0.93461288  0.93461288  1
  O  O6  1  0.93461288  0.93461288  0.31538712  1
  O  O7  1  0.06538712  0.68461288  0.68461288  1
  O  O8  1  0.68461288  0.06538712  0.06538712  1
  O  O9  1  0.06538712  0.68461288  0.06538712  1
  O  O10  1  0.68461288  0.06538712  0.68461288  1
  O  O11  1  0.68461288  0.68461288  0.06538712  1
  Cs  Cs12  1  0.62500000  0.62500000  0.62500000  1
  Cs  Cs13  1  0.37500000  0.37500000  0.37500000  1
  U  U14  1  0.00000000  0.50000000  0.00000000  1
  U  U15  1  0.50000000  0.00000000  0.00000000  1
  U  U16  1  0.00000000  0.00000000  0.50000000  1
  U  U17  1  0.00000000  0.00000000  0.00000000  1
