# generated using pymatgen
data_K4Ti3Ni(PO4)6
_symmetry_space_group_name_H-M   'P 1'
_cell_length_a   9.96286002
_cell_length_b   9.97207555
_cell_length_c   9.96818954
_cell_angle_alpha   90.00000000
_cell_angle_beta   90.00000000
_cell_angle_gamma   89.82985927
_symmetry_Int_Tables_number   1
_chemical_formula_structural   K4Ti3Ni(PO4)6
_chemical_formula_sum   'K8 Ti6 Ni2 P12 O48'
_cell_volume   990.33918034
_cell_formula_units_Z   2
loop_
 _symmetry_equiv_pos_site_id
 _symmetry_equiv_pos_as_xyz
  1  'x, y, z'
loop_
 _atom_site_type_symbol
 _atom_site_label
 _atom_site_symmetry_multiplicity
 _atom_site_fract_x
 _atom_site_fract_y
 _atom_site_fract_z
 _atom_site_occupancy
  K  K0  1  0.06229292  0.43683611  0.56459944  1
  K  K1  1  0.20231548  0.78792897  0.29343472  1
  K  K2  1  0.29768452  0.21207103  0.79343472  1
  K  K3  1  0.43770708  0.56316389  0.06459944  1
  K  K4  1  0.57029292  0.06970883  0.43143083  1
  K  K5  1  0.71058552  0.69946870  0.70642409  1
  K  K6  1  0.78941448  0.30053130  0.20642409  1
  K  K7  1  0.92970708  0.93029117  0.93143083  1
  Ti  Ti8  1  0.08274322  0.58631831  0.91477483  1
  Ti  Ti9  1  0.13974811  0.14379233  0.14019368  1
  Ti  Ti10  1  0.36025189  0.85620767  0.64019368  1
  Ti  Ti11  1  0.41725678  0.41368169  0.41477483  1
  Ti  Ti12  1  0.58979321  0.91229902  0.08650785  1
  Ti  Ti13  1  0.91020679  0.08770098  0.58650785  1
  Ni  Ni14  1  0.64556115  0.35527502  0.85451270  1
  Ni  Ni15  1  0.85443885  0.64472498  0.35451270  1
  P  P16  1  0.04181717  0.77399155  0.62679619  1
  P  P17  1  0.12764656  0.45847713  0.22707952  1
  P  P18  1  0.22618772  0.12672516  0.45682299  1
  P  P19  1  0.27381228  0.87327484  0.95682299  1
  P  P20  1  0.37235344  0.54152287  0.72707952  1
  P  P21  1  0.45818283  0.22600845  0.12679619  1
  P  P22  1  0.54548147  0.72806026  0.37499322  1
  P  P23  1  0.62353091  0.04467842  0.77200120  1
  P  P24  1  0.72938423  0.37694407  0.54412238  1
  P  P25  1  0.77061577  0.62305593  0.04412238  1
  P  P26  1  0.87646909  0.95532158  0.27200120  1
  P  P27  1  0.95451853  0.27193974  0.87499322  1
  O  O28  1  0.00136584  0.41905326  0.85407892  1
  O  O29  1  0.02713187  0.54437327  0.29874928  1
  O  O30  1  0.02467820  0.70146148  0.76465607  1
  O  O31  1  0.05214621  0.20207644  0.97724350  1
  O  O32  1  0.08412235  0.30737689  0.23011233  1
  O  O33  1  0.07902756  0.14729206  0.50068156  1
  O  O34  1  0.14913633  0.49931041  0.07758235  1
  O  O35  1  0.19304609  0.77078221  0.58460215  1
  O  O36  1  0.19752714  0.74044009  0.97963892  1
  O  O37  1  0.20203455  0.97911513  0.04544597  1
  O  O38  1  0.23230479  0.07985631  0.30887130  1
  O  O39  1  0.23507041  0.52615311  0.80001159  1
  O  O40  1  0.26492959  0.47384689  0.30001159  1
  O  O41  1  0.26769521  0.92014369  0.80887130  1
  O  O42  1  0.29796545  0.02088487  0.54544597  1
  O  O43  1  0.30247286  0.25955991  0.47963892  1
  O  O44  1  0.30695391  0.22921779  0.08460215  1
  O  O45  1  0.35086367  0.50068959  0.57758235  1
  O  O46  1  0.42097244  0.85270794  0.00068156  1
  O  O47  1  0.41587765  0.69262311  0.73011233  1
  O  O48  1  0.44785379  0.79792356  0.47724350  1
  O  O49  1  0.47532180  0.29853852  0.26465607  1
  O  O50  1  0.47286813  0.45562673  0.79874928  1
  O  O51  1  0.49863416  0.58094674  0.35407892  1
  O  O52  1  0.50005703  0.07711925  0.14835257  1
  O  O53  1  0.52150979  0.94796948  0.70195213  1
  O  O54  1  0.52126204  0.80362357  0.24034133  1
  O  O55  1  0.54292121  0.29868726  0.02617499  1
  O  O56  1  0.57151172  0.18675145  0.75990461  1
  O  O57  1  0.57885522  0.35328731  0.49980191  1
  O  O58  1  0.64511856  0.99829289  0.91929538  1
  O  O59  1  0.68707985  0.74070200  0.42802514  1
  O  O60  1  0.70041597  0.76514954  0.02723068  1
  O  O61  1  0.70038111  0.53083372  0.94737883  1
  O  O62  1  0.73858982  0.42458612  0.68842343  1
  O  O63  1  0.74061798  0.98001000  0.19775142  1
  O  O64  1  0.75938202  0.01999000  0.69775142  1
  O  O65  1  0.76141018  0.57541388  0.18842343  1
  O  O66  1  0.79961889  0.46916628  0.44737883  1
  O  O67  1  0.79958403  0.23485046  0.52723068  1
  O  O68  1  0.81292015  0.25929800  0.92802514  1
  O  O69  1  0.85488144  0.00170711  0.41929538  1
  O  O70  1  0.92114478  0.64671269  0.99980191  1
  O  O71  1  0.92848828  0.81324855  0.25990461  1
  O  O72  1  0.95707879  0.70131274  0.52617499  1
  O  O73  1  0.97873796  0.19637643  0.74034133  1
  O  O74  1  0.97849021  0.05203052  0.20195213  1
  O  O75  1  0.99994297  0.92288075  0.64835257  1
