# generated using pymatgen
data_Na5YbH4(C2O7)2
_symmetry_space_group_name_H-M   'P 1'
_cell_length_a   7.78099268
_cell_length_b   7.78099268
_cell_length_c   11.58244592
_cell_angle_alpha   90.00000000
_cell_angle_beta   90.00000000
_cell_angle_gamma   90.00000000
_symmetry_Int_Tables_number   1
_chemical_formula_structural   Na5YbH4(C2O7)2
_chemical_formula_sum   'Na10 Yb2 H8 C8 O28'
_cell_volume   701.24583466
_cell_formula_units_Z   2
loop_
 _symmetry_equiv_pos_site_id
 _symmetry_equiv_pos_as_xyz
  1  'x, y, z'
loop_
 _atom_site_type_symbol
 _atom_site_label
 _atom_site_symmetry_multiplicity
 _atom_site_fract_x
 _atom_site_fract_y
 _atom_site_fract_z
 _atom_site_occupancy
  Yb  Yb0  1  0.50000000  0.50000000  0.50000000  1
  Yb  Yb1  1  0.00000000  0.00000000  0.00000000  1
  Na  Na2  1  0.00000000  0.00000000  0.50000000  1
  Na  Na3  1  0.50000000  0.50000000  0.00000000  1
  Na  Na4  1  0.67989628  0.82264476  0.70697502  1
  Na  Na5  1  0.17989628  0.67735524  0.79302498  1
  Na  Na6  1  0.32010372  0.17735524  0.70697502  1
  Na  Na7  1  0.82010372  0.32264476  0.79302498  1
  Na  Na8  1  0.82264476  0.32010372  0.29302498  1
  Na  Na9  1  0.67735524  0.82010372  0.20697502  1
  Na  Na10  1  0.17735524  0.67989628  0.29302498  1
  Na  Na11  1  0.32264476  0.17989628  0.20697502  1
  H  H12  1  0.92253285  0.56603402  0.61489228  1
  H  H13  1  0.42253285  0.93396598  0.88510772  1
  H  H14  1  0.07746715  0.43396598  0.61489228  1
  H  H15  1  0.57746715  0.06603402  0.88510772  1
  H  H16  1  0.56603402  0.07746715  0.38510772  1
  H  H17  1  0.93396598  0.57746715  0.11489228  1
  H  H18  1  0.43396598  0.92253285  0.38510772  1
  H  H19  1  0.06603402  0.42253285  0.11489228  1
  C  C20  1  0.78848711  0.68281812  0.42073313  1
  C  C21  1  0.28848711  0.81718188  0.07926687  1
  C  C22  1  0.21151289  0.31718188  0.42073313  1
  C  C23  1  0.71151289  0.18281812  0.07926687  1
  C  C24  1  0.68281812  0.21151289  0.57926687  1
  C  C25  1  0.81718188  0.71151289  0.92073313  1
  C  C26  1  0.31718188  0.78848711  0.57926687  1
  C  C27  1  0.18281812  0.28848711  0.92073313  1
  O  O28  1  0.68728132  0.59734109  0.35201107  1
  O  O29  1  0.18728132  0.90265891  0.14798893  1
  O  O30  1  0.31271868  0.40265891  0.35201107  1
  O  O31  1  0.81271868  0.09734109  0.14798893  1
  O  O32  1  0.59734109  0.31271868  0.64798893  1
  O  O33  1  0.90265891  0.81271868  0.85201107  1
  O  O34  1  0.40265891  0.68728132  0.64798893  1
  O  O35  1  0.09734109  0.18728132  0.85201107  1
  O  O36  1  0.75983321  0.67098011  0.53172108  1
  O  O37  1  0.25983321  0.82901989  0.96827892  1
  O  O38  1  0.24016679  0.32901989  0.53172108  1
  O  O39  1  0.74016679  0.17098011  0.96827892  1
  O  O40  1  0.67098011  0.24016679  0.46827892  1
  O  O41  1  0.82901989  0.74016679  0.03172108  1
  O  O42  1  0.32901989  0.75983321  0.46827892  1
  O  O43  1  0.17098011  0.25983321  0.03172108  1
  O  O44  1  0.90984853  0.77585512  0.37977267  1
  O  O45  1  0.40984853  0.72414488  0.12022733  1
  O  O46  1  0.09015147  0.22414488  0.37977267  1
  O  O47  1  0.59015147  0.27585512  0.12022733  1
  O  O48  1  0.77585512  0.09015147  0.62022733  1
  O  O49  1  0.72414488  0.59015147  0.87977267  1
  O  O50  1  0.22414488  0.90984853  0.62022733  1
  O  O51  1  0.27585512  0.40984853  0.87977267  1
  O  O52  1  0.00000000  0.50000000  0.66652544  1
  O  O53  1  0.50000000  0.00000000  0.83347456  1
  O  O54  1  0.50000000  0.00000000  0.33347456  1
  O  O55  1  0.00000000  0.50000000  0.16652544  1
