# generated using pymatgen
data_NaCdAs
_symmetry_space_group_name_H-M   'P 1'
_cell_length_a   4.51886698
_cell_length_b   7.64948088
_cell_length_c   8.17901233
_cell_angle_alpha   90.00000000
_cell_angle_beta   90.00000000
_cell_angle_gamma   90.00000000
_symmetry_Int_Tables_number   1
_chemical_formula_structural   NaCdAs
_chemical_formula_sum   'Na4 Cd4 As4'
_cell_volume   282.72380931
_cell_formula_units_Z   4
loop_
 _symmetry_equiv_pos_site_id
 _symmetry_equiv_pos_as_xyz
  1  'x, y, z'
loop_
 _atom_site_type_symbol
 _atom_site_label
 _atom_site_symmetry_multiplicity
 _atom_site_fract_x
 _atom_site_fract_y
 _atom_site_fract_z
 _atom_site_occupancy
  Na  Na0  1  0.25000000  0.51848248  0.32654131  1
  Na  Na1  1  0.75000000  0.48151752  0.67345869  1
  Na  Na2  1  0.25000000  0.01848248  0.17345869  1
  Na  Na3  1  0.75000000  0.98151752  0.82654131  1
  As  As4  1  0.25000000  0.77854823  0.60921464  1
  As  As5  1  0.75000000  0.72145177  0.10921464  1
  As  As6  1  0.75000000  0.22145177  0.39078536  1
  As  As7  1  0.25000000  0.27854823  0.89078536  1
  Cd  Cd8  1  0.75000000  0.84997913  0.42558665  1
  Cd  Cd9  1  0.75000000  0.34997913  0.07441335  1
  Cd  Cd10  1  0.25000000  0.65002087  0.92558665  1
  Cd  Cd11  1  0.25000000  0.15002087  0.57441335  1
