# generated using pymatgen
data_ScPS4
_symmetry_space_group_name_H-M   'P 1'
_cell_length_a   6.26745093
_cell_length_b   6.57324884
_cell_length_c   7.52471213
_cell_angle_alpha   87.24963864
_cell_angle_beta   88.87849041
_cell_angle_gamma   80.91467974
_symmetry_Int_Tables_number   1
_chemical_formula_structural   ScPS4
_chemical_formula_sum   'Sc2 P2 S8'
_cell_volume   305.73504829
_cell_formula_units_Z   2
loop_
 _symmetry_equiv_pos_site_id
 _symmetry_equiv_pos_as_xyz
  1  'x, y, z'
loop_
 _atom_site_type_symbol
 _atom_site_label
 _atom_site_symmetry_multiplicity
 _atom_site_fract_x
 _atom_site_fract_y
 _atom_site_fract_z
 _atom_site_occupancy
  P  P0  1  0.68841687  0.73735137  0.16824294  1
  P  P1  1  0.31158313  0.26264863  0.83175706  1
  S  S2  1  0.57874732  0.23098381  0.67539493  1
  S  S3  1  0.42125268  0.76901619  0.32460507  1
  S  S4  1  0.87872670  0.96425700  0.18650136  1
  S  S5  1  0.12127330  0.03574300  0.81349864  1
  S  S6  1  0.59515733  0.70896428  0.91016972  1
  S  S7  1  0.40484267  0.29103572  0.08983028  1
  S  S8  1  0.91681388  0.48071932  0.22943613  1
  S  S9  1  0.08318612  0.51928068  0.77056387  1
  Sc  Sc10  1  0.79558588  0.30455891  0.94299010  1
  Sc  Sc11  1  0.20441412  0.69544109  0.05700990  1
