# generated using pymatgen
data_LiTbO2
_symmetry_space_group_name_H-M   'P 1'
_cell_length_a   3.41379261
_cell_length_b   5.34285008
_cell_length_c   11.30943555
_cell_angle_alpha   90.00000000
_cell_angle_beta   90.00000000
_cell_angle_gamma   90.00000000
_symmetry_Int_Tables_number   1
_chemical_formula_structural   LiTbO2
_chemical_formula_sum   'Li4 Tb4 O8'
_cell_volume   206.27711655
_cell_formula_units_Z   4
loop_
 _symmetry_equiv_pos_site_id
 _symmetry_equiv_pos_as_xyz
  1  'x, y, z'
loop_
 _atom_site_type_symbol
 _atom_site_label
 _atom_site_symmetry_multiplicity
 _atom_site_fract_x
 _atom_site_fract_y
 _atom_site_fract_z
 _atom_site_occupancy
  Li  Li0  1  0.25000000  0.09731242  0.56628521  1
  Li  Li1  1  0.75000000  0.90268758  0.43371479  1
  Li  Li2  1  0.75000000  0.59731242  0.93371479  1
  Li  Li3  1  0.25000000  0.40268758  0.06628521  1
  O  O4  1  0.25000000  0.30736205  0.70526202  1
  O  O5  1  0.75000000  0.69263795  0.29473798  1
  O  O6  1  0.75000000  0.80736205  0.79473798  1
  O  O7  1  0.25000000  0.19263795  0.20526202  1
  O  O8  1  0.25000000  0.75819449  0.02661069  1
  O  O9  1  0.75000000  0.24180551  0.97338931  1
  O  O10  1  0.75000000  0.25819449  0.47338931  1
  O  O11  1  0.25000000  0.74180551  0.52661069  1
  Tb  Tb12  1  0.25000000  0.45370403  0.35945041  1
  Tb  Tb13  1  0.75000000  0.54629597  0.64054959  1
  Tb  Tb14  1  0.75000000  0.95370403  0.14054959  1
  Tb  Tb15  1  0.25000000  0.04629597  0.85945041  1
