# generated using pymatgen
data_H3CI
_symmetry_space_group_name_H-M   'P 1'
_cell_length_a   4.77516682
_cell_length_b   7.23731337
_cell_length_c   10.25082082
_cell_angle_alpha   90.00000000
_cell_angle_beta   90.00000000
_cell_angle_gamma   90.00000000
_symmetry_Int_Tables_number   1
_chemical_formula_structural   H3CI
_chemical_formula_sum   'H12 C4 I4'
_cell_volume   354.26199840
_cell_formula_units_Z   4
loop_
 _symmetry_equiv_pos_site_id
 _symmetry_equiv_pos_as_xyz
  1  'x, y, z'
loop_
 _atom_site_type_symbol
 _atom_site_label
 _atom_site_symmetry_multiplicity
 _atom_site_fract_x
 _atom_site_fract_y
 _atom_site_fract_z
 _atom_site_occupancy
  H  H0  1  0.08093776  0.25000000  0.59016509  1
  H  H1  1  0.58093776  0.25000000  0.90983491  1
  H  H2  1  0.91906224  0.75000000  0.40983491  1
  H  H3  1  0.41906224  0.75000000  0.09016509  1
  H  H4  1  0.78210056  0.37586401  0.65168817  1
  H  H5  1  0.28210056  0.12413599  0.84831183  1
  H  H6  1  0.21789944  0.87586401  0.34831183  1
  H  H7  1  0.71789944  0.62413599  0.15168817  1
  H  H8  1  0.21789944  0.62413599  0.34831183  1
  H  H9  1  0.71789944  0.87586401  0.15168817  1
  H  H10  1  0.78210056  0.12413599  0.65168817  1
  H  H11  1  0.28210056  0.37586401  0.84831183  1
  C  C12  1  0.85417823  0.25000000  0.60275981  1
  C  C13  1  0.35417823  0.25000000  0.89724019  1
  C  C14  1  0.14582177  0.75000000  0.39724019  1
  C  C15  1  0.64582177  0.75000000  0.10275981  1
  I  I16  1  0.66787933  0.25000000  0.41115754  1
  I  I17  1  0.16787933  0.25000000  0.08884246  1
  I  I18  1  0.33212067  0.75000000  0.58884246  1
  I  I19  1  0.83212067  0.75000000  0.91115754  1
