# generated using pymatgen
data_CrH15S2O15
_symmetry_space_group_name_H-M   'P 1'
_cell_length_a   7.36364246
_cell_length_b   10.57477086
_cell_length_c   16.20437004
_cell_angle_alpha   90.00000000
_cell_angle_beta   83.74666005
_cell_angle_gamma   90.00000000
_symmetry_Int_Tables_number   1
_chemical_formula_structural   CrH15S2O15
_chemical_formula_sum   'Cr4 H60 S8 O60'
_cell_volume   1254.30754936
_cell_formula_units_Z   4
loop_
 _symmetry_equiv_pos_site_id
 _symmetry_equiv_pos_as_xyz
  1  'x, y, z'
loop_
 _atom_site_type_symbol
 _atom_site_label
 _atom_site_symmetry_multiplicity
 _atom_site_fract_x
 _atom_site_fract_y
 _atom_site_fract_z
 _atom_site_occupancy
  Cr  Cr0  1  0.25778030  0.17082697  0.63266091  1
  Cr  Cr1  1  0.24221970  0.67082697  0.86733909  1
  Cr  Cr2  1  0.75778030  0.32917303  0.13266091  1
  Cr  Cr3  1  0.74221970  0.82917303  0.36733909  1
  H  H4  1  0.03776795  0.23610597  0.19675773  1
  H  H5  1  0.06214595  0.38860827  0.19855942  1
  H  H6  1  0.02704579  0.78000343  0.44994893  1
  H  H7  1  0.06873421  0.91646917  0.39781355  1
  H  H8  1  0.10369553  0.39127491  0.42957908  1
  H  H9  1  0.01962725  0.25287350  0.75877849  1
  H  H10  1  0.22946277  0.00290745  0.06952998  1
  H  H11  1  0.19070927  0.45917666  0.33822186  1
  H  H12  1  0.02135826  0.64517992  0.00804980  1
  H  H13  1  0.12398992  0.95817286  0.70414460  1
  H  H14  1  0.08326086  0.86726336  0.94132665  1
  H  H15  1  0.30929073  0.95917666  0.16177814  1
  H  H16  1  0.27053723  0.50290745  0.43047002  1
  H  H17  1  0.19331021  0.18259200  0.79407701  1
  H  H18  1  0.27638769  0.10065990  0.47411374  1
  H  H19  1  0.39630447  0.89127491  0.07042092  1
  H  H20  1  0.25479704  0.42968022  0.61821890  1
  H  H21  1  0.27132433  0.92382537  0.62679146  1
  H  H22  1  0.22867567  0.42382537  0.87320854  1
  H  H23  1  0.24520296  0.92968022  0.88178110  1
  H  H24  1  0.22361231  0.60065990  0.02588626  1
  H  H25  1  0.30668979  0.68259200  0.70592299  1
  H  H26  1  0.43126579  0.41646917  0.10218645  1
  H  H27  1  0.47295421  0.28000343  0.05005107  1
  H  H28  1  0.41673914  0.36726336  0.55867335  1
  H  H29  1  0.37601008  0.45817286  0.79585540  1
  H  H30  1  0.43785405  0.88860827  0.30144058  1
  H  H31  1  0.46223205  0.73610597  0.30324227  1
  H  H32  1  0.47864174  0.14517992  0.49195020  1
  H  H33  1  0.51962725  0.24712650  0.25877849  1
  H  H34  1  0.48037275  0.75287350  0.74122151  1
  H  H35  1  0.52135826  0.85482008  0.50804980  1
  H  H36  1  0.53776795  0.26389403  0.69675773  1
  H  H37  1  0.56214595  0.11139173  0.69855942  1
  H  H38  1  0.62398992  0.54182714  0.20414460  1
  H  H39  1  0.58326086  0.63273664  0.44132665  1
  H  H40  1  0.52704579  0.71999657  0.94994893  1
  H  H41  1  0.56873421  0.58353083  0.89781355  1
  H  H42  1  0.69331021  0.31740800  0.29407701  1
  H  H43  1  0.77638769  0.39934010  0.97411374  1
  H  H44  1  0.75479704  0.07031978  0.11821890  1
  H  H45  1  0.77132433  0.57617463  0.12679146  1
  H  H46  1  0.72867567  0.07617463  0.37320854  1
  H  H47  1  0.74520296  0.57031978  0.38178110  1
  H  H48  1  0.60369553  0.10872509  0.92957908  1
  H  H49  1  0.72361231  0.89934010  0.52588626  1
  H  H50  1  0.80668979  0.81740800  0.20592299  1
  H  H51  1  0.72946277  0.49709255  0.56952998  1
  H  H52  1  0.69070927  0.04082334  0.83822186  1
  H  H53  1  0.91673914  0.13273664  0.05867335  1
  H  H54  1  0.87601008  0.04182714  0.29585540  1
  H  H55  1  0.97864174  0.35482008  0.99195020  1
  H  H56  1  0.80929073  0.54082334  0.66177814  1
  H  H57  1  0.77053723  0.99709255  0.93047002  1
  H  H58  1  0.98037275  0.74712650  0.24122151  1
  H  H59  1  0.89630447  0.60872509  0.57042092  1
  H  H60  1  0.93126579  0.08353083  0.60218645  1
  H  H61  1  0.97295421  0.21999657  0.55005107  1
  H  H62  1  0.93785405  0.61139173  0.80144058  1
  H  H63  1  0.96223205  0.76389403  0.80324227  1
  S  S64  1  0.22727849  0.09237005  0.29150894  1
  S  S65  1  0.27272151  0.59237005  0.20849106  1
  S  S66  1  0.25265495  0.67264465  0.54697111  1
  S  S67  1  0.24734505  0.17264465  0.95302889  1
  S  S68  1  0.75265495  0.82735535  0.04697111  1
  S  S69  1  0.74734505  0.32735535  0.45302889  1
  S  S70  1  0.72727849  0.40762995  0.79150894  1
  S  S71  1  0.77272151  0.90762995  0.70849106  1
  O  O72  1  0.01251782  0.31642465  0.16664127  1
  O  O73  1  0.05652260  0.10018082  0.24836036  1
  O  O74  1  0.12949299  0.10284050  0.01920829  1
  O  O75  1  0.00997304  0.16142794  0.59432614  1
  O  O76  1  0.06325225  0.67964251  0.52112836  1
  O  O77  1  0.14937966  0.49469469  0.25376206  1
  O  O78  1  0.18336838  0.71646752  0.21153762  1
  O  O79  1  0.17990175  0.04942127  0.37913574  1
  O  O80  1  0.28382105  0.93197155  0.10205345  1
  O  O81  1  0.21617895  0.43197155  0.39794655  1
  O  O82  1  0.15366655  0.22916151  0.74495509  1
  O  O83  1  0.32009825  0.54942127  0.12086426  1
  O  O84  1  0.14125750  0.61104425  0.98172408  1
  O  O85  1  0.31663162  0.21646752  0.28846238  1
  O  O86  1  0.24478029  0.60320395  0.62698258  1
  O  O87  1  0.23938216  0.98954202  0.66992228  1
  O  O88  1  0.17275602  0.30256731  0.94493282  1
  O  O89  1  0.35062034  0.99469469  0.24623794  1
  O  O90  1  0.29166400  0.35022233  0.58828078  1
  O  O91  1  0.20833600  0.85022233  0.91171922  1
  O  O92  1  0.32724398  0.80256731  0.55506718  1
  O  O93  1  0.26061784  0.48954202  0.83007772  1
  O  O94  1  0.25521971  0.10320395  0.87301742  1
  O  O95  1  0.37050701  0.60284050  0.48079171  1
  O  O96  1  0.35874250  0.11104425  0.51827592  1
  O  O97  1  0.44347740  0.60018082  0.25163964  1
  O  O98  1  0.34633345  0.72916151  0.75504491  1
  O  O99  1  0.50997304  0.33857206  0.09432614  1
  O  O100  1  0.56325225  0.82035749  0.02112836  1
  O  O101  1  0.48748218  0.81642465  0.33335873  1
  O  O102  1  0.51251782  0.18357535  0.66664127  1
  O  O103  1  0.43674775  0.17964251  0.97887164  1
  O  O104  1  0.49002696  0.66142794  0.90567386  1
  O  O105  1  0.65366655  0.27083849  0.24495509  1
  O  O106  1  0.55652260  0.39981918  0.74836036  1
  O  O107  1  0.64125750  0.88895575  0.48172408  1
  O  O108  1  0.62949299  0.39715950  0.51920829  1
  O  O109  1  0.74478029  0.89679605  0.12698258  1
  O  O110  1  0.73938216  0.51045798  0.16992228  1
  O  O111  1  0.67275602  0.19743269  0.44493282  1
  O  O112  1  0.79166400  0.14977767  0.08828078  1
  O  O113  1  0.70833600  0.64977767  0.41171922  1
  O  O114  1  0.64937966  0.00530531  0.75376206  1
  O  O115  1  0.82724398  0.69743269  0.05506718  1
  O  O116  1  0.76061784  0.01045798  0.33007772  1
  O  O117  1  0.75521971  0.39679605  0.37301742  1
  O  O118  1  0.68336838  0.78353248  0.71153762  1
  O  O119  1  0.85874250  0.38895575  0.01827592  1
  O  O120  1  0.67990175  0.45057873  0.87913574  1
  O  O121  1  0.84633345  0.77083849  0.25504491  1
  O  O122  1  0.78382105  0.56802845  0.60205345  1
  O  O123  1  0.71617895  0.06802845  0.89794655  1
  O  O124  1  0.82009825  0.95057873  0.62086426  1
  O  O125  1  0.81663162  0.28353248  0.78846238  1
  O  O126  1  0.85062034  0.50530531  0.74623794  1
  O  O127  1  0.93674775  0.32035749  0.47887164  1
  O  O128  1  0.99002696  0.83857206  0.40567386  1
  O  O129  1  0.87050701  0.89715950  0.98079171  1
  O  O130  1  0.94347740  0.89981918  0.75163964  1
  O  O131  1  0.98748218  0.68357535  0.83335873  1
