# generated using pymatgen
data_Na6ZnO4
_symmetry_space_group_name_H-M   'P 1'
_cell_length_a   7.66350327
_cell_length_b   7.66350326
_cell_length_c   5.91624685
_cell_angle_alpha   90.00000000
_cell_angle_beta   90.00000000
_cell_angle_gamma   119.99999998
_symmetry_Int_Tables_number   1
_chemical_formula_structural   Na6ZnO4
_chemical_formula_sum   'Na12 Zn2 O8'
_cell_volume   300.90652950
_cell_formula_units_Z   2
loop_
 _symmetry_equiv_pos_site_id
 _symmetry_equiv_pos_as_xyz
  1  'x, y, z'
loop_
 _atom_site_type_symbol
 _atom_site_label
 _atom_site_symmetry_multiplicity
 _atom_site_fract_x
 _atom_site_fract_y
 _atom_site_fract_z
 _atom_site_occupancy
  O  O0  1  0.18858276  0.81141724  0.35686806  1
  O  O1  1  0.37716551  0.18858276  0.85686806  1
  O  O2  1  0.33333333  0.66666667  0.90502410  1
  O  O3  1  0.66666667  0.33333333  0.40502410  1
  O  O4  1  0.81141724  0.18858276  0.85686806  1
  O  O5  1  0.62283449  0.81141724  0.35686806  1
  O  O6  1  0.18858276  0.37716551  0.35686806  1
  O  O7  1  0.81141724  0.62283449  0.85686806  1
  Na  Na8  1  0.92519187  0.46259593  0.13507071  1
  Na  Na9  1  0.46259593  0.53740407  0.63507071  1
  Na  Na10  1  0.14202290  0.85797710  0.96750994  1
  Na  Na11  1  0.28404579  0.14202290  0.46750994  1
  Na  Na12  1  0.85797710  0.71595421  0.46750994  1
  Na  Na13  1  0.14202290  0.28404579  0.96750994  1
  Na  Na14  1  0.71595421  0.85797710  0.96750994  1
  Na  Na15  1  0.85797710  0.14202290  0.46750994  1
  Na  Na16  1  0.53740407  0.46259593  0.13507071  1
  Na  Na17  1  0.07480813  0.53740407  0.63507071  1
  Na  Na18  1  0.46259593  0.92519187  0.63507071  1
  Na  Na19  1  0.53740407  0.07480813  0.13507071  1
  Zn  Zn20  1  0.66666667  0.33333333  0.74262978  1
  Zn  Zn21  1  0.33333333  0.66666667  0.24262978  1
