# generated using pymatgen
data_Gd(AlGe)2
_symmetry_space_group_name_H-M   'P 1'
_cell_length_a   4.27719719
_cell_length_b   4.27871865
_cell_length_c   6.67397578
_cell_angle_alpha   90.06375867
_cell_angle_beta   90.00328533
_cell_angle_gamma   59.99508493
_symmetry_Int_Tables_number   1
_chemical_formula_structural   Gd(AlGe)2
_chemical_formula_sum   'Gd1 Al2 Ge2'
_cell_volume   105.77095079
_cell_formula_units_Z   1
loop_
 _symmetry_equiv_pos_site_id
 _symmetry_equiv_pos_as_xyz
  1  'x, y, z'
loop_
 _atom_site_type_symbol
 _atom_site_label
 _atom_site_symmetry_multiplicity
 _atom_site_fract_x
 _atom_site_fract_y
 _atom_site_fract_z
 _atom_site_occupancy
  Gd  Gd0  1  0.99998584  0.99998446  0.00001002  1
  Al  Al1  1  0.33330077  0.33333436  0.35652460  1
  Al  Al2  1  0.66660347  0.66667449  0.64346973  1
  Ge  Ge3  1  0.33328146  0.33333700  0.73995963  1
  Ge  Ge4  1  0.66662846  0.66666969  0.26003601  1
