# generated using pymatgen
data_Eu(ReO4)2
_symmetry_space_group_name_H-M   'P 1'
_cell_length_a   6.37242648
_cell_length_b   6.37229342
_cell_length_c   6.52460797
_cell_angle_alpha   89.99856829
_cell_angle_beta   90.00050954
_cell_angle_gamma   119.99628404
_symmetry_Int_Tables_number   1
_chemical_formula_structural   Eu(ReO4)2
_chemical_formula_sum   'Eu1 Re2 O8'
_cell_volume   229.45731848
_cell_formula_units_Z   1
loop_
 _symmetry_equiv_pos_site_id
 _symmetry_equiv_pos_as_xyz
  1  'x, y, z'
loop_
 _atom_site_type_symbol
 _atom_site_label
 _atom_site_symmetry_multiplicity
 _atom_site_fract_x
 _atom_site_fract_y
 _atom_site_fract_z
 _atom_site_occupancy
  Eu  Eu0  1  0.00001589  -0.00000456  -0.00000467  1
  Re  Re1  1  0.33326939  0.66668129  0.30231613  1
  Re  Re2  1  0.66658779  0.33333053  0.69769872  1
  O  O3  1  0.22312713  0.85465626  0.21300278  1
  O  O4  1  0.14532244  0.36846069  0.21301164  1
  O  O5  1  0.33331009  0.66670356  0.56810125  1
  O  O6  1  0.36849653  0.22316408  0.78698357  1
  O  O7  1  0.63154926  0.77686928  0.21301562  1
  O  O8  1  0.66661232  0.33329268  0.43192761  1
  O  O9  1  0.85465064  0.63151621  0.78696825  1
  O  O10  1  0.77685651  0.14532897  0.78698008  1
