# generated using pymatgen
data_LiCrPHO5
_symmetry_space_group_name_H-M   'P 1'
_cell_length_a   5.40001365
_cell_length_b   7.31601118
_cell_length_c   5.14799993
_cell_angle_alpha   108.86431664
_cell_angle_beta   97.86763538
_cell_angle_gamma   106.52630493
_symmetry_Int_Tables_number   1
_chemical_formula_structural   LiCrPHO5
_chemical_formula_sum   'Li2 Cr2 P2 H2 O10'
_cell_volume   178.53768764
_cell_formula_units_Z   2
loop_
 _symmetry_equiv_pos_site_id
 _symmetry_equiv_pos_as_xyz
  1  'x, y, z'
loop_
 _atom_site_type_symbol
 _atom_site_label
 _atom_site_symmetry_multiplicity
 _atom_site_fract_x
 _atom_site_fract_y
 _atom_site_fract_z
 _atom_site_occupancy
  Li  Li0  1  0.39695488  0.82216834  0.74579398  1
  Li  Li1  1  0.60304512  0.17783166  0.25420602  1
  Cr  Cr2  1  0.00000000  0.50000000  0.00000000  1
  Cr  Cr3  1  0.00000000  0.00000000  0.00000000  1
  P  P4  1  0.36001990  0.23379201  0.67692919  1
  P  P5  1  0.63998010  0.76620799  0.32307081  1
  H  H6  1  0.06233693  0.34185526  0.35550521  1
  H  H7  1  0.93766307  0.65814474  0.64449479  1
  O  O8  1  0.05013134  0.72479683  0.84182480  1
  O  O9  1  0.20586097  0.38513697  0.72663513  1
  O  O10  1  0.34323628  0.65919959  0.30751815  1
  O  O11  1  0.24922619  0.07152092  0.36904053  1
  O  O12  1  0.33874556  0.12049184  0.88750109  1
  O  O13  1  0.66125444  0.87950816  0.11249891  1
  O  O14  1  0.75077381  0.92847908  0.63095947  1
  O  O15  1  0.65676372  0.34080041  0.69248185  1
  O  O16  1  0.79413903  0.61486303  0.27336487  1
  O  O17  1  0.94986866  0.27520317  0.15817520  1
