# generated using pymatgen
data_Li2VCrP2(O4F)2
_symmetry_space_group_name_H-M   'P 1'
_cell_length_a   5.22209072
_cell_length_b   14.98287337
_cell_length_c   7.34278546
_cell_angle_alpha   93.88279553
_cell_angle_beta   71.41544517
_cell_angle_gamma   87.39640357
_symmetry_Int_Tables_number   1
_chemical_formula_structural   Li2VCrP2(O4F)2
_chemical_formula_sum   'Li6 V3 Cr3 P6 O24 F6'
_cell_volume   541.93977138
_cell_formula_units_Z   3
loop_
 _symmetry_equiv_pos_site_id
 _symmetry_equiv_pos_as_xyz
  1  'x, y, z'
loop_
 _atom_site_type_symbol
 _atom_site_label
 _atom_site_symmetry_multiplicity
 _atom_site_fract_x
 _atom_site_fract_y
 _atom_site_fract_z
 _atom_site_occupancy
  Li  Li0  1  0.06424633  0.20463404  0.01661446  1
  Li  Li1  1  0.26904695  0.46145227  0.64937715  1
  Li  Li2  1  0.60242067  0.12869896  0.31671854  1
  Li  Li3  1  0.39762005  0.87188173  0.68395585  1
  Li  Li4  1  0.73170395  0.53820615  0.34904086  1
  Li  Li5  1  0.93496205  0.79512685  0.98429314  1
  V  V6  1  0.99987502  -0.00010900  0.49973573  1
  V  V7  1  0.33333300  0.66666700  0.66666700  1
  V  V8  1  0.66679198  0.33344200  0.83359727  1
  Cr  Cr9  1  0.99962758  0.99977041  0.00017230  1
  Cr  Cr10  1  0.33333300  0.66666700  0.16666700  1
  Cr  Cr11  1  0.66703842  0.33356259  0.33316170  1
  P  P12  1  0.11030124  0.21425725  0.45056273  1
  P  P13  1  0.22389703  0.45301158  0.21563201  1
  P  P14  1  0.44276997  0.88032142  0.11770199  1
  P  P15  1  0.55636576  0.11907575  0.88277027  1
  P  P16  1  0.77553329  0.54691757  0.78572119  1
  P  P17  1  0.89113371  0.78641543  0.54761181  1
  O  O18  1  0.00983032  0.73759535  0.34594755  1
  O  O19  1  0.13924306  0.55341230  0.21069468  1
  O  O20  1  0.23694017  0.88845345  0.00162514  1
  O  O21  1  0.34282819  0.40449231  0.01286631  1
  O  O22  1  0.19339721  0.11403690  0.45782328  1
  O  O23  1  0.04767489  0.58391244  0.66929084  1
  O  O24  1  0.09286691  0.77861915  0.66676915  1
  O  O25  1  0.38178837  0.25087478  0.33411919  1
  O  O26  1  0.32383781  0.92884069  0.32046669  1
  O  O27  1  0.42972683  0.44488055  0.33170786  1
  O  O28  1  0.52742394  0.77992170  0.12263832  1
  O  O29  1  0.28487763  0.08245822  0.99921381  1
  O  O30  1  0.71421362  0.91720962  0.00162244  1
  O  O31  1  0.47326879  0.21929710  0.87550972  1
  O  O32  1  0.57380009  0.55471385  0.66656385  1
  O  O33  1  0.67558694  0.07103457  0.67956217  1
  O  O34  1  0.61899211  0.74942156  0.66404216  1
  O  O35  1  0.90394652  0.22200697  0.33496154  1
  O  O36  1  0.95245238  0.41612338  0.33171056  1
  O  O37  1  0.80506314  0.88629610  0.54139973  1
  O  O38  1  0.65683568  0.59573765  0.98738545  1
  O  O39  1  0.76272048  0.11132703  0.99837246  1
  O  O40  1  0.86160386  0.44703790  0.79193327  1
  O  O41  1  0.99107906  0.26229943  0.65377083  1
  F  F42  1  0.15296388  0.97623818  0.71713851  1
  F  F43  1  0.18084875  0.69027276  0.95820050  1
  F  F44  1  0.48581825  0.64306024  0.37513350  1
  F  F45  1  0.51370312  0.35709482  0.61619549  1
  F  F46  1  0.82022540  0.30949878  0.05045066  1
  F  F47  1  0.84644160  0.02383422  0.28288334  1
