# generated using pymatgen
data_Hg(ClO3)2
_symmetry_space_group_name_H-M   'P 1'
_cell_length_a   5.83140352
_cell_length_b   5.61723739
_cell_length_c   9.44858620
_cell_angle_alpha   90.00000000
_cell_angle_beta   100.85644545
_cell_angle_gamma   90.00000000
_symmetry_Int_Tables_number   1
_chemical_formula_structural   Hg(ClO3)2
_chemical_formula_sum   'Hg2 Cl4 O12'
_cell_volume   303.96205667
_cell_formula_units_Z   2
loop_
 _symmetry_equiv_pos_site_id
 _symmetry_equiv_pos_as_xyz
  1  'x, y, z'
loop_
 _atom_site_type_symbol
 _atom_site_label
 _atom_site_symmetry_multiplicity
 _atom_site_fract_x
 _atom_site_fract_y
 _atom_site_fract_z
 _atom_site_occupancy
  Hg  Hg0  1  0.07151814  0.72297737  0.18638385  1
  Hg  Hg1  1  0.92848186  0.22297737  0.81361615  1
  Cl  Cl2  1  0.26851102  0.24456702  0.60407224  1
  Cl  Cl3  1  0.64404972  0.71337758  0.86125832  1
  Cl  Cl4  1  0.35595028  0.21337758  0.13874168  1
  Cl  Cl5  1  0.73148898  0.74456702  0.39592776  1
  O  O6  1  0.06624053  0.07432913  0.59003144  1
  O  O7  1  0.22219348  0.41346338  0.72632140  1
  O  O8  1  0.16387158  0.40219980  0.06659702  1
  O  O9  1  0.26908968  0.10958524  0.26465511  1
  O  O10  1  0.48966569  0.11222299  0.65669766  1
  O  O11  1  0.66396588  0.52865450  0.97494021  1
  O  O12  1  0.33603412  0.02865450  0.02505979  1
  O  O13  1  0.51033431  0.61222299  0.34330234  1
  O  O14  1  0.73091032  0.60958524  0.73534489  1
  O  O15  1  0.83612842  0.90219980  0.93340298  1
  O  O16  1  0.77780652  0.91346338  0.27367860  1
  O  O17  1  0.93375947  0.57432913  0.40996856  1
