# generated using pymatgen
data_RbCuO2
_symmetry_space_group_name_H-M   'P 1'
_cell_length_a   4.93420405
_cell_length_b   5.50584038
_cell_length_c   6.45671485
_cell_angle_alpha   90.00000000
_cell_angle_beta   112.46373855
_cell_angle_gamma   90.00000000
_symmetry_Int_Tables_number   1
_chemical_formula_structural   RbCuO2
_chemical_formula_sum   'Rb2 Cu2 O4'
_cell_volume   162.09940560
_cell_formula_units_Z   2
loop_
 _symmetry_equiv_pos_site_id
 _symmetry_equiv_pos_as_xyz
  1  'x, y, z'
loop_
 _atom_site_type_symbol
 _atom_site_label
 _atom_site_symmetry_multiplicity
 _atom_site_fract_x
 _atom_site_fract_y
 _atom_site_fract_z
 _atom_site_occupancy
  O  O0  1  0.89685933  0.50407412  0.79371867  1
  O  O1  1  0.10314067  0.49592588  0.20628133  1
  O  O2  1  0.89685933  0.99592588  0.79371867  1
  O  O3  1  0.10314067  0.00407412  0.20628133  1
  Cu  Cu4  1  0.99783744  0.25000000  0.99567488  1
  Cu  Cu5  1  0.00216256  0.75000000  0.00432512  1
  Rb  Rb6  1  0.30939916  0.75000000  0.61879833  1
  Rb  Rb7  1  0.69060084  0.25000000  0.38120167  1
