# generated using pymatgen
data_Ga3Hg
_symmetry_space_group_name_H-M   'P 1'
_cell_length_a   6.13476963
_cell_length_b   6.13476985
_cell_length_c   5.14106492
_cell_angle_alpha   90.00000000
_cell_angle_beta   90.00000000
_cell_angle_gamma   119.99999203
_symmetry_Int_Tables_number   1
_chemical_formula_structural   Ga3Hg
_chemical_formula_sum   'Ga6 Hg2'
_cell_volume   167.56383378
_cell_formula_units_Z   2
loop_
 _symmetry_equiv_pos_site_id
 _symmetry_equiv_pos_as_xyz
  1  'x, y, z'
loop_
 _atom_site_type_symbol
 _atom_site_label
 _atom_site_symmetry_multiplicity
 _atom_site_fract_x
 _atom_site_fract_y
 _atom_site_fract_z
 _atom_site_occupancy
  Ga  Ga0  1  0.16069003  0.32137905  0.24999800  1
  Ga  Ga1  1  0.67862095  0.83930997  0.24999800  1
  Ga  Ga2  1  0.16068803  0.83930997  0.24999800  1
  Ga  Ga3  1  0.83931097  0.67862095  0.74999900  1
  Ga  Ga4  1  0.32137905  0.16069103  0.74999900  1
  Ga  Ga5  1  0.83931097  0.16069103  0.74999900  1
  Hg  Hg6  1  0.33333300  0.66666600  0.74999900  1
  Hg  Hg7  1  0.66666700  0.33333300  0.24999800  1
