# generated using pymatgen
data_Sr8Mg3Fe(MoO6)4
_symmetry_space_group_name_H-M   'P 1'
_cell_length_a   11.25110413
_cell_length_b   7.93809653
_cell_length_c   9.85050824
_cell_angle_alpha   113.73977087
_cell_angle_beta   89.86820414
_cell_angle_gamma   45.09502732
_symmetry_Int_Tables_number   1
_chemical_formula_structural   Sr8Mg3Fe(MoO6)4
_chemical_formula_sum   'Sr8 Mg3 Fe1 Mo4 O24'
_cell_volume   511.68596215
_cell_formula_units_Z   1
loop_
 _symmetry_equiv_pos_site_id
 _symmetry_equiv_pos_as_xyz
  1  'x, y, z'
loop_
 _atom_site_type_symbol
 _atom_site_label
 _atom_site_symmetry_multiplicity
 _atom_site_fract_x
 _atom_site_fract_y
 _atom_site_fract_z
 _atom_site_occupancy
  Sr  Sr0  1  0.12143387  0.24823179  0.25000668  1
  Sr  Sr1  1  0.12221582  0.75717300  0.24917113  1
  Sr  Sr2  1  0.37778418  0.24282700  0.75082887  1
  Sr  Sr3  1  0.62882708  0.25139926  0.24999384  1
  Sr  Sr4  1  0.37856613  0.75176821  0.74999332  1
  Sr  Sr5  1  0.62846445  0.74116005  0.24946997  1
  Sr  Sr6  1  0.87153555  0.25883995  0.75053003  1
  Sr  Sr7  1  0.87117292  0.74860074  0.75000616  1
  Mg  Mg8  1  0.00128042  0.99733970  0.99741272  1
  Mg  Mg9  1  0.49871958  0.00266030  0.00258728  1
  Mg  Mg10  1  0.75000000  0.00000000  0.50000000  1
  Fe  Fe11  1  0.25000000  0.00000000  0.50000000  1
  Mo  Mo12  1  0.25000000  0.50000000  0.50000000  1
  Mo  Mo13  1  0.50113243  0.49789224  0.99777236  1
  Mo  Mo14  1  0.75000000  0.50000000  0.50000000  1
  Mo  Mo15  1  0.99886757  0.50210776  0.00222764  1
  O  O16  1  0.03778335  0.21860484  0.99481151  1
  O  O17  1  0.12259035  0.25481889  0.75504230  1
  O  O18  1  0.00928036  0.70669496  0.49993849  1
  O  O19  1  0.23896355  0.29793488  0.00297047  1
  O  O20  1  0.28595571  0.21871854  0.50011323  1
  O  O21  1  0.36946021  0.26107964  0.26122983  1
  O  O22  1  0.13053979  0.73892036  0.73877017  1
  O  O23  1  0.21404429  0.78128146  0.49988677  1
  O  O24  1  0.26103645  0.70206512  0.99702953  1
  O  O25  1  0.49071964  0.29330504  0.50006151  1
  O  O26  1  0.53245557  0.22952889  0.00541473  1
  O  O27  1  0.37740965  0.74518111  0.24495770  1
  O  O28  1  0.62063512  0.25931491  0.75893238  1
  O  O29  1  0.46221665  0.78139516  0.00518849  1
  O  O30  1  0.49702907  0.71878208  0.49996839  1
  O  O31  1  0.74185660  0.29232208  0.99723839  1
  O  O32  1  0.78215684  0.22557530  0.49910747  1
  O  O33  1  0.87458844  0.24988423  0.25067516  1
  O  O34  1  0.62541156  0.75011577  0.74932484  1
  O  O35  1  0.71784316  0.77442470  0.50089253  1
  O  O36  1  0.75814340  0.70767792  0.00276161  1
  O  O37  1  0.00297093  0.28121792  0.50003161  1
  O  O38  1  0.87936488  0.74068509  0.24106762  1
  O  O39  1  0.96754443  0.77047111  0.99458527  1
