# generated using pymatgen
data_Na2AgSb
_symmetry_space_group_name_H-M   'P 1'
_cell_length_a   5.83357322
_cell_length_b   6.12289634
_cell_length_c   6.12289634
_cell_angle_alpha   99.44923263
_cell_angle_beta   90.00000000
_cell_angle_gamma   90.00000000
_symmetry_Int_Tables_number   1
_chemical_formula_structural   Na2AgSb
_chemical_formula_sum   'Na4 Ag2 Sb2'
_cell_volume   215.73240281
_cell_formula_units_Z   2
loop_
 _symmetry_equiv_pos_site_id
 _symmetry_equiv_pos_as_xyz
  1  'x, y, z'
loop_
 _atom_site_type_symbol
 _atom_site_label
 _atom_site_symmetry_multiplicity
 _atom_site_fract_x
 _atom_site_fract_y
 _atom_site_fract_z
 _atom_site_occupancy
  Na  Na0  1  0.25000000  0.67123714  0.02858851  1
  Na  Na1  1  0.75000000  0.32876286  0.97141149  1
  Na  Na2  1  0.25000000  0.02858851  0.67123714  1
  Na  Na3  1  0.75000000  0.97141149  0.32876286  1
  Ag  Ag4  1  0.00000000  0.50000000  0.50000000  1
  Ag  Ag5  1  0.50000000  0.50000000  0.50000000  1
  Sb  Sb6  1  0.25000000  0.20780134  0.20780134  1
  Sb  Sb7  1  0.75000000  0.79219866  0.79219866  1
