# generated using pymatgen
data_K2AgAs
_symmetry_space_group_name_H-M   'P 1'
_cell_length_a   6.13366824
_cell_length_b   6.44574125
_cell_length_c   6.44574126
_cell_angle_alpha   103.59111018
_cell_angle_beta   90.00000000
_cell_angle_gamma   90.00000000
_symmetry_Int_Tables_number   1
_chemical_formula_structural   K2AgAs
_chemical_formula_sum   'K4 Ag2 As2'
_cell_volume   247.70293597
_cell_formula_units_Z   2
loop_
 _symmetry_equiv_pos_site_id
 _symmetry_equiv_pos_as_xyz
  1  'x, y, z'
loop_
 _atom_site_type_symbol
 _atom_site_label
 _atom_site_symmetry_multiplicity
 _atom_site_fract_x
 _atom_site_fract_y
 _atom_site_fract_z
 _atom_site_occupancy
  K  K0  1  0.24936131  0.68409893  0.02944407  1
  K  K1  1  0.74936131  0.31590107  0.97055593  1
  K  K2  1  0.25063869  0.02944407  0.68409893  1
  K  K3  1  0.75063869  0.97055593  0.31590107  1
  As  As4  1  0.75000000  0.75907315  0.75907315  1
  As  As5  1  0.25000000  0.24092685  0.24092685  1
  Ag  Ag6  1  0.50000000  0.50005684  0.49994316  1
  Ag  Ag7  1  0.00000000  0.49994316  0.50005684  1
