# generated using pymatgen
data_NaCa2V3(CoO6)2
_symmetry_space_group_name_H-M   'P 1'
_cell_length_a   10.87798403
_cell_length_b   10.87672702
_cell_length_c   10.87773002
_cell_angle_alpha   109.35050749
_cell_angle_beta   109.71389789
_cell_angle_gamma   109.35206009
_symmetry_Int_Tables_number   1
_chemical_formula_structural   NaCa2V3(CoO6)2
_chemical_formula_sum   'Na4 Ca8 V12 Co8 O48'
_cell_volume   990.70339254
_cell_formula_units_Z   4
loop_
 _symmetry_equiv_pos_site_id
 _symmetry_equiv_pos_as_xyz
  1  'x, y, z'
loop_
 _atom_site_type_symbol
 _atom_site_label
 _atom_site_symmetry_multiplicity
 _atom_site_fract_x
 _atom_site_fract_y
 _atom_site_fract_z
 _atom_site_occupancy
  Na  Na0  1  0.12498832  0.24998722  0.37496832  1
  Na  Na1  1  0.37497184  0.74999891  0.12498631  1
  Na  Na2  1  0.62502816  0.25000109  0.87501369  1
  Na  Na3  1  0.87501168  0.75001278  0.62503168  1
  Ca  Ca4  1  0.24995869  0.87697871  0.62697695  1
  Ca  Ca5  1  0.12707098  0.37704620  0.75004090  1
  Ca  Ca6  1  0.24999938  0.37704279  0.12708216  1
  Ca  Ca7  1  0.62705852  0.87710380  0.75004408  1
  Ca  Ca8  1  0.75000062  0.62295721  0.87291784  1
  Ca  Ca9  1  0.37294148  0.12289620  0.24995592  1
  Ca  Ca10  1  0.87292902  0.62295380  0.24995910  1
  Ca  Ca11  1  0.75004131  0.12302129  0.37302305  1
  V  V12  1  0.12510717  0.75014830  0.87511569  1
  V  V13  1  0.12435723  0.87429011  0.24990557  1
  V  V14  1  0.25006641  0.62563325  0.37565759  1
  V  V15  1  0.24996994  0.12581067  0.87586883  1
  V  V16  1  0.37575359  0.62571400  0.75006953  1
  V  V17  1  0.37498132  0.25002410  0.62497603  1
  V  V18  1  0.62501868  0.74997590  0.37502397  1
  V  V19  1  0.74993359  0.37436675  0.62434241  1
  V  V20  1  0.62424641  0.37428600  0.24993047  1
  V  V21  1  0.75003006  0.87418933  0.12413117  1
  V  V22  1  0.87564277  0.12570989  0.75009443  1
  V  V23  1  0.87489283  0.24985170  0.12488431  1
  Co  Co24  1  0.00000000  0.50000000  0.00000000  1
  Co  Co25  1  0.00000000  0.00000000  0.00000000  1
  Co  Co26  1  0.50000000  0.50000000  0.50000000  1
  Co  Co27  1  0.50000000  0.00000000  0.50000000  1
  Co  Co28  1  0.50000000  0.50000000  0.00000000  1
  Co  Co29  1  0.50000000  0.00000000  0.00000000  1
  Co  Co30  1  0.00000000  0.50000000  0.50000000  1
  Co  Co31  1  0.00000000  0.00000000  0.50000000  1
  O  O32  1  0.10562901  0.98881375  0.69168701  1
  O  O33  1  0.11359718  0.59895229  0.90639244  1
  O  O34  1  0.01777937  0.30988999  0.89676531  1
  O  O35  1  0.09363602  0.70724698  0.69260100  1
  O  O36  1  0.08685586  0.87901067  0.39685164  1
  O  O37  1  0.10313294  0.62098551  0.41317039  1
  O  O38  1  0.19167454  0.48876235  0.60557587  1
  O  O39  1  0.41321817  0.81005560  0.79218550  1
  O  O40  1  0.38313944  0.58602697  0.89429658  1
  O  O41  1  0.29212356  0.30985018  0.91308893  1
  O  O42  1  0.01459663  0.20721406  0.11361328  1
  O  O43  1  0.30814877  0.91391425  0.29701706  1
  O  O44  1  0.19262813  0.20722496  0.59359797  1
  O  O45  1  0.20293635  0.58609990  0.19176692  1
  O  O46  1  0.39685063  0.80998936  0.51780177  1
  O  O47  1  0.29704784  0.48888376  0.38309225  1
  O  O48  1  0.30719936  0.90086777  0.01452695  1
  O  O49  1  0.11686243  0.01112401  0.20295551  1
  O  O50  1  0.39442362  0.08615326  0.88323045  1
  O  O51  1  0.51776946  0.62097900  0.70789186  1
  O  O52  1  0.51458083  0.40095862  0.80741293  1
  O  O53  1  0.38640639  0.29285011  0.48542586  1
  O  O54  1  0.20789205  0.12102190  0.01773317  1
  O  O55  1  0.59361702  0.90094980  0.38634297  1
  O  O56  1  0.40638298  0.09905020  0.61365703  1
  O  O57  1  0.79210795  0.87897810  0.98226683  1
  O  O58  1  0.61359361  0.70714989  0.51457414  1
  O  O59  1  0.48541917  0.59904138  0.19258707  1
  O  O60  1  0.48223054  0.37902100  0.29210814  1
  O  O61  1  0.60557638  0.91384674  0.11676955  1
  O  O62  1  0.88313757  0.98887599  0.79704449  1
  O  O63  1  0.69280064  0.09913223  0.98547305  1
  O  O64  1  0.70295216  0.51111624  0.61690775  1
  O  O65  1  0.60314937  0.19001064  0.48219823  1
  O  O66  1  0.79706365  0.41390010  0.80823308  1
  O  O67  1  0.80737187  0.79277504  0.40640203  1
  O  O68  1  0.69185123  0.08608575  0.70298294  1
  O  O69  1  0.98540337  0.79278594  0.88638672  1
  O  O70  1  0.70787644  0.69014982  0.08691107  1
  O  O71  1  0.61686056  0.41397303  0.10570342  1
  O  O72  1  0.58678183  0.18994440  0.20781450  1
  O  O73  1  0.80832546  0.51123765  0.39442413  1
  O  O74  1  0.89686706  0.37901449  0.58682961  1
  O  O75  1  0.91314414  0.12098933  0.60314836  1
  O  O76  1  0.90636398  0.29275302  0.30739900  1
  O  O77  1  0.98222063  0.69011001  0.10323469  1
  O  O78  1  0.88640282  0.40104771  0.09360756  1
  O  O79  1  0.89437099  0.01118625  0.30831299  1
