# generated using pymatgen
data_Ca3Mn2(GeO4)3
_symmetry_space_group_name_H-M   'P 1'
_cell_length_a   10.80829737
_cell_length_b   10.80838831
_cell_length_c   10.80830567
_cell_angle_alpha   109.31853801
_cell_angle_beta   109.54715591
_cell_angle_gamma   109.54871772
_symmetry_Int_Tables_number   1
_chemical_formula_structural   Ca3Mn2(GeO4)3
_chemical_formula_sum   'Ca12 Mn8 Ge12 O48'
_cell_volume   971.95955573
_cell_formula_units_Z   4
loop_
 _symmetry_equiv_pos_site_id
 _symmetry_equiv_pos_as_xyz
  1  'x, y, z'
loop_
 _atom_site_type_symbol
 _atom_site_label
 _atom_site_symmetry_multiplicity
 _atom_site_fract_x
 _atom_site_fract_y
 _atom_site_fract_z
 _atom_site_occupancy
  Ca  Ca0  1  0.62746690  0.37556458  0.25263360  1
  Ca  Ca1  1  0.37253310  0.62443542  0.74736640  1
  Ca  Ca2  1  0.75000228  0.37704669  0.62704279  1
  Ca  Ca3  1  0.24998451  0.12703630  0.87703437  1
  Ca  Ca4  1  0.75001549  0.87296370  0.12296563  1
  Ca  Ca5  1  0.12745836  0.87483379  0.25189777  1
  Ca  Ca6  1  0.62293335  0.24810052  0.87556629  1
  Ca  Ca7  1  0.87707841  0.75264131  0.62517507  1
  Ca  Ca8  1  0.37706665  0.75189948  0.12443371  1
  Ca  Ca9  1  0.87254164  0.12516621  0.74810223  1
  Ca  Ca10  1  0.24999772  0.62295331  0.37295721  1
  Ca  Ca11  1  0.12292159  0.24735869  0.37482493  1
  Mn  Mn12  1  0.50000000  0.50000000  0.50000000  1
  Mn  Mn13  1  0.50000000  0.00000000  0.00000000  1
  Mn  Mn14  1  0.00000000  0.00000000  0.00000000  1
  Mn  Mn15  1  0.00000000  0.50000000  0.00000000  1
  Mn  Mn16  1  0.50000000  0.50000000  0.00000000  1
  Mn  Mn17  1  0.50000000  0.00000000  0.50000000  1
  Mn  Mn18  1  0.00000000  0.00000000  0.50000000  1
  Mn  Mn19  1  0.00000000  0.50000000  0.50000000  1
  Ge  Ge20  1  0.37775030  0.13161423  0.25926283  1
  Ge  Ge21  1  0.37233995  0.25386277  0.63160452  1
  Ge  Ge22  1  0.62224970  0.86838577  0.74073717  1
  Ge  Ge23  1  0.25000155  0.87500836  0.62500878  1
  Ge  Ge24  1  0.25000100  0.37500201  0.12500966  1
  Ge  Ge25  1  0.12225348  0.38151024  0.75386166  1
  Ge  Ge26  1  0.74999845  0.12499164  0.37499122  1
  Ge  Ge27  1  0.62766005  0.74613723  0.36839548  1
  Ge  Ge28  1  0.74999900  0.62499799  0.87499034  1
  Ge  Ge29  1  0.87774652  0.61848976  0.24613834  1
  Ge  Ge30  1  0.87233926  0.24073335  0.11848119  1
  Ge  Ge31  1  0.12766074  0.75926665  0.88151881  1
  O  O32  1  0.31831113  0.80813679  0.91681992  1
  O  O33  1  0.86982191  0.28145233  0.97321387  1
  O  O34  1  0.19176379  0.08837283  0.21855853  1
  O  O35  1  0.63018528  0.60339587  0.41163877  1
  O  O36  1  0.41481058  0.12571830  0.11054456  1
  O  O37  1  0.89131557  0.58318069  0.40148277  1
  O  O38  1  0.10137274  0.18521128  0.98642331  1
  O  O39  1  0.30121535  0.41616583  0.31479135  1
  O  O40  1  0.60136984  0.61495340  0.91615903  1
  O  O41  1  0.69878465  0.58383417  0.68520865  1
  O  O42  1  0.02171328  0.61377009  0.19892092  1
  O  O43  1  0.20581267  0.68613554  0.58482858  1
  O  O44  1  0.81831511  0.90147873  0.51014322  1
  O  O45  1  0.39863016  0.38504660  0.08384097  1
  O  O46  1  0.89869633  0.08482622  0.37901227  1
  O  O47  1  0.80823621  0.91162717  0.78144147  1
  O  O48  1  0.91480194  0.80426529  0.28907418  1
  O  O49  1  0.79418733  0.31386446  0.41517142  1
  O  O50  1  0.48483031  0.78908346  0.37427939  1
  O  O51  1  0.60130901  0.98032013  0.18612537  1
  O  O52  1  0.89862726  0.81478872  0.01357669  1
  O  O53  1  0.08514819  0.90793476  0.88622378  1
  O  O54  1  0.10868443  0.41681931  0.59851723  1
  O  O55  1  0.10130367  0.91517378  0.62098773  1
  O  O56  1  0.68168887  0.19186321  0.08318008  1
  O  O57  1  0.97828672  0.38622991  0.80107908  1
  O  O58  1  0.58515701  0.69892717  0.17720998  1
  O  O59  1  0.80121145  0.48642171  0.88504744  1
  O  O60  1  0.69175617  0.47320608  0.10339199  1
  O  O61  1  0.29417862  0.87900741  0.48032295  1
  O  O62  1  0.51516969  0.21091654  0.62572061  1
  O  O63  1  0.91485181  0.09206524  0.11377622  1
  O  O64  1  0.52170637  0.32279373  0.40793283  1
  O  O65  1  0.98482392  0.61054794  0.69574238  1
  O  O66  1  0.39131781  0.98983719  0.30813243  1
  O  O67  1  0.60868219  0.01016281  0.69186757  1
  O  O68  1  0.18168489  0.09852127  0.48985678  1
  O  O69  1  0.13017809  0.71854767  0.02678613  1
  O  O70  1  0.39869099  0.01967987  0.81387463  1
  O  O71  1  0.01517608  0.38945206  0.30425762  1
  O  O72  1  0.58518942  0.87428170  0.88945544  1
  O  O73  1  0.19878855  0.51357829  0.11495256  1
  O  O74  1  0.30824383  0.52679392  0.89660801  1
  O  O75  1  0.47829363  0.67720627  0.59206717  1
  O  O76  1  0.70582138  0.12099259  0.51967705  1
  O  O77  1  0.08519806  0.19573471  0.71092582  1
  O  O78  1  0.36981472  0.39660413  0.58836123  1
  O  O79  1  0.41484299  0.30107283  0.82279002  1
