# generated using pymatgen
data_Pb(ClO2)2
_symmetry_space_group_name_H-M   'P 1'
_cell_length_a   6.11976894
_cell_length_b   6.11338844
_cell_length_c   7.15446276
_cell_angle_alpha   90.00000000
_cell_angle_beta   115.32098399
_cell_angle_gamma   90.00000000
_symmetry_Int_Tables_number   1
_chemical_formula_structural   Pb(ClO2)2
_chemical_formula_sum   'Pb2 Cl4 O8'
_cell_volume   241.95071462
_cell_formula_units_Z   2
loop_
 _symmetry_equiv_pos_site_id
 _symmetry_equiv_pos_as_xyz
  1  'x, y, z'
loop_
 _atom_site_type_symbol
 _atom_site_label
 _atom_site_symmetry_multiplicity
 _atom_site_fract_x
 _atom_site_fract_y
 _atom_site_fract_z
 _atom_site_occupancy
  Pb  Pb0  1  0.75000000  0.25000000  0.50000000  1
  Pb  Pb1  1  0.25000000  0.75000000  0.50000000  1
  Cl  Cl2  1  0.07526984  0.25000000  0.15053968  1
  Cl  Cl3  1  0.57526984  0.75000000  0.15053968  1
  Cl  Cl4  1  0.92473016  0.75000000  0.84946032  1
  Cl  Cl5  1  0.42473016  0.25000000  0.84946032  1
  O  O6  1  0.20243783  0.09877694  0.71139957  1
  O  O7  1  0.50896174  0.40122306  0.71139957  1
  O  O8  1  0.70243783  0.90122306  0.71139957  1
  O  O9  1  0.79756217  0.90122306  0.28860043  1
  O  O10  1  0.49103826  0.59877694  0.28860043  1
  O  O11  1  0.99103826  0.40122306  0.28860043  1
  O  O12  1  0.29756217  0.09877694  0.28860043  1
  O  O13  1  0.00896174  0.59877694  0.71139957  1
