# generated using pymatgen
data_Na2SbPCO7
_symmetry_space_group_name_H-M   'P 1'
_cell_length_a   9.51084141
_cell_length_b   6.79513102
_cell_length_c   5.43931195
_cell_angle_alpha   90.00000000
_cell_angle_beta   95.21248691
_cell_angle_gamma   90.00000000
_symmetry_Int_Tables_number   1
_chemical_formula_structural   Na2SbPCO7
_chemical_formula_sum   'Na4 Sb2 P2 C2 O14'
_cell_volume   350.07495902
_cell_formula_units_Z   2
loop_
 _symmetry_equiv_pos_site_id
 _symmetry_equiv_pos_as_xyz
  1  'x, y, z'
loop_
 _atom_site_type_symbol
 _atom_site_label
 _atom_site_symmetry_multiplicity
 _atom_site_fract_x
 _atom_site_fract_y
 _atom_site_fract_z
 _atom_site_occupancy
  Na  Na0  1  0.21700580  0.48684455  0.24476604  1
  Na  Na1  1  0.21700580  0.01315545  0.24476604  1
  Na  Na2  1  0.78299420  0.51315545  0.75523396  1
  Na  Na3  1  0.78299420  0.98684455  0.75523396  1
  Sb  Sb4  1  0.37423370  0.75000000  0.80239107  1
  Sb  Sb5  1  0.62576630  0.25000000  0.19760893  1
  P  P6  1  0.39488995  0.25000000  0.74604117  1
  P  P7  1  0.60511005  0.75000000  0.25395883  1
  C  C8  1  0.08970519  0.75000000  0.72387654  1
  C  C9  1  0.91029481  0.25000000  0.27612346  1
  O  O10  1  0.04119554  0.25000000  0.27368343  1
  O  O11  1  0.17427881  0.75000000  0.93817411  1
  O  O12  1  0.15953932  0.75000000  0.52723603  1
  O  O13  1  0.33506262  0.06706813  0.87621222  1
  O  O14  1  0.33506262  0.43293187  0.87621222  1
  O  O15  1  0.43757186  0.75000000  0.19017809  1
  O  O16  1  0.35996436  0.25000000  0.46826245  1
  O  O17  1  0.64003564  0.75000000  0.53173755  1
  O  O18  1  0.56242814  0.25000000  0.80982191  1
  O  O19  1  0.66493738  0.56706813  0.12378778  1
  O  O20  1  0.66493738  0.93293187  0.12378778  1
  O  O21  1  0.84046068  0.25000000  0.47276397  1
  O  O22  1  0.82572119  0.25000000  0.06182589  1
  O  O23  1  0.95880446  0.75000000  0.72631657  1
