# generated using pymatgen
data_K2AgSb
_symmetry_space_group_name_H-M   'P 1'
_cell_length_a   6.36017281
_cell_length_b   6.75906660
_cell_length_c   6.75906660
_cell_angle_alpha   103.41930240
_cell_angle_beta   90.00000000
_cell_angle_gamma   90.00000000
_symmetry_Int_Tables_number   1
_chemical_formula_structural   K2AgSb
_chemical_formula_sum   'K4 Ag2 Sb2'
_cell_volume   282.63131459
_cell_formula_units_Z   2
loop_
 _symmetry_equiv_pos_site_id
 _symmetry_equiv_pos_as_xyz
  1  'x, y, z'
loop_
 _atom_site_type_symbol
 _atom_site_label
 _atom_site_symmetry_multiplicity
 _atom_site_fract_x
 _atom_site_fract_y
 _atom_site_fract_z
 _atom_site_occupancy
  K  K0  1  0.25027487  0.67831371  0.02326856  1
  K  K1  1  0.75027487  0.32168629  0.97673144  1
  K  K2  1  0.24972513  0.02326856  0.67831371  1
  K  K3  1  0.74972513  0.97673144  0.32168629  1
  Ag  Ag4  1  0.00000000  0.50018547  0.49981453  1
  Ag  Ag5  1  0.50000000  0.49981453  0.50018547  1
  Sb  Sb6  1  0.25000000  0.23499589  0.23499589  1
  Sb  Sb7  1  0.75000000  0.76500411  0.76500411  1
