# generated using pymatgen
data_Rb2ZrO3
_symmetry_space_group_name_H-M   'P 1'
_cell_length_a   6.62459733
_cell_length_b   6.62459733
_cell_length_c   5.97341874
_cell_angle_alpha   90.00000000
_cell_angle_beta   90.00000000
_cell_angle_gamma   111.46563994
_symmetry_Int_Tables_number   1
_chemical_formula_structural   Rb2ZrO3
_chemical_formula_sum   'Rb4 Zr2 O6'
_cell_volume   243.96208399
_cell_formula_units_Z   2
loop_
 _symmetry_equiv_pos_site_id
 _symmetry_equiv_pos_as_xyz
  1  'x, y, z'
loop_
 _atom_site_type_symbol
 _atom_site_label
 _atom_site_symmetry_multiplicity
 _atom_site_fract_x
 _atom_site_fract_y
 _atom_site_fract_z
 _atom_site_occupancy
  Rb  Rb0  1  0.47970710  0.80609559  0.25620943  1
  Rb  Rb1  1  0.19390441  0.52029290  0.75620943  1
  Rb  Rb2  1  0.52029290  0.19390441  0.75620943  1
  Rb  Rb3  1  0.80609559  0.47970710  0.25620943  1
  Zr  Zr4  1  0.91285109  0.91285109  0.73620195  1
  Zr  Zr5  1  0.08714891  0.08714891  0.23620195  1
  O  O6  1  0.13431535  0.88634704  0.49282882  1
  O  O7  1  0.11365296  0.86568465  0.99282882  1
  O  O8  1  0.65439914  0.65439914  0.70572155  1
  O  O9  1  0.34560086  0.34560086  0.20572155  1
  O  O10  1  0.86568465  0.11365296  0.99282882  1
  O  O11  1  0.88634704  0.13431535  0.49282882  1
