# generated using pymatgen
data_Cs3P(SeO6)2
_symmetry_space_group_name_H-M   'P 1'
_cell_length_a   20.92449091
_cell_length_b   8.18632156
_cell_length_c   9.51536117
_cell_angle_alpha   90.00000000
_cell_angle_beta   102.28588361
_cell_angle_gamma   90.00000000
_symmetry_Int_Tables_number   1
_chemical_formula_structural   Cs3P(SeO6)2
_chemical_formula_sum   'Cs12 P4 Se8 O48'
_cell_volume   1592.60148251
_cell_formula_units_Z   4
loop_
 _symmetry_equiv_pos_site_id
 _symmetry_equiv_pos_as_xyz
  1  'x, y, z'
loop_
 _atom_site_type_symbol
 _atom_site_label
 _atom_site_symmetry_multiplicity
 _atom_site_fract_x
 _atom_site_fract_y
 _atom_site_fract_z
 _atom_site_occupancy
  Cs  Cs0  1  0.17535312  0.62601824  0.10148850  1
  Cs  Cs1  1  0.67535312  0.87398176  0.60148850  1
  Cs  Cs2  1  0.82464688  0.37398176  0.89851150  1
  Cs  Cs3  1  0.32464688  0.12601824  0.39851150  1
  Cs  Cs4  1  0.17261100  0.36975443  0.62094500  1
  Cs  Cs5  1  0.67261100  0.13024557  0.12094500  1
  Cs  Cs6  1  0.82738900  0.63024557  0.37905500  1
  Cs  Cs7  1  0.32738900  0.86975443  0.87905500  1
  Cs  Cs8  1  0.00121439  0.91252343  0.24677865  1
  Cs  Cs9  1  0.50121439  0.58747657  0.74677865  1
  Cs  Cs10  1  0.99878561  0.08747657  0.75322135  1
  Cs  Cs11  1  0.49878561  0.41252343  0.25322135  1
  P  P12  1  0.00316348  0.41776496  0.25057318  1
  P  P13  1  0.50316348  0.08223504  0.75057318  1
  P  P14  1  0.99683652  0.58223504  0.74942682  1
  P  P15  1  0.49683652  0.91776496  0.24942682  1
  Se  Se16  1  0.33864486  0.63974684  0.43115277  1
  Se  Se17  1  0.83864486  0.86025316  0.93115277  1
  Se  Se18  1  0.66135514  0.36025316  0.56884723  1
  Se  Se19  1  0.16135514  0.13974684  0.06884723  1
  Se  Se20  1  0.33977895  0.36452756  0.92386277  1
  Se  Se21  1  0.83977895  0.13547244  0.42386277  1
  Se  Se22  1  0.66022105  0.63547244  0.07613723  1
  Se  Se23  1  0.16022105  0.86452756  0.57613723  1
  O  O24  1  0.32710575  0.74577228  0.27679656  1
  O  O25  1  0.82710575  0.75422772  0.77679656  1
  O  O26  1  0.67289425  0.25422772  0.72320344  1
  O  O27  1  0.17289425  0.24577228  0.22320344  1
  O  O28  1  0.39717542  0.49797797  0.43984614  1
  O  O29  1  0.89717542  0.00202203  0.93984614  1
  O  O30  1  0.60282458  0.50202203  0.56015386  1
  O  O31  1  0.10282458  0.99797797  0.06015386  1
  O  O32  1  0.35727229  0.76303221  0.57336372  1
  O  O33  1  0.85727229  0.73696779  0.07336372  1
  O  O34  1  0.64272771  0.23696779  0.42663628  1
  O  O35  1  0.14272771  0.26303221  0.92663628  1
  O  O36  1  0.26809284  0.53688243  0.42831434  1
  O  O37  1  0.76809284  0.96311757  0.92831434  1
  O  O38  1  0.73190716  0.46311757  0.57168566  1
  O  O39  1  0.23190716  0.03688243  0.07168566  1
  O  O40  1  0.33095423  0.25188983  0.77394720  1
  O  O41  1  0.83095423  0.24811017  0.27394720  1
  O  O42  1  0.66904577  0.74811017  0.22605280  1
  O  O43  1  0.16904577  0.75188983  0.72605280  1
  O  O44  1  0.35023060  0.24330798  0.07051812  1
  O  O45  1  0.85023060  0.25669202  0.57051812  1
  O  O46  1  0.64976940  0.75669202  0.92948188  1
  O  O47  1  0.14976940  0.74330798  0.42948188  1
  O  O48  1  0.40652963  0.48315775  0.94612818  1
  O  O49  1  0.90652963  0.01684225  0.44612818  1
  O  O50  1  0.59347037  0.51684225  0.05387182  1
  O  O51  1  0.09347037  0.98315775  0.55387182  1
  O  O52  1  0.27326568  0.48205491  0.91040843  1
  O  O53  1  0.77326568  0.01794509  0.41040843  1
  O  O54  1  0.72673432  0.51794509  0.08959157  1
  O  O55  1  0.22673432  0.98205491  0.58959157  1
  O  O56  1  0.02807985  0.52999308  0.14426166  1
  O  O57  1  0.52807985  0.97000692  0.64426166  1
  O  O58  1  0.97192015  0.47000692  0.85573834  1
  O  O59  1  0.47192015  0.02999308  0.35573834  1
  O  O60  1  0.97739802  0.53154025  0.35458120  1
  O  O61  1  0.47739802  0.96845975  0.85458120  1
  O  O62  1  0.02260198  0.46845975  0.64541880  1
  O  O63  1  0.52260198  0.03154025  0.14541880  1
  O  O64  1  0.05876584  0.30641390  0.33105398  1
  O  O65  1  0.55876584  0.19358610  0.83105398  1
  O  O66  1  0.94123416  0.69358610  0.66894602  1
  O  O67  1  0.44123416  0.80641390  0.16894602  1
  O  O68  1  0.94880776  0.30208043  0.17200162  1
  O  O69  1  0.44880776  0.19791957  0.67200162  1
  O  O70  1  0.05119224  0.69791957  0.82799838  1
  O  O71  1  0.55119224  0.80208043  0.32799838  1
