# generated using pymatgen
data_SmAlO3
_symmetry_space_group_name_H-M   'P 1'
_cell_length_a   5.35599796
_cell_length_b   5.32242643
_cell_length_c   7.54245809
_cell_angle_alpha   90.00000000
_cell_angle_beta   90.00000000
_cell_angle_gamma   90.00000000
_symmetry_Int_Tables_number   1
_chemical_formula_structural   SmAlO3
_chemical_formula_sum   'Sm4 Al4 O12'
_cell_volume   215.01213700
_cell_formula_units_Z   4
loop_
 _symmetry_equiv_pos_site_id
 _symmetry_equiv_pos_as_xyz
  1  'x, y, z'
loop_
 _atom_site_type_symbol
 _atom_site_label
 _atom_site_symmetry_multiplicity
 _atom_site_fract_x
 _atom_site_fract_y
 _atom_site_fract_z
 _atom_site_occupancy
  O  O0  1  0.71937999  0.27977671  0.53822142  1
  O  O1  1  0.21937999  0.22022329  0.96177858  1
  O  O2  1  0.78062001  0.77977671  0.46177858  1
  O  O3  1  0.28062001  0.72022329  0.03822142  1
  O  O4  1  0.28062001  0.72022329  0.46177858  1
  O  O5  1  0.78062001  0.77977671  0.03822142  1
  O  O6  1  0.21937999  0.22022329  0.53822142  1
  O  O7  1  0.71937999  0.27977671  0.96177858  1
  O  O8  1  0.51296681  0.92870558  0.75000000  1
  O  O9  1  0.01296681  0.57129442  0.75000000  1
  O  O10  1  0.98703319  0.42870558  0.25000000  1
  O  O11  1  0.48703319  0.07129442  0.25000000  1
  Al  Al12  1  0.50000000  0.00000000  0.50000000  1
  Al  Al13  1  0.00000000  0.50000000  0.00000000  1
  Al  Al14  1  0.00000000  0.50000000  0.50000000  1
  Al  Al15  1  0.50000000  0.00000000  0.00000000  1
  Sm  Sm16  1  0.03442076  0.99153311  0.25000000  1
  Sm  Sm17  1  0.53442076  0.50846689  0.25000000  1
  Sm  Sm18  1  0.46557924  0.49153311  0.75000000  1
  Sm  Sm19  1  0.96557924  0.00846689  0.75000000  1
