# generated using pymatgen
data_KAl(SO4)2
_symmetry_space_group_name_H-M   'P 1'
_cell_length_a   5.01656286
_cell_length_b   5.01656312
_cell_length_c   7.96907840
_cell_angle_alpha   90.00000000
_cell_angle_beta   90.00000000
_cell_angle_gamma   119.99999827
_symmetry_Int_Tables_number   1
_chemical_formula_structural   KAl(SO4)2
_chemical_formula_sum   'K1 Al1 S2 O8'
_cell_volume   173.68058712
_cell_formula_units_Z   1
loop_
 _symmetry_equiv_pos_site_id
 _symmetry_equiv_pos_as_xyz
  1  'x, y, z'
loop_
 _atom_site_type_symbol
 _atom_site_label
 _atom_site_symmetry_multiplicity
 _atom_site_fract_x
 _atom_site_fract_y
 _atom_site_fract_z
 _atom_site_occupancy
  K  K0  1  0.00000000  -0.00000000  -0.00000000  1
  Al  Al1  1  0.00000000  -0.00000000  0.50000000  1
  S  S2  1  0.66666700  0.33333300  0.70572913  1
  S  S3  1  0.33333300  0.66666700  0.29427087  1
  O  O4  1  0.34491259  0.17441303  0.64341497  1
  O  O5  1  0.82558697  0.17049856  0.64341497  1
  O  O6  1  0.82950144  0.65508741  0.64341497  1
  O  O7  1  0.17049856  0.82558697  0.35658503  1
  O  O8  1  0.33333300  0.66666700  0.11144955  1
  O  O9  1  0.66666700  0.33333300  0.88855045  1
  O  O10  1  0.17441303  0.34491259  0.35658503  1
  O  O11  1  0.65508741  0.82950144  0.35658503  1
