# generated using pymatgen
data_RbAuO2
_symmetry_space_group_name_H-M   'P 1'
_cell_length_a   4.88031672
_cell_length_b   6.13360484
_cell_length_c   6.64179664
_cell_angle_alpha   90.00000000
_cell_angle_beta   111.55500773
_cell_angle_gamma   90.00000000
_symmetry_Int_Tables_number   1
_chemical_formula_structural   RbAuO2
_chemical_formula_sum   'Rb2 Au2 O4'
_cell_volume   184.91102423
_cell_formula_units_Z   2
loop_
 _symmetry_equiv_pos_site_id
 _symmetry_equiv_pos_as_xyz
  1  'x, y, z'
loop_
 _atom_site_type_symbol
 _atom_site_label
 _atom_site_symmetry_multiplicity
 _atom_site_fract_x
 _atom_site_fract_y
 _atom_site_fract_z
 _atom_site_occupancy
  O  O0  1  0.89093392  0.50463635  0.78186784  1
  O  O1  1  0.10906608  0.49536365  0.21813216  1
  O  O2  1  0.89093392  0.99536365  0.78186784  1
  O  O3  1  0.10906608  0.00463635  0.21813216  1
  Rb  Rb4  1  0.30206560  0.75000000  0.60413121  1
  Rb  Rb5  1  0.69793440  0.25000000  0.39586879  1
  Au  Au6  1  0.99755621  0.25000000  0.99511242  1
  Au  Au7  1  0.00244379  0.75000000  0.00488758  1
