# generated using pymatgen
data_Cs2BeO2
_symmetry_space_group_name_H-M   'P 1'
_cell_length_a   7.98043368
_cell_length_b   8.83528746
_cell_length_c   6.29741287
_cell_angle_alpha   90.00000000
_cell_angle_beta   90.00000000
_cell_angle_gamma   90.12918468
_symmetry_Int_Tables_number   1
_chemical_formula_structural   Cs2BeO2
_chemical_formula_sum   'Cs8 Be4 O8'
_cell_volume   444.02583585
_cell_formula_units_Z   4
loop_
 _symmetry_equiv_pos_site_id
 _symmetry_equiv_pos_as_xyz
  1  'x, y, z'
loop_
 _atom_site_type_symbol
 _atom_site_label
 _atom_site_symmetry_multiplicity
 _atom_site_fract_x
 _atom_site_fract_y
 _atom_site_fract_z
 _atom_site_occupancy
  Cs  Cs0  1  0.10709680  0.25350391  0.06806050  1
  Cs  Cs1  1  0.15592756  0.87821313  0.36077535  1
  Cs  Cs2  1  0.34407244  0.62178687  0.86077535  1
  Cs  Cs3  1  0.39290320  0.24649609  0.56806050  1
  Cs  Cs4  1  0.60709680  0.75350391  0.43193950  1
  Cs  Cs5  1  0.65592756  0.37821313  0.13922465  1
  Cs  Cs6  1  0.84407244  0.12178687  0.63922465  1
  Cs  Cs7  1  0.89290320  0.74649609  0.93193950  1
  Be  Be8  1  0.11454875  0.52073231  0.42564272  1
  Be  Be9  1  0.38545125  0.97926769  0.92564272  1
  Be  Be10  1  0.61454875  0.02073231  0.07435728  1
  Be  Be11  1  0.88545125  0.47926769  0.57435728  1
  O  O12  1  0.06846839  0.40989570  0.62085939  1
  O  O13  1  0.21746065  0.94722143  0.82242650  1
  O  O14  1  0.28253935  0.55277857  0.32242650  1
  O  O15  1  0.43153161  0.09010430  0.12085939  1
  O  O16  1  0.56846839  0.90989570  0.87914061  1
  O  O17  1  0.71746065  0.44722143  0.67757350  1
  O  O18  1  0.78253935  0.05277857  0.17757350  1
  O  O19  1  0.93153161  0.59010430  0.37914061  1
