# generated using pymatgen
data_Sr24Fe16O53
_symmetry_space_group_name_H-M   'P 1'
_cell_length_a   11.11588320
_cell_length_b   11.96197033
_cell_length_c   11.96197033
_cell_angle_alpha   117.45638921
_cell_angle_beta   76.57790523
_cell_angle_gamma   76.57790523
_symmetry_Int_Tables_number   1
_chemical_formula_structural   Sr24Fe16O53
_chemical_formula_sum   'Sr24 Fe16 O53'
_cell_volume   1262.42885469
_cell_formula_units_Z   1
loop_
 _symmetry_equiv_pos_site_id
 _symmetry_equiv_pos_as_xyz
  1  'x, y, z'
loop_
 _atom_site_type_symbol
 _atom_site_label
 _atom_site_symmetry_multiplicity
 _atom_site_fract_x
 _atom_site_fract_y
 _atom_site_fract_z
 _atom_site_occupancy
  Sr  Sr0  1  0.75000000  0.00000000  0.00000000  1
  Sr  Sr1  1  0.87419712  0.06941196  0.43516410  1
  Sr  Sr2  1  0.87419712  0.43516410  0.06941196  1
  Sr  Sr3  1  0.87011305  0.25976540  0.25976540  1
  Sr  Sr4  1  0.75000000  0.81692314  0.18307686  1
  Sr  Sr5  1  0.75000000  0.18307686  0.81692314  1
  Sr  Sr6  1  0.50140984  0.31899305  0.68084498  1
  Sr  Sr7  1  0.37439772  0.25133028  0.25133028  1
  Sr  Sr8  1  0.51006661  0.49987734  0.49987734  1
  Sr  Sr9  1  0.50140984  0.68084498  0.31899305  1
  Sr  Sr10  1  0.62580288  0.56483590  0.93058804  1
  Sr  Sr11  1  0.37464532  0.43340438  0.06677456  1
  Sr  Sr12  1  0.37464532  0.06677456  0.43340438  1
  Sr  Sr13  1  0.25000000  0.00000000  0.00000000  1
  Sr  Sr14  1  0.62988695  0.74023460  0.74023460  1
  Sr  Sr15  1  0.62580288  0.93058804  0.56483590  1
  Sr  Sr16  1  0.25000000  0.81861134  0.18138866  1
  Sr  Sr17  1  0.25000000  0.18138866  0.81861134  1
  Sr  Sr18  1  0.12560228  0.74866972  0.74866972  1
  Sr  Sr19  1  0.12535468  0.56659562  0.93322544  1
  Sr  Sr20  1  0.99859016  0.31915502  0.68100695  1
  Sr  Sr21  1  0.98993339  0.50012266  0.50012266  1
  Sr  Sr22  1  0.99859016  0.68100695  0.31915502  1
  Sr  Sr23  1  0.12535468  0.93322544  0.56659562  1
  Fe  Fe24  1  0.75000000  0.59824606  0.40175394  1
  Fe  Fe25  1  0.75000000  0.40175394  0.59824606  1
  Fe  Fe26  1  0.62491610  0.34443125  0.15380315  1
  Fe  Fe27  1  0.87508390  0.65556875  0.84619685  1
  Fe  Fe28  1  0.62491610  0.15380315  0.34443125  1
  Fe  Fe29  1  0.87508390  0.84619685  0.65556875  1
  Fe  Fe30  1  0.50058747  0.10489633  0.89434201  1
  Fe  Fe31  1  0.50058747  0.89434201  0.10489633  1
  Fe  Fe32  1  0.37421812  0.84573622  0.65536455  1
  Fe  Fe33  1  0.25000000  0.39499680  0.60500320  1
  Fe  Fe34  1  0.12578188  0.15426378  0.34463545  1
  Fe  Fe35  1  0.12578188  0.34463545  0.15426378  1
  Fe  Fe36  1  0.25000000  0.60500320  0.39499680  1
  Fe  Fe37  1  0.37421812  0.65536455  0.84573622  1
  Fe  Fe38  1  0.99941253  0.89510367  0.10565799  1
  Fe  Fe39  1  0.99941253  0.10565799  0.89510367  1
  O  O40  1  0.93697797  0.47070039  0.27923928  1
  O  O41  1  0.81935170  0.21004773  0.03023793  1
  O  O42  1  0.93697797  0.27923928  0.47070039  1
  O  O43  1  0.81935170  0.03023793  0.21004773  1
  O  O44  1  0.75000000  0.50000000  0.50000000  1
  O  O45  1  0.75000000  0.69557327  0.30442673  1
  O  O46  1  0.68808426  0.47049483  0.27878064  1
  O  O47  1  0.81191574  0.52950517  0.72121936  1
  O  O48  1  0.93979195  0.79008473  0.96861164  1
  O  O49  1  0.75000000  0.30442673  0.69557327  1
  O  O50  1  0.87412041  0.74868376  0.74868376  1
  O  O51  1  0.62362227  0.43750956  0.05356743  1
  O  O52  1  0.68808426  0.27878064  0.47049483  1
  O  O53  1  0.56020805  0.03138836  0.20991527  1
  O  O54  1  0.56020805  0.20991527  0.03138836  1
  O  O55  1  0.62587959  0.25131624  0.25131624  1
  O  O56  1  0.87637773  0.56249044  0.94643257  1
  O  O57  1  0.81191574  0.72121936  0.52950517  1
  O  O58  1  0.62362227  0.05356743  0.43750956  1
  O  O59  1  0.87637773  0.94643257  0.56249044  1
  O  O60  1  0.93979195  0.96861164  0.79008473  1
  O  O61  1  0.50098630  0.80116077  0.19989093  1
  O  O62  1  0.50098630  0.19989093  0.80116077  1
  O  O63  1  0.43036203  0.28942344  0.46909217  1
  O  O64  1  0.43036203  0.46909217  0.28942344  1
  O  O65  1  0.31968044  0.20986509  0.03130953  1
  O  O66  1  0.68064830  0.78995227  0.96976207  1
  O  O67  1  0.31968044  0.03130953  0.20986509  1
  O  O68  1  0.68064830  0.96976207  0.78995227  1
  O  O69  1  0.56302203  0.72076072  0.52929961  1
  O  O70  1  0.56302203  0.52929961  0.72076072  1
  O  O71  1  0.19023966  0.28972793  0.46916255  1
  O  O72  1  0.36950047  0.56194041  0.94546203  1
  O  O73  1  0.25000000  0.69932127  0.30067873  1
  O  O74  1  0.13049953  0.43805959  0.05453797  1
  O  O75  1  0.06023547  0.03026744  0.21003425  1
  O  O76  1  0.43976453  0.96973256  0.78996575  1
  O  O77  1  0.12294298  0.25134469  0.25134469  1
  O  O78  1  0.30976034  0.71027207  0.53083745  1
  O  O79  1  0.06023547  0.21003425  0.03026744  1
  O  O80  1  0.13049953  0.05453797  0.43805959  1
  O  O81  1  0.19023966  0.46916255  0.28972793  1
  O  O82  1  0.30976034  0.53083745  0.71027207  1
  O  O83  1  0.37705702  0.74865531  0.74865531  1
  O  O84  1  0.43976453  0.78996575  0.96973256  1
  O  O85  1  0.36950047  0.94546203  0.56194041  1
  O  O86  1  0.25000000  0.30067873  0.69932127  1
  O  O87  1  0.18031956  0.79013491  0.96869047  1
  O  O88  1  0.18031956  0.96869047  0.79013491  1
  O  O89  1  0.06963797  0.71057656  0.53090783  1
  O  O90  1  0.99901370  0.19883923  0.80010907  1
  O  O91  1  0.06963797  0.53090783  0.71057656  1
  O  O92  1  0.99901370  0.80010907  0.19883923  1
