# generated using pymatgen
data_Sr2CrCO3F5
_symmetry_space_group_name_H-M   'P 1'
_cell_length_a   5.59325531
_cell_length_b   8.97886550
_cell_length_c   13.48588443
_cell_angle_alpha   90.00000000
_cell_angle_beta   98.07464670
_cell_angle_gamma   90.00000000
_symmetry_Int_Tables_number   1
_chemical_formula_structural   Sr2CrCO3F5
_chemical_formula_sum   'Sr8 Cr4 C4 O12 F20'
_cell_volume   670.56120391
_cell_formula_units_Z   4
loop_
 _symmetry_equiv_pos_site_id
 _symmetry_equiv_pos_as_xyz
  1  'x, y, z'
loop_
 _atom_site_type_symbol
 _atom_site_label
 _atom_site_symmetry_multiplicity
 _atom_site_fract_x
 _atom_site_fract_y
 _atom_site_fract_z
 _atom_site_occupancy
  Sr  Sr0  1  0.21132153  0.89183907  0.90278707  1
  Sr  Sr1  1  0.21865132  0.35810144  0.91214149  1
  Sr  Sr2  1  0.28134868  0.85810144  0.58785851  1
  Sr  Sr3  1  0.28867847  0.39183907  0.59721293  1
  Sr  Sr4  1  0.71132153  0.60816093  0.40278707  1
  Sr  Sr5  1  0.71865132  0.14189856  0.41214149  1
  Sr  Sr6  1  0.78134868  0.64189856  0.08785851  1
  Sr  Sr7  1  0.78867847  0.10816093  0.09721293  1
  Cr  Cr8  1  0.13344075  0.87176437  0.33022999  1
  Cr  Cr9  1  0.36655925  0.37176437  0.16977001  1
  Cr  Cr10  1  0.63344075  0.62823563  0.83022999  1
  Cr  Cr11  1  0.86655925  0.12823563  0.66977001  1
  C  C12  1  0.18436712  0.37559926  0.36297581  1
  C  C13  1  0.31563288  0.87559926  0.13702419  1
  C  C14  1  0.68436712  0.12440074  0.86297581  1
  C  C15  1  0.81563288  0.62440074  0.63702419  1
  O  O16  1  0.00427029  0.37917829  0.41484592  1
  O  O17  1  0.13419090  0.37073043  0.26625930  1
  O  O18  1  0.09622701  0.87703865  0.09069046  1
  O  O19  1  0.50427029  0.12082171  0.91484592  1
  O  O20  1  0.40377299  0.37703865  0.40930954  1
  O  O21  1  0.36580910  0.87073043  0.23374070  1
  O  O22  1  0.63419090  0.12926957  0.76625930  1
  O  O23  1  0.59622701  0.62296135  0.59069046  1
  O  O24  1  0.49572971  0.87917829  0.08515408  1
  O  O25  1  0.90377299  0.12296135  0.90930954  1
  O  O26  1  0.86580910  0.62926957  0.73374070  1
  O  O27  1  0.99572971  0.62082171  0.58515408  1
  F  F28  1  0.05985190  0.96442312  0.72885811  1
  F  F29  1  0.07274698  0.28091941  0.73705725  1
  F  F30  1  0.08943337  0.12915952  0.56658550  1
  F  F31  1  0.41056663  0.62915952  0.93341450  1
  F  F32  1  0.16692177  0.51242975  0.08499442  1
  F  F33  1  0.30941493  0.71720435  0.41335199  1
  F  F34  1  0.42725302  0.78091941  0.76294275  1
  F  F35  1  0.44014810  0.46442312  0.77114189  1
  F  F36  1  0.19058507  0.21720435  0.08664801  1
  F  F37  1  0.33307823  0.01242975  0.41500558  1
  F  F38  1  0.66692177  0.98757025  0.58499442  1
  F  F39  1  0.80941493  0.78279565  0.91335199  1
  F  F40  1  0.55985190  0.53557688  0.22885811  1
  F  F41  1  0.57274698  0.21908059  0.23705725  1
  F  F42  1  0.69058507  0.28279565  0.58664801  1
  F  F43  1  0.83307823  0.48757025  0.91500558  1
  F  F44  1  0.58943337  0.37084048  0.06658550  1
  F  F45  1  0.91056663  0.87084048  0.43341450  1
  F  F46  1  0.92725302  0.71908059  0.26294275  1
  F  F47  1  0.94014810  0.03557688  0.27114189  1
