# generated using pymatgen
data_Cs3TlO3
_symmetry_space_group_name_H-M   'P 1'
_cell_length_a   12.19125656
_cell_length_b   7.49379596
_cell_length_c   8.35796006
_cell_angle_alpha   90.00000000
_cell_angle_beta   94.88458144
_cell_angle_gamma   90.00000000
_symmetry_Int_Tables_number   1
_chemical_formula_structural   Cs3TlO3
_chemical_formula_sum   'Cs12 Tl4 O12'
_cell_volume   760.80000117
_cell_formula_units_Z   4
loop_
 _symmetry_equiv_pos_site_id
 _symmetry_equiv_pos_as_xyz
  1  'x, y, z'
loop_
 _atom_site_type_symbol
 _atom_site_label
 _atom_site_symmetry_multiplicity
 _atom_site_fract_x
 _atom_site_fract_y
 _atom_site_fract_z
 _atom_site_occupancy
  Cs  Cs0  1  0.07445799  0.32015365  0.64562817  1
  Cs  Cs1  1  0.15519253  0.62780733  0.05566462  1
  Cs  Cs2  1  0.19166360  0.80688751  0.62976865  1
  Cs  Cs3  1  0.30833640  0.30688751  0.37023135  1
  Cs  Cs4  1  0.34480747  0.12780733  0.94433538  1
  Cs  Cs5  1  0.42554201  0.82015365  0.35437183  1
  Cs  Cs6  1  0.57445799  0.17984635  0.64562817  1
  Cs  Cs7  1  0.65519253  0.87219267  0.05566462  1
  Cs  Cs8  1  0.69166360  0.69311249  0.62976865  1
  Cs  Cs9  1  0.80833640  0.19311249  0.37023135  1
  Cs  Cs10  1  0.84480747  0.37219267  0.94433538  1
  Cs  Cs11  1  0.92554201  0.67984635  0.35437183  1
  Tl  Tl12  1  0.06753844  0.09006448  0.16211040  1
  Tl  Tl13  1  0.43246156  0.59006448  0.83788960  1
  Tl  Tl14  1  0.56753844  0.40993552  0.16211040  1
  Tl  Tl15  1  0.93246156  0.90993552  0.83788960  1
  O  O16  1  0.03705777  0.35470673  0.25369510  1
  O  O17  1  0.09895161  0.04213106  0.89916698  1
  O  O18  1  0.19090765  0.93706152  0.30472572  1
  O  O19  1  0.30909235  0.43706152  0.69527428  1
  O  O20  1  0.40104839  0.54213106  0.10083302  1
  O  O21  1  0.46294223  0.85470673  0.74630490  1
  O  O22  1  0.53705777  0.14529327  0.25369510  1
  O  O23  1  0.59895161  0.45786894  0.89916698  1
  O  O24  1  0.69090765  0.56293848  0.30472572  1
  O  O25  1  0.80909235  0.06293848  0.69527428  1
  O  O26  1  0.90104839  0.95786894  0.10083302  1
  O  O27  1  0.96294223  0.64529327  0.74630490  1
