# generated using pymatgen
data_YNiH3SO7
_symmetry_space_group_name_H-M   'P 1'
_cell_length_a   6.97263486
_cell_length_b   7.36852008
_cell_length_c   10.37113545
_cell_angle_alpha   90.00036234
_cell_angle_beta   89.98986455
_cell_angle_gamma   89.99955626
_symmetry_Int_Tables_number   1
_chemical_formula_structural   YNiH3SO7
_chemical_formula_sum   'Y4 Ni4 H12 S4 O28'
_cell_volume   532.84818838
_cell_formula_units_Z   4
loop_
 _symmetry_equiv_pos_site_id
 _symmetry_equiv_pos_as_xyz
  1  'x, y, z'
loop_
 _atom_site_type_symbol
 _atom_site_label
 _atom_site_symmetry_multiplicity
 _atom_site_fract_x
 _atom_site_fract_y
 _atom_site_fract_z
 _atom_site_occupancy
  Y  Y0  1  0.73463373  0.25000084  0.80109741  1
  Y  Y1  1  0.23482440  0.24999004  0.69926645  1
  Y  Y2  1  0.26537318  0.74999639  0.19890183  1
  Y  Y3  1  0.76517896  0.75000622  0.30073723  1
  Ni  Ni4  1  0.49998315  0.00001114  0.99998419  1
  Ni  Ni5  1  0.00000349  0.49998425  0.50001588  1
  Ni  Ni6  1  0.49999405  0.49998363  0.99998665  1
  Ni  Ni7  1  0.99999585  0.00002698  0.49999370  1
  H  H8  1  0.73022142  0.24999619  0.07198354  1
  H  H9  1  0.23079395  0.25000066  0.42767349  1
  H  H10  1  0.26977870  0.75000316  0.92801819  1
  H  H11  1  0.76920912  0.75000012  0.57232598  1
  H  H12  1  0.47115971  0.95242214  0.76081372  1
  H  H13  1  0.97109259  0.54757948  0.73932684  1
  H  H14  1  0.52883840  0.45242705  0.23918804  1
  H  H15  1  0.02891137  0.04758484  0.26067257  1
  H  H16  1  0.52884050  0.04757745  0.23918707  1
  H  H17  1  0.02890752  0.45242142  0.26067472  1
  H  H18  1  0.47116188  0.54757323  0.76081289  1
  H  H19  1  0.97108845  0.95241587  0.73932639  1
  S  S20  1  0.12127096  0.24999763  0.05301165  1
  S  S21  1  0.62117156  0.24999815  0.44699772  1
  S  S22  1  0.87872740  0.75000261  0.94698936  1
  S  S23  1  0.37882721  0.75000433  0.55300376  1
  O  O24  1  0.05203441  0.24999644  0.91585536  1
  O  O25  1  0.55206643  0.24999504  0.58419260  1
  O  O26  1  0.94796683  0.75000327  0.08414528  1
  O  O27  1  0.44793390  0.75000479  0.41580884  1
  O  O28  1  0.95945211  0.25000675  0.14498424  1
  O  O29  1  0.45946944  0.25000630  0.35492118  1
  O  O30  1  0.04054704  0.74999191  0.85501689  1
  O  O31  1  0.54052873  0.74999223  0.64508101  1
  O  O32  1  0.76200610  0.91592796  0.92478801  1
  O  O33  1  0.26208072  0.58410191  0.57524667  1
  O  O34  1  0.23800679  0.41591187  0.07520702  1
  O  O35  1  0.73790946  0.08408842  0.42474461  1
  O  O36  1  0.23799339  0.08407401  0.07521247  1
  O  O37  1  0.73792389  0.41589691  0.42475659  1
  O  O38  1  0.76199522  0.58408601  0.92479215  1
  O  O39  1  0.26208881  0.91591457  0.57525618  1
  O  O40  1  0.62483734  0.24999763  0.00888746  1
  O  O41  1  0.12660063  0.25000100  0.49173636  1
  O  O42  1  0.37516687  0.74999928  0.99111128  1
  O  O43  1  0.87340586  0.75000089  0.50826570  1
  O  O44  1  0.45052093  0.06644750  0.80773983  1
  O  O45  1  0.95030012  0.43358982  0.69239288  1
  O  O46  1  0.54947964  0.56644716  0.19225678  1
  O  O47  1  0.04970216  0.93359841  0.30761045  1
  O  O48  1  0.54947759  0.93355567  0.19225594  1
  O  O49  1  0.04970059  0.56640651  0.30761404  1
  O  O50  1  0.45051943  0.43354904  0.80773873  1
  O  O51  1  0.95029801  0.06640490  0.69239221  1
