# generated using pymatgen
data_Na3CaPCO7
_symmetry_space_group_name_H-M   'P 1'
_cell_length_a   9.19071938
_cell_length_b   7.08856594
_cell_length_c   5.27939316
_cell_angle_alpha   90.00000000
_cell_angle_beta   90.20194725
_cell_angle_gamma   90.00000000
_symmetry_Int_Tables_number   1
_chemical_formula_structural   Na3CaPCO7
_chemical_formula_sum   'Na6 Ca2 P2 C2 O14'
_cell_volume   343.94515636
_cell_formula_units_Z   2
loop_
 _symmetry_equiv_pos_site_id
 _symmetry_equiv_pos_as_xyz
  1  'x, y, z'
loop_
 _atom_site_type_symbol
 _atom_site_label
 _atom_site_symmetry_multiplicity
 _atom_site_fract_x
 _atom_site_fract_y
 _atom_site_fract_z
 _atom_site_occupancy
  Na  Na0  1  0.08355453  0.25000000  0.75986874  1
  Na  Na1  1  0.25864410  0.00669218  0.24819310  1
  Na  Na2  1  0.25864410  0.49330782  0.24819310  1
  Na  Na3  1  0.74135590  0.50669218  0.75180690  1
  Na  Na4  1  0.74135590  0.99330782  0.75180690  1
  Na  Na5  1  0.91644547  0.75000000  0.24013126  1
  Ca  Ca6  1  0.36123006  0.75000000  0.77217822  1
  Ca  Ca7  1  0.63876994  0.25000000  0.22782178  1
  P  P8  1  0.40677825  0.25000000  0.69992579  1
  P  P9  1  0.59322175  0.75000000  0.30007421  1
  C  C10  1  0.05657615  0.75000000  0.73530296  1
  C  C11  1  0.94342385  0.25000000  0.26469704  1
  O  O12  1  0.08367198  0.25000000  0.28563609  1
  O  O13  1  0.11835262  0.75000000  0.95874848  1
  O  O14  1  0.13777492  0.75000000  0.53211636  1
  O  O15  1  0.32011269  0.07326784  0.78939446  1
  O  O16  1  0.32011269  0.42673216  0.78939446  1
  O  O17  1  0.41353489  0.25000000  0.40499952  1
  O  O18  1  0.43350831  0.75000000  0.19814947  1
  O  O19  1  0.56649169  0.25000000  0.80185053  1
  O  O20  1  0.58646511  0.75000000  0.59500048  1
  O  O21  1  0.67988731  0.57326784  0.21060554  1
  O  O22  1  0.67988731  0.92673216  0.21060554  1
  O  O23  1  0.86222508  0.25000000  0.46788364  1
  O  O24  1  0.88164738  0.25000000  0.04125152  1
  O  O25  1  0.91632802  0.75000000  0.71436391  1
