# generated using pymatgen
data_K3EuSi3(HO5)2
_symmetry_space_group_name_H-M   'P 1'
_cell_length_a   6.06018981
_cell_length_b   13.24710897
_cell_length_c   13.95987423
_cell_angle_alpha   90.00000000
_cell_angle_beta   90.00000000
_cell_angle_gamma   90.00000000
_symmetry_Int_Tables_number   1
_chemical_formula_structural   K3EuSi3(HO5)2
_chemical_formula_sum   'K12 Eu4 Si12 H8 O40'
_cell_volume   1120.69863048
_cell_formula_units_Z   4
loop_
 _symmetry_equiv_pos_site_id
 _symmetry_equiv_pos_as_xyz
  1  'x, y, z'
loop_
 _atom_site_type_symbol
 _atom_site_label
 _atom_site_symmetry_multiplicity
 _atom_site_fract_x
 _atom_site_fract_y
 _atom_site_fract_z
 _atom_site_occupancy
  K  K0  1  0.57247264  0.88237436  0.25000000  1
  K  K1  1  0.92752736  0.38237436  0.25000000  1
  K  K2  1  0.42752736  0.11762564  0.75000000  1
  K  K3  1  0.07247264  0.61762564  0.75000000  1
  K  K4  1  0.90072524  0.86384318  0.48389016  1
  K  K5  1  0.59927476  0.36384318  0.01610984  1
  K  K6  1  0.09927476  0.13615682  0.98389016  1
  K  K7  1  0.40072524  0.63615682  0.51610984  1
  K  K8  1  0.09927476  0.13615682  0.51610984  1
  K  K9  1  0.40072524  0.63615682  0.98389016  1
  K  K10  1  0.90072524  0.86384318  0.01610984  1
  K  K11  1  0.59927476  0.36384318  0.48389016  1
  Eu  Eu12  1  0.41434747  0.54581632  0.25000000  1
  Eu  Eu13  1  0.08565253  0.04581632  0.25000000  1
  Eu  Eu14  1  0.58565253  0.45418368  0.75000000  1
  Eu  Eu15  1  0.91434747  0.95418368  0.75000000  1
  Si  Si16  1  0.06981385  0.75436797  0.25000000  1
  Si  Si17  1  0.43018615  0.25436797  0.25000000  1
  Si  Si18  1  0.93018615  0.24563203  0.75000000  1
  Si  Si19  1  0.56981385  0.74563203  0.75000000  1
  Si  Si20  1  0.90800982  0.60018830  0.39660632  1
  Si  Si21  1  0.59199018  0.10018830  0.10339368  1
  Si  Si22  1  0.09199018  0.39981170  0.89660632  1
  Si  Si23  1  0.40800982  0.89981170  0.60339368  1
  Si  Si24  1  0.09199018  0.39981170  0.60339368  1
  Si  Si25  1  0.40800982  0.89981170  0.89660632  1
  Si  Si26  1  0.90800982  0.60018830  0.10339368  1
  Si  Si27  1  0.59199018  0.10018830  0.39660632  1
  H  H28  1  0.88459000  0.57613375  0.55673111  1
  H  H29  1  0.61541000  0.07613375  0.94326889  1
  H  H30  1  0.11541000  0.42386625  0.05673111  1
  H  H31  1  0.38459000  0.92386625  0.44326889  1
  H  H32  1  0.11541000  0.42386625  0.44326889  1
  H  H33  1  0.38459000  0.92386625  0.05673111  1
  H  H34  1  0.88459000  0.57613375  0.94326889  1
  H  H35  1  0.61541000  0.07613375  0.55673111  1
  O  O36  1  0.31884853  0.71145749  0.25000000  1
  O  O37  1  0.18115147  0.21145749  0.25000000  1
  O  O38  1  0.68115147  0.28854251  0.75000000  1
  O  O39  1  0.81884853  0.78854251  0.75000000  1
  O  O40  1  0.92570226  0.71360168  0.34464217  1
  O  O41  1  0.57429774  0.21360168  0.15535783  1
  O  O42  1  0.07429774  0.28639832  0.84464217  1
  O  O43  1  0.42570226  0.78639832  0.65535783  1
  O  O44  1  0.07429774  0.28639832  0.65535783  1
  O  O45  1  0.42570226  0.78639832  0.84464217  1
  O  O46  1  0.92570226  0.71360168  0.15535783  1
  O  O47  1  0.57429774  0.21360168  0.34464217  1
  O  O48  1  0.89866967  0.63611618  0.51264174  1
  O  O49  1  0.60133033  0.13611618  0.98735826  1
  O  O50  1  0.10133033  0.36388382  0.01264174  1
  O  O51  1  0.39866967  0.86388382  0.48735826  1
  O  O52  1  0.10133033  0.36388382  0.48735826  1
  O  O53  1  0.39866967  0.86388382  0.01264174  1
  O  O54  1  0.89866967  0.63611618  0.98735826  1
  O  O55  1  0.60133033  0.13611618  0.51264174  1
  O  O56  1  0.12777884  0.53264821  0.37523245  1
  O  O57  1  0.37222116  0.03264821  0.12476755  1
  O  O58  1  0.87222116  0.46735179  0.87523245  1
  O  O59  1  0.62777884  0.96735179  0.62476755  1
  O  O60  1  0.87222116  0.46735179  0.62476755  1
  O  O61  1  0.62777884  0.96735179  0.87523245  1
  O  O62  1  0.12777884  0.53264821  0.12476755  1
  O  O63  1  0.37222116  0.03264821  0.37523245  1
  O  O64  1  0.68159979  0.54235852  0.37007194  1
  O  O65  1  0.81840021  0.04235852  0.12992806  1
  O  O66  1  0.31840021  0.45764148  0.87007194  1
  O  O67  1  0.18159979  0.95764148  0.62992806  1
  O  O68  1  0.31840021  0.45764148  0.62992806  1
  O  O69  1  0.18159979  0.95764148  0.87007194  1
  O  O70  1  0.68159979  0.54235852  0.12992806  1
  O  O71  1  0.81840021  0.04235852  0.37007194  1
  O  O72  1  0.43470365  0.37550560  0.25000000  1
  O  O73  1  0.06529635  0.87550560  0.25000000  1
  O  O74  1  0.56529635  0.62449440  0.75000000  1
  O  O75  1  0.93470365  0.12449440  0.75000000  1
