# generated using pymatgen
data_Nb3Te4
_symmetry_space_group_name_H-M   'P 1'
_cell_length_a   3.66309535
_cell_length_b   10.84388192
_cell_length_c   10.84356955
_cell_angle_alpha   120.05140233
_cell_angle_beta   90.00000000
_cell_angle_gamma   90.00000000
_symmetry_Int_Tables_number   1
_chemical_formula_structural   Nb3Te4
_chemical_formula_sum   'Nb6 Te8'
_cell_volume   372.82988988
_cell_formula_units_Z   2
loop_
 _symmetry_equiv_pos_site_id
 _symmetry_equiv_pos_as_xyz
  1  'x, y, z'
loop_
 _atom_site_type_symbol
 _atom_site_label
 _atom_site_symmetry_multiplicity
 _atom_site_fract_x
 _atom_site_fract_y
 _atom_site_fract_z
 _atom_site_occupancy
  Nb  Nb0  1  0.75000000  0.61403710  0.51130482  1
  Nb  Nb1  1  0.75000000  0.48858360  0.10258115  1
  Nb  Nb2  1  0.75000000  0.89741192  0.38604286  1
  Nb  Nb3  1  0.25000000  0.38596290  0.48869518  1
  Nb  Nb4  1  0.25000000  0.51141640  0.89741885  1
  Nb  Nb5  1  0.25000000  0.10258808  0.61395714  1
  Te  Te6  1  0.75000000  0.33334736  0.66667790  1
  Te  Te7  1  0.25000000  0.66665264  0.33332210  1
  Te  Te8  1  0.75000000  0.93469106  0.66136302  1
  Te  Te9  1  0.75000000  0.33863336  0.27327965  1
  Te  Te10  1  0.75000000  0.72663748  0.06525203  1
  Te  Te11  1  0.25000000  0.06530894  0.33863698  1
  Te  Te12  1  0.25000000  0.66136664  0.72672035  1
  Te  Te13  1  0.25000000  0.27336252  0.93474797  1
