# generated using pymatgen
data_LiVPHO5
_symmetry_space_group_name_H-M   'P 1'
_cell_length_a   5.45818226
_cell_length_b   7.44448615
_cell_length_c   5.16651444
_cell_angle_alpha   108.35995338
_cell_angle_beta   98.37990549
_cell_angle_gamma   106.55222115
_symmetry_Int_Tables_number   1
_chemical_formula_structural   LiVPHO5
_chemical_formula_sum   'Li2 V2 P2 H2 O10'
_cell_volume   184.48160666
_cell_formula_units_Z   2
loop_
 _symmetry_equiv_pos_site_id
 _symmetry_equiv_pos_as_xyz
  1  'x, y, z'
loop_
 _atom_site_type_symbol
 _atom_site_label
 _atom_site_symmetry_multiplicity
 _atom_site_fract_x
 _atom_site_fract_y
 _atom_site_fract_z
 _atom_site_occupancy
  Li  Li0  1  0.39581796  0.82201050  0.74551249  1
  Li  Li1  1  0.60418204  0.17798950  0.25448751  1
  V  V2  1  0.00000000  0.50000000  0.00000000  1
  V  V3  1  0.00000000  0.00000000  0.00000000  1
  P  P4  1  0.36095412  0.23260015  0.67644486  1
  P  P5  1  0.63904588  0.76739985  0.32355514  1
  H  H6  1  0.05795604  0.34026588  0.36165189  1
  H  H7  1  0.94204396  0.65973412  0.63834811  1
  O  O8  1  0.04907788  0.72199869  0.83756223  1
  O  O9  1  0.20590771  0.37889377  0.72501144  1
  O  O10  1  0.34552450  0.66058661  0.30734691  1
  O  O11  1  0.25001387  0.07145330  0.36798900  1
  O  O12  1  0.33925178  0.11873454  0.88428186  1
  O  O13  1  0.66074822  0.88126546  0.11571814  1
  O  O14  1  0.74998613  0.92854670  0.63201100  1
  O  O15  1  0.65447550  0.33941339  0.69265309  1
  O  O16  1  0.79409229  0.62110623  0.27498856  1
  O  O17  1  0.95092212  0.27800131  0.16243777  1
