# generated using pymatgen
data_Ca3Zr2Fe2SiO12
_symmetry_space_group_name_H-M   'P 1'
_cell_length_a   11.07406499
_cell_length_b   11.07433134
_cell_length_c   11.07429653
_cell_angle_alpha   110.54700254
_cell_angle_beta   108.93638418
_cell_angle_gamma   108.93624310
_symmetry_Int_Tables_number   1
_chemical_formula_structural   Ca3Zr2Fe2SiO12
_chemical_formula_sum   'Ca12 Zr8 Fe8 Si4 O48'
_cell_volume   1045.20302541
_cell_formula_units_Z   4
loop_
 _symmetry_equiv_pos_site_id
 _symmetry_equiv_pos_as_xyz
  1  'x, y, z'
loop_
 _atom_site_type_symbol
 _atom_site_label
 _atom_site_symmetry_multiplicity
 _atom_site_fract_x
 _atom_site_fract_y
 _atom_site_fract_z
 _atom_site_occupancy
  Ca  Ca0  1  0.24999719  0.87499906  0.62500498  1
  Ca  Ca1  1  0.12441141  0.37441693  0.75000291  1
  Ca  Ca2  1  0.12441139  0.25000314  0.37440594  1
  Ca  Ca3  1  0.25001883  0.37500982  0.12500886  1
  Ca  Ca4  1  0.62441480  0.87442169  0.75000819  1
  Ca  Ca5  1  0.37558278  0.74999491  0.12558241  1
  Ca  Ca6  1  0.62441722  0.25000509  0.87441759  1
  Ca  Ca7  1  0.74998117  0.62499018  0.87499114  1
  Ca  Ca8  1  0.37558520  0.12557831  0.24999181  1
  Ca  Ca9  1  0.87558861  0.74999686  0.62559406  1
  Ca  Ca10  1  0.87558859  0.62558307  0.24999709  1
  Ca  Ca11  1  0.75000281  0.12500094  0.37499502  1
  Zr  Zr12  1  0.00000000  0.50000000  0.50000000  1
  Zr  Zr13  1  0.00000000  0.50000000  0.00000000  1
  Zr  Zr14  1  0.00000000  0.00000000  0.00000000  1
  Zr  Zr15  1  0.50000000  0.50000000  0.50000000  1
  Zr  Zr16  1  0.50000000  0.00000000  0.50000000  1
  Zr  Zr17  1  0.50000000  0.50000000  0.00000000  1
  Zr  Zr18  1  0.50000000  0.00000000  0.00000000  1
  Zr  Zr19  1  0.00000000  0.00000000  0.50000000  1
  Fe  Fe20  1  0.12584716  0.74999022  0.87585629  1
  Fe  Fe21  1  0.12586158  0.87580153  0.24997016  1
  Fe  Fe22  1  0.37416217  0.62414812  0.75000361  1
  Fe  Fe23  1  0.37408482  0.24994622  0.62412074  1
  Fe  Fe24  1  0.62591518  0.75005378  0.37587926  1
  Fe  Fe25  1  0.62583783  0.37585188  0.24999639  1
  Fe  Fe26  1  0.87413842  0.12419847  0.75002984  1
  Fe  Fe27  1  0.87415284  0.25000978  0.12414371  1
  Si  Si28  1  0.25001464  0.12500016  0.87498753  1
  Si  Si29  1  0.24999137  0.62501875  0.37500351  1
  Si  Si30  1  0.75000863  0.37498125  0.62499649  1
  Si  Si31  1  0.74998536  0.87499984  0.12501247  1
  O  O32  1  0.11470550  0.00176162  0.70247337  1
  O  O33  1  0.12597552  0.59999823  0.92202436  1
  O  O34  1  0.03018016  0.31895120  0.90535492  1
  O  O35  1  0.08640443  0.71122302  0.68103377  1
  O  O36  1  0.08638880  0.87516979  0.40536440  1
  O  O37  1  0.11472597  0.61294831  0.41223105  1
  O  O38  1  0.17796738  0.47401295  0.59998816  1
  O  O39  1  0.41359169  0.81896164  0.78876533  1
  O  O40  1  0.29929639  0.29752088  0.91224378  1
  O  O41  1  0.37402066  0.57796600  0.90000688  1
  O  O42  1  0.32203762  0.92203249  0.29604813  1
  O  O43  1  0.03019600  0.21119281  0.12481672  1
  O  O44  1  0.17797399  0.20395620  0.57796555  1
  O  O45  1  0.20070545  0.58776217  0.20247803  1
  O  O46  1  0.38528997  0.79751040  0.49822174  1
  O  O47  1  0.32202333  0.90000366  0.02598459  1
  O  O48  1  0.29929500  0.50175527  0.38705134  1
  O  O49  1  0.12595864  0.02599058  0.20390884  1
  O  O50  1  0.38528035  0.08776809  0.88706012  1
  O  O51  1  0.53019180  0.62483059  0.71122875  1
  O  O52  1  0.53019218  0.40536605  0.81896737  1
  O  O53  1  0.37402437  0.29605252  0.47401754  1
  O  O54  1  0.58640992  0.90537417  0.37518645  1
  O  O55  1  0.20068141  0.11293861  0.99824205  1
  O  O56  1  0.79931859  0.88706139  0.00175795  1
  O  O57  1  0.41359008  0.09462583  0.62481355  1
  O  O58  1  0.62597563  0.70394748  0.52598246  1
  O  O59  1  0.46980782  0.59463395  0.18103263  1
  O  O60  1  0.46980820  0.37516941  0.28877125  1
  O  O61  1  0.61471965  0.91223191  0.11293988  1
  O  O62  1  0.87404136  0.97400942  0.79609116  1
  O  O63  1  0.70070500  0.49824473  0.61294866  1
  O  O64  1  0.67797667  0.09999634  0.97401541  1
  O  O65  1  0.61471003  0.20248960  0.50177826  1
  O  O66  1  0.79929455  0.41223783  0.79752197  1
  O  O67  1  0.82202601  0.79604380  0.42203445  1
  O  O68  1  0.96980400  0.78880719  0.87518328  1
  O  O69  1  0.67796238  0.07796751  0.70395187  1
  O  O70  1  0.62597934  0.42203400  0.09999312  1
  O  O71  1  0.70070361  0.70247912  0.08775622  1
  O  O72  1  0.58640831  0.18103836  0.21123467  1
  O  O73  1  0.82203262  0.52598705  0.40001184  1
  O  O74  1  0.88527403  0.38705169  0.58776895  1
  O  O75  1  0.91361120  0.12483021  0.59463560  1
  O  O76  1  0.91359557  0.28877698  0.31896623  1
  O  O77  1  0.96981984  0.68104880  0.09464508  1
  O  O78  1  0.87402448  0.40000177  0.07797564  1
  O  O79  1  0.88529450  0.99823838  0.29752663  1
