# generated using pymatgen
data_Sr3Li2
_symmetry_space_group_name_H-M   'P 1'
_cell_length_a   8.73377638
_cell_length_b   9.71659373
_cell_length_c   9.71659373
_cell_angle_alpha   90.00000000
_cell_angle_beta   90.00000000
_cell_angle_gamma   90.00000000
_symmetry_Int_Tables_number   1
_chemical_formula_structural   Sr3Li2
_chemical_formula_sum   'Sr12 Li8'
_cell_volume   824.57498744
_cell_formula_units_Z   4
loop_
 _symmetry_equiv_pos_site_id
 _symmetry_equiv_pos_as_xyz
  1  'x, y, z'
loop_
 _atom_site_type_symbol
 _atom_site_label
 _atom_site_symmetry_multiplicity
 _atom_site_fract_x
 _atom_site_fract_y
 _atom_site_fract_z
 _atom_site_occupancy
  Li  Li0  1  0.68187623  0.88722333  0.88722333  1
  Li  Li1  1  0.68187623  0.11277667  0.11277667  1
  Li  Li2  1  0.18187623  0.38722333  0.61277667  1
  Li  Li3  1  0.18187623  0.61277667  0.38722333  1
  Li  Li4  1  0.31812377  0.88722333  0.88722333  1
  Li  Li5  1  0.81812377  0.61277667  0.38722333  1
  Li  Li6  1  0.81812377  0.38722333  0.61277667  1
  Li  Li7  1  0.31812377  0.11277667  0.11277667  1
  Sr  Sr8  1  0.00000000  0.14968030  0.85031970  1
  Sr  Sr9  1  0.50000000  0.64968030  0.64968030  1
  Sr  Sr10  1  0.50000000  0.35031970  0.35031970  1
  Sr  Sr11  1  0.00000000  0.85031970  0.14968030  1
  Sr  Sr12  1  0.00000000  0.71153979  0.71153979  1
  Sr  Sr13  1  0.50000000  0.78846021  0.21153979  1
  Sr  Sr14  1  0.50000000  0.21153979  0.78846021  1
  Sr  Sr15  1  0.00000000  0.28846021  0.28846021  1
  Sr  Sr16  1  0.75000000  0.50000000  0.00000000  1
  Sr  Sr17  1  0.25000000  0.50000000  0.00000000  1
  Sr  Sr18  1  0.75000000  0.00000000  0.50000000  1
  Sr  Sr19  1  0.25000000  0.00000000  0.50000000  1
