# generated using pymatgen
data_K3CaPCO7
_symmetry_space_group_name_H-M   'P 1'
_cell_length_a   9.90971543
_cell_length_b   7.28391253
_cell_length_c   5.75699221
_cell_angle_alpha   90.00000000
_cell_angle_beta   91.36091237
_cell_angle_gamma   90.00000000
_symmetry_Int_Tables_number   1
_chemical_formula_structural   K3CaPCO7
_chemical_formula_sum   'K6 Ca2 P2 C2 O14'
_cell_volume   415.43111972
_cell_formula_units_Z   2
loop_
 _symmetry_equiv_pos_site_id
 _symmetry_equiv_pos_as_xyz
  1  'x, y, z'
loop_
 _atom_site_type_symbol
 _atom_site_label
 _atom_site_symmetry_multiplicity
 _atom_site_fract_x
 _atom_site_fract_y
 _atom_site_fract_z
 _atom_site_occupancy
  K  K0  1  0.08309801  0.25000000  0.76196310  1
  K  K1  1  0.26083912  0.00617644  0.25618641  1
  K  K2  1  0.26083912  0.49382356  0.25618641  1
  K  K3  1  0.73916088  0.50617644  0.74381359  1
  K  K4  1  0.73916088  0.99382356  0.74381359  1
  K  K5  1  0.91690199  0.75000000  0.23803690  1
  Ca  Ca6  1  0.36642108  0.75000000  0.77858641  1
  Ca  Ca7  1  0.63357892  0.25000000  0.22141359  1
  P  P8  1  0.41778929  0.25000000  0.70620542  1
  P  P9  1  0.58221071  0.75000000  0.29379458  1
  C  C10  1  0.07432323  0.75000000  0.73952190  1
  C  C11  1  0.92567677  0.25000000  0.26047810  1
  O  O12  1  0.05681054  0.25000000  0.27274707  1
  O  O13  1  0.13752659  0.75000000  0.94142429  1
  O  O14  1  0.14519624  0.75000000  0.55075112  1
  O  O15  1  0.33398661  0.07529432  0.76665706  1
  O  O16  1  0.33398661  0.42470568  0.76665706  1
  O  O17  1  0.44448515  0.25000000  0.43959906  1
  O  O18  1  0.44463166  0.75000000  0.15708678  1
  O  O19  1  0.55536834  0.25000000  0.84291322  1
  O  O20  1  0.55551485  0.75000000  0.56040094  1
  O  O21  1  0.66601339  0.57529432  0.23334294  1
  O  O22  1  0.66601339  0.92470568  0.23334294  1
  O  O23  1  0.85480376  0.25000000  0.44924888  1
  O  O24  1  0.86247341  0.25000000  0.05857571  1
  O  O25  1  0.94318946  0.75000000  0.72725293  1
