# generated using pymatgen
data_LiMnF6
_symmetry_space_group_name_H-M   'P 1'
_cell_length_a   5.05804617
_cell_length_b   5.38946690
_cell_length_c   5.05804701
_cell_angle_alpha   117.98581160
_cell_angle_beta   60.00000306
_cell_angle_gamma   117.98581370
_symmetry_Int_Tables_number   1
_chemical_formula_structural   LiMnF6
_chemical_formula_sum   'Li1 Mn1 F6'
_cell_volume   100.36173116
_cell_formula_units_Z   1
loop_
 _symmetry_equiv_pos_site_id
 _symmetry_equiv_pos_as_xyz
  1  'x, y, z'
loop_
 _atom_site_type_symbol
 _atom_site_label
 _atom_site_symmetry_multiplicity
 _atom_site_fract_x
 _atom_site_fract_y
 _atom_site_fract_z
 _atom_site_occupancy
  Li  Li0  1  0.50000000  0.50000000  0.50000000  1
  Mn  Mn1  1  0.00000000  0.00000000  0.00000000  1
  F  F2  1  0.23219348  0.76679173  0.64492736  1
  F  F3  1  0.35507264  0.23320827  0.11032911  1
  F  F4  1  0.11032911  0.23320827  0.76780652  1
  F  F5  1  0.88967089  0.76679173  0.23219348  1
  F  F6  1  0.64492736  0.76679173  0.88967089  1
  F  F7  1  0.76780652  0.23320827  0.35507264  1
