# generated using pymatgen
data_Li2VCrP2(HO5)2
_symmetry_space_group_name_H-M   'P 1'
_cell_length_a   5.42490178
_cell_length_b   7.38992288
_cell_length_c   5.16593698
_cell_angle_alpha   108.96142362
_cell_angle_beta   97.86113589
_cell_angle_gamma   106.57883222
_symmetry_Int_Tables_number   1
_chemical_formula_structural   Li2VCrP2(HO5)2
_chemical_formula_sum   'Li2 V1 Cr1 P2 H2 O10'
_cell_volume   181.60419536
_cell_formula_units_Z   1
loop_
 _symmetry_equiv_pos_site_id
 _symmetry_equiv_pos_as_xyz
  1  'x, y, z'
loop_
 _atom_site_type_symbol
 _atom_site_label
 _atom_site_symmetry_multiplicity
 _atom_site_fract_x
 _atom_site_fract_y
 _atom_site_fract_z
 _atom_site_occupancy
  Li  Li0  1  0.39779435  0.82311947  0.74797416  1
  Li  Li1  1  0.60220565  0.17688053  0.25202584  1
  V  V2  1  0.00000000  0.50000000  0.00000000  1
  Cr  Cr3  1  0.00000000  0.00000000  0.00000000  1
  P  P4  1  0.35863592  0.23098824  0.67587965  1
  P  P5  1  0.64136408  0.76901176  0.32412035  1
  H  H6  1  0.05922448  0.33734645  0.35979957  1
  H  H7  1  0.94077552  0.66265355  0.64020043  1
  O  O8  1  0.05060959  0.72784713  0.83787898  1
  O  O9  1  0.20529930  0.38076272  0.72567618  1
  O  O10  1  0.34473170  0.65811729  0.30425289  1
  O  O11  1  0.25103185  0.07052524  0.36841850  1
  O  O12  1  0.33839260  0.11964311  0.88648871  1
  O  O13  1  0.66160740  0.88035689  0.11351129  1
  O  O14  1  0.74896815  0.92947476  0.63158150  1
  O  O15  1  0.65526830  0.34188271  0.69574711  1
  O  O16  1  0.79470070  0.61923728  0.27432382  1
  O  O17  1  0.94939041  0.27215287  0.16212102  1
