# generated using pymatgen
data_Li2PdO3
_symmetry_space_group_name_H-M   'P 1'
_cell_length_a   5.19918372
_cell_length_b   5.19918372
_cell_length_c   5.14136501
_cell_angle_alpha   80.50121550
_cell_angle_beta   99.49878450
_cell_angle_gamma   59.92463555
_symmetry_Int_Tables_number   1
_chemical_formula_structural   Li2PdO3
_chemical_formula_sum   'Li4 Pd2 O6'
_cell_volume   113.51235057
_cell_formula_units_Z   2
loop_
 _symmetry_equiv_pos_site_id
 _symmetry_equiv_pos_as_xyz
  1  'x, y, z'
loop_
 _atom_site_type_symbol
 _atom_site_label
 _atom_site_symmetry_multiplicity
 _atom_site_fract_x
 _atom_site_fract_y
 _atom_site_fract_z
 _atom_site_occupancy
  Li  Li0  1  0.50000000  0.50000000  0.50000000  1
  Li  Li1  1  0.16881344  0.16881344  0.50000000  1
  Li  Li2  1  0.83118656  0.83118656  0.50000000  1
  Li  Li3  1  0.00000000  0.00000000  0.00000000  1
  Pd  Pd4  1  0.33325666  0.33325666  0.00000000  1
  Pd  Pd5  1  0.66674334  0.66674334  0.00000000  1
  O  O6  1  0.27112253  0.72887747  0.76330726  1
  O  O7  1  0.07557709  0.57674129  0.23373638  1
  O  O8  1  0.42325871  0.92442291  0.23373638  1
  O  O9  1  0.92442291  0.42325871  0.76626362  1
  O  O10  1  0.57674129  0.07557709  0.76626362  1
  O  O11  1  0.72887747  0.27112253  0.23669274  1
