# generated using pymatgen
data_Co29Ge13O56
_symmetry_space_group_name_H-M   'P 1'
_cell_length_a   10.29695704
_cell_length_b   10.29695704
_cell_length_c   10.29695704
_cell_angle_alpha   80.37762393
_cell_angle_beta   99.62237607
_cell_angle_gamma   80.37762393
_symmetry_Int_Tables_number   1
_chemical_formula_structural   Co29Ge13O56
_chemical_formula_sum   'Co29 Ge13 O56'
_cell_volume   1039.66061019
_cell_formula_units_Z   1
loop_
 _symmetry_equiv_pos_site_id
 _symmetry_equiv_pos_as_xyz
  1  'x, y, z'
loop_
 _atom_site_type_symbol
 _atom_site_label
 _atom_site_symmetry_multiplicity
 _atom_site_fract_x
 _atom_site_fract_y
 _atom_site_fract_z
 _atom_site_occupancy
  Co  Co0  1  0.19818502  0.73253154  0.91144906  1
  Co  Co1  1  0.05476625  0.51774624  0.83952404  1
  Co  Co2  1  0.33889785  0.94394607  0.98234101  1
  Co  Co3  1  0.05259512  0.51971153  0.33800676  1
  Co  Co4  1  0.33800676  0.94740488  0.48028847  1
  Co  Co5  1  0.19678463  0.23233643  0.91076363  1
  Co  Co6  1  0.12499257  0.37525897  0.62464008  1
  Co  Co7  1  0.40995074  0.80369536  0.76732486  1
  Co  Co8  1  0.24996014  0.75003986  0.24996014  1
  Co  Co9  1  0.48177289  0.65883718  0.55228667  1
  Co  Co10  1  0.62464008  0.87500743  0.62474103  1
  Co  Co11  1  0.19630464  0.23267514  0.40995074  1
  Co  Co12  1  0.05605393  0.01765899  0.33889785  1
  Co  Co13  1  0.34116282  0.44771333  0.48177289  1
  Co  Co14  1  0.69712211  0.23209358  0.91023635  1
  Co  Co15  1  0.62440689  0.37559311  0.62440689  1
  Co  Co16  1  0.26746846  0.08855094  0.19818502  1
  Co  Co17  1  0.91076363  0.80321537  0.76766357  1
  Co  Co18  1  0.83952404  0.94523375  0.48225376  1
  Co  Co19  1  0.55228667  0.51822711  0.34116282  1
  Co  Co20  1  0.48028847  0.66199324  0.05259512  1
  Co  Co21  1  0.76790642  0.08976365  0.69712211  1
  Co  Co22  1  0.91023635  0.30287789  0.76790642  1
  Co  Co23  1  0.48225376  0.16047596  0.05476625  1
  Co  Co24  1  0.76732486  0.59004926  0.19630464  1
  Co  Co25  1  0.62474103  0.37535992  0.12499257  1
  Co  Co26  1  0.91144906  0.80181498  0.26746846  1
  Co  Co27  1  0.76766357  0.08923637  0.19678463  1
  Co  Co28  1  0.98234101  0.66110215  0.05605393  1
  Ge  Ge29  1  0.14352153  0.71432478  0.57124189  1
  Ge  Ge30  1  0.67829637  0.89343652  0.96337734  1
  Ge  Ge31  1  0.10656348  0.03662266  0.67829637  1
  Ge  Ge32  1  0.39350743  0.46267979  0.82231021  1
  Ge  Ge33  1  0.42805909  0.14333108  0.71344880  1
  Ge  Ge34  1  0.57124189  0.85647847  0.28567522  1
  Ge  Ge35  1  0.28567522  0.42875811  0.14352153  1
  Ge  Ge36  1  0.71344880  0.57194091  0.85666892  1
  Ge  Ge37  1  0.00079491  0.99920509  0.00079491  1
  Ge  Ge38  1  0.53732021  0.17768979  0.39350743  1
  Ge  Ge39  1  0.82231021  0.60649257  0.53732021  1
  Ge  Ge40  1  0.85666892  0.28655120  0.42805909  1
  Ge  Ge41  1  0.96337734  0.32170363  0.10656348  1
  O  O42  1  0.01839332  0.84045723  0.94636474  1
  O  O43  1  0.23174430  0.91268766  0.79968709  1
  O  O44  1  0.01701763  0.33881389  0.94688719  1
  O  O45  1  0.01890594  0.83913495  0.44884707  1
  O  O46  1  0.09100251  0.69622471  0.73190227  1
  O  O47  1  0.30266047  0.76755766  0.58945497  1
  O  O48  1  0.16047922  0.55519564  0.51765217  1
  O  O49  1  0.01568621  0.34082618  0.44557428  1
  O  O50  1  0.44557428  0.98431379  0.65917382  1
  O  O51  1  0.07692347  0.69269277  0.23115661  1
  O  O52  1  0.08864343  0.19572077  0.73099247  1
  O  O53  1  0.37531031  0.62261032  0.87265079  1
  O  O54  1  0.23446094  0.40963801  0.80344635  1
  O  O55  1  0.23115661  0.92307653  0.30730723  1
  O  O56  1  0.51947660  0.83952213  0.94416311  1
  O  O57  1  0.44832720  0.47909331  0.66472880  1
  O  O58  1  0.38430091  0.61569909  0.38430091  1
  O  O59  1  0.16047787  0.05583689  0.51947660  1
  O  O60  1  0.51691014  0.33887169  0.94716053  1
  O  O61  1  0.73099247  0.91135657  0.80427923  1
  O  O62  1  0.08731234  0.20031291  0.23174430  1
  O  O63  1  0.30730723  0.76884339  0.07692347  1
  O  O64  1  0.30413158  0.26833051  0.58869735  1
  O  O65  1  0.51765217  0.83952078  0.44480436  1
  O  O66  1  0.16086505  0.55115293  0.01890594  1
  O  O67  1  0.37438625  0.12456752  0.87305050  1
  O  O68  1  0.44884707  0.98109406  0.16086505  1
  O  O69  1  0.23244234  0.41054503  0.30266047  1
  O  O70  1  0.58869735  0.69586842  0.73166949  1
  O  O71  1  0.15954277  0.05363526  0.01839332  1
  O  O72  1  0.87305050  0.62561375  0.87543348  1
  O  O73  1  0.58782218  0.19579381  0.73121673  1
  O  O74  1  0.73190227  0.90899749  0.30377529  1
  O  O75  1  0.44480436  0.48234783  0.16047922  1
  O  O76  1  0.30377529  0.26809773  0.09100251  1
  O  O77  1  0.73121673  0.41217782  0.80420619  1
  O  O78  1  0.58945497  0.69733953  0.23244234  1
  O  O79  1  0.80344635  0.76553906  0.59036199  1
  O  O80  1  0.94688719  0.98298237  0.66118611  1
  O  O81  1  0.52090669  0.33527120  0.44832720  1
  O  O82  1  0.37738968  0.12734921  0.37531031  1
  O  O83  1  0.66472880  0.55167280  0.52090669  1
  O  O84  1  0.66112831  0.05283947  0.51691014  1
  O  O85  1  0.87265079  0.62468969  0.37738968  1
  O  O86  1  0.59036199  0.19655365  0.23446094  1
  O  O87  1  0.94716053  0.48308986  0.66112831  1
  O  O88  1  0.79968709  0.76825570  0.08731234  1
  O  O89  1  0.65917382  0.55442572  0.01568621  1
  O  O90  1  0.80420619  0.26878327  0.58782218  1
  O  O91  1  0.87688597  0.12311403  0.87688597  1
  O  O92  1  0.73166949  0.41130265  0.30413158  1
  O  O93  1  0.94636474  0.98160668  0.15954277  1
  O  O94  1  0.87543348  0.12694950  0.37438625  1
  O  O95  1  0.66118611  0.05311281  0.01701763  1
  O  O96  1  0.94416311  0.48052340  0.16047787  1
  O  O97  1  0.80427923  0.26900753  0.08864343  1
