# generated using pymatgen
data_Sr16Mn8O29
_symmetry_space_group_name_H-M   'P 1'
_cell_length_a   6.90344412
_cell_length_b   10.98018756
_cell_length_c   10.38992093
_cell_angle_alpha   89.91375430
_cell_angle_beta   75.90953948
_cell_angle_gamma   90.03783428
_symmetry_Int_Tables_number   1
_chemical_formula_structural   Sr16Mn8O29
_chemical_formula_sum   'Sr16 Mn8 O29'
_cell_volume   763.87036940
_cell_formula_units_Z   1
loop_
 _symmetry_equiv_pos_site_id
 _symmetry_equiv_pos_as_xyz
  1  'x, y, z'
loop_
 _atom_site_type_symbol
 _atom_site_label
 _atom_site_symmetry_multiplicity
 _atom_site_fract_x
 _atom_site_fract_y
 _atom_site_fract_z
 _atom_site_occupancy
  Sr  Sr0  1  0.21226223  0.99932560  0.06868907  1
  Sr  Sr1  1  0.22990445  0.49970443  0.07923805  1
  Sr  Sr2  1  0.02095826  0.25310173  0.68271318  1
  Sr  Sr3  1  0.04008621  0.75698074  0.66759370  1
  Sr  Sr4  1  0.28522998  0.99252826  0.41941749  1
  Sr  Sr5  1  0.28764700  0.49916257  0.42990232  1
  Sr  Sr6  1  0.51865052  0.24225123  0.18624584  1
  Sr  Sr7  1  0.53891621  0.74861719  0.17522186  1
  Sr  Sr8  1  0.46282848  0.25479978  0.83116063  1
  Sr  Sr9  1  0.48116163  0.75746237  0.81504108  1
  Sr  Sr10  1  0.71124003  0.50137059  0.57042744  1
  Sr  Sr11  1  0.72911908  0.99702134  0.56860525  1
  Sr  Sr12  1  0.96103290  0.24145591  0.33363675  1
  Sr  Sr13  1  0.96535580  0.74808778  0.31846132  1
  Sr  Sr14  1  0.76791969  0.50437348  0.92406273  1
  Sr  Sr15  1  0.78824478  0.00181302  0.92897071  1
  Mn  Mn16  1  0.00271576  0.74886104  0.00010917  1
  Mn  Mn17  1  0.24506303  0.49980030  0.75074224  1
  Mn  Mn18  1  0.25405699  0.99947029  0.74858266  1
  Mn  Mn19  1  0.49843802  0.24844222  0.50063998  1
  Mn  Mn20  1  0.50225929  0.75163227  0.49790376  1
  Mn  Mn21  1  0.74767262  0.99860257  0.25056284  1
  Mn  Mn22  1  0.75463189  0.49948986  0.24953494  1
  Mn  Mn23  1  0.99741864  0.25197917  0.00085547  1
  O  O24  1  0.21943519  0.25704756  0.08817632  1
  O  O25  1  0.00547724  0.51068961  0.67942947  1
  O  O26  1  0.24648229  0.73957345  0.06882637  1
  O  O27  1  0.03035421  0.00962696  0.66157965  1
  O  O28  1  0.25377881  0.23849641  0.43390383  1
  O  O29  1  0.26343560  0.74772703  0.41899684  1
  O  O30  1  0.10032716  0.39767623  0.89770822  1
  O  O31  1  0.13425397  0.85929070  0.86949317  1
  O  O32  1  0.13650367  0.12963130  0.86275271  1
  O  O33  1  0.51003320  0.99824389  0.16818520  1
  O  O34  1  0.53192225  0.48948142  0.16300366  1
  O  O35  1  0.36715934  0.63366844  0.63403328  1
  O  O36  1  0.36651782  0.36180094  0.63075610  1
  O  O37  1  0.38990534  0.88939986  0.61300156  1
  O  O38  1  0.61010632  0.11306380  0.38973965  1
  O  O39  1  0.62143469  0.62437332  0.38066304  1
  O  O40  1  0.62903310  0.86688728  0.36492394  1
  O  O41  1  0.63989333  0.36960680  0.36081586  1
  O  O42  1  0.46777592  0.51024583  0.83515739  1
  O  O43  1  0.49810544  0.01144951  0.81983739  1
  O  O44  1  0.87573601  0.88071824  0.12379725  1
  O  O45  1  0.86232546  0.13511477  0.13417953  1
  O  O46  1  0.89421429  0.60786826  0.10825706  1
  O  O47  1  0.72246119  0.24308666  0.59003073  1
  O  O48  1  0.73964168  0.75215322  0.57522541  1
  O  O49  1  0.98351568  0.99732383  0.32711548  1
  O  O50  1  0.75444222  0.26105844  0.93436247  1
  O  O51  1  0.99740969  0.48919026  0.32092493  1
  O  O52  1  0.77790238  0.74277322  0.91230000  1
