# generated using pymatgen
data_La2S3
_symmetry_space_group_name_H-M   'P 1'
_cell_length_a   4.16067355
_cell_length_b   7.61656599
_cell_length_c   15.88406352
_cell_angle_alpha   90.00000000
_cell_angle_beta   90.00000000
_cell_angle_gamma   90.00000000
_symmetry_Int_Tables_number   1
_chemical_formula_structural   La2S3
_chemical_formula_sum   'La8 S12'
_cell_volume   503.36668227
_cell_formula_units_Z   4
loop_
 _symmetry_equiv_pos_site_id
 _symmetry_equiv_pos_as_xyz
  1  'x, y, z'
loop_
 _atom_site_type_symbol
 _atom_site_label
 _atom_site_symmetry_multiplicity
 _atom_site_fract_x
 _atom_site_fract_y
 _atom_site_fract_z
 _atom_site_occupancy
  S  S0  1  0.25000000  0.87122708  0.93263928  1
  S  S1  1  0.75000000  0.12877292  0.06736072  1
  S  S2  1  0.25000000  0.37122708  0.56736072  1
  S  S3  1  0.75000000  0.62877292  0.43263928  1
  S  S4  1  0.25000000  0.64522928  0.71959166  1
  S  S5  1  0.75000000  0.35477072  0.28040834  1
  S  S6  1  0.25000000  0.14522928  0.78040834  1
  S  S7  1  0.75000000  0.85477072  0.21959166  1
  S  S8  1  0.75000000  0.98812705  0.60944592  1
  S  S9  1  0.25000000  0.01187295  0.39055408  1
  S  S10  1  0.75000000  0.48812705  0.89055408  1
  S  S11  1  0.25000000  0.51187295  0.10944592  1
  La  La12  1  0.25000000  0.64662626  0.29498439  1
  La  La13  1  0.75000000  0.35337374  0.70501561  1
  La  La14  1  0.25000000  0.14662626  0.20501561  1
  La  La15  1  0.75000000  0.85337374  0.79498439  1
  La  La16  1  0.25000000  0.26397571  0.95606846  1
  La  La17  1  0.75000000  0.73602429  0.04393154  1
  La  La18  1  0.25000000  0.76397571  0.54393154  1
  La  La19  1  0.75000000  0.23602429  0.45606846  1
