# generated using pymatgen
data_Sr4Cu2O7
_symmetry_space_group_name_H-M   'P 1'
_cell_length_a   6.78093570
_cell_length_b   10.25369177
_cell_length_c   5.52678600
_cell_angle_alpha   90.00000000
_cell_angle_beta   90.00000000
_cell_angle_gamma   103.50223593
_symmetry_Int_Tables_number   1
_chemical_formula_structural   Sr4Cu2O7
_chemical_formula_sum   'Sr8 Cu4 O14'
_cell_volume   373.65429619
_cell_formula_units_Z   2
loop_
 _symmetry_equiv_pos_site_id
 _symmetry_equiv_pos_as_xyz
  1  'x, y, z'
loop_
 _atom_site_type_symbol
 _atom_site_label
 _atom_site_symmetry_multiplicity
 _atom_site_fract_x
 _atom_site_fract_y
 _atom_site_fract_z
 _atom_site_occupancy
  Sr  Sr0  1  0.77724968  0.06472280  0.48497371  1
  Sr  Sr1  1  0.70763990  0.42032973  0.52353768  1
  Sr  Sr2  1  0.27724968  0.56472280  0.51502629  1
  Sr  Sr3  1  0.04236010  0.32967027  0.02353768  1
  Sr  Sr4  1  0.47275032  0.18527720  0.01502629  1
  Sr  Sr5  1  0.20763990  0.92032973  0.47646232  1
  Sr  Sr6  1  0.54236010  0.82967027  0.97646232  1
  Sr  Sr7  1  0.97275032  0.68527720  0.98497371  1
  Cu  Cu8  1  0.24264339  0.24230484  0.50368325  1
  Cu  Cu9  1  0.00735661  0.00769516  0.99631675  1
  Cu  Cu10  1  0.74264339  0.74230484  0.49631675  1
  Cu  Cu11  1  0.50735661  0.50769516  0.00368325  1
  O  O12  1  0.00427864  0.31455214  0.51889382  1
  O  O13  1  0.47060512  0.15971564  0.51257379  1
  O  O14  1  0.35013826  0.34976826  0.75563394  1
  O  O15  1  0.12500000  0.12500000  0.25000000  1
  O  O16  1  0.62500000  0.62500000  0.75000000  1
  O  O17  1  0.39986174  0.40023174  0.25563394  1
  O  O18  1  0.77939488  0.09028436  0.98742621  1
  O  O19  1  0.89986174  0.90023174  0.74436606  1
  O  O20  1  0.74572136  0.43544786  0.01889382  1
  O  O21  1  0.97060512  0.65971564  0.48742621  1
  O  O22  1  0.50427864  0.81455214  0.48110618  1
  O  O23  1  0.27939488  0.59028436  0.01257379  1
  O  O24  1  0.24572136  0.93544786  0.98110618  1
  O  O25  1  0.85013826  0.84976826  0.24436606  1
