# generated using pymatgen
data_Li3AuO3
_symmetry_space_group_name_H-M   'P 1'
_cell_length_a   3.64107290
_cell_length_b   9.25743458
_cell_length_c   9.25743458
_cell_angle_alpha   90.00000000
_cell_angle_beta   90.00000000
_cell_angle_gamma   90.00000000
_symmetry_Int_Tables_number   1
_chemical_formula_structural   Li3AuO3
_chemical_formula_sum   'Li12 Au4 O12'
_cell_volume   312.04029344
_cell_formula_units_Z   4
loop_
 _symmetry_equiv_pos_site_id
 _symmetry_equiv_pos_as_xyz
  1  'x, y, z'
loop_
 _atom_site_type_symbol
 _atom_site_label
 _atom_site_symmetry_multiplicity
 _atom_site_fract_x
 _atom_site_fract_y
 _atom_site_fract_z
 _atom_site_occupancy
  Li  Li0  1  0.00000000  0.59243781  0.14148717  1
  Li  Li1  1  0.50000000  0.35851283  0.09243781  1
  Li  Li2  1  0.50000000  0.64148717  0.90756219  1
  Li  Li3  1  0.00000000  0.40756219  0.85851283  1
  Li  Li4  1  0.50000000  0.09243781  0.35851283  1
  Li  Li5  1  0.50000000  0.90756219  0.64148717  1
  Li  Li6  1  0.00000000  0.14148717  0.59243781  1
  Li  Li7  1  0.00000000  0.85851283  0.40756219  1
  Li  Li8  1  0.00000000  0.16654452  0.16654452  1
  Li  Li9  1  0.50000000  0.33345548  0.66654452  1
  Li  Li10  1  0.50000000  0.66654452  0.33345548  1
  Li  Li11  1  0.00000000  0.83345548  0.83345548  1
  O  O12  1  0.50000000  0.10678535  0.10678535  1
  O  O13  1  0.50000000  0.89321465  0.89321465  1
  O  O14  1  0.00000000  0.60678535  0.39321465  1
  O  O15  1  0.00000000  0.39321465  0.60678535  1
  O  O16  1  0.00000000  0.16334389  0.38094155  1
  O  O17  1  0.50000000  0.11905845  0.66334389  1
  O  O18  1  0.50000000  0.88094155  0.33665611  1
  O  O19  1  0.00000000  0.83665611  0.61905845  1
  O  O20  1  0.50000000  0.66334389  0.11905845  1
  O  O21  1  0.50000000  0.33665611  0.88094155  1
  O  O22  1  0.00000000  0.38094155  0.16334389  1
  O  O23  1  0.00000000  0.61905845  0.83665611  1
  Au  Au24  1  0.00000000  0.61817776  0.61817776  1
  Au  Au25  1  0.50000000  0.11817776  0.88182224  1
  Au  Au26  1  0.00000000  0.38182224  0.38182224  1
  Au  Au27  1  0.50000000  0.88182224  0.11817776  1
