# generated using pymatgen
data_CrH18(O3F)3
_symmetry_space_group_name_H-M   'P 1'
_cell_length_a   6.84652754
_cell_length_b   6.84646874
_cell_length_c   6.84658190
_cell_angle_alpha   105.18617296
_cell_angle_beta   105.18631244
_cell_angle_gamma   105.18599244
_symmetry_Int_Tables_number   1
_chemical_formula_structural   CrH18(O3F)3
_chemical_formula_sum   'Cr1 H18 O9 F3'
_cell_volume   279.44644920
_cell_formula_units_Z   1
loop_
 _symmetry_equiv_pos_site_id
 _symmetry_equiv_pos_as_xyz
  1  'x, y, z'
loop_
 _atom_site_type_symbol
 _atom_site_label
 _atom_site_symmetry_multiplicity
 _atom_site_fract_x
 _atom_site_fract_y
 _atom_site_fract_z
 _atom_site_occupancy
  Cr  Cr0  1  0.00064781  0.00069102  0.00066455  1
  H  H1  1  0.68002123  0.57285932  0.31116625  1
  H  H2  1  0.57286062  0.31116157  0.68001946  1
  H  H3  1  0.31116766  0.68001914  0.57285950  1
  H  H4  1  0.51051293  0.69466087  0.31640649  1
  H  H5  1  0.69466015  0.31639977  0.51051014  1
  H  H6  1  0.31640498  0.51050706  0.69465969  1
  H  H7  1  0.42994686  0.20801998  0.09918370  1
  H  H8  1  0.20802236  0.09918903  0.42994549  1
  H  H9  1  0.09918911  0.42995603  0.20802575  1
  H  H10  1  0.29331267  0.19630676  0.85471898  1
  H  H11  1  0.19630835  0.85472420  0.29330663  1
  H  H12  1  0.85472637  0.29331475  0.19631007  1
  H  H13  1  0.14015786  0.70844099  0.80065506  1
  H  H14  1  0.70844089  0.80065323  0.14016135  1
  H  H15  1  0.80065173  0.14015789  0.70843570  1
  H  H16  1  0.89485301  0.57194163  0.79072209  1
  H  H17  1  0.57194597  0.79071908  0.89485517  1
  H  H18  1  0.79072152  0.89485060  0.57194630  1
  O  O19  1  0.01358790  0.71827128  0.84716182  1
  O  O20  1  0.71827562  0.84716047  0.01359245  1
  O  O21  1  0.84715654  0.01358410  0.71827371  1
  O  O22  1  0.28438580  0.14661355  0.97911190  1
  O  O23  1  0.14661346  0.97909115  0.28437204  1
  O  O24  1  0.97910174  0.28438511  0.14661385  1
  O  O25  1  0.66576362  0.71798739  0.32920679  1
  O  O26  1  0.71798882  0.32920284  0.66576055  1
  O  O27  1  0.32919973  0.66576644  0.71798274  1
  F  F28  1  0.66734864  0.32484102  0.27517896  1
  F  F29  1  0.32484092  0.27516929  0.66734834  1
  F  F30  1  0.27518515  0.66735446  0.32484447  1
