# generated using pymatgen
data_CrH12(ClO2)3
_symmetry_space_group_name_H-M   'P 1'
_cell_length_a   8.05277687
_cell_length_b   8.05277687
_cell_length_c   8.05277708
_cell_angle_alpha   97.92861813
_cell_angle_beta   97.92861813
_cell_angle_gamma   97.92861526
_symmetry_Int_Tables_number   1
_chemical_formula_structural   CrH12(ClO2)3
_chemical_formula_sum   'Cr2 H24 Cl6 O12'
_cell_volume   505.66373261
_cell_formula_units_Z   2
loop_
 _symmetry_equiv_pos_site_id
 _symmetry_equiv_pos_as_xyz
  1  'x, y, z'
loop_
 _atom_site_type_symbol
 _atom_site_label
 _atom_site_symmetry_multiplicity
 _atom_site_fract_x
 _atom_site_fract_y
 _atom_site_fract_z
 _atom_site_occupancy
  Cr  Cr0  1  0.50000000  0.50000000  0.50000000  1
  Cr  Cr1  1  0.00000000  0.00000000  0.00000000  1
  H  H2  1  0.23713072  0.27895452  0.54133435  1
  H  H3  1  0.27895452  0.54133435  0.23713072  1
  H  H4  1  0.54133435  0.23713072  0.27895452  1
  H  H5  1  0.73713072  0.04133435  0.77895452  1
  H  H6  1  0.04133435  0.77895452  0.73713072  1
  H  H7  1  0.77895452  0.73713072  0.04133435  1
  H  H8  1  0.76286928  0.72104548  0.45866565  1
  H  H9  1  0.72104548  0.45866565  0.76286928  1
  H  H10  1  0.45866565  0.76286928  0.72104548  1
  H  H11  1  0.26286928  0.95866565  0.22104548  1
  H  H12  1  0.95866565  0.22104548  0.26286928  1
  H  H13  1  0.22104548  0.26286928  0.95866565  1
  H  H14  1  0.40834623  0.20442217  0.61390411  1
  H  H15  1  0.20442217  0.61390411  0.40834623  1
  H  H16  1  0.61390411  0.40834623  0.20442217  1
  H  H17  1  0.90834623  0.11390411  0.70442217  1
  H  H18  1  0.11390411  0.70442217  0.90834623  1
  H  H19  1  0.70442217  0.90834623  0.11390411  1
  H  H20  1  0.59165377  0.79557783  0.38609589  1
  H  H21  1  0.79557783  0.38609589  0.59165377  1
  H  H22  1  0.38609589  0.59165377  0.79557783  1
  H  H23  1  0.09165377  0.88609589  0.29557783  1
  H  H24  1  0.88609589  0.29557783  0.09165377  1
  H  H25  1  0.29557783  0.09165377  0.88609589  1
  Cl  Cl26  1  0.52206913  0.97793087  0.25000000  1
  Cl  Cl27  1  0.97793087  0.25000000  0.52206913  1
  Cl  Cl28  1  0.25000000  0.52206913  0.97793087  1
  Cl  Cl29  1  0.02206913  0.75000000  0.47793087  1
  Cl  Cl30  1  0.75000000  0.47793087  0.02206913  1
  Cl  Cl31  1  0.47793087  0.02206913  0.75000000  1
  O  O32  1  0.36386692  0.29129088  0.55039739  1
  O  O33  1  0.29129088  0.55039739  0.36386692  1
  O  O34  1  0.55039739  0.36386692  0.29129088  1
  O  O35  1  0.86386692  0.05039739  0.79129088  1
  O  O36  1  0.05039739  0.79129088  0.86386692  1
  O  O37  1  0.79129088  0.86386692  0.05039739  1
  O  O38  1  0.63613308  0.70870912  0.44960261  1
  O  O39  1  0.70870912  0.44960261  0.63613308  1
  O  O40  1  0.44960261  0.63613308  0.70870912  1
  O  O41  1  0.13613308  0.94960261  0.20870912  1
  O  O42  1  0.94960261  0.20870912  0.13613308  1
  O  O43  1  0.20870912  0.13613308  0.94960261  1
