# generated using pymatgen
data_NaNdO2
_symmetry_space_group_name_H-M   'P 1'
_cell_length_a   4.76735300
_cell_length_b   4.76735299
_cell_length_c   6.49715713
_cell_angle_alpha   111.52332215
_cell_angle_beta   111.52332212
_cell_angle_gamma   90.00000003
_symmetry_Int_Tables_number   1
_chemical_formula_structural   NaNdO2
_chemical_formula_sum   'Na2 Nd2 O4'
_cell_volume   126.23411478
_cell_formula_units_Z   2
loop_
 _symmetry_equiv_pos_site_id
 _symmetry_equiv_pos_as_xyz
  1  'x, y, z'
loop_
 _atom_site_type_symbol
 _atom_site_label
 _atom_site_symmetry_multiplicity
 _atom_site_fract_x
 _atom_site_fract_y
 _atom_site_fract_z
 _atom_site_occupancy
  O  O0  1  0.15716915  0.40716915  0.31433831  1
  O  O1  1  0.40716915  0.15716915  0.81433831  1
  O  O2  1  0.59283085  0.84283085  0.18566169  1
  O  O3  1  0.84283085  0.59283085  0.68566169  1
  Na  Na4  1  0.12500000  0.87500000  0.25000000  1
  Na  Na5  1  0.87500000  0.12500000  0.75000000  1
  Nd  Nd6  1  0.37500000  0.62500000  0.75000000  1
  Nd  Nd7  1  0.62500000  0.37500000  0.25000000  1
