# generated using pymatgen
data_MgAlBO4
_symmetry_space_group_name_H-M   'P 1'
_cell_length_a   4.36745924
_cell_length_b   5.73528136
_cell_length_c   9.98856615
_cell_angle_alpha   90.00000000
_cell_angle_beta   90.00000000
_cell_angle_gamma   90.00000000
_symmetry_Int_Tables_number   1
_chemical_formula_structural   MgAlBO4
_chemical_formula_sum   'Mg4 Al4 B4 O16'
_cell_volume   250.19967368
_cell_formula_units_Z   4
loop_
 _symmetry_equiv_pos_site_id
 _symmetry_equiv_pos_as_xyz
  1  'x, y, z'
loop_
 _atom_site_type_symbol
 _atom_site_label
 _atom_site_symmetry_multiplicity
 _atom_site_fract_x
 _atom_site_fract_y
 _atom_site_fract_z
 _atom_site_occupancy
  B  B0  1  0.09190552  0.25000000  0.58692607  1
  B  B1  1  0.90809448  0.75000000  0.41307393  1
  B  B2  1  0.40809448  0.25000000  0.08692607  1
  B  B3  1  0.59190552  0.75000000  0.91307393  1
  O  O4  1  0.76451213  0.53921058  0.35141306  1
  O  O5  1  0.26451213  0.46078942  0.14858694  1
  O  O6  1  0.23548787  0.03921058  0.64858694  1
  O  O7  1  0.73548787  0.96078942  0.85141306  1
  O  O8  1  0.26451213  0.03921058  0.14858694  1
  O  O9  1  0.23548787  0.46078942  0.64858694  1
  O  O10  1  0.76451213  0.96078942  0.35141306  1
  O  O11  1  0.73548787  0.53921058  0.85141306  1
  O  O12  1  0.26067224  0.75000000  0.91927595  1
  O  O13  1  0.76067224  0.25000000  0.58072405  1
  O  O14  1  0.73932776  0.25000000  0.08072405  1
  O  O15  1  0.23932776  0.75000000  0.41927595  1
  O  O16  1  0.74396358  0.75000000  0.55555924  1
  O  O17  1  0.24396358  0.25000000  0.94444076  1
  O  O18  1  0.25603642  0.25000000  0.44444076  1
  O  O19  1  0.75603642  0.75000000  0.05555924  1
  Mg  Mg20  1  0.48531423  0.75000000  0.22406504  1
  Mg  Mg21  1  0.98531423  0.25000000  0.27593496  1
  Mg  Mg22  1  0.51468577  0.25000000  0.77593496  1
  Mg  Mg23  1  0.01468577  0.75000000  0.72406504  1
  Al  Al24  1  0.50000000  0.50000000  0.50000000  1
  Al  Al25  1  0.00000000  0.50000000  0.00000000  1
  Al  Al26  1  0.50000000  0.00000000  0.50000000  1
  Al  Al27  1  0.00000000  0.00000000  0.00000000  1
