# generated using pymatgen
data_Rb2TeO3
_symmetry_space_group_name_H-M   'P 1'
_cell_length_a   6.58960806
_cell_length_b   6.77615458
_cell_length_c   7.67497236
_cell_angle_alpha   94.35435433
_cell_angle_beta   90.00000000
_cell_angle_gamma   119.09342291
_symmetry_Int_Tables_number   1
_chemical_formula_structural   Rb2TeO3
_chemical_formula_sum   'Rb4 Te2 O6'
_cell_volume   298.33219999
_cell_formula_units_Z   2
loop_
 _symmetry_equiv_pos_site_id
 _symmetry_equiv_pos_as_xyz
  1  'x, y, z'
loop_
 _atom_site_type_symbol
 _atom_site_label
 _atom_site_symmetry_multiplicity
 _atom_site_fract_x
 _atom_site_fract_y
 _atom_site_fract_z
 _atom_site_occupancy
  O  O0  1  0.16517819  0.77401334  0.21209654  1
  O  O1  1  0.39116485  0.22598666  0.78790346  1
  O  O2  1  0.83482181  0.22598666  0.78790346  1
  O  O3  1  0.60883515  0.77401334  0.21209654  1
  O  O4  1  0.81909273  0.63818547  0.73081077  1
  O  O5  1  0.18090727  0.36181453  0.26918923  1
  Rb  Rb6  1  0.00000000  0.00000000  0.00000000  1
  Rb  Rb7  1  0.31713919  0.63427838  0.86172575  1
  Rb  Rb8  1  0.00000000  0.00000000  0.50000000  1
  Rb  Rb9  1  0.68286081  0.36572162  0.13827425  1
  Te  Te10  1  0.33693771  0.67387541  0.33984266  1
  Te  Te11  1  0.66306229  0.32612459  0.66015734  1
