# generated using pymatgen
data_Ba4As2O
_symmetry_space_group_name_H-M   'P 1'
_cell_length_a   5.22748901
_cell_length_b   5.22748901
_cell_length_c   9.47283363
_cell_angle_alpha   106.01684922
_cell_angle_beta   106.01684919
_cell_angle_gamma   89.99999998
_symmetry_Int_Tables_number   1
_chemical_formula_structural   Ba4As2O
_chemical_formula_sum   'Ba4 As2 O1'
_cell_volume   238.33978950
_cell_formula_units_Z   1
loop_
 _symmetry_equiv_pos_site_id
 _symmetry_equiv_pos_as_xyz
  1  'x, y, z'
loop_
 _atom_site_type_symbol
 _atom_site_label
 _atom_site_symmetry_multiplicity
 _atom_site_fract_x
 _atom_site_fract_y
 _atom_site_fract_z
 _atom_site_occupancy
  O  O0  1  0.50000000  0.50000000  0.00000000  1
  As  As1  1  0.86432267  0.86432267  0.72864535  1
  As  As2  1  0.13567733  0.13567733  0.27135465  1
  Ba  Ba3  1  0.67593865  0.67593865  0.35187730  1
  Ba  Ba4  1  0.32406135  0.32406135  0.64812270  1
  Ba  Ba5  1  0.00000000  0.50000000  0.00000000  1
  Ba  Ba6  1  0.50000000  0.00000000  0.00000000  1
