# generated using pymatgen
data_AsPO4
_symmetry_space_group_name_H-M   'P 1'
_cell_length_a   5.04368824
_cell_length_b   7.78815249
_cell_length_c   8.71967673
_cell_angle_alpha   90.00000000
_cell_angle_beta   90.00000000
_cell_angle_gamma   90.00000000
_symmetry_Int_Tables_number   1
_chemical_formula_structural   AsPO4
_chemical_formula_sum   'As4 P4 O16'
_cell_volume   342.51773608
_cell_formula_units_Z   4
loop_
 _symmetry_equiv_pos_site_id
 _symmetry_equiv_pos_as_xyz
  1  'x, y, z'
loop_
 _atom_site_type_symbol
 _atom_site_label
 _atom_site_symmetry_multiplicity
 _atom_site_fract_x
 _atom_site_fract_y
 _atom_site_fract_z
 _atom_site_occupancy
  O  O0  1  0.25000000  0.38593619  0.44001691  1
  O  O1  1  0.75000000  0.61406381  0.55998309  1
  O  O2  1  0.75000000  0.88593619  0.05998309  1
  O  O3  1  0.25000000  0.11406381  0.94001691  1
  O  O4  1  0.25000000  0.44336157  0.73510625  1
  O  O5  1  0.75000000  0.55663843  0.26489375  1
  O  O6  1  0.75000000  0.94336157  0.76489375  1
  O  O7  1  0.25000000  0.05663843  0.23510625  1
  O  O8  1  0.00232829  0.30976641  0.12309531  1
  O  O9  1  0.50232829  0.69023359  0.87690469  1
  O  O10  1  0.99767171  0.80976641  0.37690469  1
  O  O11  1  0.49767171  0.19023359  0.62309531  1
  O  O12  1  0.99767171  0.69023359  0.87690469  1
  O  O13  1  0.49767171  0.30976641  0.12309531  1
  O  O14  1  0.00232829  0.19023359  0.62309531  1
  O  O15  1  0.50232829  0.80976641  0.37690469  1
  P  P16  1  0.25000000  0.30962814  0.59726449  1
  P  P17  1  0.75000000  0.69037186  0.40273551  1
  P  P18  1  0.75000000  0.80962814  0.90273551  1
  P  P19  1  0.25000000  0.19037186  0.09726449  1
  As  As20  1  0.25000000  0.67922789  0.72383265  1
  As  As21  1  0.75000000  0.32077211  0.27616735  1
  As  As22  1  0.75000000  0.17922789  0.77616735  1
  As  As23  1  0.25000000  0.82077211  0.22383265  1
