# generated using pymatgen
data_BaZrF6
_symmetry_space_group_name_H-M   'P 1'
_cell_length_a   5.61354289
_cell_length_b   6.95830279
_cell_length_c   6.95830279
_cell_angle_alpha   111.99703428
_cell_angle_beta   90.00000000
_cell_angle_gamma   90.00000000
_symmetry_Int_Tables_number   1
_chemical_formula_structural   BaZrF6
_chemical_formula_sum   'Ba2 Zr2 F12'
_cell_volume   252.01049846
_cell_formula_units_Z   2
loop_
 _symmetry_equiv_pos_site_id
 _symmetry_equiv_pos_as_xyz
  1  'x, y, z'
loop_
 _atom_site_type_symbol
 _atom_site_label
 _atom_site_symmetry_multiplicity
 _atom_site_fract_x
 _atom_site_fract_y
 _atom_site_fract_z
 _atom_site_occupancy
  F  F0  1  0.74953407  0.43194033  0.18132694  1
  F  F1  1  0.74953407  0.06805967  0.31867306  1
  F  F2  1  0.25046593  0.18132694  0.43194033  1
  F  F3  1  0.25046593  0.31867306  0.06805967  1
  F  F4  1  0.85006981  0.42989705  0.57010295  1
  F  F5  1  0.85006981  0.07010295  0.92989705  1
  F  F6  1  0.14993019  0.57010295  0.42989705  1
  F  F7  1  0.14993019  0.92989705  0.07010295  1
  F  F8  1  0.74953407  0.68132694  0.93194033  1
  F  F9  1  0.74953407  0.81867306  0.56805967  1
  F  F10  1  0.25046593  0.93194033  0.68132694  1
  F  F11  1  0.25046593  0.56805967  0.81867306  1
  Zr  Zr12  1  0.00000000  0.75000000  0.75000000  1
  Zr  Zr13  1  0.00000000  0.25000000  0.25000000  1
  Ba  Ba14  1  0.44440227  0.75000000  0.25000000  1
  Ba  Ba15  1  0.55559773  0.25000000  0.75000000  1
