# generated using pymatgen
data_Ba2Ca(BO2)6
_symmetry_space_group_name_H-M   'P 1'
_cell_length_a   7.35513868
_cell_length_b   7.35513868
_cell_length_c   7.35513869
_cell_angle_alpha   58.98648452
_cell_angle_beta   58.98648451
_cell_angle_gamma   58.98648455
_symmetry_Int_Tables_number   1
_chemical_formula_structural   Ba2Ca(BO2)6
_chemical_formula_sum   'Ba2 Ca1 B6 O12'
_cell_volume   274.85178196
_cell_formula_units_Z   1
loop_
 _symmetry_equiv_pos_site_id
 _symmetry_equiv_pos_as_xyz
  1  'x, y, z'
loop_
 _atom_site_type_symbol
 _atom_site_label
 _atom_site_symmetry_multiplicity
 _atom_site_fract_x
 _atom_site_fract_y
 _atom_site_fract_z
 _atom_site_occupancy
  B  B0  1  0.36634132  0.63064170  0.75464849  1
  B  B1  1  0.24535151  0.63365868  0.36935830  1
  B  B2  1  0.63365868  0.36935830  0.24535151  1
  B  B3  1  0.36935830  0.24535151  0.63365868  1
  B  B4  1  0.75464849  0.36634132  0.63064170  1
  B  B5  1  0.63064170  0.75464849  0.36634132  1
  O  O6  1  0.20427306  0.45943854  0.58009388  1
  O  O7  1  0.58009388  0.20427306  0.45943854  1
  O  O8  1  0.45943854  0.58009388  0.20427306  1
  O  O9  1  0.54056146  0.41990612  0.79572694  1
  O  O10  1  0.08702639  0.83673722  0.33547090  1
  O  O11  1  0.41990612  0.79572694  0.54056146  1
  O  O12  1  0.79572694  0.54056146  0.41990612  1
  O  O13  1  0.33547090  0.08702639  0.83673722  1
  O  O14  1  0.83673722  0.33547090  0.08702639  1
  O  O15  1  0.66452910  0.91297361  0.16326278  1
  O  O16  1  0.16326278  0.66452910  0.91297361  1
  O  O17  1  0.91297361  0.16326278  0.66452910  1
  Ca  Ca18  1  0.00000000  0.00000000  0.00000000  1
  Ba  Ba19  1  0.79422605  0.79422605  0.79422605  1
  Ba  Ba20  1  0.20577395  0.20577395  0.20577395  1
