# generated using pymatgen
data_K2As2Pd
_symmetry_space_group_name_H-M   'P 1'
_cell_length_a   6.09401341
_cell_length_b   6.57766358
_cell_length_c   8.01711078
_cell_angle_alpha   114.21906784
_cell_angle_beta   90.00000000
_cell_angle_gamma   90.00000000
_symmetry_Int_Tables_number   1
_chemical_formula_structural   K2As2Pd
_chemical_formula_sum   'K4 As4 Pd2'
_cell_volume   293.07582571
_cell_formula_units_Z   2
loop_
 _symmetry_equiv_pos_site_id
 _symmetry_equiv_pos_as_xyz
  1  'x, y, z'
loop_
 _atom_site_type_symbol
 _atom_site_label
 _atom_site_symmetry_multiplicity
 _atom_site_fract_x
 _atom_site_fract_y
 _atom_site_fract_z
 _atom_site_occupancy
  K  K0  1  0.75000000  0.42151052  0.84302103  1
  K  K1  1  0.25000000  0.57848948  0.15697897  1
  K  K2  1  0.75000000  0.79410926  0.58821851  1
  K  K3  1  0.25000000  0.20589074  0.41178149  1
  As  As4  1  0.25000000  0.70348378  0.77776384  1
  As  As5  1  0.75000000  0.29651622  0.22223616  1
  As  As6  1  0.75000000  0.92571994  0.22223616  1
  As  As7  1  0.25000000  0.07428006  0.77776384  1
  Pd  Pd8  1  0.00000000  0.00000000  0.00000000  1
  Pd  Pd9  1  0.50000000  0.00000000  0.00000000  1
