# generated using pymatgen
data_TbBi3
_symmetry_space_group_name_H-M   'P 1'
_cell_length_a   6.83905032
_cell_length_b   6.83905156
_cell_length_c   6.06632773
_cell_angle_alpha   90.00000000
_cell_angle_beta   90.00000000
_cell_angle_gamma   120.00001038
_symmetry_Int_Tables_number   1
_chemical_formula_structural   TbBi3
_chemical_formula_sum   'Tb2 Bi6'
_cell_volume   245.72431449
_cell_formula_units_Z   2
loop_
 _symmetry_equiv_pos_site_id
 _symmetry_equiv_pos_as_xyz
  1  'x, y, z'
loop_
 _atom_site_type_symbol
 _atom_site_label
 _atom_site_symmetry_multiplicity
 _atom_site_fract_x
 _atom_site_fract_y
 _atom_site_fract_z
 _atom_site_occupancy
  Tb  Tb0  1  0.33333400  0.66666700  0.75000100  1
  Tb  Tb1  1  0.66666800  0.33333300  0.25000000  1
  Bi  Bi2  1  0.17200745  0.34401490  0.25000000  1
  Bi  Bi3  1  0.65598310  0.82799155  0.25000000  1
  Bi  Bi4  1  0.17200745  0.82799155  0.25000000  1
  Bi  Bi5  1  0.82799255  0.65598510  0.75000100  1
  Bi  Bi6  1  0.34401690  0.17200845  0.75000100  1
  Bi  Bi7  1  0.82799255  0.17200845  0.75000100  1
