# generated using pymatgen
data_DyTaO4
_symmetry_space_group_name_H-M   'P 1'
_cell_length_a   5.15441023
_cell_length_b   5.34478806
_cell_length_c   5.51878802
_cell_angle_alpha   90.00000000
_cell_angle_beta   90.00000000
_cell_angle_gamma   96.57975790
_symmetry_Int_Tables_number   1
_chemical_formula_structural   DyTaO4
_chemical_formula_sum   'Dy2 Ta2 O8'
_cell_volume   151.03693251
_cell_formula_units_Z   2
loop_
 _symmetry_equiv_pos_site_id
 _symmetry_equiv_pos_as_xyz
  1  'x, y, z'
loop_
 _atom_site_type_symbol
 _atom_site_label
 _atom_site_symmetry_multiplicity
 _atom_site_fract_x
 _atom_site_fract_y
 _atom_site_fract_z
 _atom_site_occupancy
  O  O0  1  0.73132302  0.00483692  0.56451719  1
  O  O1  1  0.26867698  0.49516308  0.56451719  1
  O  O2  1  0.26867698  0.99516308  0.43548281  1
  O  O3  1  0.73132302  0.50483692  0.43548281  1
  O  O4  1  0.24957025  0.60070374  0.08570198  1
  O  O5  1  0.75042975  0.89929626  0.08570198  1
  O  O6  1  0.75042975  0.39929626  0.91429802  1
  O  O7  1  0.24957025  0.10070374  0.91429802  1
  Dy  Dy8  1  0.00000000  0.75000000  0.76708890  1
  Dy  Dy9  1  0.00000000  0.25000000  0.23291110  1
  Ta  Ta10  1  0.50000000  0.25000000  0.69300875  1
  Ta  Ta11  1  0.50000000  0.75000000  0.30699125  1
