# generated using pymatgen
data_ZnPtF6
_symmetry_space_group_name_H-M   'P 1'
_cell_length_a   5.50901953
_cell_length_b   5.50901953
_cell_length_c   5.50901953
_cell_angle_alpha   55.48777776
_cell_angle_beta   55.48777769
_cell_angle_gamma   55.48777772
_symmetry_Int_Tables_number   1
_chemical_formula_structural   ZnPtF6
_chemical_formula_sum   'Zn1 Pt1 F6'
_cell_volume   105.83808705
_cell_formula_units_Z   1
loop_
 _symmetry_equiv_pos_site_id
 _symmetry_equiv_pos_as_xyz
  1  'x, y, z'
loop_
 _atom_site_type_symbol
 _atom_site_label
 _atom_site_symmetry_multiplicity
 _atom_site_fract_x
 _atom_site_fract_y
 _atom_site_fract_z
 _atom_site_occupancy
  F  F0  1  0.38564289  0.10264202  0.75829624  1
  F  F1  1  0.10264202  0.75829624  0.38564289  1
  F  F2  1  0.24170376  0.61435711  0.89735798  1
  F  F3  1  0.89735798  0.24170376  0.61435711  1
  F  F4  1  0.61435711  0.89735798  0.24170376  1
  F  F5  1  0.75829624  0.38564289  0.10264202  1
  Zn  Zn6  1  0.50000000  0.50000000  0.50000000  1
  Pt  Pt7  1  0.00000000  0.00000000  0.00000000  1
