# generated using pymatgen
data_Yb3Si
_symmetry_space_group_name_H-M   'P 1'
_cell_length_a   6.79827719
_cell_length_b   6.79827723
_cell_length_c   5.30303593
_cell_angle_alpha   90.00000000
_cell_angle_beta   90.00000000
_cell_angle_gamma   119.99999975
_symmetry_Int_Tables_number   1
_chemical_formula_structural   Yb3Si
_chemical_formula_sum   'Yb6 Si2'
_cell_volume   212.25256234
_cell_formula_units_Z   2
loop_
 _symmetry_equiv_pos_site_id
 _symmetry_equiv_pos_as_xyz
  1  'x, y, z'
loop_
 _atom_site_type_symbol
 _atom_site_label
 _atom_site_symmetry_multiplicity
 _atom_site_fract_x
 _atom_site_fract_y
 _atom_site_fract_z
 _atom_site_occupancy
  Yb  Yb0  1  0.17628299  0.35256497  0.25000100  1
  Yb  Yb1  1  0.64743503  0.82371701  0.25000100  1
  Yb  Yb2  1  0.17628199  0.82371701  0.25000100  1
  Yb  Yb3  1  0.82371801  0.64743403  0.74999900  1
  Yb  Yb4  1  0.35256497  0.17628199  0.74999900  1
  Yb  Yb5  1  0.82371701  0.17628199  0.74999900  1
  Si  Si6  1  0.33333400  0.66666700  0.74999900  1
  Si  Si7  1  0.66666700  0.33333200  0.25000100  1
