# generated using pymatgen
data_Mg16Al12V
_symmetry_space_group_name_H-M   'P 1'
_cell_length_a   9.06913775
_cell_length_b   9.06913816
_cell_length_c   9.06913775
_cell_angle_alpha   109.47121493
_cell_angle_beta   109.47122031
_cell_angle_gamma   109.47121493
_symmetry_Int_Tables_number   1
_chemical_formula_structural   Mg16Al12V
_chemical_formula_sum   'Mg16 Al12 V1'
_cell_volume   574.21718675
_cell_formula_units_Z   1
loop_
 _symmetry_equiv_pos_site_id
 _symmetry_equiv_pos_as_xyz
  1  'x, y, z'
loop_
 _atom_site_type_symbol
 _atom_site_label
 _atom_site_symmetry_multiplicity
 _atom_site_fract_x
 _atom_site_fract_y
 _atom_site_fract_z
 _atom_site_occupancy
  Mg  Mg0  1  0.33953947  1.00000000  1.00000000  1
  Mg  Mg1  1  1.00000000  0.33953847  1.00000000  1
  Mg  Mg2  1  0.31573332  0.60180342  0.00000000  1
  Mg  Mg3  1  0.60180342  0.31573332  0.00000100  1
  Mg  Mg4  1  0.68426668  0.68426668  0.28606910  1
  Mg  Mg5  1  0.00000000  0.60180342  0.31573332  1
  Mg  Mg6  1  0.60180342  0.00000000  0.31573432  1
  Mg  Mg7  1  1.00000000  1.00000000  0.33953947  1
  Mg  Mg8  1  0.39819758  0.71393090  0.39819758  1
  Mg  Mg9  1  0.71393090  0.39819758  0.39819758  1
  Mg  Mg10  1  0.00000100  0.31573332  0.60180342  1
  Mg  Mg11  1  0.31573432  0.00000000  0.60180342  1
  Mg  Mg12  1  0.66046053  0.66046053  0.66046053  1
  Mg  Mg13  1  0.28606910  0.68426668  0.68426668  1
  Mg  Mg14  1  0.68426668  0.28606910  0.68426668  1
  Mg  Mg15  1  0.39819758  0.39819758  0.71393090  1
  Al  Al16  1  0.63635810  0.81560266  1.00000000  1
  Al  Al17  1  0.81560266  0.63635810  1.00000000  1
  Al  Al18  1  0.36364190  0.36364290  0.17924356  1
  Al  Al19  1  0.18439734  0.82075444  0.18439734  1
  Al  Al20  1  0.82075444  0.18439734  0.18439734  1
  Al  Al21  1  0.17924356  0.36364290  0.36364190  1
  Al  Al22  1  0.36364190  0.17924456  0.36364190  1
  Al  Al23  1  1.00000000  0.81560266  0.63635810  1
  Al  Al24  1  0.81560166  1.00000000  0.63635810  1
  Al  Al25  1  0.63635810  1.00000000  0.81560166  1
  Al  Al26  1  1.00000000  0.63635810  0.81560266  1
  Al  Al27  1  0.18439734  0.18439734  0.82075444  1
  V  V28  1  0.00000000  0.00000000  0.00000000  1
