# generated using pymatgen
data_Rb(MoS)3
_symmetry_space_group_name_H-M   'P 1'
_cell_length_a   9.23467262
_cell_length_b   9.23467263
_cell_length_c   4.45907828
_cell_angle_alpha   90.00000000
_cell_angle_beta   90.00000000
_cell_angle_gamma   119.99999996
_symmetry_Int_Tables_number   1
_chemical_formula_structural   Rb(MoS)3
_chemical_formula_sum   'Rb2 Mo6 S6'
_cell_volume   329.32047747
_cell_formula_units_Z   2
loop_
 _symmetry_equiv_pos_site_id
 _symmetry_equiv_pos_as_xyz
  1  'x, y, z'
loop_
 _atom_site_type_symbol
 _atom_site_label
 _atom_site_symmetry_multiplicity
 _atom_site_fract_x
 _atom_site_fract_y
 _atom_site_fract_z
 _atom_site_occupancy
  S  S0  1  0.94495090  0.66369299  0.75000000  1
  S  S1  1  0.05504910  0.33630701  0.25000000  1
  S  S2  1  0.28125792  0.94495090  0.25000000  1
  S  S3  1  0.66369299  0.71874208  0.25000000  1
  S  S4  1  0.33630701  0.28125792  0.75000000  1
  S  S5  1  0.71874208  0.05504910  0.75000000  1
  Rb  Rb6  1  0.33333333  0.66666667  0.75000000  1
  Rb  Rb7  1  0.66666667  0.33333333  0.25000000  1
  Mo  Mo8  1  0.97148321  0.82053289  0.25000000  1
  Mo  Mo9  1  0.84904969  0.02851679  0.25000000  1
  Mo  Mo10  1  0.15095031  0.97148321  0.75000000  1
  Mo  Mo11  1  0.02851679  0.17946711  0.75000000  1
  Mo  Mo12  1  0.17946711  0.15095031  0.25000000  1
  Mo  Mo13  1  0.82053289  0.84904969  0.75000000  1
