# generated using pymatgen
data_Sc3Si3Ni
_symmetry_space_group_name_H-M   'P 1'
_cell_length_a   3.98181279
_cell_length_b   5.30280268
_cell_length_c   12.19269074
_cell_angle_alpha   84.37694054
_cell_angle_beta   80.60226979
_cell_angle_gamma   67.94823156
_symmetry_Int_Tables_number   1
_chemical_formula_structural   Sc3Si3Ni
_chemical_formula_sum   'Sc6 Si6 Ni2'
_cell_volume   235.22042088
_cell_formula_units_Z   2
loop_
 _symmetry_equiv_pos_site_id
 _symmetry_equiv_pos_as_xyz
  1  'x, y, z'
loop_
 _atom_site_type_symbol
 _atom_site_label
 _atom_site_symmetry_multiplicity
 _atom_site_fract_x
 _atom_site_fract_y
 _atom_site_fract_z
 _atom_site_occupancy
  Si  Si0  1  0.96133812  0.84076805  0.23655571  1
  Si  Si1  1  0.86735436  0.71957343  0.54571785  1
  Si  Si2  1  0.13264564  0.28042657  0.45428215  1
  Si  Si3  1  0.11781062  0.84005274  0.92432603  1
  Si  Si4  1  0.03866188  0.15923195  0.76344429  1
  Si  Si5  1  0.88218938  0.15994726  0.07567397  1
  Sc  Sc6  1  0.60078160  0.71934244  0.07909437  1
  Sc  Sc7  1  0.47510260  0.67113023  0.37866457  1
  Sc  Sc8  1  0.74268404  0.74098964  0.77364228  1
  Sc  Sc9  1  0.52489740  0.32886977  0.62133543  1
  Sc  Sc10  1  0.39921840  0.28065756  0.92090563  1
  Sc  Sc11  1  0.25731596  0.25901036  0.22635772  1
  Ni  Ni12  1  0.24339090  0.91763154  0.59558667  1
  Ni  Ni13  1  0.75660910  0.08236846  0.40441333  1
