# generated using pymatgen
data_Ca(BO2)2
_symmetry_space_group_name_H-M   'P 1'
_cell_length_a   5.05546755
_cell_length_b   8.43414737
_cell_length_c   14.00141594
_cell_angle_alpha   90.00000000
_cell_angle_beta   90.00000000
_cell_angle_gamma   90.00000000
_symmetry_Int_Tables_number   1
_chemical_formula_structural   Ca(BO2)2
_chemical_formula_sum   'Ca8 B16 O32'
_cell_volume   597.00019041
_cell_formula_units_Z   8
loop_
 _symmetry_equiv_pos_site_id
 _symmetry_equiv_pos_as_xyz
  1  'x, y, z'
loop_
 _atom_site_type_symbol
 _atom_site_label
 _atom_site_symmetry_multiplicity
 _atom_site_fract_x
 _atom_site_fract_y
 _atom_site_fract_z
 _atom_site_occupancy
  B  B0  1  0.86947403  0.74549219  0.44891507  1
  B  B1  1  0.86947403  0.75450781  0.05108493  1
  B  B2  1  0.63052597  0.24549219  0.55108493  1
  B  B3  1  0.63052597  0.25450781  0.94891507  1
  B  B4  1  0.13052597  0.25450781  0.55108493  1
  B  B5  1  0.13052597  0.24549219  0.94891507  1
  B  B6  1  0.36947403  0.75450781  0.44891507  1
  B  B7  1  0.36947403  0.74549219  0.05108493  1
  B  B8  1  0.62399473  0.53668537  0.13791471  1
  B  B9  1  0.62399473  0.96331463  0.36208529  1
  B  B10  1  0.87600527  0.03668537  0.86208529  1
  B  B11  1  0.87600527  0.46331463  0.63791471  1
  B  B12  1  0.37600527  0.46331463  0.86208529  1
  B  B13  1  0.37600527  0.03668537  0.63791471  1
  B  B14  1  0.12399473  0.96331463  0.13791471  1
  B  B15  1  0.12399473  0.53668537  0.36208529  1
  O  O16  1  0.35687413  0.88863914  0.11418356  1
  O  O17  1  0.35687413  0.61136086  0.38581644  1
  O  O18  1  0.14312587  0.38863914  0.88581644  1
  O  O19  1  0.14312587  0.11136086  0.61418356  1
  O  O20  1  0.64312587  0.11136086  0.88581644  1
  O  O21  1  0.64312587  0.38863914  0.61418356  1
  O  O22  1  0.85687413  0.61136086  0.11418356  1
  O  O23  1  0.85687413  0.88863914  0.38581644  1
  O  O24  1  0.62830437  0.39478122  0.18611865  1
  O  O25  1  0.62830437  0.10521878  0.31388135  1
  O  O26  1  0.87169563  0.89478122  0.81388135  1
  O  O27  1  0.87169563  0.60521878  0.68611865  1
  O  O28  1  0.37169563  0.60521878  0.81388135  1
  O  O29  1  0.37169563  0.89478122  0.68611865  1
  O  O30  1  0.12830437  0.10521878  0.18611865  1
  O  O31  1  0.12830437  0.39478122  0.31388135  1
  O  O32  1  0.11971302  0.74110077  0.99222657  1
  O  O33  1  0.11971302  0.75889923  0.50777343  1
  O  O34  1  0.38028698  0.24110077  0.00777343  1
  O  O35  1  0.38028698  0.25889923  0.49222657  1
  O  O36  1  0.88028698  0.25889923  0.00777343  1
  O  O37  1  0.88028698  0.24110077  0.49222657  1
  O  O38  1  0.61971302  0.75889923  0.99222657  1
  O  O39  1  0.61971302  0.74110077  0.50777343  1
  O  O40  1  0.38562899  0.60058601  0.11006311  1
  O  O41  1  0.38562899  0.89941399  0.38993689  1
  O  O42  1  0.11437101  0.10058601  0.88993689  1
  O  O43  1  0.11437101  0.39941399  0.61006311  1
  O  O44  1  0.61437101  0.39941399  0.88993689  1
  O  O45  1  0.61437101  0.10058601  0.61006311  1
  O  O46  1  0.88562899  0.89941399  0.11006311  1
  O  O47  1  0.88562899  0.60058601  0.38993689  1
  Ca  Ca48  1  0.61910674  0.38474594  0.35646081  1
  Ca  Ca49  1  0.61910674  0.11525406  0.14353919  1
  Ca  Ca50  1  0.88089326  0.88474594  0.64353919  1
  Ca  Ca51  1  0.88089326  0.61525406  0.85646081  1
  Ca  Ca52  1  0.38089326  0.61525406  0.64353919  1
  Ca  Ca53  1  0.38089326  0.88474594  0.85646081  1
  Ca  Ca54  1  0.11910674  0.11525406  0.35646081  1
  Ca  Ca55  1  0.11910674  0.38474594  0.14353919  1
