# generated using pymatgen
data_KNa2BO3
_symmetry_space_group_name_H-M   'P 1'
_cell_length_a   5.64413843
_cell_length_b   5.65161409
_cell_length_c   6.10632802
_cell_angle_alpha   90.00000000
_cell_angle_beta   90.00000000
_cell_angle_gamma   90.00000000
_symmetry_Int_Tables_number   1
_chemical_formula_structural   KNa2BO3
_chemical_formula_sum   'K2 Na4 B2 O6'
_cell_volume   194.78265719
_cell_formula_units_Z   2
loop_
 _symmetry_equiv_pos_site_id
 _symmetry_equiv_pos_as_xyz
  1  'x, y, z'
loop_
 _atom_site_type_symbol
 _atom_site_label
 _atom_site_symmetry_multiplicity
 _atom_site_fract_x
 _atom_site_fract_y
 _atom_site_fract_z
 _atom_site_occupancy
  B  B0  1  0.79594231  0.75000000  0.25000000  1
  B  B1  1  0.20405769  0.25000000  0.75000000  1
  O  O2  1  0.66578108  0.53785569  0.25000000  1
  O  O3  1  0.33421892  0.46214431  0.75000000  1
  O  O4  1  0.04238622  0.75000000  0.25000000  1
  O  O5  1  0.95761378  0.25000000  0.75000000  1
  O  O6  1  0.33421892  0.03785569  0.75000000  1
  O  O7  1  0.66578108  0.96214431  0.25000000  1
  Na  Na8  1  0.37329776  0.75000000  0.02064790  1
  Na  Na9  1  0.37329776  0.75000000  0.47935210  1
  Na  Na10  1  0.62670224  0.25000000  0.97935210  1
  Na  Na11  1  0.62670224  0.25000000  0.52064790  1
  K  K12  1  0.92403417  0.75000000  0.75000000  1
  K  K13  1  0.07596583  0.25000000  0.25000000  1
