# generated using pymatgen
data_NaSc(GeO3)2
_symmetry_space_group_name_H-M   'P 1'
_cell_length_a   5.66480917
_cell_length_b   6.94901421
_cell_length_c   6.94901420
_cell_angle_alpha   83.47498065
_cell_angle_beta   76.91081336
_cell_angle_gamma   76.91081327
_symmetry_Int_Tables_number   1
_chemical_formula_structural   NaSc(GeO3)2
_chemical_formula_sum   'Na2 Sc2 Ge4 O12'
_cell_volume   258.95623663
_cell_formula_units_Z   2
loop_
 _symmetry_equiv_pos_site_id
 _symmetry_equiv_pos_as_xyz
  1  'x, y, z'
loop_
 _atom_site_type_symbol
 _atom_site_label
 _atom_site_symmetry_multiplicity
 _atom_site_fract_x
 _atom_site_fract_y
 _atom_site_fract_z
 _atom_site_occupancy
  O  O0  1  0.02379166  0.64557949  0.63539714  1
  O  O1  1  0.47620834  0.36460286  0.35442051  1
  O  O2  1  0.97620834  0.35442051  0.36460286  1
  O  O3  1  0.52379166  0.63539714  0.64557949  1
  O  O4  1  0.30503212  0.90239164  0.37822135  1
  O  O5  1  0.19496788  0.62177865  0.09760836  1
  O  O6  1  0.69496788  0.09760836  0.62177865  1
  O  O7  1  0.80503212  0.37822135  0.90239164  1
  O  O8  1  0.63644886  0.80978495  0.97098510  1
  O  O9  1  0.86355114  0.02901490  0.19021505  1
  O  O10  1  0.36355114  0.19021505  0.02901490  1
  O  O11  1  0.13644886  0.97098510  0.80978495  1
  Na  Na12  1  0.75000000  0.69804801  0.30195199  1
  Na  Na13  1  0.25000000  0.30195199  0.69804801  1
  Sc  Sc14  1  0.75000000  0.10040328  0.89959672  1
  Sc  Sc15  1  0.25000000  0.89959672  0.10040328  1
  Ge  Ge16  1  0.73794320  0.62063662  0.80304722  1
  Ge  Ge17  1  0.76205680  0.19695278  0.37936338  1
  Ge  Ge18  1  0.26205680  0.37936338  0.19695278  1
  Ge  Ge19  1  0.23794320  0.80304722  0.62063662  1
