# generated using pymatgen
data_Na3VO4
_symmetry_space_group_name_H-M   'P 1'
_cell_length_a   7.18361117
_cell_length_b   6.15170907
_cell_length_c   5.60286425
_cell_angle_alpha   90.00009395
_cell_angle_beta   90.00000000
_cell_angle_gamma   90.00000000
_symmetry_Int_Tables_number   1
_chemical_formula_structural   Na3VO4
_chemical_formula_sum   'Na6 V2 O8'
_cell_volume   247.59889701
_cell_formula_units_Z   2
loop_
 _symmetry_equiv_pos_site_id
 _symmetry_equiv_pos_as_xyz
  1  'x, y, z'
loop_
 _atom_site_type_symbol
 _atom_site_label
 _atom_site_symmetry_multiplicity
 _atom_site_fract_x
 _atom_site_fract_y
 _atom_site_fract_z
 _atom_site_occupancy
  Na  Na0  1  0.00000000  0.15849388  0.48746553  1
  Na  Na1  1  0.24606973  0.32640845  0.98886672  1
  Na  Na2  1  0.25393249  0.67358723  0.48886566  1
  Na  Na3  1  0.50000000  0.84152002  0.98746833  1
  Na  Na4  1  0.74606751  0.67358723  0.48886566  1
  Na  Na5  1  0.75393027  0.32640845  0.98886672  1
  V  V6  1  0.00000000  0.82673266  0.00106633  1
  V  V7  1  0.50000000  0.17326057  0.50106850  1
  O  O8  1  0.00000000  0.09760819  0.90392755  1
  O  O9  1  0.00000000  0.82228271  0.31157171  1
  O  O10  1  0.20138251  0.69238826  0.90148307  1
  O  O11  1  0.29861746  0.30760938  0.40148190  1
  O  O12  1  0.50000000  0.17772065  0.81157180  1
  O  O13  1  0.50000000  0.90239368  0.40393354  1
  O  O14  1  0.70138254  0.30760938  0.40148190  1
  O  O15  1  0.79861749  0.69238826  0.90148307  1
