# generated using pymatgen
data_EuB4O7
_symmetry_space_group_name_H-M   'P 1'
_cell_length_a   4.27874905
_cell_length_b   4.47236048
_cell_length_c   10.84245234
_cell_angle_alpha   90.00000000
_cell_angle_beta   90.00000000
_cell_angle_gamma   90.00000000
_symmetry_Int_Tables_number   1
_chemical_formula_structural   EuB4O7
_chemical_formula_sum   'Eu2 B8 O14'
_cell_volume   207.48234064
_cell_formula_units_Z   2
loop_
 _symmetry_equiv_pos_site_id
 _symmetry_equiv_pos_as_xyz
  1  'x, y, z'
loop_
 _atom_site_type_symbol
 _atom_site_label
 _atom_site_symmetry_multiplicity
 _atom_site_fract_x
 _atom_site_fract_y
 _atom_site_fract_z
 _atom_site_occupancy
  B  B0  1  0.50564630  0.82255858  0.74886921  1
  B  B1  1  0.00564630  0.17744142  0.75113079  1
  B  B2  1  0.53145790  0.32594677  0.87838511  1
  B  B3  1  0.03145790  0.67405323  0.62161489  1
  B  B4  1  0.03145790  0.67405323  0.37838511  1
  B  B5  1  0.53145790  0.32594677  0.12161489  1
  B  B6  1  0.00564630  0.17744142  0.24886921  1
  B  B7  1  0.50564630  0.82255858  0.25113079  1
  O  O8  1  0.46110146  0.64205861  0.85777799  1
  O  O9  1  0.36589432  0.72938835  0.36430346  1
  O  O10  1  0.86589432  0.27061165  0.13569654  1
  O  O11  1  0.86589432  0.27061165  0.86430346  1
  O  O12  1  0.86179158  0.86945444  0.27897465  1
  O  O13  1  0.36179158  0.13054556  0.22102535  1
  O  O14  1  0.36179158  0.13054556  0.77897465  1
  O  O15  1  0.86179158  0.86945444  0.72102535  1
  O  O16  1  0.96110146  0.35794139  0.35777799  1
  O  O17  1  0.46110146  0.64205861  0.14222201  1
  O  O18  1  0.92487078  0.76885092  0.50000000  1
  O  O19  1  0.42487078  0.23114908  0.00000000  1
  O  O20  1  0.36589432  0.72938835  0.63569654  1
  O  O21  1  0.96110146  0.35794139  0.64222201  1
  Eu  Eu22  1  0.51034608  0.20965288  0.50000000  1
  Eu  Eu23  1  0.01034608  0.79034712  0.00000000  1
