# generated using pymatgen
data_Th2SeN2
_symmetry_space_group_name_H-M   'P 1'
_cell_length_a   4.04556704
_cell_length_b   4.04556704
_cell_length_c   7.19971378
_cell_angle_alpha   90.00000000
_cell_angle_beta   90.00000000
_cell_angle_gamma   120.00000000
_symmetry_Int_Tables_number   1
_chemical_formula_structural   Th2SeN2
_chemical_formula_sum   'Th2 Se1 N2'
_cell_volume   102.04804009
_cell_formula_units_Z   1
loop_
 _symmetry_equiv_pos_site_id
 _symmetry_equiv_pos_as_xyz
  1  'x, y, z'
loop_
 _atom_site_type_symbol
 _atom_site_label
 _atom_site_symmetry_multiplicity
 _atom_site_fract_x
 _atom_site_fract_y
 _atom_site_fract_z
 _atom_site_occupancy
  N  N0  1  0.33333333  0.66666667  0.62615739  1
  N  N1  1  0.66666667  0.33333333  0.37384261  1
  Se  Se2  1  0.00000000  0.00000000  0.00000000  1
  Th  Th3  1  0.66666667  0.33333333  0.70346227  1
  Th  Th4  1  0.33333333  0.66666667  0.29653773  1
