# generated using pymatgen
data_SmEu3
_symmetry_space_group_name_H-M   'P 1'
_cell_length_a   7.70363319
_cell_length_b   7.70363201
_cell_length_c   6.23659805
_cell_angle_alpha   90.00000000
_cell_angle_beta   90.00000000
_cell_angle_gamma   119.99999530
_symmetry_Int_Tables_number   1
_chemical_formula_structural   SmEu3
_chemical_formula_sum   'Sm2 Eu6'
_cell_volume   320.53062570
_cell_formula_units_Z   2
loop_
 _symmetry_equiv_pos_site_id
 _symmetry_equiv_pos_as_xyz
  1  'x, y, z'
loop_
 _atom_site_type_symbol
 _atom_site_label
 _atom_site_symmetry_multiplicity
 _atom_site_fract_x
 _atom_site_fract_y
 _atom_site_fract_z
 _atom_site_occupancy
  Sm  Sm0  1  0.66666700  0.33333300  0.24999900  1
  Sm  Sm1  1  0.33333400  0.66666700  0.75000000  1
  Eu  Eu2  1  0.83066074  0.16933926  0.75000000  1
  Eu  Eu3  1  0.33867853  0.16933926  0.75000000  1
  Eu  Eu4  1  0.83066174  0.66132247  0.75000000  1
  Eu  Eu5  1  0.16933926  0.83066074  0.24999900  1
  Eu  Eu6  1  0.66132147  0.83066074  0.24999900  1
  Eu  Eu7  1  0.16933926  0.33867753  0.24999900  1
