# generated using pymatgen
data_K2Mg(CO3)2
_symmetry_space_group_name_H-M   'P 1'
_cell_length_a   6.64587585
_cell_length_b   6.64587585
_cell_length_c   6.64587585
_cell_angle_alpha   46.18793561
_cell_angle_beta   46.18793563
_cell_angle_gamma   46.18793565
_symmetry_Int_Tables_number   1
_chemical_formula_structural   K2Mg(CO3)2
_chemical_formula_sum   'K2 Mg1 C2 O6'
_cell_volume   139.47549765
_cell_formula_units_Z   1
loop_
 _symmetry_equiv_pos_site_id
 _symmetry_equiv_pos_as_xyz
  1  'x, y, z'
loop_
 _atom_site_type_symbol
 _atom_site_label
 _atom_site_symmetry_multiplicity
 _atom_site_fract_x
 _atom_site_fract_y
 _atom_site_fract_z
 _atom_site_occupancy
  C  C0  1  0.59720933  0.59720933  0.59720933  1
  C  C1  1  0.40279067  0.40279067  0.40279067  1
  O  O2  1  0.69240522  0.26002931  0.26002931  1
  O  O3  1  0.26002931  0.26002931  0.69240522  1
  O  O4  1  0.26002931  0.69240522  0.26002931  1
  O  O5  1  0.73997069  0.30759478  0.73997069  1
  O  O6  1  0.73997069  0.73997069  0.30759478  1
  O  O7  1  0.30759478  0.73997069  0.73997069  1
  Mg  Mg8  1  0.00000000  0.00000000  0.00000000  1
  K  K9  1  0.78861026  0.78861026  0.78861026  1
  K  K10  1  0.21138974  0.21138974  0.21138974  1
