# generated using pymatgen
data_LaBO3
_symmetry_space_group_name_H-M   'P 1'
_cell_length_a   5.14452417
_cell_length_b   5.91933121
_cell_length_c   8.29142694
_cell_angle_alpha   90.00000000
_cell_angle_beta   90.00000000
_cell_angle_gamma   90.00000000
_symmetry_Int_Tables_number   1
_chemical_formula_structural   LaBO3
_chemical_formula_sum   'La4 B4 O12'
_cell_volume   252.49171454
_cell_formula_units_Z   4
loop_
 _symmetry_equiv_pos_site_id
 _symmetry_equiv_pos_as_xyz
  1  'x, y, z'
loop_
 _atom_site_type_symbol
 _atom_site_label
 _atom_site_symmetry_multiplicity
 _atom_site_fract_x
 _atom_site_fract_y
 _atom_site_fract_z
 _atom_site_occupancy
  B  B0  1  0.25000000  0.92063211  0.26068056  1
  B  B1  1  0.75000000  0.07936789  0.73931944  1
  B  B2  1  0.25000000  0.42063211  0.23931944  1
  B  B3  1  0.75000000  0.57936789  0.76068056  1
  O  O4  1  0.75000000  0.59172777  0.92670103  1
  O  O5  1  0.25000000  0.40827223  0.07329897  1
  O  O6  1  0.75000000  0.09172777  0.57329897  1
  O  O7  1  0.25000000  0.90827223  0.42670103  1
  O  O8  1  0.51771626  0.58415210  0.67632218  1
  O  O9  1  0.01771626  0.41584790  0.32367782  1
  O  O10  1  0.98228374  0.08415210  0.82367782  1
  O  O11  1  0.48228374  0.91584790  0.17632218  1
  O  O12  1  0.48228374  0.41584790  0.32367782  1
  O  O13  1  0.98228374  0.58415210  0.67632218  1
  O  O14  1  0.01771626  0.91584790  0.17632218  1
  O  O15  1  0.51771626  0.08415210  0.82367782  1
  La  La16  1  0.25000000  0.75647679  0.91532510  1
  La  La17  1  0.75000000  0.24352321  0.08467490  1
  La  La18  1  0.25000000  0.25647679  0.58467490  1
  La  La19  1  0.75000000  0.74352321  0.41532510  1
