# generated using pymatgen
data_K2Ti6O13
_symmetry_space_group_name_H-M   'P 1'
_cell_length_a   3.82020640
_cell_length_b   8.13943650
_cell_length_c   9.23646630
_cell_angle_alpha   99.79858926
_cell_angle_beta   90.00000000
_cell_angle_gamma   103.57232788
_symmetry_Int_Tables_number   1
_chemical_formula_structural   K2Ti6O13
_chemical_formula_sum   'K2 Ti6 O13'
_cell_volume   274.86954880
_cell_formula_units_Z   1
loop_
 _symmetry_equiv_pos_site_id
 _symmetry_equiv_pos_as_xyz
  1  'x, y, z'
loop_
 _atom_site_type_symbol
 _atom_site_label
 _atom_site_symmetry_multiplicity
 _atom_site_fract_x
 _atom_site_fract_y
 _atom_site_fract_z
 _atom_site_occupancy
  O  O0  1  0.83357336  0.66714671  0.08550437  1
  O  O1  1  0.16642664  0.33285329  0.91449563  1
  O  O2  1  0.64211373  0.28422746  0.11207341  1
  O  O3  1  0.35788627  0.71577254  0.88792659  1
  O  O4  1  0.86515748  0.73031496  0.38515774  1
  O  O5  1  0.13484252  0.26968504  0.61484226  1
  O  O6  1  0.70336386  0.40672772  0.42858763  1
  O  O7  1  0.29663614  0.59327228  0.57141237  1
  O  O8  1  0.00000000  0.00000000  0.00000000  1
  O  O9  1  0.23936837  0.47873675  0.23992585  1
  O  O10  1  0.76063163  0.52126325  0.76007415  1
  O  O11  1  0.07859895  0.15719790  0.29021494  1
  O  O12  1  0.92140105  0.84280210  0.70978506  1
  K  K13  1  0.54447247  0.08894494  0.75065757  1
  K  K14  1  0.45552753  0.91105506  0.24934243  1
  Ti  Ti15  1  0.76843381  0.53686763  0.22359276  1
  Ti  Ti16  1  0.23156619  0.46313237  0.77640724  1
  Ti  Ti17  1  0.82846655  0.65693309  0.56254540  1
  Ti  Ti18  1  0.17153345  0.34306691  0.43745460  1
  Ti  Ti19  1  0.88532491  0.77064983  0.90402200  1
  Ti  Ti20  1  0.11467509  0.22935017  0.09597800  1
