# generated using pymatgen
data_Cs3HoO3
_symmetry_space_group_name_H-M   'P 1'
_cell_length_a   12.28463082
_cell_length_b   7.62724818
_cell_length_c   8.32371531
_cell_angle_alpha   90.00000000
_cell_angle_beta   95.25644130
_cell_angle_gamma   90.00000000
_symmetry_Int_Tables_number   1
_chemical_formula_structural   Cs3HoO3
_chemical_formula_sum   'Cs12 Ho4 O12'
_cell_volume   776.63505128
_cell_formula_units_Z   4
loop_
 _symmetry_equiv_pos_site_id
 _symmetry_equiv_pos_as_xyz
  1  'x, y, z'
loop_
 _atom_site_type_symbol
 _atom_site_label
 _atom_site_symmetry_multiplicity
 _atom_site_fract_x
 _atom_site_fract_y
 _atom_site_fract_z
 _atom_site_occupancy
  Cs  Cs0  1  0.07819340  0.33104848  0.64544969  1
  Cs  Cs1  1  0.15522899  0.61993006  0.06328638  1
  Cs  Cs2  1  0.19169937  0.80823206  0.62267929  1
  Cs  Cs3  1  0.30830063  0.30823206  0.37732071  1
  Cs  Cs4  1  0.34477101  0.11993006  0.93671362  1
  Cs  Cs5  1  0.42180660  0.83104848  0.35455031  1
  Cs  Cs6  1  0.57819340  0.16895152  0.64544969  1
  Cs  Cs7  1  0.65522899  0.88006994  0.06328638  1
  Cs  Cs8  1  0.69169937  0.69176794  0.62267929  1
  Cs  Cs9  1  0.80830063  0.19176794  0.37732071  1
  Cs  Cs10  1  0.84477101  0.38006994  0.93671362  1
  Cs  Cs11  1  0.92180660  0.66895152  0.35455031  1
  Ho  Ho12  1  0.06581272  0.08651910  0.15779845  1
  Ho  Ho13  1  0.43418728  0.58651910  0.84220155  1
  Ho  Ho14  1  0.56581272  0.41348090  0.15779845  1
  Ho  Ho15  1  0.93418728  0.91348090  0.84220155  1
  O  O16  1  0.04295609  0.34511855  0.24668347  1
  O  O17  1  0.08948149  0.05184726  0.89920697  1
  O  O18  1  0.18400359  0.94261795  0.30468420  1
  O  O19  1  0.31599641  0.44261795  0.69531580  1
  O  O20  1  0.41051851  0.55184726  0.10079303  1
  O  O21  1  0.45704391  0.84511855  0.75331653  1
  O  O22  1  0.54295609  0.15488145  0.24668347  1
  O  O23  1  0.58948149  0.44815274  0.89920697  1
  O  O24  1  0.68400359  0.55738205  0.30468420  1
  O  O25  1  0.81599641  0.05738205  0.69531580  1
  O  O26  1  0.91051851  0.94815274  0.10079303  1
  O  O27  1  0.95704391  0.65488145  0.75331653  1
