# generated using pymatgen
data_LiAlB14
_symmetry_space_group_name_H-M   'P 1'
_cell_length_a   5.85398613
_cell_length_b   7.20160187
_cell_length_c   7.20160187
_cell_angle_alpha   68.75067897
_cell_angle_beta   66.01882990
_cell_angle_gamma   66.01882992
_symmetry_Int_Tables_number   1
_chemical_formula_structural   LiAlB14
_chemical_formula_sum   'Li2 Al2 B28'
_cell_volume   246.27729596
_cell_formula_units_Z   2
loop_
 _symmetry_equiv_pos_site_id
 _symmetry_equiv_pos_as_xyz
  1  'x, y, z'
loop_
 _atom_site_type_symbol
 _atom_site_label
 _atom_site_symmetry_multiplicity
 _atom_site_fract_x
 _atom_site_fract_y
 _atom_site_fract_z
 _atom_site_occupancy
  Li  Li0  1  0.75000000  0.60015118  0.89984882  1
  Li  Li1  1  0.25000000  0.39984882  0.10015118  1
  B  B2  1  0.59670293  0.39776729  0.72652194  1
  B  B3  1  0.64947873  0.97017156  0.73087098  1
  B  B4  1  0.83085142  0.96385146  0.87673321  1
  B  B5  1  0.67143609  0.03614854  0.12326679  1
  B  B6  1  0.66914858  0.62326679  0.53614854  1
  B  B7  1  0.82856391  0.37673321  0.46385146  1
  B  B8  1  0.16914858  0.03614854  0.12326679  1
  B  B9  1  0.32856391  0.96385146  0.87673321  1
  B  B10  1  0.33085142  0.37673321  0.46385146  1
  B  B11  1  0.17143609  0.62326679  0.53614854  1
  B  B12  1  0.90329707  0.77347806  0.10223271  1
  B  B13  1  0.77900783  0.22652194  0.89776729  1
  B  B14  1  0.09670293  0.22652194  0.89776729  1
  B  B15  1  0.72099217  0.60223271  0.27347806  1
  B  B16  1  0.22099217  0.77347806  0.10223271  1
  B  B17  1  0.85052127  0.76912902  0.52982844  1
  B  B18  1  0.40329707  0.60223271  0.27347806  1
  B  B19  1  0.27900783  0.39776729  0.72652194  1
  B  B20  1  0.08535403  0.08469824  0.74459370  1
  B  B21  1  0.91464597  0.91530176  0.25540630  1
  B  B22  1  0.41464597  0.75540630  0.41530176  1
  B  B23  1  0.58535403  0.24459370  0.58469824  1
  B  B24  1  0.16646272  0.80170723  0.86536734  1
  B  B25  1  0.83353728  0.19829277  0.13463266  1
  B  B26  1  0.33353728  0.63463266  0.69829277  1
  B  B27  1  0.66646272  0.36536734  0.30170723  1
  B  B28  1  0.14947873  0.23087098  0.47017156  1
  B  B29  1  0.35052127  0.02982844  0.26912902  1
  Al  Al30  1  0.00000000  0.00000000  0.50000000  1
  Al  Al31  1  0.50000000  0.00000000  0.50000000  1
