# generated using pymatgen
data_Na6Sn2B4SO16
_symmetry_space_group_name_H-M   'P 1'
_cell_length_a   10.03717451
_cell_length_b   10.03717519
_cell_length_c   10.03717532
_cell_angle_alpha   90.00000429
_cell_angle_beta   60.00000269
_cell_angle_gamma   60.00000229
_symmetry_Int_Tables_number   1
_chemical_formula_structural   Na6Sn2B4SO16
_chemical_formula_sum   'Na12 Sn4 B8 S2 O32'
_cell_volume   715.02217066
_cell_formula_units_Z   2
loop_
 _symmetry_equiv_pos_site_id
 _symmetry_equiv_pos_as_xyz
  1  'x, y, z'
loop_
 _atom_site_type_symbol
 _atom_site_label
 _atom_site_symmetry_multiplicity
 _atom_site_fract_x
 _atom_site_fract_y
 _atom_site_fract_z
 _atom_site_occupancy
  Na  Na0  1  0.75000000  0.91149522  0.66149522  1
  Na  Na1  1  0.67700955  0.66149522  0.91149522  1
  Na  Na2  1  0.75000000  0.33850478  0.66149522  1
  Na  Na3  1  0.75000000  0.91149522  0.08850478  1
  Na  Na4  1  0.82299045  0.08850478  0.33850478  1
  Na  Na5  1  0.25000000  0.66149522  0.91149522  1
  Na  Na6  1  0.75000000  0.33850478  0.08850478  1
  Na  Na7  1  0.17700955  0.91149522  0.66149522  1
  Na  Na8  1  0.25000000  0.08850478  0.91149522  1
  Na  Na9  1  0.25000000  0.66149522  0.33850478  1
  Na  Na10  1  0.32299045  0.33850478  0.08850478  1
  Na  Na11  1  0.25000000  0.08850478  0.33850478  1
  Sn  Sn12  1  0.50000000  0.50000000  0.50000000  1
  Sn  Sn13  1  0.50000000  0.00000000  0.50000000  1
  Sn  Sn14  1  0.00000000  0.50000000  0.50000000  1
  Sn  Sn15  1  0.00000000  0.50000000  0.00000000  1
  B  B16  1  0.93189575  0.71594788  0.28405212  1
  B  B17  1  0.56810425  0.71594788  0.64784363  1
  B  B18  1  0.93189575  0.35215637  0.28405212  1
  B  B19  1  0.56810425  0.71594788  0.28405212  1
  B  B20  1  0.43189575  0.28405212  0.71594788  1
  B  B21  1  0.43189575  0.28405212  0.35215637  1
  B  B22  1  0.06810425  0.64784363  0.71594788  1
  B  B23  1  0.06810425  0.28405212  0.71594788  1
  S  S24  1  0.75000000  0.12500000  0.87500000  1
  S  S25  1  0.25000000  0.87500000  0.12500000  1
  O  O26  1  0.94074217  0.65177252  0.69355537  1
  O  O27  1  0.94074217  0.40748531  0.86570146  1
  O  O28  1  0.95821715  0.69355537  0.40748531  1
  O  O29  1  0.78607106  0.86570146  0.30644463  1
  O  O30  1  0.87165893  0.06417054  0.93582946  1
  O  O31  1  0.71392894  0.59251469  0.65177252  1
  O  O32  1  0.54178285  0.86570146  0.65177252  1
  O  O33  1  0.87165893  0.06417054  0.69251261  1
  O  O34  1  0.62834107  0.30748739  0.93582946  1
  O  O35  1  0.95821715  0.34822748  0.13429854  1
  O  O36  1  0.78607106  0.34822748  0.40748531  1
  O  O37  1  0.62834107  0.06417054  0.93582946  1
  O  O38  1  0.71392894  0.69355537  0.13429854  1
  O  O39  1  0.44074217  0.69355537  0.65177252  1
  O  O40  1  0.44074217  0.86570146  0.40748531  1
  O  O41  1  0.45821715  0.40748531  0.69355537  1
  O  O42  1  0.54178285  0.59251469  0.30644463  1
  O  O43  1  0.55925783  0.13429854  0.59251469  1
  O  O44  1  0.55925783  0.30644463  0.34822748  1
  O  O45  1  0.28607106  0.30644463  0.86570146  1
  O  O46  1  0.37165893  0.93582946  0.06417054  1
  O  O47  1  0.21392894  0.65177252  0.59251469  1
  O  O48  1  0.04178285  0.65177252  0.86570146  1
  O  O49  1  0.12834107  0.93582946  0.30748739  1
  O  O50  1  0.37165893  0.69251261  0.06417054  1
  O  O51  1  0.45821715  0.13429854  0.34822748  1
  O  O52  1  0.28607106  0.40748531  0.34822748  1
  O  O53  1  0.12834107  0.93582946  0.06417054  1
  O  O54  1  0.21392894  0.13429854  0.69355537  1
  O  O55  1  0.04178285  0.30644463  0.59251469  1
  O  O56  1  0.05925783  0.59251469  0.13429854  1
  O  O57  1  0.05925783  0.34822748  0.30644463  1
