# generated using pymatgen
data_Ta5As4
_symmetry_space_group_name_H-M   'P 1'
_cell_length_a   3.45166272
_cell_length_b   7.20846873
_cell_length_c   7.20846874
_cell_angle_alpha   86.71397087
_cell_angle_beta   76.14785472
_cell_angle_gamma   76.14785476
_symmetry_Int_Tables_number   1
_chemical_formula_structural   Ta5As4
_chemical_formula_sum   'Ta5 As4'
_cell_volume   169.07461616
_cell_formula_units_Z   1
loop_
 _symmetry_equiv_pos_site_id
 _symmetry_equiv_pos_as_xyz
  1  'x, y, z'
loop_
 _atom_site_type_symbol
 _atom_site_label
 _atom_site_symmetry_multiplicity
 _atom_site_fract_x
 _atom_site_fract_y
 _atom_site_fract_z
 _atom_site_occupancy
  As  As0  1  0.94810601  0.76697611  0.33681186  1
  As  As1  1  0.28491787  0.66318814  0.76697611  1
  As  As2  1  0.71508213  0.33681186  0.23302389  1
  As  As3  1  0.05189399  0.23302389  0.66318814  1
  Ta  Ta4  1  0.69406179  0.93787850  0.67399792  1
  Ta  Ta5  1  0.36805971  0.32600208  0.93787850  1
  Ta  Ta6  1  0.63194029  0.67399792  0.06212150  1
  Ta  Ta7  1  0.30593821  0.06212150  0.32600208  1
  Ta  Ta8  1  0.00000000  0.00000000  0.00000000  1
