# generated using pymatgen
data_Li3Ni
_symmetry_space_group_name_H-M   'P 1'
_cell_length_a   4.64780383
_cell_length_b   4.64778301
_cell_length_c   4.64801700
_cell_angle_alpha   131.61030037
_cell_angle_beta   131.60988643
_cell_angle_gamma   70.82505922
_symmetry_Int_Tables_number   1
_chemical_formula_structural   Li3Ni
_chemical_formula_sum   'Li3 Ni1'
_cell_volume   54.98115165
_cell_formula_units_Z   1
loop_
 _symmetry_equiv_pos_site_id
 _symmetry_equiv_pos_as_xyz
  1  'x, y, z'
loop_
 _atom_site_type_symbol
 _atom_site_label
 _atom_site_symmetry_multiplicity
 _atom_site_fract_x
 _atom_site_fract_y
 _atom_site_fract_z
 _atom_site_occupancy
  Li  Li0  1  0.74997093  0.25003145  0.49999741  1
  Li  Li1  1  0.25002619  0.74996904  0.49999427  1
  Li  Li2  1  0.49999651  0.49999989  0.99999285  1
  Ni  Ni3  1  0.00000237  0.99999562  0.00001148  1
