# generated using pymatgen
data_AgF2
_symmetry_space_group_name_H-M   'P 1'
_cell_length_a   3.71136892
_cell_length_b   5.12801811
_cell_length_c   5.05075890
_cell_angle_alpha   90.00000000
_cell_angle_beta   95.39197622
_cell_angle_gamma   90.00000000
_symmetry_Int_Tables_number   1
_chemical_formula_structural   AgF2
_chemical_formula_sum   'Ag2 F4'
_cell_volume   95.70053282
_cell_formula_units_Z   2
loop_
 _symmetry_equiv_pos_site_id
 _symmetry_equiv_pos_as_xyz
  1  'x, y, z'
loop_
 _atom_site_type_symbol
 _atom_site_label
 _atom_site_symmetry_multiplicity
 _atom_site_fract_x
 _atom_site_fract_y
 _atom_site_fract_z
 _atom_site_occupancy
  F  F0  1  0.44106141  0.79384895  0.20420135  1
  F  F1  1  0.05893859  0.29384895  0.29579865  1
  F  F2  1  0.94106141  0.70615105  0.70420135  1
  F  F3  1  0.55893859  0.20615105  0.79579865  1
  Ag  Ag4  1  0.50000000  0.50000000  0.50000000  1
  Ag  Ag5  1  0.00000000  0.00000000  0.00000000  1
