# generated using pymatgen
data_Li3Ni
_symmetry_space_group_name_H-M   'P 1'
_cell_length_a   5.43662430
_cell_length_b   5.43662507
_cell_length_c   4.46532068
_cell_angle_alpha   90.00000000
_cell_angle_beta   90.00000000
_cell_angle_gamma   119.99998958
_symmetry_Int_Tables_number   1
_chemical_formula_structural   Li3Ni
_chemical_formula_sum   'Li6 Ni2'
_cell_volume   114.29889614
_cell_formula_units_Z   2
loop_
 _symmetry_equiv_pos_site_id
 _symmetry_equiv_pos_as_xyz
  1  'x, y, z'
loop_
 _atom_site_type_symbol
 _atom_site_label
 _atom_site_symmetry_multiplicity
 _atom_site_fract_x
 _atom_site_fract_y
 _atom_site_fract_z
 _atom_site_occupancy
  Li  Li0  1  0.17459378  0.34918756  0.25000100  1
  Li  Li1  1  0.65081344  0.82540622  0.25000100  1
  Li  Li2  1  0.17459278  0.82540622  0.25000100  1
  Li  Li3  1  0.82540622  0.65081144  0.75000200  1
  Li  Li4  1  0.34918656  0.17459278  0.75000200  1
  Li  Li5  1  0.82540722  0.17459278  0.75000200  1
  Ni  Ni6  1  0.33333300  0.66666600  0.75000200  1
  Ni  Ni7  1  0.66666700  0.33333300  0.25000100  1
