# generated using pymatgen
data_SrPuO4
_symmetry_space_group_name_H-M   'P 1'
_cell_length_a   6.56728923
_cell_length_b   6.56728923
_cell_length_c   6.56728923
_cell_angle_alpha   35.01315158
_cell_angle_beta   35.01315155
_cell_angle_gamma   35.01315156
_symmetry_Int_Tables_number   1
_chemical_formula_structural   SrPuO4
_chemical_formula_sum   'Sr1 Pu1 O4'
_cell_volume   83.25855832
_cell_formula_units_Z   1
loop_
 _symmetry_equiv_pos_site_id
 _symmetry_equiv_pos_as_xyz
  1  'x, y, z'
loop_
 _atom_site_type_symbol
 _atom_site_label
 _atom_site_symmetry_multiplicity
 _atom_site_fract_x
 _atom_site_fract_y
 _atom_site_fract_z
 _atom_site_occupancy
  O  O0  1  0.64032815  0.64032815  0.64032815  1
  O  O1  1  0.35967185  0.35967185  0.35967185  1
  O  O2  1  0.10643706  0.10643706  0.10643706  1
  O  O3  1  0.89356294  0.89356294  0.89356294  1
  Sr  Sr4  1  0.50000000  0.50000000  0.50000000  1
  Pu  Pu5  1  0.00000000  0.00000000  0.00000000  1
