# generated using pymatgen
data_CsTe
_symmetry_space_group_name_H-M   'P 1'
_cell_length_a   5.10411592
_cell_length_b   6.32335126
_cell_length_c   11.82244512
_cell_angle_alpha   90.00000000
_cell_angle_beta   90.00000000
_cell_angle_gamma   90.00000000
_symmetry_Int_Tables_number   1
_chemical_formula_structural   CsTe
_chemical_formula_sum   'Cs4 Te4'
_cell_volume   381.57080933
_cell_formula_units_Z   4
loop_
 _symmetry_equiv_pos_site_id
 _symmetry_equiv_pos_as_xyz
  1  'x, y, z'
loop_
 _atom_site_type_symbol
 _atom_site_label
 _atom_site_symmetry_multiplicity
 _atom_site_fract_x
 _atom_site_fract_y
 _atom_site_fract_z
 _atom_site_occupancy
  Te  Te0  1  0.00000000  0.36470900  0.40464075  1
  Te  Te1  1  0.00000000  0.63529100  0.59535925  1
  Te  Te2  1  0.00000000  0.86470900  0.09535925  1
  Te  Te3  1  0.00000000  0.13529100  0.90464075  1
  Cs  Cs4  1  0.50000000  0.82200021  0.36420582  1
  Cs  Cs5  1  0.50000000  0.17799979  0.63579418  1
  Cs  Cs6  1  0.50000000  0.32200021  0.13579418  1
  Cs  Cs7  1  0.50000000  0.67799979  0.86420582  1
