# generated using pymatgen
data_Rb3PdF5
_symmetry_space_group_name_H-M   'P 1'
_cell_length_a   6.54584899
_cell_length_b   7.61217891
_cell_length_c   7.61217891
_cell_angle_alpha   90.00000000
_cell_angle_beta   90.00000000
_cell_angle_gamma   90.00000000
_symmetry_Int_Tables_number   1
_chemical_formula_structural   Rb3PdF5
_chemical_formula_sum   'Rb6 Pd2 F10'
_cell_volume   379.30097243
_cell_formula_units_Z   2
loop_
 _symmetry_equiv_pos_site_id
 _symmetry_equiv_pos_as_xyz
  1  'x, y, z'
loop_
 _atom_site_type_symbol
 _atom_site_label
 _atom_site_symmetry_multiplicity
 _atom_site_fract_x
 _atom_site_fract_y
 _atom_site_fract_z
 _atom_site_occupancy
  F  F0  1  0.78709270  0.63219537  0.13219537  1
  F  F1  1  0.78709270  0.36780463  0.86780463  1
  F  F2  1  0.78709270  0.13219537  0.36780463  1
  F  F3  1  0.78709270  0.86780463  0.63219537  1
  F  F4  1  0.21290730  0.63219537  0.13219537  1
  F  F5  1  0.21290730  0.86780463  0.63219537  1
  F  F6  1  0.21290730  0.13219537  0.36780463  1
  F  F7  1  0.21290730  0.36780463  0.86780463  1
  F  F8  1  0.50000000  0.00000000  0.00000000  1
  F  F9  1  0.50000000  0.50000000  0.50000000  1
  Rb  Rb10  1  0.00000000  0.00000000  0.00000000  1
  Rb  Rb11  1  0.00000000  0.50000000  0.50000000  1
  Rb  Rb12  1  0.50000000  0.82370265  0.32370265  1
  Rb  Rb13  1  0.50000000  0.67629735  0.82370265  1
  Rb  Rb14  1  0.50000000  0.32370265  0.17629735  1
  Rb  Rb15  1  0.50000000  0.17629735  0.67629735  1
  Pd  Pd16  1  0.00000000  0.00000000  0.50000000  1
  Pd  Pd17  1  0.00000000  0.50000000  0.00000000  1
