# generated using pymatgen
data_UVC2
_symmetry_space_group_name_H-M   'P 1'
_cell_length_a   3.19117739
_cell_length_b   5.56007650
_cell_length_c   10.77836691
_cell_angle_alpha   90.00000000
_cell_angle_beta   90.00000000
_cell_angle_gamma   90.00000000
_symmetry_Int_Tables_number   1
_chemical_formula_structural   UVC2
_chemical_formula_sum   'U4 V4 C8'
_cell_volume   191.24261643
_cell_formula_units_Z   4
loop_
 _symmetry_equiv_pos_site_id
 _symmetry_equiv_pos_as_xyz
  1  'x, y, z'
loop_
 _atom_site_type_symbol
 _atom_site_label
 _atom_site_symmetry_multiplicity
 _atom_site_fract_x
 _atom_site_fract_y
 _atom_site_fract_z
 _atom_site_occupancy
  C  C0  1  0.25000000  0.23476345  0.49070054  1
  C  C1  1  0.75000000  0.76523655  0.50929946  1
  C  C2  1  0.25000000  0.73476345  0.00929946  1
  C  C3  1  0.75000000  0.26523655  0.99070054  1
  C  C4  1  0.25000000  0.66803577  0.74592666  1
  C  C5  1  0.75000000  0.83196423  0.24592666  1
  C  C6  1  0.25000000  0.16803577  0.75407334  1
  C  C7  1  0.75000000  0.33196423  0.25407334  1
  V  V8  1  0.75000000  0.57833634  0.10064912  1
  V  V9  1  0.75000000  0.07833634  0.39935088  1
  V  V10  1  0.25000000  0.42166366  0.89935088  1
  V  V11  1  0.25000000  0.92166366  0.60064912  1
  U  U12  1  0.25000000  0.57829716  0.35876241  1
  U  U13  1  0.75000000  0.42170284  0.64123759  1
  U  U14  1  0.25000000  0.07829716  0.14123759  1
  U  U15  1  0.75000000  0.92170284  0.85876241  1
