# generated using pymatgen
data_Tl6TeO6
_symmetry_space_group_name_H-M   'P 1'
_cell_length_a   6.73049253
_cell_length_b   6.73049254
_cell_length_c   6.73049253
_cell_angle_alpha   92.78943694
_cell_angle_beta   92.78943703
_cell_angle_gamma   92.78943703
_symmetry_Int_Tables_number   1
_chemical_formula_structural   Tl6TeO6
_chemical_formula_sum   'Tl6 Te1 O6'
_cell_volume   303.76782775
_cell_formula_units_Z   1
loop_
 _symmetry_equiv_pos_site_id
 _symmetry_equiv_pos_as_xyz
  1  'x, y, z'
loop_
 _atom_site_type_symbol
 _atom_site_label
 _atom_site_symmetry_multiplicity
 _atom_site_fract_x
 _atom_site_fract_y
 _atom_site_fract_z
 _atom_site_occupancy
  O  O0  1  0.03501665  0.95875365  0.71143096  1
  O  O1  1  0.95875365  0.71143096  0.03501665  1
  O  O2  1  0.71143096  0.03501665  0.95875365  1
  O  O3  1  0.96498335  0.04124635  0.28856904  1
  O  O4  1  0.04124635  0.28856904  0.96498335  1
  O  O5  1  0.28856904  0.96498335  0.04124635  1
  Te  Te6  1  0.00000000  0.00000000  0.00000000  1
  Tl  Tl7  1  0.73682025  0.44381909  0.87057123  1
  Tl  Tl8  1  0.44381909  0.87057123  0.73682025  1
  Tl  Tl9  1  0.87057123  0.73682025  0.44381909  1
  Tl  Tl10  1  0.26317975  0.55618091  0.12942877  1
  Tl  Tl11  1  0.55618091  0.12942877  0.26317975  1
  Tl  Tl12  1  0.12942877  0.26317975  0.55618091  1
