# generated using pymatgen
data_CsRb2PdF5
_symmetry_space_group_name_H-M   'P 1'
_cell_length_a   6.54181131
_cell_length_b   7.74087043
_cell_length_c   7.74087043
_cell_angle_alpha   90.00000000
_cell_angle_beta   90.00000000
_cell_angle_gamma   90.00000000
_symmetry_Int_Tables_number   1
_chemical_formula_structural   CsRb2PdF5
_chemical_formula_sum   'Cs2 Rb4 Pd2 F10'
_cell_volume   391.99236623
_cell_formula_units_Z   2
loop_
 _symmetry_equiv_pos_site_id
 _symmetry_equiv_pos_as_xyz
  1  'x, y, z'
loop_
 _atom_site_type_symbol
 _atom_site_label
 _atom_site_symmetry_multiplicity
 _atom_site_fract_x
 _atom_site_fract_y
 _atom_site_fract_z
 _atom_site_occupancy
  F  F0  1  0.78409997  0.62864199  0.12864199  1
  F  F1  1  0.78409997  0.37135801  0.87135801  1
  F  F2  1  0.78409997  0.12864199  0.37135801  1
  F  F3  1  0.78409997  0.87135801  0.62864199  1
  F  F4  1  0.21590003  0.62864199  0.12864199  1
  F  F5  1  0.21590003  0.87135801  0.62864199  1
  F  F6  1  0.21590003  0.12864199  0.37135801  1
  F  F7  1  0.21590003  0.37135801  0.87135801  1
  F  F8  1  0.50000000  0.00000000  0.00000000  1
  F  F9  1  0.50000000  0.50000000  0.50000000  1
  Rb  Rb10  1  0.50000000  0.32187095  0.17812905  1
  Rb  Rb11  1  0.50000000  0.17812905  0.67812905  1
  Rb  Rb12  1  0.50000000  0.67812905  0.82187095  1
  Rb  Rb13  1  0.50000000  0.82187095  0.32187095  1
  Pd  Pd14  1  0.00000000  0.50000000  0.00000000  1
  Pd  Pd15  1  0.00000000  0.00000000  0.50000000  1
  Cs  Cs16  1  0.00000000  0.50000000  0.50000000  1
  Cs  Cs17  1  0.00000000  0.00000000  0.00000000  1
