# generated using pymatgen
data_CePO4
_symmetry_space_group_name_H-M   'P 1'
_cell_length_a   7.19048114
_cell_length_b   7.19048115
_cell_length_c   6.48746025
_cell_angle_alpha   90.00000000
_cell_angle_beta   90.00000000
_cell_angle_gamma   119.99999997
_symmetry_Int_Tables_number   1
_chemical_formula_structural   CePO4
_chemical_formula_sum   'Ce3 P3 O12'
_cell_volume   290.48335042
_cell_formula_units_Z   3
loop_
 _symmetry_equiv_pos_site_id
 _symmetry_equiv_pos_as_xyz
  1  'x, y, z'
loop_
 _atom_site_type_symbol
 _atom_site_label
 _atom_site_symmetry_multiplicity
 _atom_site_fract_x
 _atom_site_fract_y
 _atom_site_fract_z
 _atom_site_occupancy
  O  O0  1  0.44619818  0.30902812  0.98000147  1
  O  O1  1  0.69097188  0.13717006  0.64666814  1
  O  O2  1  0.86282994  0.55380182  0.31333480  1
  O  O3  1  0.13717006  0.44619818  0.31333480  1
  O  O4  1  0.55380182  0.86282994  0.35333186  1
  O  O5  1  0.55380182  0.69097188  0.98000147  1
  O  O6  1  0.44619818  0.13717006  0.35333186  1
  O  O7  1  0.30902812  0.44619818  0.68666520  1
  O  O8  1  0.13717006  0.69097188  0.01999853  1
  O  O9  1  0.86282994  0.30902812  0.01999853  1
  O  O10  1  0.69097188  0.55380182  0.68666520  1
  O  O11  1  0.30902812  0.86282994  0.64666814  1
  P  P12  1  0.00000000  0.50000000  0.16666667  1
  P  P13  1  0.50000000  0.50000000  0.83333333  1
  P  P14  1  0.50000000  0.00000000  0.50000000  1
  Ce  Ce15  1  0.00000000  0.50000000  0.66666667  1
  Ce  Ce16  1  0.50000000  0.50000000  0.33333333  1
  Ce  Ce17  1  0.50000000  0.00000000  0.00000000  1
