# generated using pymatgen
data_Lu2CdS4
_symmetry_space_group_name_H-M   'P 1'
_cell_length_a   7.86490892
_cell_length_b   7.86490892
_cell_length_c   7.86490892
_cell_angle_alpha   59.99999999
_cell_angle_beta   59.99999999
_cell_angle_gamma   59.99999999
_symmetry_Int_Tables_number   1
_chemical_formula_structural   Lu2CdS4
_chemical_formula_sum   'Lu4 Cd2 S8'
_cell_volume   344.00606118
_cell_formula_units_Z   2
loop_
 _symmetry_equiv_pos_site_id
 _symmetry_equiv_pos_as_xyz
  1  'x, y, z'
loop_
 _atom_site_type_symbol
 _atom_site_label
 _atom_site_symmetry_multiplicity
 _atom_site_fract_x
 _atom_site_fract_y
 _atom_site_fract_z
 _atom_site_occupancy
  S  S0  1  0.74128480  0.74128480  0.74128480  1
  S  S1  1  0.25871520  0.25871520  0.72385441  1
  S  S2  1  0.25871520  0.72385441  0.25871520  1
  S  S3  1  0.72385441  0.25871520  0.25871520  1
  S  S4  1  0.74128480  0.27614559  0.74128480  1
  S  S5  1  0.27614559  0.74128480  0.74128480  1
  S  S6  1  0.25871520  0.25871520  0.25871520  1
  S  S7  1  0.74128480  0.74128480  0.27614559  1
  Cd  Cd8  1  0.87500000  0.87500000  0.87500000  1
  Cd  Cd9  1  0.12500000  0.12500000  0.12500000  1
  Lu  Lu10  1  0.50000000  0.50000000  0.00000000  1
  Lu  Lu11  1  0.50000000  0.50000000  0.50000000  1
  Lu  Lu12  1  0.00000000  0.50000000  0.50000000  1
  Lu  Lu13  1  0.50000000  0.00000000  0.50000000  1
