# generated using pymatgen
data_K(MoS)3
_symmetry_space_group_name_H-M   'P 1'
_cell_length_a   9.00104589
_cell_length_b   9.00104589
_cell_length_c   4.45531395
_cell_angle_alpha   90.00000000
_cell_angle_beta   90.00000000
_cell_angle_gamma   120.00000003
_symmetry_Int_Tables_number   1
_chemical_formula_structural   K(MoS)3
_chemical_formula_sum   'K2 Mo6 S6'
_cell_volume   312.60426263
_cell_formula_units_Z   2
loop_
 _symmetry_equiv_pos_site_id
 _symmetry_equiv_pos_as_xyz
  1  'x, y, z'
loop_
 _atom_site_type_symbol
 _atom_site_label
 _atom_site_symmetry_multiplicity
 _atom_site_fract_x
 _atom_site_fract_y
 _atom_site_fract_z
 _atom_site_occupancy
  S  S0  1  0.93546899  0.65206942  0.75000000  1
  S  S1  1  0.06453101  0.34793058  0.25000000  1
  S  S2  1  0.28339956  0.93546899  0.25000000  1
  S  S3  1  0.65206942  0.71660044  0.25000000  1
  S  S4  1  0.34793058  0.28339956  0.75000000  1
  S  S5  1  0.71660044  0.06453101  0.75000000  1
  K  K6  1  0.33333333  0.66666667  0.75000000  1
  K  K7  1  0.66666667  0.33333333  0.25000000  1
  Mo  Mo8  1  0.96637820  0.81430243  0.25000000  1
  Mo  Mo9  1  0.84792423  0.03362180  0.25000000  1
  Mo  Mo10  1  0.15207577  0.96637820  0.75000000  1
  Mo  Mo11  1  0.03362180  0.18569757  0.75000000  1
  Mo  Mo12  1  0.18569757  0.15207577  0.25000000  1
  Mo  Mo13  1  0.81430243  0.84792423  0.75000000  1
