# generated using pymatgen
data_MnB
_symmetry_space_group_name_H-M   'P 1'
_cell_length_a   2.98341879
_cell_length_b   4.12349687
_cell_length_c   5.46198735
_cell_angle_alpha   90.00000000
_cell_angle_beta   90.00000000
_cell_angle_gamma   90.00000000
_symmetry_Int_Tables_number   1
_chemical_formula_structural   MnB
_chemical_formula_sum   'Mn4 B4'
_cell_volume   67.19401313
_cell_formula_units_Z   4
loop_
 _symmetry_equiv_pos_site_id
 _symmetry_equiv_pos_as_xyz
  1  'x, y, z'
loop_
 _atom_site_type_symbol
 _atom_site_label
 _atom_site_symmetry_multiplicity
 _atom_site_fract_x
 _atom_site_fract_y
 _atom_site_fract_z
 _atom_site_occupancy
  B  B0  1  0.25000000  0.88514686  0.53329689  1
  B  B1  1  0.75000000  0.11485314  0.46670311  1
  B  B2  1  0.75000000  0.38514686  0.96670311  1
  B  B3  1  0.25000000  0.61485314  0.03329689  1
  Mn  Mn4  1  0.25000000  0.37700069  0.67474899  1
  Mn  Mn5  1  0.75000000  0.62299931  0.32525101  1
  Mn  Mn6  1  0.75000000  0.87700069  0.82525101  1
  Mn  Mn7  1  0.25000000  0.12299931  0.17474899  1
