# generated using pymatgen
data_Sr(P3Pt2)2
_symmetry_space_group_name_H-M   'P 1'
_cell_length_a   5.80398617
_cell_length_b   5.80398617
_cell_length_c   11.55507914
_cell_angle_alpha   89.53743735
_cell_angle_beta   89.53743739
_cell_angle_gamma   88.01527076
_symmetry_Int_Tables_number   1
_chemical_formula_structural   Sr(P3Pt2)2
_chemical_formula_sum   'Sr2 P12 Pt8'
_cell_volume   388.98932921
_cell_formula_units_Z   2
loop_
 _symmetry_equiv_pos_site_id
 _symmetry_equiv_pos_as_xyz
  1  'x, y, z'
loop_
 _atom_site_type_symbol
 _atom_site_label
 _atom_site_symmetry_multiplicity
 _atom_site_fract_x
 _atom_site_fract_y
 _atom_site_fract_z
 _atom_site_occupancy
  P  P0  1  0.13128852  0.08785442  0.30520796  1
  P  P1  1  0.91214558  0.86871148  0.19479204  1
  P  P2  1  0.86871148  0.91214558  0.69479204  1
  P  P3  1  0.08785442  0.13128852  0.80520796  1
  P  P4  1  0.88471859  0.61572682  0.94739370  1
  P  P5  1  0.38427318  0.11528141  0.55260630  1
  P  P6  1  0.11528141  0.38427318  0.05260630  1
  P  P7  1  0.61572682  0.88471859  0.44739370  1
  P  P8  1  0.39132488  0.88359129  0.05104410  1
  P  P9  1  0.11640871  0.60867512  0.44895590  1
  P  P10  1  0.88359129  0.39132488  0.55104410  1
  P  P11  1  0.60867512  0.11640871  0.94895590  1
  Sr  Sr12  1  0.39710824  0.60289176  0.75000000  1
  Sr  Sr13  1  0.60289176  0.39710824  0.25000000  1
  Pt  Pt14  1  0.91909292  0.50712876  0.74985829  1
  Pt  Pt15  1  0.49287124  0.08090708  0.75014171  1
  Pt  Pt16  1  0.50000000  0.50000000  0.50000000  1
  Pt  Pt17  1  0.50000000  0.50000000  0.00000000  1
  Pt  Pt18  1  0.00000000  0.00000000  0.50000000  1
  Pt  Pt19  1  0.00000000  0.00000000  0.00000000  1
  Pt  Pt20  1  0.50712876  0.91909292  0.24985829  1
  Pt  Pt21  1  0.08090708  0.49287124  0.25014171  1
