# generated using pymatgen
data_Sr(AlSe2)2
_symmetry_space_group_name_H-M   'P 1'
_cell_length_a   6.37864359
_cell_length_b   6.37864359
_cell_length_c   11.14119058
_cell_angle_alpha   90.00000000
_cell_angle_beta   90.00000000
_cell_angle_gamma   121.21620012
_symmetry_Int_Tables_number   1
_chemical_formula_structural   Sr(AlSe2)2
_chemical_formula_sum   'Sr2 Al4 Se8'
_cell_volume   387.67249149
_cell_formula_units_Z   2
loop_
 _symmetry_equiv_pos_site_id
 _symmetry_equiv_pos_as_xyz
  1  'x, y, z'
loop_
 _atom_site_type_symbol
 _atom_site_label
 _atom_site_symmetry_multiplicity
 _atom_site_fract_x
 _atom_site_fract_y
 _atom_site_fract_z
 _atom_site_occupancy
  Al  Al0  1  0.24181377  0.76052704  0.50000000  1
  Al  Al1  1  0.75818623  0.23947296  0.50000000  1
  Al  Al2  1  0.76052704  0.24181377  0.00000000  1
  Al  Al3  1  0.23947296  0.75818623  0.00000000  1
  Se  Se4  1  0.00000000  0.50000000  0.83383191  1
  Se  Se5  1  0.00000000  0.50000000  0.16616809  1
  Se  Se6  1  0.50000000  0.00000000  0.33383191  1
  Se  Se7  1  0.64993862  0.81899606  0.00000000  1
  Se  Se8  1  0.35006138  0.18100394  0.00000000  1
  Se  Se9  1  0.81899606  0.64993862  0.50000000  1
  Se  Se10  1  0.18100394  0.35006138  0.50000000  1
  Se  Se11  1  0.50000000  0.00000000  0.66616809  1
  Sr  Sr12  1  0.50000000  0.50000000  0.75000000  1
  Sr  Sr13  1  0.50000000  0.50000000  0.25000000  1
