# generated using pymatgen
data_RbCuF3
_symmetry_space_group_name_H-M   'P 1'
_cell_length_a   5.88909149
_cell_length_b   5.88909149
_cell_length_c   5.88909149
_cell_angle_alpha   94.43073471
_cell_angle_beta   117.47574476
_cell_angle_gamma   117.47574487
_symmetry_Int_Tables_number   1
_chemical_formula_structural   RbCuF3
_chemical_formula_sum   'Rb2 Cu2 F6'
_cell_volume   149.44764776
_cell_formula_units_Z   2
loop_
 _symmetry_equiv_pos_site_id
 _symmetry_equiv_pos_as_xyz
  1  'x, y, z'
loop_
 _atom_site_type_symbol
 _atom_site_label
 _atom_site_symmetry_multiplicity
 _atom_site_fract_x
 _atom_site_fract_y
 _atom_site_fract_z
 _atom_site_occupancy
  F  F0  1  0.06097201  0.28048601  0.78048601  1
  F  F1  1  0.50000000  0.78048601  0.71951399  1
  F  F2  1  0.50000000  0.21951399  0.28048601  1
  F  F3  1  0.93902799  0.71951399  0.21951399  1
  F  F4  1  0.50000000  0.75000000  0.25000000  1
  F  F5  1  0.50000000  0.25000000  0.75000000  1
  Cu  Cu6  1  0.50000000  0.00000000  0.50000000  1
  Cu  Cu7  1  0.50000000  0.50000000  0.00000000  1
  Rb  Rb8  1  0.00000000  0.75000000  0.75000000  1
  Rb  Rb9  1  0.00000000  0.25000000  0.25000000  1
