# generated using pymatgen
data_Nb5Si3P
_symmetry_space_group_name_H-M   'P 1'
_cell_length_a   5.47947419
_cell_length_b   7.75837996
_cell_length_c   7.75497431
_cell_angle_alpha   120.01014533
_cell_angle_beta   90.00474641
_cell_angle_gamma   89.98965964
_symmetry_Int_Tables_number   1
_chemical_formula_structural   Nb5Si3P
_chemical_formula_sum   'Nb10 Si6 P2'
_cell_volume   285.48054140
_cell_formula_units_Z   2
loop_
 _symmetry_equiv_pos_site_id
 _symmetry_equiv_pos_as_xyz
  1  'x, y, z'
loop_
 _atom_site_type_symbol
 _atom_site_label
 _atom_site_symmetry_multiplicity
 _atom_site_fract_x
 _atom_site_fract_y
 _atom_site_fract_z
 _atom_site_occupancy
  Nb  Nb0  1  0.49988400  0.33336079  0.66662493  1
  Nb  Nb1  1  0.49995711  0.66666576  0.33336556  1
  Nb  Nb2  1  0.00002061  0.66666731  0.33330875  1
  Nb  Nb3  1  0.00012990  0.33336468  0.66669173  1
  Nb  Nb4  1  0.74997360  0.26300730  0.00006140  1
  Nb  Nb5  1  0.74992508  0.73666383  0.73710184  1
  Nb  Nb6  1  0.74997000  -0.00032933  0.26294226  1
  Nb  Nb7  1  0.25002497  0.73700960  0.99994902  1
  Nb  Nb8  1  0.25007792  0.26328705  0.26290161  1
  Nb  Nb9  1  0.25003197  0.00029695  0.73705327  1
  Si  Si10  1  0.75009785  0.59958025  0.00000107  1
  Si  Si11  1  0.75011888  0.40051845  0.40040318  1
  Si  Si12  1  0.75006972  0.00009252  0.59956168  1
  Si  Si13  1  0.24989608  0.40045666  0.00003297  1
  Si  Si14  1  0.24988499  0.59947642  0.59957483  1
  Si  Si15  1  0.24993277  0.99987205  0.40041277  1
  P  P16  1  0.49997543  0.00000483  0.00000977  1
  P  P17  1  0.00002915  0.00000490  0.00000335  1
