# generated using pymatgen
data_Li3AsH36(SeN3)4
_symmetry_space_group_name_H-M   'P 1'
_cell_length_a   9.01484857
_cell_length_b   9.01484857
_cell_length_c   9.01484857
_cell_angle_alpha   109.47122063
_cell_angle_beta   109.47122063
_cell_angle_gamma   109.47122063
_symmetry_Int_Tables_number   1
_chemical_formula_structural   Li3AsH36(SeN3)4
_chemical_formula_sum   'Li3 As1 H36 Se4 N12'
_cell_volume   563.96664281
_cell_formula_units_Z   1
loop_
 _symmetry_equiv_pos_site_id
 _symmetry_equiv_pos_as_xyz
  1  'x, y, z'
loop_
 _atom_site_type_symbol
 _atom_site_label
 _atom_site_symmetry_multiplicity
 _atom_site_fract_x
 _atom_site_fract_y
 _atom_site_fract_z
 _atom_site_occupancy
  Li  Li0  1  0.50000100  0.50000100  0.00000000  1
  Li  Li1  1  0.00000000  0.50000100  0.50000100  1
  Li  Li2  1  0.50000100  0.00000000  0.50000100  1
  As  As3  1  0.00000000  0.00000000  0.00000000  1
  H  H4  1  0.61163209  0.80005595  0.00000000  1
  H  H5  1  0.80005595  0.61163209  0.00000000  1
  H  H6  1  0.38836991  0.38836991  0.18842486  1
  H  H7  1  0.19994305  0.19994305  0.81157214  1
  H  H8  1  0.00000000  0.61163209  0.80005595  1
  H  H9  1  0.80005595  0.00000000  0.61163209  1
  H  H10  1  0.81157214  0.19994305  0.19994305  1
  H  H11  1  0.61163209  0.00000000  0.80005595  1
  H  H12  1  0.00000000  0.80005595  0.61163209  1
  H  H13  1  0.38836991  0.18842486  0.38836991  1
  H  H14  1  0.18842486  0.38836991  0.38836991  1
  H  H15  1  0.19994305  0.81157214  0.19994305  1
  H  H16  1  0.39307370  0.72428231  0.89052635  1
  H  H17  1  0.83375497  0.50254735  0.10947365  1
  H  H18  1  0.60692630  0.49745365  0.33120762  1
  H  H19  1  0.16624503  0.27571769  0.66879138  1
  H  H20  1  0.89052635  0.39307370  0.72428231  1
  H  H21  1  0.72428231  0.89052635  0.39307370  1
  H  H22  1  0.66879138  0.16624503  0.27571769  1
  H  H23  1  0.50254735  0.10947365  0.83375497  1
  H  H24  1  0.10947365  0.83375497  0.50254735  1
  H  H25  1  0.49745365  0.33120762  0.60692630  1
  H  H26  1  0.33120762  0.60692630  0.49745365  1
  H  H27  1  0.27571769  0.66879138  0.16624503  1
  H  H28  1  0.72428231  0.39307370  0.89052635  1
  H  H29  1  0.50254735  0.83375497  0.10947365  1
  H  H30  1  0.49745365  0.60692630  0.33120762  1
  H  H31  1  0.27571769  0.16624503  0.66879138  1
  H  H32  1  0.39307370  0.89052635  0.72428231  1
  H  H33  1  0.89052635  0.72428231  0.39307370  1
  H  H34  1  0.16624503  0.66879138  0.27571769  1
  H  H35  1  0.10947365  0.50254735  0.83375497  1
  H  H36  1  0.83375497  0.10947365  0.50254735  1
  H  H37  1  0.33120762  0.49745365  0.60692630  1
  H  H38  1  0.60692630  0.33120762  0.49745365  1
  H  H39  1  0.66879138  0.27571769  0.16624503  1
  Se  Se40  1  0.00000000  0.00000000  0.26013063  1
  Se  Se41  1  0.73987037  0.73987037  0.73987037  1
  Se  Se42  1  0.00000000  0.26013063  0.00000000  1
  Se  Se43  1  0.26013063  0.00000000  0.00000000  1
  N  N44  1  0.49293832  0.73784235  0.00000000  1
  N  N45  1  0.73784235  0.49293832  0.00000000  1
  N  N46  1  0.50706268  0.50706268  0.24490403  1
  N  N47  1  0.26215865  0.26215865  0.75509697  1
  N  N48  1  0.00000000  0.49293832  0.73784235  1
  N  N49  1  0.73784235  0.00000000  0.49293832  1
  N  N50  1  0.75509697  0.26215865  0.26215865  1
  N  N51  1  0.49293832  0.00000000  0.73784235  1
  N  N52  1  0.00000000  0.73784235  0.49293832  1
  N  N53  1  0.50706268  0.24490403  0.50706268  1
  N  N54  1  0.24490403  0.50706268  0.50706268  1
  N  N55  1  0.26215865  0.75509697  0.26215865  1
