# generated using pymatgen
data_Dy2ZnRu
_symmetry_space_group_name_H-M   'P 1'
_cell_length_a   4.91739149
_cell_length_b   4.91739078
_cell_length_c   4.91739249
_cell_angle_alpha   60.00002569
_cell_angle_beta   59.99999719
_cell_angle_gamma   59.99997008
_symmetry_Int_Tables_number   1
_chemical_formula_structural   Dy2ZnRu
_chemical_formula_sum   'Dy2 Zn1 Ru1'
_cell_volume   84.07935290
_cell_formula_units_Z   1
loop_
 _symmetry_equiv_pos_site_id
 _symmetry_equiv_pos_as_xyz
  1  'x, y, z'
loop_
 _atom_site_type_symbol
 _atom_site_label
 _atom_site_symmetry_multiplicity
 _atom_site_fract_x
 _atom_site_fract_y
 _atom_site_fract_z
 _atom_site_occupancy
  Dy  Dy0  1  0.49999913  0.49999917  0.49999907  1
  Dy  Dy1  1  0.99999995  0.99999984  0.99999996  1
  Zn  Zn2  1  0.74999998  0.74999994  0.74999997  1
  Ru  Ru3  1  0.24999995  0.25000005  0.25000000  1
