# generated using pymatgen
data_NaZrSi2O7
_symmetry_space_group_name_H-M   'P 1'
_cell_length_a   5.46381938
_cell_length_b   7.13896481
_cell_length_c   8.63630432
_cell_angle_alpha   111.52707872
_cell_angle_beta   92.08060915
_cell_angle_gamma   88.45765150
_symmetry_Int_Tables_number   1
_chemical_formula_structural   NaZrSi2O7
_chemical_formula_sum   'Na2 Zr2 Si4 O14'
_cell_volume   313.12926769
_cell_formula_units_Z   2
loop_
 _symmetry_equiv_pos_site_id
 _symmetry_equiv_pos_as_xyz
  1  'x, y, z'
loop_
 _atom_site_type_symbol
 _atom_site_label
 _atom_site_symmetry_multiplicity
 _atom_site_fract_x
 _atom_site_fract_y
 _atom_site_fract_z
 _atom_site_occupancy
  Na  Na0  1  0.23195426  0.80988016  0.42927075  1
  Na  Na1  1  0.76804574  0.19011984  0.57072925  1
  Zr  Zr2  1  0.76213444  0.79295411  0.73640906  1
  Zr  Zr3  1  0.23786556  0.20704589  0.26359094  1
  Si  Si4  1  0.71222625  0.53960810  0.29551918  1
  Si  Si5  1  0.28777375  0.46039190  0.70448082  1
  Si  Si6  1  0.74463793  0.88555674  0.17497590  1
  Si  Si7  1  0.25536207  0.11444326  0.82502410  1
  O  O8  1  0.01861669  0.95698657  0.25408398  1
  O  O9  1  0.98138331  0.04301343  0.74591602  1
  O  O10  1  0.82018022  0.70209936  0.47292691  1
  O  O11  1  0.17981978  0.29790064  0.52707309  1
  O  O12  1  0.56491720  0.52637050  0.68532904  1
  O  O13  1  0.43508280  0.47362950  0.31467096  1
  O  O14  1  0.71991778  0.89029869  0.98801530  1
  O  O15  1  0.28008222  0.10970131  0.01198470  1
  O  O16  1  0.09019645  0.64604760  0.75815567  1
  O  O17  1  0.90980355  0.35395240  0.24184433  1
  O  O18  1  0.45848114  0.96790127  0.69856832  1
  O  O19  1  0.54151886  0.03209873  0.30143168  1
  O  O20  1  0.69974710  0.65152548  0.15917707  1
  O  O21  1  0.30025290  0.34847452  0.84082293  1
