# generated using pymatgen
data_BH6CN3F4
_symmetry_space_group_name_H-M   'P 1'
_cell_length_a   5.37630199
_cell_length_b   5.37630222
_cell_length_c   5.37630179
_cell_angle_alpha   87.84070958
_cell_angle_beta   87.84070963
_cell_angle_gamma   87.84071268
_symmetry_Int_Tables_number   1
_chemical_formula_structural   BH6CN3F4
_chemical_formula_sum   'B1 H6 C1 N3 F4'
_cell_volume   155.07704759
_cell_formula_units_Z   1
loop_
 _symmetry_equiv_pos_site_id
 _symmetry_equiv_pos_as_xyz
  1  'x, y, z'
loop_
 _atom_site_type_symbol
 _atom_site_label
 _atom_site_symmetry_multiplicity
 _atom_site_fract_x
 _atom_site_fract_y
 _atom_site_fract_z
 _atom_site_occupancy
  B  B0  1  0.41397264  0.41397264  0.41397264  1
  H  H1  1  0.74836911  0.98243804  0.29635734  1
  H  H2  1  0.74836911  0.29635734  0.98243804  1
  H  H3  1  0.29635734  0.74836911  0.98243804  1
  H  H4  1  0.98243804  0.74836911  0.29635734  1
  H  H5  1  0.98243804  0.29635734  0.74836911  1
  H  H6  1  0.29635734  0.98243804  0.74836911  1
  C  C7  1  0.01478266  0.01478266  0.01478266  1
  N  N8  1  0.22241470  0.91172798  0.91172798  1
  N  N9  1  0.91172798  0.22241470  0.91172798  1
  N  N10  1  0.91172798  0.91172798  0.22241470  1
  F  F11  1  0.15497173  0.46575680  0.46575680  1
  F  F12  1  0.46575680  0.15497173  0.46575680  1
  F  F13  1  0.46575680  0.46575680  0.15497173  1
  F  F14  1  0.55855972  0.55855972  0.55855972  1
