# generated using pymatgen
data_K4HgP2
_symmetry_space_group_name_H-M   'P 1'
_cell_length_a   9.69039822
_cell_length_b   9.69039822
_cell_length_c   9.69039822
_cell_angle_alpha   34.23804651
_cell_angle_beta   34.23804645
_cell_angle_gamma   34.23804649
_symmetry_Int_Tables_number   1
_chemical_formula_structural   K4HgP2
_chemical_formula_sum   'K4 Hg1 P2'
_cell_volume   256.86684664
_cell_formula_units_Z   1
loop_
 _symmetry_equiv_pos_site_id
 _symmetry_equiv_pos_as_xyz
  1  'x, y, z'
loop_
 _atom_site_type_symbol
 _atom_site_label
 _atom_site_symmetry_multiplicity
 _atom_site_fract_x
 _atom_site_fract_y
 _atom_site_fract_z
 _atom_site_occupancy
  P  P0  1  0.08862424  0.08862424  0.08862424  1
  P  P1  1  0.91137576  0.91137576  0.91137576  1
  K  K2  1  0.20746051  0.20746051  0.20746051  1
  K  K3  1  0.79253949  0.79253949  0.79253949  1
  K  K4  1  0.39130649  0.39130649  0.39130649  1
  K  K5  1  0.60869351  0.60869351  0.60869351  1
  Hg  Hg6  1  0.00000000  0.00000000  0.00000000  1
