# generated using pymatgen
data_Nd5(FeB3)2
_symmetry_space_group_name_H-M   'P 1'
_cell_length_a   8.73069695
_cell_length_b   8.73069695
_cell_length_c   8.73069695
_cell_angle_alpha   36.62507011
_cell_angle_beta   36.62507008
_cell_angle_gamma   36.62507013
_symmetry_Int_Tables_number   1
_chemical_formula_structural   Nd5(FeB3)2
_chemical_formula_sum   'Nd5 Fe2 B6'
_cell_volume   212.08152212
_cell_formula_units_Z   1
loop_
 _symmetry_equiv_pos_site_id
 _symmetry_equiv_pos_as_xyz
  1  'x, y, z'
loop_
 _atom_site_type_symbol
 _atom_site_label
 _atom_site_symmetry_multiplicity
 _atom_site_fract_x
 _atom_site_fract_y
 _atom_site_fract_z
 _atom_site_occupancy
  B  B0  1  0.83334762  0.50000000  0.16665238  1
  B  B1  1  0.50000000  0.16665238  0.83334762  1
  B  B2  1  0.16665238  0.83334762  0.50000000  1
  B  B3  1  0.16665238  0.50000000  0.83334762  1
  B  B4  1  0.50000000  0.83334762  0.16665238  1
  B  B5  1  0.83334762  0.16665238  0.50000000  1
  Fe  Fe6  1  0.87770525  0.87770525  0.87770525  1
  Fe  Fe7  1  0.12229475  0.12229475  0.12229475  1
  Nd  Nd8  1  0.58287263  0.58287263  0.58287263  1
  Nd  Nd9  1  0.41712737  0.41712737  0.41712737  1
  Nd  Nd10  1  0.74902621  0.74902621  0.74902621  1
  Nd  Nd11  1  0.25097379  0.25097379  0.25097379  1
  Nd  Nd12  1  0.00000000  0.00000000  0.00000000  1
