# generated using pymatgen
data_CsNa2BO3
_symmetry_space_group_name_H-M   'P 1'
_cell_length_a   5.67828846
_cell_length_b   5.86054888
_cell_length_c   6.32642295
_cell_angle_alpha   90.00000000
_cell_angle_beta   90.00000000
_cell_angle_gamma   90.00000000
_symmetry_Int_Tables_number   1
_chemical_formula_structural   CsNa2BO3
_chemical_formula_sum   'Cs2 Na4 B2 O6'
_cell_volume   210.52998852
_cell_formula_units_Z   2
loop_
 _symmetry_equiv_pos_site_id
 _symmetry_equiv_pos_as_xyz
  1  'x, y, z'
loop_
 _atom_site_type_symbol
 _atom_site_label
 _atom_site_symmetry_multiplicity
 _atom_site_fract_x
 _atom_site_fract_y
 _atom_site_fract_z
 _atom_site_occupancy
  B  B0  1  0.78118430  0.75000000  0.25000000  1
  B  B1  1  0.21881570  0.25000000  0.75000000  1
  O  O2  1  0.65124713  0.54455531  0.25000000  1
  O  O3  1  0.34875287  0.45544469  0.75000000  1
  O  O4  1  0.02637330  0.75000000  0.25000000  1
  O  O5  1  0.97362670  0.25000000  0.75000000  1
  O  O6  1  0.34875287  0.04455531  0.75000000  1
  O  O7  1  0.65124713  0.95544469  0.25000000  1
  Na  Na8  1  0.36000014  0.75000000  0.01860742  1
  Na  Na9  1  0.36000014  0.75000000  0.48139258  1
  Na  Na10  1  0.63999986  0.25000000  0.98139258  1
  Na  Na11  1  0.63999986  0.25000000  0.51860742  1
  Cs  Cs12  1  0.87334931  0.75000000  0.75000000  1
  Cs  Cs13  1  0.12665069  0.25000000  0.25000000  1
