# generated using pymatgen
data_K5La4Si4O16F
_symmetry_space_group_name_H-M   'P 1'
_cell_length_a   9.33352273
_cell_length_b   9.33352273
_cell_length_c   9.33352273
_cell_angle_alpha   95.10857530
_cell_angle_beta   95.10857530
_cell_angle_gamma   145.27677945
_symmetry_Int_Tables_number   1
_chemical_formula_structural   K5La4Si4O16F
_chemical_formula_sum   'K5 La4 Si4 O16 F1'
_cell_volume   442.04375597
_cell_formula_units_Z   1
loop_
 _symmetry_equiv_pos_site_id
 _symmetry_equiv_pos_as_xyz
  1  'x, y, z'
loop_
 _atom_site_type_symbol
 _atom_site_label
 _atom_site_symmetry_multiplicity
 _atom_site_fract_x
 _atom_site_fract_y
 _atom_site_fract_z
 _atom_site_occupancy
  K  K0  1  0.90946633  0.60339192  0.50966759  1
  K  K1  1  0.09372634  0.39980074  0.49033341  1
  K  K2  1  0.39660808  0.90627566  0.30607441  1
  K  K3  1  0.60019826  0.09053167  0.69392559  1
  K  K4  1  0.50000000  0.50000000  0.00000000  1
  La  La5  1  0.19398115  0.12868502  0.30494184  1
  La  La6  1  0.82374317  0.88904031  0.69505816  1
  La  La7  1  0.87131598  0.17625683  0.06529613  1
  La  La8  1  0.11096069  0.80601885  0.93470387  1
  Si  Si9  1  0.59852613  0.74287530  0.34784197  1
  Si  Si10  1  0.39503233  0.25068416  0.65215803  1
  Si  Si11  1  0.25712570  0.60496767  0.85565183  1
  Si  Si12  1  0.74931584  0.40147387  0.14434817  1
  O  O13  1  0.29200901  0.46095591  0.24230936  1
  O  O14  1  0.21864555  0.04969765  0.75769164  1
  O  O15  1  0.53904609  0.78135545  0.83105310  1
  O  O16  1  0.95030235  0.70799399  0.16894790  1
  O  O17  1  0.69935061  0.67437150  0.42135657  1
  O  O18  1  0.25301393  0.27799303  0.57864443  1
  O  O19  1  0.32563050  0.74698707  0.02497911  1
  O  O20  1  0.72200797  0.30065139  0.97502189  1
  O  O21  1  0.38897300  0.12718573  0.50884470  1
  O  O22  1  0.61834103  0.88012830  0.49115430  1
  O  O23  1  0.87281127  0.38165697  0.26178727  1
  O  O24  1  0.11987170  0.61102700  0.73821273  1
  O  O25  1  0.69991014  0.54237090  0.75460425  1
  O  O26  1  0.78776565  0.94530689  0.24539575  1
  O  O27  1  0.45763010  0.21223435  0.15754124  1
  O  O28  1  0.05469411  0.30008886  0.84245976  1
  F  F29  1  0.00000000  0.00000000  0.00000000  1
