# generated using pymatgen
data_Ca4Al6SO12
_symmetry_space_group_name_H-M   'P 1'
_cell_length_a   7.87792819
_cell_length_b   7.87792819
_cell_length_c   7.87792819
_cell_angle_alpha   109.47122062
_cell_angle_beta   109.47122060
_cell_angle_gamma   109.47122065
_symmetry_Int_Tables_number   1
_chemical_formula_structural   Ca4Al6SO12
_chemical_formula_sum   'Ca4 Al6 S1 O12'
_cell_volume   376.36927509
_cell_formula_units_Z   1
loop_
 _symmetry_equiv_pos_site_id
 _symmetry_equiv_pos_as_xyz
  1  'x, y, z'
loop_
 _atom_site_type_symbol
 _atom_site_label
 _atom_site_symmetry_multiplicity
 _atom_site_fract_x
 _atom_site_fract_y
 _atom_site_fract_z
 _atom_site_occupancy
  O  O0  1  0.27856876  0.70895847  0.27856876  1
  O  O1  1  0.27856876  0.27856876  0.70895847  1
  O  O2  1  0.56961028  0.29104153  0.56961028  1
  O  O3  1  0.29104153  0.56961028  0.56961028  1
  O  O4  1  0.00000000  0.43038972  0.72143124  1
  O  O5  1  0.43038972  0.00000000  0.72143124  1
  O  O6  1  0.56961028  0.56961028  0.29104153  1
  O  O7  1  0.43038972  0.72143124  0.00000000  1
  O  O8  1  0.72143124  0.43038972  0.00000000  1
  O  O9  1  0.00000000  0.72143124  0.43038972  1
  O  O10  1  0.70895847  0.27856876  0.27856876  1
  O  O11  1  0.72143124  0.00000000  0.43038972  1
  Al  Al12  1  0.50000000  0.25000000  0.75000000  1
  Al  Al13  1  0.50000000  0.75000000  0.25000000  1
  Al  Al14  1  0.25000000  0.75000000  0.50000000  1
  Al  Al15  1  0.75000000  0.25000000  0.50000000  1
  Al  Al16  1  0.25000000  0.50000000  0.75000000  1
  Al  Al17  1  0.75000000  0.50000000  0.25000000  1
  S  S18  1  0.00000000  0.00000000  0.00000000  1
  Ca  Ca19  1  0.00000000  0.64653853  0.00000000  1
  Ca  Ca20  1  0.64653853  0.00000000  0.00000000  1
  Ca  Ca21  1  0.00000000  0.00000000  0.64653853  1
  Ca  Ca22  1  0.35346147  0.35346147  0.35346147  1
