# generated using pymatgen
data_Ba4PtO6
_symmetry_space_group_name_H-M   'P 1'
_cell_length_a   7.37487372
_cell_length_b   7.37487372
_cell_length_c   7.37487372
_cell_angle_alpha   89.63498417
_cell_angle_beta   89.63498421
_cell_angle_gamma   89.63498416
_symmetry_Int_Tables_number   1
_chemical_formula_structural   Ba4PtO6
_chemical_formula_sum   'Ba8 Pt2 O12'
_cell_volume   401.08593840
_cell_formula_units_Z   2
loop_
 _symmetry_equiv_pos_site_id
 _symmetry_equiv_pos_as_xyz
  1  'x, y, z'
loop_
 _atom_site_type_symbol
 _atom_site_label
 _atom_site_symmetry_multiplicity
 _atom_site_fract_x
 _atom_site_fract_y
 _atom_site_fract_z
 _atom_site_occupancy
  O  O0  1  0.77182823  0.57277272  0.43929548  1
  O  O1  1  0.57277272  0.43929548  0.77182823  1
  O  O2  1  0.43929548  0.77182823  0.57277272  1
  O  O3  1  0.06070452  0.92722728  0.72817177  1
  O  O4  1  0.92722728  0.72817177  0.06070452  1
  O  O5  1  0.72817177  0.06070452  0.92722728  1
  O  O6  1  0.22817177  0.42722728  0.56070452  1
  O  O7  1  0.42722728  0.56070452  0.22817177  1
  O  O8  1  0.56070452  0.22817177  0.42722728  1
  O  O9  1  0.93929548  0.07277272  0.27182823  1
  O  O10  1  0.27182823  0.93929548  0.07277272  1
  O  O11  1  0.07277272  0.27182823  0.93929548  1
  Ba  Ba12  1  0.25000000  0.25000000  0.25000000  1
  Ba  Ba13  1  0.75000000  0.75000000  0.75000000  1
  Ba  Ba14  1  0.12000768  0.75000000  0.37999232  1
  Ba  Ba15  1  0.75000000  0.37999232  0.12000768  1
  Ba  Ba16  1  0.37999232  0.12000768  0.75000000  1
  Ba  Ba17  1  0.87999232  0.25000000  0.62000768  1
  Ba  Ba18  1  0.25000000  0.62000768  0.87999232  1
  Ba  Ba19  1  0.62000768  0.87999232  0.25000000  1
  Pt  Pt20  1  0.00000000  0.00000000  0.00000000  1
  Pt  Pt21  1  0.50000000  0.50000000  0.50000000  1
