# generated using pymatgen
data_RbNaS
_symmetry_space_group_name_H-M   'P 1'
_cell_length_a   4.73560859
_cell_length_b   4.73560859
_cell_length_c   7.65764189
_cell_angle_alpha   90.00000000
_cell_angle_beta   90.00000000
_cell_angle_gamma   90.00000000
_symmetry_Int_Tables_number   1
_chemical_formula_structural   RbNaS
_chemical_formula_sum   'Rb2 Na2 S2'
_cell_volume   171.73019063
_cell_formula_units_Z   2
loop_
 _symmetry_equiv_pos_site_id
 _symmetry_equiv_pos_as_xyz
  1  'x, y, z'
loop_
 _atom_site_type_symbol
 _atom_site_label
 _atom_site_symmetry_multiplicity
 _atom_site_fract_x
 _atom_site_fract_y
 _atom_site_fract_z
 _atom_site_occupancy
  Na  Na0  1  0.75000000  0.25000000  0.00000000  1
  Na  Na1  1  0.25000000  0.75000000  0.00000000  1
  S  S2  1  0.25000000  0.25000000  0.20618279  1
  S  S3  1  0.75000000  0.75000000  0.79381721  1
  Rb  Rb4  1  0.75000000  0.75000000  0.35085208  1
  Rb  Rb5  1  0.25000000  0.25000000  0.64914792  1
