# generated using pymatgen
data_Ca(BRh)2
_symmetry_space_group_name_H-M   'P 1'
_cell_length_a   5.51846957
_cell_length_b   5.51846957
_cell_length_c   6.09204719
_cell_angle_alpha   105.20982578
_cell_angle_beta   105.20982573
_cell_angle_gamma   114.88216999
_symmetry_Int_Tables_number   1
_chemical_formula_structural   Ca(BRh)2
_chemical_formula_sum   'Ca2 B4 Rh4'
_cell_volume   146.94940870
_cell_formula_units_Z   2
loop_
 _symmetry_equiv_pos_site_id
 _symmetry_equiv_pos_as_xyz
  1  'x, y, z'
loop_
 _atom_site_type_symbol
 _atom_site_label
 _atom_site_symmetry_multiplicity
 _atom_site_fract_x
 _atom_site_fract_y
 _atom_site_fract_z
 _atom_site_occupancy
  B  B0  1  0.55069623  0.44930377  0.25000000  1
  B  B1  1  0.80069623  0.19930377  0.75000000  1
  B  B2  1  0.19930377  0.80069623  0.25000000  1
  B  B3  1  0.44930377  0.55069623  0.75000000  1
  Ca  Ca4  1  0.87500000  0.12500000  0.25000000  1
  Ca  Ca5  1  0.12500000  0.87500000  0.75000000  1
  Rh  Rh6  1  0.50515639  0.75515639  0.51031277  1
  Rh  Rh7  1  0.75515639  0.50515639  0.01031277  1
  Rh  Rh8  1  0.49484361  0.24484361  0.48968723  1
  Rh  Rh9  1  0.24484361  0.49484361  0.98968723  1
