# generated using pymatgen
data_Hf2IrRh
_symmetry_space_group_name_H-M   'P 1'
_cell_length_a   4.63081733
_cell_length_b   4.63080725
_cell_length_c   4.63082900
_cell_angle_alpha   60.00016578
_cell_angle_beta   59.99954757
_cell_angle_gamma   59.99957969
_symmetry_Int_Tables_number   1
_chemical_formula_structural   Hf2IrRh
_chemical_formula_sum   'Hf2 Ir1 Rh1'
_cell_volume   70.21918439
_cell_formula_units_Z   1
loop_
 _symmetry_equiv_pos_site_id
 _symmetry_equiv_pos_as_xyz
  1  'x, y, z'
loop_
 _atom_site_type_symbol
 _atom_site_label
 _atom_site_symmetry_multiplicity
 _atom_site_fract_x
 _atom_site_fract_y
 _atom_site_fract_z
 _atom_site_occupancy
  Hf  Hf0  1  -0.00000133  0.99999829  0.00000023  1
  Hf  Hf1  1  0.50000050  0.49999884  0.49999834  1
  Ir  Ir2  1  0.24999956  0.24999940  0.24999864  1
  Rh  Rh3  1  0.75000027  0.75000246  0.75000179  1
