# generated using pymatgen
data_K2MnS2
_symmetry_space_group_name_H-M   'P 1'
_cell_length_a   6.30391314
_cell_length_b   6.93363159
_cell_length_c   7.89991148
_cell_angle_alpha   116.03004239
_cell_angle_beta   113.51482340
_cell_angle_gamma   90.00000002
_symmetry_Int_Tables_number   1
_chemical_formula_structural   K2MnS2
_chemical_formula_sum   'K4 Mn2 S4'
_cell_volume   278.00772730
_cell_formula_units_Z   2
loop_
 _symmetry_equiv_pos_site_id
 _symmetry_equiv_pos_as_xyz
  1  'x, y, z'
loop_
 _atom_site_type_symbol
 _atom_site_label
 _atom_site_symmetry_multiplicity
 _atom_site_fract_x
 _atom_site_fract_y
 _atom_site_fract_z
 _atom_site_occupancy
  S  S0  1  0.39782221  0.70506662  0.79564442  1
  S  S1  1  0.10217779  0.90942220  0.20435558  1
  S  S2  1  0.60217779  0.29493338  0.20435558  1
  S  S3  1  0.89782221  0.09057780  0.79564442  1
  K  K4  1  0.35284411  0.19386075  0.70568821  1
  K  K5  1  0.14715589  0.48817254  0.29431179  1
  K  K6  1  0.64715589  0.80613925  0.29431179  1
  K  K7  1  0.85284411  0.51182746  0.70568821  1
  Mn  Mn8  1  0.25000000  0.00000000  0.00000000  1
  Mn  Mn9  1  0.75000000  0.00000000  0.00000000  1
