# generated using pymatgen
data_HoCoSi2
_symmetry_space_group_name_H-M   'P 1'
_cell_length_a   3.97902696
_cell_length_b   4.00474956
_cell_length_c   8.35037438
_cell_angle_alpha   103.87441846
_cell_angle_beta   90.00000000
_cell_angle_gamma   90.00000000
_symmetry_Int_Tables_number   1
_chemical_formula_structural   HoCoSi2
_chemical_formula_sum   'Ho2 Co2 Si4'
_cell_volume   129.18096812
_cell_formula_units_Z   2
loop_
 _symmetry_equiv_pos_site_id
 _symmetry_equiv_pos_as_xyz
  1  'x, y, z'
loop_
 _atom_site_type_symbol
 _atom_site_label
 _atom_site_symmetry_multiplicity
 _atom_site_fract_x
 _atom_site_fract_y
 _atom_site_fract_z
 _atom_site_occupancy
  Si  Si0  1  0.75000000  0.75003112  0.50006223  1
  Si  Si1  1  0.25000000  0.24996888  0.49993777  1
  Si  Si2  1  0.75000000  0.45765225  0.91530450  1
  Si  Si3  1  0.25000000  0.54234775  0.08469550  1
  Co  Co4  1  0.25000000  0.67896758  0.35793515  1
  Co  Co5  1  0.75000000  0.32103242  0.64206485  1
  Ho  Ho6  1  0.25000000  0.89272230  0.78544460  1
  Ho  Ho7  1  0.75000000  0.10727770  0.21455540  1
