# generated using pymatgen
data_K5Ti3F14
_symmetry_space_group_name_H-M   'P 1'
_cell_length_a   7.93740077
_cell_length_b   7.93740077
_cell_length_c   11.81955260
_cell_angle_alpha   90.00000000
_cell_angle_beta   90.00000000
_cell_angle_gamma   90.00000000
_symmetry_Int_Tables_number   1
_chemical_formula_structural   K5Ti3F14
_chemical_formula_sum   'K10 Ti6 F28'
_cell_volume   744.65936498
_cell_formula_units_Z   2
loop_
 _symmetry_equiv_pos_site_id
 _symmetry_equiv_pos_as_xyz
  1  'x, y, z'
loop_
 _atom_site_type_symbol
 _atom_site_label
 _atom_site_symmetry_multiplicity
 _atom_site_fract_x
 _atom_site_fract_y
 _atom_site_fract_z
 _atom_site_occupancy
  F  F0  1  0.02576220  0.67949247  0.61408705  1
  F  F1  1  0.97423780  0.32050753  0.61408705  1
  F  F2  1  0.17949247  0.52576220  0.88591295  1
  F  F3  1  0.67949247  0.97423780  0.61408705  1
  F  F4  1  0.32050753  0.02576220  0.61408705  1
  F  F5  1  0.47423780  0.17949247  0.88591295  1
  F  F6  1  0.52576220  0.82050753  0.88591295  1
  F  F7  1  0.82050753  0.47423780  0.88591295  1
  F  F8  1  0.97423780  0.32050753  0.38591295  1
  F  F9  1  0.02576220  0.67949247  0.38591295  1
  F  F10  1  0.82050753  0.47423780  0.11408705  1
  F  F11  1  0.32050753  0.02576220  0.38591295  1
  F  F12  1  0.67949247  0.97423780  0.38591295  1
  F  F13  1  0.52576220  0.82050753  0.11408705  1
  F  F14  1  0.47423780  0.17949247  0.11408705  1
  F  F15  1  0.17949247  0.52576220  0.11408705  1
  F  F16  1  0.00000000  0.00000000  0.16793741  1
  F  F17  1  0.50000000  0.50000000  0.33206259  1
  F  F18  1  0.00000000  0.00000000  0.83206259  1
  F  F19  1  0.50000000  0.50000000  0.66793741  1
  F  F20  1  0.04027073  0.24956623  0.00000000  1
  F  F21  1  0.75043377  0.04027073  0.00000000  1
  F  F22  1  0.24956623  0.95972927  0.00000000  1
  F  F23  1  0.54027073  0.25043377  0.50000000  1
  F  F24  1  0.45972927  0.74956623  0.50000000  1
  F  F25  1  0.95972927  0.75043377  0.00000000  1
  F  F26  1  0.74956623  0.54027073  0.50000000  1
  F  F27  1  0.25043377  0.45972927  0.50000000  1
  K  K28  1  0.27020103  0.77020103  0.75000000  1
  K  K29  1  0.22979897  0.27020103  0.75000000  1
  K  K30  1  0.77020103  0.72979897  0.75000000  1
  K  K31  1  0.72979897  0.22979897  0.75000000  1
  K  K32  1  0.72979897  0.22979897  0.25000000  1
  K  K33  1  0.77020103  0.72979897  0.25000000  1
  K  K34  1  0.22979897  0.27020103  0.25000000  1
  K  K35  1  0.27020103  0.77020103  0.25000000  1
  K  K36  1  0.50000000  0.50000000  0.00000000  1
  K  K37  1  0.00000000  0.00000000  0.50000000  1
  Ti  Ti38  1  0.00000000  0.50000000  0.50000000  1
  Ti  Ti39  1  0.50000000  0.00000000  0.50000000  1
  Ti  Ti40  1  0.50000000  0.00000000  0.00000000  1
  Ti  Ti41  1  0.00000000  0.50000000  0.00000000  1
  Ti  Ti42  1  0.50000000  0.50000000  0.50000000  1
  Ti  Ti43  1  0.00000000  0.00000000  0.00000000  1
