# generated using pymatgen
data_NaLiTe
_symmetry_space_group_name_H-M   'P 1'
_cell_length_a   4.60744048
_cell_length_b   7.73508677
_cell_length_c   8.36928705
_cell_angle_alpha   90.00000000
_cell_angle_beta   90.00000000
_cell_angle_gamma   90.00000000
_symmetry_Int_Tables_number   1
_chemical_formula_structural   NaLiTe
_chemical_formula_sum   'Na4 Li4 Te4'
_cell_volume   298.27261862
_cell_formula_units_Z   4
loop_
 _symmetry_equiv_pos_site_id
 _symmetry_equiv_pos_as_xyz
  1  'x, y, z'
loop_
 _atom_site_type_symbol
 _atom_site_label
 _atom_site_symmetry_multiplicity
 _atom_site_fract_x
 _atom_site_fract_y
 _atom_site_fract_z
 _atom_site_occupancy
  Li  Li0  1  0.25000000  0.64229181  0.92891693  1
  Li  Li1  1  0.25000000  0.14229181  0.57108307  1
  Li  Li2  1  0.75000000  0.35770819  0.07108307  1
  Li  Li3  1  0.75000000  0.85770819  0.42891693  1
  Na  Na4  1  0.75000000  0.48464657  0.68473990  1
  Na  Na5  1  0.25000000  0.01535343  0.18473990  1
  Na  Na6  1  0.75000000  0.98464657  0.81526010  1
  Na  Na7  1  0.25000000  0.51535343  0.31526010  1
  Te  Te8  1  0.25000000  0.77509923  0.60825433  1
  Te  Te9  1  0.25000000  0.27509923  0.89174567  1
  Te  Te10  1  0.75000000  0.72490077  0.10825433  1
  Te  Te11  1  0.75000000  0.22490077  0.39174567  1
