# generated using pymatgen
data_K2Au3
_symmetry_space_group_name_H-M   'P 1'
_cell_length_a   4.96759611
_cell_length_b   5.60621850
_cell_length_c   6.33161446
_cell_angle_alpha   116.32084243
_cell_angle_beta   113.09676033
_cell_angle_gamma   89.99999998
_symmetry_Int_Tables_number   1
_chemical_formula_structural   K2Au3
_chemical_formula_sum   'K2 Au3'
_cell_volume   142.10982360
_cell_formula_units_Z   1
loop_
 _symmetry_equiv_pos_site_id
 _symmetry_equiv_pos_as_xyz
  1  'x, y, z'
loop_
 _atom_site_type_symbol
 _atom_site_label
 _atom_site_symmetry_multiplicity
 _atom_site_fract_x
 _atom_site_fract_y
 _atom_site_fract_z
 _atom_site_occupancy
  K  K0  1  0.19421178  0.69394777  0.38842355  1
  K  K1  1  0.80578822  0.30605223  0.61157645  1
  Au  Au2  1  0.00000000  0.00000000  0.00000000  1
  Au  Au3  1  0.49998048  0.25407597  0.99996096  1
  Au  Au4  1  0.50001952  0.74592403  0.00003904  1
