# generated using pymatgen
data_ScGaIr2
_symmetry_space_group_name_H-M   'P 1'
_cell_length_a   4.43311088
_cell_length_b   4.43310302
_cell_length_c   4.43311138
_cell_angle_alpha   59.99996206
_cell_angle_beta   59.99991257
_cell_angle_gamma   59.99998565
_symmetry_Int_Tables_number   1
_chemical_formula_structural   ScGaIr2
_chemical_formula_sum   'Sc1 Ga1 Ir2'
_cell_volume   61.60409816
_cell_formula_units_Z   1
loop_
 _symmetry_equiv_pos_site_id
 _symmetry_equiv_pos_as_xyz
  1  'x, y, z'
loop_
 _atom_site_type_symbol
 _atom_site_label
 _atom_site_symmetry_multiplicity
 _atom_site_fract_x
 _atom_site_fract_y
 _atom_site_fract_z
 _atom_site_occupancy
  Sc  Sc0  1  0.75000054  0.74999985  0.74999988  1
  Ga  Ga1  1  0.24999918  0.24999903  0.24999925  1
  Ir  Ir2  1  0.49999937  0.50000001  0.49999995  1
  Ir  Ir3  1  -0.00000010  0.00000012  -0.00000008  1
