# generated using pymatgen
data_BaSm2PdO5
_symmetry_space_group_name_H-M   'P 1'
_cell_length_a   5.96205870
_cell_length_b   6.72815273
_cell_length_c   6.72815273
_cell_angle_alpha   90.00000000
_cell_angle_beta   90.00000000
_cell_angle_gamma   90.00000000
_symmetry_Int_Tables_number   1
_chemical_formula_structural   BaSm2PdO5
_chemical_formula_sum   'Ba2 Sm4 Pd2 O10'
_cell_volume   269.89070670
_cell_formula_units_Z   2
loop_
 _symmetry_equiv_pos_site_id
 _symmetry_equiv_pos_as_xyz
  1  'x, y, z'
loop_
 _atom_site_type_symbol
 _atom_site_label
 _atom_site_symmetry_multiplicity
 _atom_site_fract_x
 _atom_site_fract_y
 _atom_site_fract_z
 _atom_site_occupancy
  O  O0  1  0.50000000  0.50000000  0.50000000  1
  O  O1  1  0.50000000  0.00000000  0.00000000  1
  O  O2  1  0.25490294  0.64048713  0.14048713  1
  O  O3  1  0.25490294  0.35951287  0.85951287  1
  O  O4  1  0.25490294  0.14048713  0.35951287  1
  O  O5  1  0.25490294  0.85951287  0.64048713  1
  O  O6  1  0.74509706  0.64048713  0.14048713  1
  O  O7  1  0.74509706  0.85951287  0.64048713  1
  O  O8  1  0.74509706  0.35951287  0.85951287  1
  O  O9  1  0.74509706  0.14048713  0.35951287  1
  Pd  Pd10  1  0.00000000  0.50000000  0.00000000  1
  Pd  Pd11  1  0.00000000  0.00000000  0.50000000  1
  Ba  Ba12  1  0.00000000  0.50000000  0.50000000  1
  Ba  Ba13  1  0.00000000  0.00000000  0.00000000  1
  Sm  Sm14  1  0.50000000  0.17375027  0.67375027  1
  Sm  Sm15  1  0.50000000  0.32624973  0.17375027  1
  Sm  Sm16  1  0.50000000  0.67375027  0.82624973  1
  Sm  Sm17  1  0.50000000  0.82624973  0.32624973  1
