# generated using pymatgen
data_BaNd2PdO5
_symmetry_space_group_name_H-M   'P 1'
_cell_length_a   5.98297567
_cell_length_b   6.81248704
_cell_length_c   6.81248704
_cell_angle_alpha   90.00000000
_cell_angle_beta   90.00000000
_cell_angle_gamma   90.00000000
_symmetry_Int_Tables_number   1
_chemical_formula_structural   BaNd2PdO5
_chemical_formula_sum   'Ba2 Nd4 Pd2 O10'
_cell_volume   277.66977921
_cell_formula_units_Z   2
loop_
 _symmetry_equiv_pos_site_id
 _symmetry_equiv_pos_as_xyz
  1  'x, y, z'
loop_
 _atom_site_type_symbol
 _atom_site_label
 _atom_site_symmetry_multiplicity
 _atom_site_fract_x
 _atom_site_fract_y
 _atom_site_fract_z
 _atom_site_occupancy
  O  O0  1  0.50000000  0.50000000  0.50000000  1
  O  O1  1  0.50000000  0.00000000  0.00000000  1
  O  O2  1  0.25188317  0.64045125  0.14045125  1
  O  O3  1  0.25188317  0.35954875  0.85954875  1
  O  O4  1  0.25188317  0.14045125  0.35954875  1
  O  O5  1  0.25188317  0.85954875  0.64045125  1
  O  O6  1  0.74811683  0.64045125  0.14045125  1
  O  O7  1  0.74811683  0.85954875  0.64045125  1
  O  O8  1  0.74811683  0.35954875  0.85954875  1
  O  O9  1  0.74811683  0.14045125  0.35954875  1
  Pd  Pd10  1  0.00000000  0.50000000  0.00000000  1
  Pd  Pd11  1  0.00000000  0.00000000  0.50000000  1
  Ba  Ba12  1  0.00000000  0.50000000  0.50000000  1
  Ba  Ba13  1  0.00000000  0.00000000  0.00000000  1
  Nd  Nd14  1  0.50000000  0.17367773  0.67367773  1
  Nd  Nd15  1  0.50000000  0.32632227  0.17367773  1
  Nd  Nd16  1  0.50000000  0.67367773  0.82632227  1
  Nd  Nd17  1  0.50000000  0.82632227  0.32632227  1
