# generated using pymatgen
data_Sr4Al6SO12
_symmetry_space_group_name_H-M   'P 1'
_cell_length_a   8.09501256
_cell_length_b   8.09501255
_cell_length_c   8.09501256
_cell_angle_alpha   109.47122066
_cell_angle_beta   109.47122064
_cell_angle_gamma   109.47122061
_symmetry_Int_Tables_number   1
_chemical_formula_structural   Sr4Al6SO12
_chemical_formula_sum   'Sr4 Al6 S1 O12'
_cell_volume   408.34824116
_cell_formula_units_Z   1
loop_
 _symmetry_equiv_pos_site_id
 _symmetry_equiv_pos_as_xyz
  1  'x, y, z'
loop_
 _atom_site_type_symbol
 _atom_site_label
 _atom_site_symmetry_multiplicity
 _atom_site_fract_x
 _atom_site_fract_y
 _atom_site_fract_z
 _atom_site_occupancy
  O  O0  1  0.29350063  0.69760257  0.29350063  1
  O  O1  1  0.29350063  0.29350063  0.69760257  1
  O  O2  1  0.59589806  0.30239743  0.59589806  1
  O  O3  1  0.30239743  0.59589806  0.59589806  1
  O  O4  1  0.00000000  0.40410194  0.70649937  1
  O  O5  1  0.40410194  0.00000000  0.70649937  1
  O  O6  1  0.59589806  0.59589806  0.30239743  1
  O  O7  1  0.40410194  0.70649937  0.00000000  1
  O  O8  1  0.70649937  0.40410194  0.00000000  1
  O  O9  1  0.00000000  0.70649937  0.40410194  1
  O  O10  1  0.69760257  0.29350063  0.29350063  1
  O  O11  1  0.70649937  0.00000000  0.40410194  1
  Al  Al12  1  0.50000000  0.25000000  0.75000000  1
  Al  Al13  1  0.50000000  0.75000000  0.25000000  1
  Al  Al14  1  0.25000000  0.75000000  0.50000000  1
  Al  Al15  1  0.75000000  0.25000000  0.50000000  1
  Al  Al16  1  0.25000000  0.50000000  0.75000000  1
  Al  Al17  1  0.75000000  0.50000000  0.25000000  1
  S  S18  1  0.00000000  0.00000000  0.00000000  1
  Sr  Sr19  1  0.00000000  0.63416839  0.00000000  1
  Sr  Sr20  1  0.63416839  0.00000000  0.00000000  1
  Sr  Sr21  1  0.00000000  0.00000000  0.63416839  1
  Sr  Sr22  1  0.36583161  0.36583161  0.36583161  1
