# generated using pymatgen
data_Rb2MnS2
_symmetry_space_group_name_H-M   'P 1'
_cell_length_a   6.42450747
_cell_length_b   7.15407029
_cell_length_c   8.20710646
_cell_angle_alpha   115.83914321
_cell_angle_beta   113.04158090
_cell_angle_gamma   89.99999998
_symmetry_Int_Tables_number   1
_chemical_formula_structural   Rb2MnS2
_chemical_formula_sum   'Rb4 Mn2 S4'
_cell_volume   305.71345215
_cell_formula_units_Z   2
loop_
 _symmetry_equiv_pos_site_id
 _symmetry_equiv_pos_as_xyz
  1  'x, y, z'
loop_
 _atom_site_type_symbol
 _atom_site_label
 _atom_site_symmetry_multiplicity
 _atom_site_fract_x
 _atom_site_fract_y
 _atom_site_fract_z
 _atom_site_occupancy
  S  S0  1  0.40149097  0.71886387  0.80298194  1
  S  S1  1  0.59850903  0.28113613  0.19701806  1
  S  S2  1  0.09850903  0.91588193  0.19701806  1
  S  S3  1  0.90149097  0.08411807  0.80298194  1
  Mn  Mn4  1  0.25000000  0.00000000  0.00000000  1
  Mn  Mn5  1  0.75000000  0.00000000  0.00000000  1
  Rb  Rb6  1  0.64765039  0.80899297  0.29530079  1
  Rb  Rb7  1  0.35234961  0.19100703  0.70469921  1
  Rb  Rb8  1  0.85234961  0.51369218  0.70469921  1
  Rb  Rb9  1  0.14765039  0.48630782  0.29530079  1
