# generated using pymatgen
data_CaPO4
_symmetry_space_group_name_H-M   'P 1'
_cell_length_a   6.76722362
_cell_length_b   6.97588648
_cell_length_c   7.02598399
_cell_angle_alpha   80.30370135
_cell_angle_beta   80.05109901
_cell_angle_gamma   90.15057835
_symmetry_Int_Tables_number   1
_chemical_formula_structural   CaPO4
_chemical_formula_sum   'Ca4 P4 O16'
_cell_volume   321.85164756
_cell_formula_units_Z   4
loop_
 _symmetry_equiv_pos_site_id
 _symmetry_equiv_pos_as_xyz
  1  'x, y, z'
loop_
 _atom_site_type_symbol
 _atom_site_label
 _atom_site_symmetry_multiplicity
 _atom_site_fract_x
 _atom_site_fract_y
 _atom_site_fract_z
 _atom_site_occupancy
  Ca  Ca0  1  0.57465648  0.68746627  0.25981742  1
  Ca  Ca1  1  0.42534352  0.31253373  0.74018258  1
  Ca  Ca2  1  0.15208778  0.82241272  0.66165329  1
  Ca  Ca3  1  0.84791222  0.17758728  0.33834671  1
  P  P4  1  0.61230840  0.80316939  0.71653823  1
  P  P5  1  0.38769160  0.19683061  0.28346177  1
  P  P6  1  0.05508935  0.70134415  0.20945562  1
  P  P7  1  0.94491065  0.29865585  0.79054438  1
  O  O8  1  0.64935375  0.71238367  0.92219542  1
  O  O9  1  0.35064625  0.28761633  0.07780458  1
  O  O10  1  0.50832575  0.65610609  0.62007141  1
  O  O11  1  0.49167425  0.34389391  0.37992859  1
  O  O12  1  0.81842155  0.87368819  0.58713525  1
  O  O13  1  0.18157845  0.12631181  0.41286475  1
  O  O14  1  0.47100787  0.97702673  0.72794478  1
  O  O15  1  0.52899213  0.02297327  0.27205522  1
  O  O16  1  0.16388103  0.70754406  0.99770336  1
  O  O17  1  0.83611897  0.29245594  0.00229664  1
  O  O18  1  0.90880533  0.52336598  0.27434040  1
  O  O19  1  0.09119467  0.47663402  0.72565960  1
  O  O20  1  0.92008276  0.88251340  0.20693156  1
  O  O21  1  0.07991724  0.11748660  0.79306844  1
  O  O22  1  0.20952904  0.70474069  0.34568118  1
  O  O23  1  0.79047096  0.29525931  0.65431882  1
