# generated using pymatgen
data_YNiGe3
_symmetry_space_group_name_H-M   'P 1'
_cell_length_a   4.11233621
_cell_length_b   4.09576524
_cell_length_c   11.04454711
_cell_angle_alpha   90.00000000
_cell_angle_beta   100.72937876
_cell_angle_gamma   90.00000000
_symmetry_Int_Tables_number   1
_chemical_formula_structural   YNiGe3
_chemical_formula_sum   'Y2 Ni2 Ge6'
_cell_volume   182.77292448
_cell_formula_units_Z   2
loop_
 _symmetry_equiv_pos_site_id
 _symmetry_equiv_pos_as_xyz
  1  'x, y, z'
loop_
 _atom_site_type_symbol
 _atom_site_label
 _atom_site_symmetry_multiplicity
 _atom_site_fract_x
 _atom_site_fract_y
 _atom_site_fract_z
 _atom_site_occupancy
  Ni  Ni0  1  0.38951565  0.00000000  0.77903130  1
  Ni  Ni1  1  0.61048435  0.00000000  0.22096870  1
  Ge  Ge2  1  0.94257179  0.00000000  0.88514358  1
  Ge  Ge3  1  0.05742821  0.00000000  0.11485642  1
  Ge  Ge4  1  0.71661134  0.00000000  0.43322268  1
  Ge  Ge5  1  0.28338866  0.00000000  0.56677732  1
  Ge  Ge6  1  0.55725629  0.50000000  0.11451258  1
  Ge  Ge7  1  0.44274371  0.50000000  0.88548742  1
  Y  Y8  1  0.16924781  0.50000000  0.33849561  1
  Y  Y9  1  0.83075219  0.50000000  0.66150439  1
