# generated using pymatgen
data_RbNa2BO3
_symmetry_space_group_name_H-M   'P 1'
_cell_length_a   5.63031927
_cell_length_b   5.74036613
_cell_length_c   6.19913601
_cell_angle_alpha   90.00000000
_cell_angle_beta   90.00000000
_cell_angle_gamma   90.00000000
_symmetry_Int_Tables_number   1
_chemical_formula_structural   RbNa2BO3
_chemical_formula_sum   'Rb2 Na4 B2 O6'
_cell_volume   200.35665880
_cell_formula_units_Z   2
loop_
 _symmetry_equiv_pos_site_id
 _symmetry_equiv_pos_as_xyz
  1  'x, y, z'
loop_
 _atom_site_type_symbol
 _atom_site_label
 _atom_site_symmetry_multiplicity
 _atom_site_fract_x
 _atom_site_fract_y
 _atom_site_fract_z
 _atom_site_occupancy
  B  B0  1  0.78659670  0.75000000  0.25000000  1
  B  B1  1  0.21340330  0.25000000  0.75000000  1
  O  O2  1  0.65600388  0.54063372  0.25000000  1
  O  O3  1  0.34399612  0.45936628  0.75000000  1
  O  O4  1  0.03364511  0.75000000  0.25000000  1
  O  O5  1  0.96635489  0.25000000  0.75000000  1
  O  O6  1  0.34399612  0.04063372  0.75000000  1
  O  O7  1  0.65600388  0.95936628  0.25000000  1
  Na  Na8  1  0.36486107  0.75000000  0.01900040  1
  Na  Na9  1  0.36486107  0.75000000  0.48099960  1
  Na  Na10  1  0.63513893  0.25000000  0.98099960  1
  Na  Na11  1  0.63513893  0.25000000  0.51900040  1
  Rb  Rb12  1  0.89368285  0.75000000  0.75000000  1
  Rb  Rb13  1  0.10631715  0.25000000  0.25000000  1
