# generated using pymatgen
data_Ti2Cu
_symmetry_space_group_name_H-M   'P 1'
_cell_length_a   8.09881751
_cell_length_b   8.09881751
_cell_length_c   8.09881751
_cell_angle_alpha   60.00000000
_cell_angle_beta   60.00000000
_cell_angle_gamma   60.00000000
_symmetry_Int_Tables_number   1
_chemical_formula_structural   Ti2Cu
_chemical_formula_sum   'Ti16 Cu8'
_cell_volume   375.62097999
_cell_formula_units_Z   8
loop_
 _symmetry_equiv_pos_site_id
 _symmetry_equiv_pos_as_xyz
  1  'x, y, z'
loop_
 _atom_site_type_symbol
 _atom_site_label
 _atom_site_symmetry_multiplicity
 _atom_site_fract_x
 _atom_site_fract_y
 _atom_site_fract_z
 _atom_site_occupancy
  Ti  Ti0  1  -0.00000000  -0.00000000  0.50000000  1
  Ti  Ti1  1  0.00000000  0.50000000  0.00000000  1
  Ti  Ti2  1  0.50000000  -0.00000000  0.00000000  1
  Ti  Ti3  1  -0.00000000  -0.00000000  0.00000000  1
  Ti  Ti4  1  0.44134633  0.80865367  0.80865367  1
  Ti  Ti5  1  0.80865367  0.44134633  0.44134633  1
  Ti  Ti6  1  0.80865367  0.44134633  0.80865367  1
  Ti  Ti7  1  0.44134633  0.80865367  0.44134633  1
  Ti  Ti8  1  0.80865367  0.80865367  0.44134633  1
  Ti  Ti9  1  0.44134633  0.44134633  0.80865367  1
  Ti  Ti10  1  0.55865367  0.19134633  0.19134633  1
  Ti  Ti11  1  0.19134633  0.55865367  0.55865367  1
  Ti  Ti12  1  0.19134633  0.55865367  0.19134633  1
  Ti  Ti13  1  0.55865367  0.19134633  0.55865367  1
  Ti  Ti14  1  0.19134633  0.19134633  0.55865367  1
  Ti  Ti15  1  0.55865367  0.55865367  0.19134633  1
  Cu  Cu16  1  0.21076734  0.21076734  0.86769799  1
  Cu  Cu17  1  0.21076734  0.86769799  0.21076734  1
  Cu  Cu18  1  0.86769799  0.21076734  0.21076734  1
  Cu  Cu19  1  0.21076734  0.21076734  0.21076734  1
  Cu  Cu20  1  0.78923266  0.78923266  0.13230201  1
  Cu  Cu21  1  0.78923266  0.13230201  0.78923266  1
  Cu  Cu22  1  0.13230201  0.78923266  0.78923266  1
  Cu  Cu23  1  0.78923266  0.78923266  0.78923266  1
