# generated using pymatgen
data_Ta2PdS6
_symmetry_space_group_name_H-M   'P 1'
_cell_length_a   3.29102070
_cell_length_b   6.99499360
_cell_length_c   9.33278908
_cell_angle_alpha   80.08967915
_cell_angle_beta   79.84481020
_cell_angle_gamma   76.39416177
_symmetry_Int_Tables_number   1
_chemical_formula_structural   Ta2PdS6
_chemical_formula_sum   'Ta2 Pd1 S6'
_cell_volume   203.62136386
_cell_formula_units_Z   1
loop_
 _symmetry_equiv_pos_site_id
 _symmetry_equiv_pos_as_xyz
  1  'x, y, z'
loop_
 _atom_site_type_symbol
 _atom_site_label
 _atom_site_symmetry_multiplicity
 _atom_site_fract_x
 _atom_site_fract_y
 _atom_site_fract_z
 _atom_site_occupancy
  S  S0  1  0.32803529  0.80902121  0.53490821  1
  S  S1  1  0.97621202  0.81150579  0.23607018  1
  S  S2  1  0.02378798  0.18849421  0.76392982  1
  S  S3  1  0.67196471  0.19097879  0.46509179  1
  S  S4  1  0.20323873  0.72873228  0.86479026  1
  S  S5  1  0.79676127  0.27126772  0.13520974  1
  Pd  Pd6  1  0.00000000  0.00000000  0.00000000  1
  Ta  Ta7  1  0.68062459  0.93328164  0.70546918  1
  Ta  Ta8  1  0.31937541  0.06671836  0.29453082  1
