# generated using pymatgen
data_NaCrH22N6(Cl2O)2
_symmetry_space_group_name_H-M   'P 1'
_cell_length_a   7.14630586
_cell_length_b   9.27510032
_cell_length_c   22.85414679
_cell_angle_alpha   90.00000000
_cell_angle_beta   90.00000000
_cell_angle_gamma   90.00000000
_symmetry_Int_Tables_number   1
_chemical_formula_structural   NaCrH22N6(Cl2O)2
_chemical_formula_sum   'Na4 Cr4 H88 N24 Cl16 O8'
_cell_volume   1514.83464157
_cell_formula_units_Z   4
loop_
 _symmetry_equiv_pos_site_id
 _symmetry_equiv_pos_as_xyz
  1  'x, y, z'
loop_
 _atom_site_type_symbol
 _atom_site_label
 _atom_site_symmetry_multiplicity
 _atom_site_fract_x
 _atom_site_fract_y
 _atom_site_fract_z
 _atom_site_occupancy
  Na  Na0  1  0.10307940  0.09340919  0.87372596  1
  Na  Na1  1  0.39692060  0.90659081  0.37372596  1
  Na  Na2  1  0.60307940  0.40659081  0.12627404  1
  Na  Na3  1  0.89692060  0.59340919  0.62627404  1
  Cr  Cr4  1  0.09907579  0.90336015  0.12161583  1
  Cr  Cr5  1  0.40092421  0.09663985  0.62161583  1
  Cr  Cr6  1  0.59907579  0.59663985  0.87838417  1
  Cr  Cr7  1  0.90092421  0.40336015  0.37838417  1
  H  H8  1  0.00776757  0.63045958  0.09539082  1
  H  H9  1  0.04270477  0.64709801  0.33602687  1
  H  H10  1  0.04668938  0.83530838  0.44022641  1
  H  H11  1  0.06403249  0.36627078  0.27693366  1
  H  H12  1  0.07431711  0.49472584  0.47744162  1
  H  H13  1  0.08362347  0.71661888  0.03559804  1
  H  H14  1  0.08380948  0.08952526  0.67901670  1
  H  H15  1  0.10334123  0.46531967  0.73171647  1
  H  H16  1  0.08656368  0.10742541  0.56184079  1
  H  H17  1  0.12943912  0.09287442  0.20651777  1
  H  H18  1  0.12949376  0.22702533  0.31847021  1
  H  H19  1  0.13668754  0.93247080  0.57232449  1
  H  H20  1  0.13862012  0.26519349  0.67220098  1
  H  H21  1  0.17633180  0.18059884  0.14374472  1
  H  H22  1  0.18302722  0.56071780  0.41968094  1
  H  H23  1  0.21278405  0.38902090  0.43840974  1
  H  H24  1  0.20992535  0.77432472  0.47907785  1
  H  H25  1  0.22964170  0.39132756  0.32612275  1
  H  H26  1  0.23428252  0.65204074  0.08367352  1
  H  H27  1  0.23834960  0.16452743  0.72320780  1
  H  H28  1  0.24178740  0.02509287  0.51980039  1
  H  H29  1  0.24453299  0.52071545  0.68439421  1
  H  H30  1  0.25546701  0.47928455  0.18439421  1
  H  H31  1  0.25821260  0.97490713  0.01980039  1
  H  H32  1  0.26165040  0.83547257  0.22320780  1
  H  H33  1  0.26571748  0.34795926  0.58367352  1
  H  H34  1  0.27035830  0.60867244  0.82612275  1
  H  H35  1  0.29007465  0.22567528  0.97907785  1
  H  H36  1  0.28721595  0.61097910  0.93840974  1
  H  H37  1  0.31697278  0.43928220  0.91968094  1
  H  H38  1  0.32366820  0.81940116  0.64374472  1
  H  H39  1  0.36137988  0.73480651  0.17220098  1
  H  H40  1  0.36331246  0.06752920  0.07232449  1
  H  H41  1  0.37050624  0.77297467  0.81847021  1
  H  H42  1  0.37056088  0.90712558  0.70651777  1
  H  H43  1  0.41343632  0.89257459  0.06184079  1
  H  H44  1  0.39665877  0.53468033  0.23171647  1
  H  H45  1  0.41619052  0.91047474  0.17901670  1
  H  H46  1  0.41637653  0.28338112  0.53559804  1
  H  H47  1  0.42568289  0.50527416  0.97744162  1
  H  H48  1  0.43596751  0.63372922  0.77693366  1
  H  H49  1  0.45331062  0.16469162  0.94022641  1
  H  H50  1  0.45729523  0.35290199  0.83602687  1
  H  H51  1  0.49223243  0.36954042  0.59539082  1
  H  H52  1  0.50776757  0.86954042  0.90460918  1
  H  H53  1  0.54270477  0.85290199  0.66397313  1
  H  H54  1  0.54668938  0.66469162  0.55977359  1
  H  H55  1  0.56403249  0.13372922  0.72306634  1
  H  H56  1  0.57431711  0.00527416  0.52255838  1
  H  H57  1  0.58362347  0.78338112  0.96440196  1
  H  H58  1  0.58380948  0.41047474  0.32098330  1
  H  H59  1  0.60334123  0.03468033  0.26828353  1
  H  H60  1  0.58656368  0.39257459  0.43815921  1
  H  H61  1  0.62943912  0.40712558  0.79348223  1
  H  H62  1  0.62949376  0.27297467  0.68152979  1
  H  H63  1  0.63668754  0.56752920  0.42767551  1
  H  H64  1  0.63862012  0.23480651  0.32779902  1
  H  H65  1  0.67633180  0.31940116  0.85625528  1
  H  H66  1  0.68302722  0.93928220  0.58031906  1
  H  H67  1  0.71278405  0.11097910  0.56159026  1
  H  H68  1  0.70992535  0.72567528  0.52092215  1
  H  H69  1  0.72964170  0.10867244  0.67387725  1
  H  H70  1  0.73428252  0.84795926  0.91632648  1
  H  H71  1  0.73834960  0.33547257  0.27679220  1
  H  H72  1  0.74178740  0.47490713  0.48019961  1
  H  H73  1  0.74453299  0.97928455  0.31560579  1
  H  H74  1  0.75546701  0.02071545  0.81560579  1
  H  H75  1  0.75821260  0.52509287  0.98019961  1
  H  H76  1  0.76165040  0.66452743  0.77679220  1
  H  H77  1  0.76571748  0.15204074  0.41632648  1
  H  H78  1  0.77035830  0.89132756  0.17387725  1
  H  H79  1  0.79007465  0.27432472  0.02092215  1
  H  H80  1  0.78721595  0.88902090  0.06159026  1
  H  H81  1  0.81697278  0.06071780  0.08031906  1
  H  H82  1  0.82366820  0.68059884  0.35625528  1
  H  H83  1  0.86137988  0.76519349  0.82779902  1
  H  H84  1  0.86331246  0.43247080  0.92767551  1
  H  H85  1  0.87050624  0.72702533  0.18152979  1
  H  H86  1  0.87056088  0.59287442  0.29348223  1
  H  H87  1  0.91343632  0.60742541  0.93815921  1
  H  H88  1  0.89665877  0.96531967  0.76828353  1
  H  H89  1  0.91619052  0.58952526  0.82098330  1
  H  H90  1  0.91637653  0.21661888  0.46440196  1
  H  H91  1  0.92568289  0.99472584  0.02255838  1
  H  H92  1  0.93596751  0.86627078  0.22306634  1
  H  H93  1  0.95331062  0.33530838  0.05977359  1
  H  H94  1  0.95729523  0.14709801  0.16397313  1
  H  H95  1  0.99223243  0.13045958  0.40460918  1
  N  N96  1  0.09087565  0.10527223  0.16343312  1
  N  N97  1  0.10609738  0.70160908  0.07977228  1
  N  N98  1  0.10620806  0.33695950  0.31849037  1
  N  N99  1  0.11473514  0.47107132  0.43540006  1
  N  N100  1  0.19185808  0.16387729  0.68064303  1
  N  N101  1  0.19283207  0.03139200  0.56196115  1
  N  N102  1  0.30716793  0.96860800  0.06196115  1
  N  N103  1  0.30814192  0.83612271  0.18064303  1
  N  N104  1  0.38526486  0.52892868  0.93540006  1
  N  N105  1  0.39379194  0.66304050  0.81849037  1
  N  N106  1  0.39390262  0.29839092  0.57977228  1
  N  N107  1  0.40912435  0.89472777  0.66343312  1
  N  N108  1  0.59087565  0.39472777  0.83656688  1
  N  N109  1  0.60609738  0.79839092  0.92022772  1
  N  N110  1  0.60620806  0.16304050  0.68150963  1
  N  N111  1  0.61473514  0.02892868  0.56459994  1
  N  N112  1  0.69185808  0.33612271  0.31935697  1
  N  N113  1  0.69283207  0.46860800  0.43803885  1
  N  N114  1  0.80716793  0.53139200  0.93803885  1
  N  N115  1  0.80814192  0.66387729  0.81935697  1
  N  N116  1  0.88526486  0.97107132  0.06459994  1
  N  N117  1  0.89379194  0.83695950  0.18150963  1
  N  N118  1  0.89390262  0.20160908  0.42022772  1
  N  N119  1  0.90912435  0.60527223  0.33656688  1
  Cl  Cl120  1  0.07852029  0.97968284  0.30285348  1
  Cl  Cl121  1  0.09922209  0.38912786  0.82347396  1
  Cl  Cl122  1  0.09774840  0.80766973  0.93863521  1
  Cl  Cl123  1  0.23241199  0.66328952  0.56118180  1
  Cl  Cl124  1  0.26758801  0.33671048  0.06118180  1
  Cl  Cl125  1  0.40225160  0.19233027  0.43863521  1
  Cl  Cl126  1  0.40077791  0.61087114  0.32347396  1
  Cl  Cl127  1  0.42147971  0.02031716  0.80285348  1
  Cl  Cl128  1  0.57852029  0.52031716  0.69714652  1
  Cl  Cl129  1  0.59922209  0.11087214  0.17652604  1
  Cl  Cl130  1  0.59774840  0.69233027  0.06136479  1
  Cl  Cl131  1  0.73241199  0.83671048  0.43881820  1
  Cl  Cl132  1  0.76758801  0.16328952  0.93881820  1
  Cl  Cl133  1  0.90225160  0.30766973  0.56136479  1
  Cl  Cl134  1  0.90077791  0.88912886  0.67652604  1
  Cl  Cl135  1  0.92147971  0.47968284  0.19714652  1
  O  O136  1  0.11374020  0.48926030  0.68973411  1
  O  O137  1  0.18420050  0.82390433  0.44158685  1
  O  O138  1  0.31579950  0.17609567  0.94158685  1
  O  O139  1  0.38625980  0.51073970  0.18973411  1
  O  O140  1  0.61374020  0.01073970  0.31026589  1
  O  O141  1  0.68420050  0.67609567  0.55841315  1
  O  O142  1  0.81579950  0.32390433  0.05841315  1
  O  O143  1  0.88625980  0.98926030  0.81026589  1
