# generated using pymatgen
data_Ta2PdSe6
_symmetry_space_group_name_H-M   'P 1'
_cell_length_a   3.40640197
_cell_length_b   7.28947644
_cell_length_c   9.74199223
_cell_angle_alpha   80.58682276
_cell_angle_beta   79.93118405
_cell_angle_gamma   76.48782196
_symmetry_Int_Tables_number   1
_chemical_formula_structural   Ta2PdSe6
_chemical_formula_sum   'Ta2 Pd1 Se6'
_cell_volume   229.67391546
_cell_formula_units_Z   1
loop_
 _symmetry_equiv_pos_site_id
 _symmetry_equiv_pos_as_xyz
  1  'x, y, z'
loop_
 _atom_site_type_symbol
 _atom_site_label
 _atom_site_symmetry_multiplicity
 _atom_site_fract_x
 _atom_site_fract_y
 _atom_site_fract_z
 _atom_site_occupancy
  Se  Se0  1  0.20606226  0.72186567  0.86600980  1
  Se  Se1  1  0.79393774  0.27813433  0.13399020  1
  Se  Se2  1  0.66937713  0.19436882  0.46687693  1
  Se  Se3  1  0.01760728  0.19820456  0.76658087  1
  Se  Se4  1  0.98239272  0.80179544  0.23341913  1
  Se  Se5  1  0.33062287  0.80563118  0.53312307  1
  Pd  Pd6  1  0.00000000  0.00000000  0.00000000  1
  Ta  Ta7  1  0.67740080  0.93610371  0.70909469  1
  Ta  Ta8  1  0.32259920  0.06389629  0.29090531  1
