# generated using pymatgen
data_Ca3N2
_symmetry_space_group_name_H-M   'P 1'
_cell_length_a   9.93809294
_cell_length_b   9.93809294
_cell_length_c   9.93809294
_cell_angle_alpha   109.47122065
_cell_angle_beta   109.47122065
_cell_angle_gamma   109.47122061
_symmetry_Int_Tables_number   1
_chemical_formula_structural   Ca3N2
_chemical_formula_sum   'Ca24 N16'
_cell_volume   755.59186094
_cell_formula_units_Z   8
loop_
 _symmetry_equiv_pos_site_id
 _symmetry_equiv_pos_as_xyz
  1  'x, y, z'
loop_
 _atom_site_type_symbol
 _atom_site_label
 _atom_site_symmetry_multiplicity
 _atom_site_fract_x
 _atom_site_fract_y
 _atom_site_fract_z
 _atom_site_occupancy
  N  N0  1  0.25000000  0.71040161  0.46040161  1
  N  N1  1  0.03959839  0.75000000  0.78959839  1
  N  N2  1  0.78959839  0.03959839  0.75000000  1
  N  N3  1  0.46040161  0.25000000  0.71040161  1
  N  N4  1  0.71040161  0.46040161  0.25000000  1
  N  N5  1  0.75000000  0.78959839  0.03959839  1
  N  N6  1  0.75000000  0.28959839  0.53959839  1
  N  N7  1  0.96040161  0.25000000  0.21040161  1
  N  N8  1  0.21040161  0.96040161  0.25000000  1
  N  N9  1  0.53959839  0.75000000  0.28959839  1
  N  N10  1  0.28959839  0.53959839  0.75000000  1
  N  N11  1  0.25000000  0.21040161  0.96040161  1
  N  N12  1  0.00000000  0.50000000  0.00000000  1
  N  N13  1  0.50000000  0.00000000  0.00000000  1
  N  N14  1  0.00000000  0.00000000  0.50000000  1
  N  N15  1  0.50000000  0.50000000  0.50000000  1
  Ca  Ca16  1  0.04385284  0.27148322  0.00672738  1
  Ca  Ca17  1  0.27236962  0.73524416  0.22851678  1
  Ca  Ca18  1  0.76475584  0.03712546  0.49327262  1
  Ca  Ca19  1  0.45614716  0.46287454  0.22763038  1
  Ca  Ca20  1  0.22763038  0.45614716  0.46287454  1
  Ca  Ca21  1  0.27148322  0.00672738  0.04385284  1
  Ca  Ca22  1  0.22851678  0.27236962  0.73524416  1
  Ca  Ca23  1  0.03712546  0.49327262  0.76475584  1
  Ca  Ca24  1  0.49327262  0.76475584  0.03712546  1
  Ca  Ca25  1  0.73524416  0.22851678  0.27236962  1
  Ca  Ca26  1  0.00672738  0.04385284  0.27148322  1
  Ca  Ca27  1  0.46287454  0.22763038  0.45614716  1
  Ca  Ca28  1  0.96287454  0.50672738  0.23524416  1
  Ca  Ca29  1  0.77148322  0.72763038  0.26475584  1
  Ca  Ca30  1  0.72851678  0.99327262  0.95614716  1
  Ca  Ca31  1  0.77236962  0.54385284  0.53712546  1
  Ca  Ca32  1  0.54385284  0.53712546  0.77236962  1
  Ca  Ca33  1  0.23524416  0.96287454  0.50672738  1
  Ca  Ca34  1  0.72763038  0.26475584  0.77148322  1
  Ca  Ca35  1  0.95614716  0.72851678  0.99327262  1
  Ca  Ca36  1  0.50672738  0.23524416  0.96287454  1
  Ca  Ca37  1  0.26475584  0.77148322  0.72763038  1
  Ca  Ca38  1  0.99327262  0.95614716  0.72851678  1
  Ca  Ca39  1  0.53712546  0.77236962  0.54385284  1
