# generated using pymatgen
data_Dy5P12Ru19
_symmetry_space_group_name_H-M   'P 1'
_cell_length_a   12.53314566
_cell_length_b   12.53314566
_cell_length_c   3.98472679
_cell_angle_alpha   90.00000000
_cell_angle_beta   90.00000000
_cell_angle_gamma   120.00000000
_symmetry_Int_Tables_number   1
_chemical_formula_structural   Dy5P12Ru19
_chemical_formula_sum   'Dy5 P12 Ru19'
_cell_volume   542.06248965
_cell_formula_units_Z   1
loop_
 _symmetry_equiv_pos_site_id
 _symmetry_equiv_pos_as_xyz
  1  'x, y, z'
loop_
 _atom_site_type_symbol
 _atom_site_label
 _atom_site_symmetry_multiplicity
 _atom_site_fract_x
 _atom_site_fract_y
 _atom_site_fract_z
 _atom_site_occupancy
  P  P0  1  0.00000000  0.37322155  0.00000000  1
  P  P1  1  0.62677845  0.62677845  0.00000000  1
  P  P2  1  0.37322155  0.00000000  0.00000000  1
  P  P3  1  0.47723356  0.30576919  0.50000000  1
  P  P4  1  0.69423081  0.17146437  0.50000000  1
  P  P5  1  0.17146437  0.69423081  0.50000000  1
  P  P6  1  0.30576919  0.47723356  0.50000000  1
  P  P7  1  0.00000000  0.81545778  0.00000000  1
  P  P8  1  0.18454222  0.18454222  0.00000000  1
  P  P9  1  0.81545778  0.00000000  0.00000000  1
  P  P10  1  0.82853563  0.52276644  0.50000000  1
  P  P11  1  0.52276644  0.82853563  0.50000000  1
  Ru  Ru12  1  0.19168807  0.37678700  0.00000000  1
  Ru  Ru13  1  0.62321300  0.81490108  0.00000000  1
  Ru  Ru14  1  0.81490108  0.62321300  0.00000000  1
  Ru  Ru15  1  0.18509892  0.80831193  0.00000000  1
  Ru  Ru16  1  0.37678700  0.19168807  0.00000000  1
  Ru  Ru17  1  0.49243306  0.12613312  0.50000000  1
  Ru  Ru18  1  0.63370006  0.50756694  0.50000000  1
  Ru  Ru19  1  0.87386688  0.36629994  0.50000000  1
  Ru  Ru20  1  0.36629994  0.87386688  0.50000000  1
  Ru  Ru21  1  0.50756694  0.63370006  0.50000000  1
  Ru  Ru22  1  0.12613312  0.49243306  0.50000000  1
  Ru  Ru23  1  0.00000000  0.00000000  0.00000000  1
  Ru  Ru24  1  0.28262965  0.28262965  0.50000000  1
  Ru  Ru25  1  0.71737035  0.00000000  0.50000000  1
  Ru  Ru26  1  0.00000000  0.55498939  0.00000000  1
  Ru  Ru27  1  0.44501061  0.44501061  0.00000000  1
  Ru  Ru28  1  0.55498939  0.00000000  0.00000000  1
  Ru  Ru29  1  0.80831193  0.18509892  0.00000000  1
  Ru  Ru30  1  0.00000000  0.71737035  0.50000000  1
  Dy  Dy31  1  0.66666667  0.33333333  0.00000000  1
  Dy  Dy32  1  0.33333333  0.66666667  0.00000000  1
  Dy  Dy33  1  0.00000000  0.18383515  0.50000000  1
  Dy  Dy34  1  0.81616485  0.81616485  0.50000000  1
  Dy  Dy35  1  0.18383515  0.00000000  0.50000000  1
