# generated using pymatgen
data_SmNiGe3
_symmetry_space_group_name_H-M   'P 1'
_cell_length_a   4.14318644
_cell_length_b   4.13892361
_cell_length_c   11.10738030
_cell_angle_alpha   100.73775823
_cell_angle_beta   90.00000000
_cell_angle_gamma   90.00000000
_symmetry_Int_Tables_number   1
_chemical_formula_structural   SmNiGe3
_chemical_formula_sum   'Sm2 Ni2 Ge6'
_cell_volume   187.13790726
_cell_formula_units_Z   2
loop_
 _symmetry_equiv_pos_site_id
 _symmetry_equiv_pos_as_xyz
  1  'x, y, z'
loop_
 _atom_site_type_symbol
 _atom_site_label
 _atom_site_symmetry_multiplicity
 _atom_site_fract_x
 _atom_site_fract_y
 _atom_site_fract_z
 _atom_site_occupancy
  Ni  Ni0  1  0.00000000  0.60964682  0.21929365  1
  Ni  Ni1  1  0.00000000  0.39035318  0.78070635  1
  Ge  Ge2  1  0.00000000  0.05707035  0.11414071  1
  Ge  Ge3  1  0.00000000  0.94292965  0.88585929  1
  Ge  Ge4  1  0.00000000  0.28369179  0.56738358  1
  Ge  Ge5  1  0.00000000  0.71630821  0.43261642  1
  Ge  Ge6  1  0.50000000  0.44298291  0.88596581  1
  Ge  Ge7  1  0.50000000  0.55701709  0.11403419  1
  Sm  Sm8  1  0.50000000  0.83111765  0.66223531  1
  Sm  Sm9  1  0.50000000  0.16888235  0.33776469  1
