# generated using pymatgen
data_Ba(GaS2)2
_symmetry_space_group_name_H-M   'P 1'
_cell_length_a   12.84023256
_cell_length_b   12.84023256
_cell_length_c   12.84023256
_cell_angle_alpha   90.00000000
_cell_angle_beta   90.00000000
_cell_angle_gamma   90.00000000
_symmetry_Int_Tables_number   1
_chemical_formula_structural   Ba(GaS2)2
_chemical_formula_sum   'Ba12 Ga24 S48'
_cell_volume   2116.98932952
_cell_formula_units_Z   12
loop_
 _symmetry_equiv_pos_site_id
 _symmetry_equiv_pos_as_xyz
  1  'x, y, z'
loop_
 _atom_site_type_symbol
 _atom_site_label
 _atom_site_symmetry_multiplicity
 _atom_site_fract_x
 _atom_site_fract_y
 _atom_site_fract_z
 _atom_site_occupancy
  Ba  Ba0  1  0.00000000  0.00000000  0.00000000  1
  Ba  Ba1  1  0.00000000  0.50000000  0.50000000  1
  Ba  Ba2  1  0.12809375  0.87190625  0.37190625  1
  Ba  Ba3  1  0.12809375  0.62809375  0.87190625  1
  Ba  Ba4  1  0.37190625  0.37190625  0.37190625  1
  Ba  Ba5  1  0.37190625  0.12809375  0.87190625  1
  Ba  Ba6  1  0.50000000  0.00000000  0.50000000  1
  Ba  Ba7  1  0.50000000  0.50000000  0.00000000  1
  Ba  Ba8  1  0.62809375  0.87190625  0.12809375  1
  Ba  Ba9  1  0.62809375  0.62809375  0.62809375  1
  Ba  Ba10  1  0.87190625  0.12809375  0.62809375  1
  Ba  Ba11  1  0.87190625  0.37190625  0.12809375  1
  Ga  Ga12  1  0.12673684  0.19572860  0.35692102  1
  Ga  Ga13  1  0.12673684  0.30427140  0.85692102  1
  Ga  Ga14  1  0.14307898  0.62673684  0.19572860  1
  Ga  Ga15  1  0.14307898  0.87326316  0.69572860  1
  Ga  Ga16  1  0.19572860  0.14307898  0.62673684  1
  Ga  Ga17  1  0.19572860  0.35692102  0.12673684  1
  Ga  Ga18  1  0.30427140  0.85692102  0.12673684  1
  Ga  Ga19  1  0.30427140  0.64307898  0.62673684  1
  Ga  Ga20  1  0.35692102  0.12673684  0.19572860  1
  Ga  Ga21  1  0.35692102  0.37326316  0.69572860  1
  Ga  Ga22  1  0.37326316  0.69572860  0.35692102  1
  Ga  Ga23  1  0.37326316  0.80427140  0.85692102  1
  Ga  Ga24  1  0.62673684  0.19572860  0.14307898  1
  Ga  Ga25  1  0.62673684  0.30427140  0.64307898  1
  Ga  Ga26  1  0.64307898  0.62673684  0.30427140  1
  Ga  Ga27  1  0.64307898  0.87326316  0.80427140  1
  Ga  Ga28  1  0.69572860  0.14307898  0.87326316  1
  Ga  Ga29  1  0.69572860  0.35692102  0.37326316  1
  Ga  Ga30  1  0.80427140  0.64307898  0.87326316  1
  Ga  Ga31  1  0.80427140  0.85692102  0.37326316  1
  Ga  Ga32  1  0.85692102  0.12673684  0.30427140  1
  Ga  Ga33  1  0.85692102  0.37326316  0.80427140  1
  Ga  Ga34  1  0.87326316  0.69572860  0.14307898  1
  Ga  Ga35  1  0.87326316  0.80427140  0.64307898  1
  S  S36  1  0.02657241  0.07679755  0.27053542  1
  S  S37  1  0.02657241  0.42320245  0.77053542  1
  S  S38  1  0.07679755  0.27053542  0.02657241  1
  S  S39  1  0.07679755  0.22946458  0.52657241  1
  S  S40  1  0.12784964  0.36231580  0.29325128  1
  S  S41  1  0.12784964  0.13768420  0.79325128  1
  S  S42  1  0.13768420  0.79325128  0.12784964  1
  S  S43  1  0.13768420  0.70674872  0.62784964  1
  S  S44  1  0.20674872  0.62784964  0.36231580  1
  S  S45  1  0.20674872  0.87215036  0.86231580  1
  S  S46  1  0.22946458  0.52657241  0.07679755  1
  S  S47  1  0.22946458  0.97342759  0.57679755  1
  S  S48  1  0.27053542  0.02657241  0.07679755  1
  S  S49  1  0.27053542  0.47342759  0.57679755  1
  S  S50  1  0.29325128  0.12784964  0.36231580  1
  S  S51  1  0.29325128  0.37215036  0.86231580  1
  S  S52  1  0.36231580  0.29325128  0.12784964  1
  S  S53  1  0.36231580  0.20674872  0.62784964  1
  S  S54  1  0.37215036  0.86231580  0.29325128  1
  S  S55  1  0.37215036  0.63768420  0.79325128  1
  S  S56  1  0.42320245  0.72946458  0.52657241  1
  S  S57  1  0.42320245  0.77053542  0.02657241  1
  S  S58  1  0.47342759  0.57679755  0.27053542  1
  S  S59  1  0.47342759  0.92320245  0.77053542  1
  S  S60  1  0.52657241  0.07679755  0.22946458  1
  S  S61  1  0.52657241  0.42320245  0.72946458  1
  S  S62  1  0.57679755  0.27053542  0.47342759  1
  S  S63  1  0.57679755  0.22946458  0.97342759  1
  S  S64  1  0.62784964  0.36231580  0.20674872  1
  S  S65  1  0.62784964  0.13768420  0.70674872  1
  S  S66  1  0.63768420  0.70674872  0.87215036  1
  S  S67  1  0.63768420  0.79325128  0.37215036  1
  S  S68  1  0.70674872  0.62784964  0.13768420  1
  S  S69  1  0.70674872  0.87215036  0.63768420  1
  S  S70  1  0.72946458  0.52657241  0.42320245  1
  S  S71  1  0.72946458  0.97342759  0.92320245  1
  S  S72  1  0.77053542  0.02657241  0.42320245  1
  S  S73  1  0.77053542  0.47342759  0.92320245  1
  S  S74  1  0.79325128  0.12784964  0.13768420  1
  S  S75  1  0.79325128  0.37215036  0.63768420  1
  S  S76  1  0.86231580  0.20674872  0.87215036  1
  S  S77  1  0.86231580  0.29325128  0.37215036  1
  S  S78  1  0.87215036  0.63768420  0.70674872  1
  S  S79  1  0.87215036  0.86231580  0.20674872  1
  S  S80  1  0.92320245  0.72946458  0.97342759  1
  S  S81  1  0.92320245  0.77053542  0.47342759  1
  S  S82  1  0.97342759  0.57679755  0.22946458  1
  S  S83  1  0.97342759  0.92320245  0.72946458  1
