# generated using pymatgen
data_NaAlO2
_symmetry_space_group_name_H-M   'P 1'
_cell_length_a   5.28575982
_cell_length_b   5.46467814
_cell_length_c   7.06330830
_cell_angle_alpha   90.00000000
_cell_angle_beta   90.00000000
_cell_angle_gamma   90.00000000
_symmetry_Int_Tables_number   1
_chemical_formula_structural   NaAlO2
_chemical_formula_sum   'Na4 Al4 O8'
_cell_volume   204.02349173
_cell_formula_units_Z   4
loop_
 _symmetry_equiv_pos_site_id
 _symmetry_equiv_pos_as_xyz
  1  'x, y, z'
loop_
 _atom_site_type_symbol
 _atom_site_label
 _atom_site_symmetry_multiplicity
 _atom_site_fract_x
 _atom_site_fract_y
 _atom_site_fract_z
 _atom_site_occupancy
  O  O0  1  0.92930687  0.87451948  0.32638948  1
  O  O1  1  0.42930687  0.12548052  0.67361052  1
  O  O2  1  0.42930687  0.62548052  0.82638948  1
  O  O3  1  0.92930687  0.37451948  0.17361052  1
  O  O4  1  0.32950985  0.53279526  0.42244754  1
  O  O5  1  0.32950985  0.03279526  0.07755246  1
  O  O6  1  0.82950985  0.96720474  0.92244754  1
  O  O7  1  0.82950985  0.46720474  0.57755246  1
  Na  Na8  1  0.48513630  0.43015926  0.12271141  1
  Na  Na9  1  0.98513630  0.06984074  0.62271141  1
  Na  Na10  1  0.98513630  0.56984074  0.87728859  1
  Na  Na11  1  0.48513630  0.93015926  0.37728859  1
  Al  Al12  1  0.00044698  0.56100736  0.37410619  1
  Al  Al13  1  0.50044698  0.43899264  0.62589381  1
  Al  Al14  1  0.50044698  0.93899264  0.87410619  1
  Al  Al15  1  0.00044698  0.06100736  0.12589381  1
