# generated using pymatgen
data_Sr2B4Rh5
_symmetry_space_group_name_H-M   'P 1'
_cell_length_a   5.59030788
_cell_length_b   5.79067859
_cell_length_c   6.31883148
_cell_angle_alpha   77.67109427
_cell_angle_beta   63.74589285
_cell_angle_gamma   61.13818247
_symmetry_Int_Tables_number   1
_chemical_formula_structural   Sr2B4Rh5
_chemical_formula_sum   'Sr2 B4 Rh5'
_cell_volume   160.66290911
_cell_formula_units_Z   1
loop_
 _symmetry_equiv_pos_site_id
 _symmetry_equiv_pos_as_xyz
  1  'x, y, z'
loop_
 _atom_site_type_symbol
 _atom_site_label
 _atom_site_symmetry_multiplicity
 _atom_site_fract_x
 _atom_site_fract_y
 _atom_site_fract_z
 _atom_site_occupancy
  B  B0  1  0.20684994  0.33012117  0.25617894  1
  B  B1  1  0.79315006  0.66987883  0.74382106  1
  B  B2  1  0.46302888  0.33012117  0.74382106  1
  B  B3  1  0.53697112  0.66987883  0.25617894  1
  Sr  Sr4  1  0.14439768  0.00000000  0.71120465  1
  Sr  Sr5  1  0.85560232  0.00000000  0.28879535  1
  Rh  Rh6  1  0.50000000  0.00000000  0.00000000  1
  Rh  Rh7  1  0.50000000  0.50000000  0.00000000  1
  Rh  Rh8  1  0.00000000  0.50000000  0.00000000  1
  Rh  Rh9  1  0.25000000  0.50000000  0.50000000  1
  Rh  Rh10  1  0.75000000  0.50000000  0.50000000  1
