# generated using pymatgen
data_CaU(PO4)2
_symmetry_space_group_name_H-M   'P 1'
_cell_length_a   6.20149741
_cell_length_b   7.02821803
_cell_length_c   14.08095044
_cell_angle_alpha   90.00000000
_cell_angle_beta   90.00000000
_cell_angle_gamma   90.00000000
_symmetry_Int_Tables_number   1
_chemical_formula_structural   CaU(PO4)2
_chemical_formula_sum   'Ca4 U4 P8 O32'
_cell_volume   613.72492619
_cell_formula_units_Z   4
loop_
 _symmetry_equiv_pos_site_id
 _symmetry_equiv_pos_as_xyz
  1  'x, y, z'
loop_
 _atom_site_type_symbol
 _atom_site_label
 _atom_site_symmetry_multiplicity
 _atom_site_fract_x
 _atom_site_fract_y
 _atom_site_fract_z
 _atom_site_occupancy
  O  O0  1  0.77270196  0.75000000  0.03757506  1
  O  O1  1  0.27270196  0.25000000  0.46242494  1
  O  O2  1  0.22729804  0.25000000  0.96242494  1
  O  O3  1  0.72729804  0.75000000  0.53757506  1
  O  O4  1  0.79396484  0.75000000  0.21023532  1
  O  O5  1  0.29396484  0.25000000  0.28976468  1
  O  O6  1  0.20603516  0.25000000  0.78976468  1
  O  O7  1  0.70603516  0.75000000  0.71023532  1
  O  O8  1  0.53062587  0.42162660  0.87098903  1
  O  O9  1  0.03062587  0.57837340  0.62901097  1
  O  O10  1  0.46937413  0.92162660  0.12901097  1
  O  O11  1  0.96937413  0.07837340  0.37098903  1
  O  O12  1  0.46937413  0.57837340  0.12901097  1
  O  O13  1  0.96937413  0.42162660  0.37098903  1
  O  O14  1  0.53062587  0.07837340  0.87098903  1
  O  O15  1  0.03062587  0.92162660  0.62901097  1
  O  O16  1  0.27016398  0.75000000  0.79056090  1
  O  O17  1  0.77016398  0.25000000  0.70943910  1
  O  O18  1  0.72983602  0.25000000  0.20943910  1
  O  O19  1  0.22983602  0.75000000  0.29056090  1
  O  O20  1  0.22551501  0.75000000  0.96681298  1
  O  O21  1  0.72551501  0.25000000  0.53318702  1
  O  O22  1  0.77448499  0.25000000  0.03318702  1
  O  O23  1  0.27448499  0.75000000  0.46681298  1
  O  O24  1  0.95002690  0.92718849  0.86607096  1
  O  O25  1  0.45002690  0.07281151  0.63392904  1
  O  O26  1  0.04997310  0.42718849  0.13392904  1
  O  O27  1  0.54997310  0.57281151  0.36607096  1
  O  O28  1  0.04997310  0.07281151  0.13392904  1
  O  O29  1  0.54997310  0.92718849  0.36607096  1
  O  O30  1  0.95002690  0.57281151  0.86607096  1
  O  O31  1  0.45002690  0.42718849  0.63392904  1
  P  P32  1  0.40025768  0.75000000  0.37132318  1
  P  P33  1  0.90025768  0.25000000  0.12867682  1
  P  P34  1  0.59974232  0.25000000  0.62867682  1
  P  P35  1  0.09974232  0.75000000  0.87132318  1
  P  P36  1  0.62835578  0.75000000  0.12724200  1
  P  P37  1  0.12835578  0.25000000  0.37275800  1
  P  P38  1  0.37164422  0.25000000  0.87275800  1
  P  P39  1  0.87164422  0.75000000  0.62724200  1
  Ca  Ca40  1  0.89394572  0.75000000  0.38018761  1
  Ca  Ca41  1  0.39394572  0.25000000  0.11981239  1
  Ca  Ca42  1  0.10605428  0.25000000  0.61981239  1
  Ca  Ca43  1  0.60605428  0.75000000  0.88018761  1
  U  U44  1  0.12953664  0.75000000  0.12793937  1
  U  U45  1  0.62953664  0.25000000  0.37206063  1
  U  U46  1  0.87046336  0.25000000  0.87206063  1
  U  U47  1  0.37046336  0.75000000  0.62793937  1
