# generated using pymatgen
data_Ba3NaNbO6
_symmetry_space_group_name_H-M   'P 1'
_cell_length_a   7.24252663
_cell_length_b   7.24252663
_cell_length_c   7.24252663
_cell_angle_alpha   91.89354262
_cell_angle_beta   91.89354264
_cell_angle_gamma   91.89354259
_symmetry_Int_Tables_number   1
_chemical_formula_structural   Ba3NaNbO6
_chemical_formula_sum   'Ba6 Na2 Nb2 O12'
_cell_volume   379.26447436
_cell_formula_units_Z   2
loop_
 _symmetry_equiv_pos_site_id
 _symmetry_equiv_pos_as_xyz
  1  'x, y, z'
loop_
 _atom_site_type_symbol
 _atom_site_label
 _atom_site_symmetry_multiplicity
 _atom_site_fract_x
 _atom_site_fract_y
 _atom_site_fract_z
 _atom_site_occupancy
  O  O0  1  0.23210210  0.55067752  0.42265464  1
  O  O1  1  0.55067752  0.42265464  0.23210210  1
  O  O2  1  0.42265464  0.23210210  0.55067752  1
  O  O3  1  0.07734536  0.94932248  0.26789790  1
  O  O4  1  0.94932248  0.26789790  0.07734536  1
  O  O5  1  0.26789790  0.07734536  0.94932248  1
  O  O6  1  0.76789790  0.44932248  0.57734536  1
  O  O7  1  0.44932248  0.57734536  0.76789790  1
  O  O8  1  0.57734536  0.76789790  0.44932248  1
  O  O9  1  0.92265464  0.05067752  0.73210210  1
  O  O10  1  0.73210210  0.92265464  0.05067752  1
  O  O11  1  0.05067752  0.73210210  0.92265464  1
  Na  Na12  1  0.25000000  0.25000000  0.25000000  1
  Na  Na13  1  0.75000000  0.75000000  0.75000000  1
  Nb  Nb14  1  0.00000000  0.00000000  0.00000000  1
  Nb  Nb15  1  0.50000000  0.50000000  0.50000000  1
  Ba  Ba16  1  0.39774515  0.75000000  0.10225485  1
  Ba  Ba17  1  0.75000000  0.10225485  0.39774515  1
  Ba  Ba18  1  0.10225485  0.39774515  0.75000000  1
  Ba  Ba19  1  0.60225485  0.25000000  0.89774515  1
  Ba  Ba20  1  0.25000000  0.89774515  0.60225485  1
  Ba  Ba21  1  0.89774515  0.60225485  0.25000000  1
