# generated using pymatgen
data_KSrP3H11N3O10
_symmetry_space_group_name_H-M   'P 1'
_cell_length_a   10.67865687
_cell_length_b   10.99628009
_cell_length_c   11.90597564
_cell_angle_alpha   111.62419605
_cell_angle_beta   90.00000000
_cell_angle_gamma   90.00000000
_symmetry_Int_Tables_number   1
_chemical_formula_structural   KSrP3H11N3O10
_chemical_formula_sum   'K4 Sr4 P12 H44 N12 O40'
_cell_volume   1299.67065916
_cell_formula_units_Z   4
loop_
 _symmetry_equiv_pos_site_id
 _symmetry_equiv_pos_as_xyz
  1  'x, y, z'
loop_
 _atom_site_type_symbol
 _atom_site_label
 _atom_site_symmetry_multiplicity
 _atom_site_fract_x
 _atom_site_fract_y
 _atom_site_fract_z
 _atom_site_occupancy
  K  K0  1  0.37316947  0.06169115  0.29948773  1
  K  K1  1  0.12683053  0.56169115  0.79948773  1
  K  K2  1  0.62683053  0.93830885  0.70051227  1
  K  K3  1  0.87316947  0.43830885  0.20051227  1
  Sr  Sr4  1  0.02342264  0.70176745  0.53955012  1
  Sr  Sr5  1  0.47657736  0.20176745  0.03955012  1
  Sr  Sr6  1  0.97657736  0.29823255  0.46044988  1
  Sr  Sr7  1  0.52342264  0.79823255  0.96044988  1
  P  P8  1  0.35300776  0.72351758  0.65512685  1
  P  P9  1  0.14699224  0.22351758  0.15512685  1
  P  P10  1  0.64699224  0.27648242  0.34487315  1
  P  P11  1  0.85300776  0.77648242  0.84487315  1
  P  P12  1  0.27700374  0.45616586  0.50386795  1
  P  P13  1  0.22299626  0.95616586  0.00386795  1
  P  P14  1  0.72299626  0.54383414  0.49613205  1
  P  P15  1  0.77700374  0.04383414  0.99613205  1
  P  P16  1  0.33918616  0.64950947  0.39174259  1
  P  P17  1  0.16081384  0.14950947  0.89174259  1
  P  P18  1  0.66081384  0.35049053  0.60825741  1
  P  P19  1  0.83918616  0.85049053  0.10825741  1
  H  H20  1  0.43497453  0.52778958  0.64379396  1
  H  H21  1  0.06502547  0.02778958  0.14379396  1
  H  H22  1  0.56502547  0.47221042  0.35620604  1
  H  H23  1  0.93497453  0.97221042  0.85620604  1
  H  H24  1  0.31476019  0.42082463  0.30481987  1
  H  H25  1  0.18523981  0.92082463  0.80481987  1
  H  H26  1  0.68523981  0.57917537  0.69518013  1
  H  H27  1  0.81476019  0.07917537  0.19518013  1
  H  H28  1  0.50599262  0.71443865  0.51824801  1
  H  H29  1  0.99400738  0.21443865  0.01824801  1
  H  H30  1  0.49400738  0.28556135  0.48175199  1
  H  H31  1  0.00599262  0.78556135  0.98175199  1
  H  H32  1  0.79667635  0.72221591  0.40237107  1
  H  H33  1  0.70332365  0.22221591  0.90237107  1
  H  H34  1  0.20332365  0.27778409  0.59762893  1
  H  H35  1  0.29667635  0.77778409  0.09762893  1
  H  H36  1  0.88377823  0.76739920  0.31455081  1
  H  H37  1  0.61622177  0.26739920  0.81455081  1
  H  H38  1  0.11622177  0.23260080  0.68544919  1
  H  H39  1  0.38377823  0.73260080  0.18544919  1
  H  H40  1  0.89086468  0.96977888  0.57404311  1
  H  H41  1  0.60913532  0.46977888  0.07404311  1
  H  H42  1  0.10913532  0.03022112  0.42595689  1
  H  H43  1  0.39086468  0.53022112  0.92595689  1
  H  H44  1  0.00254174  0.01649037  0.67087110  1
  H  H45  1  0.49745826  0.51649037  0.17087110  1
  H  H46  1  0.99745826  0.98350963  0.32912890  1
  H  H47  1  0.50254174  0.48350963  0.82912890  1
  H  H48  1  0.24223586  0.89267124  0.45279097  1
  H  H49  1  0.25776414  0.39267124  0.95279097  1
  H  H50  1  0.75776414  0.10732876  0.54720903  1
  H  H51  1  0.74223586  0.60732876  0.04720903  1
  H  H52  1  0.30625106  0.02490295  0.54041282  1
  H  H53  1  0.19374894  0.52490295  0.04041282  1
  H  H54  1  0.69374894  0.97509705  0.45958718  1
  H  H55  1  0.80625106  0.47509705  0.95958718  1
  H  H56  1  0.63005953  0.85584379  0.25527708  1
  H  H57  1  0.86994047  0.35584379  0.75527708  1
  H  H58  1  0.36994047  0.14415621  0.74472292  1
  H  H59  1  0.13005953  0.64415621  0.24472292  1
  H  H60  1  0.53701938  0.81558148  0.33640303  1
  H  H61  1  0.96298062  0.31558148  0.83640303  1
  H  H62  1  0.46298062  0.18441852  0.66359697  1
  H  H63  1  0.03701938  0.68441852  0.16359697  1
  N  N64  1  0.34858148  0.55991205  0.62920913  1
  N  N65  1  0.15141852  0.05991205  0.12920913  1
  N  N66  1  0.65141852  0.44008795  0.37079087  1
  N  N67  1  0.84858148  0.94008795  0.87079087  1
  N  N68  1  0.33515652  0.49394041  0.38788213  1
  N  N69  1  0.16484348  0.99394041  0.88788213  1
  N  N70  1  0.66484348  0.50605959  0.61211787  1
  N  N71  1  0.83515652  0.00605959  0.11211787  1
  N  N72  1  0.41030985  0.73255305  0.52471358  1
  N  N73  1  0.08969015  0.23255305  0.02471358  1
  N  N74  1  0.58969015  0.26744695  0.47528642  1
  N  N75  1  0.91030985  0.76744695  0.97528642  1
  O  O76  1  0.21956794  0.77229005  0.67193708  1
  O  O77  1  0.28043206  0.27229005  0.17193708  1
  O  O78  1  0.78043206  0.22770995  0.32806292  1
  O  O79  1  0.71956794  0.72770995  0.82806292  1
  O  O80  1  0.44815870  0.78541709  0.75268483  1
  O  O81  1  0.05184130  0.28541709  0.25268483  1
  O  O82  1  0.55184130  0.21458291  0.24731517  1
  O  O83  1  0.94815870  0.71458291  0.74731517  1
  O  O84  1  0.13792725  0.48921556  0.52155374  1
  O  O85  1  0.36207275  0.98921556  0.02155374  1
  O  O86  1  0.86207275  0.51078444  0.47844626  1
  O  O87  1  0.63792725  0.01078444  0.97844626  1
  O  O88  1  0.31280674  0.31660645  0.48477610  1
  O  O89  1  0.18719326  0.81660645  0.98477610  1
  O  O90  1  0.68719326  0.68339355  0.51522390  1
  O  O91  1  0.81280674  0.18339355  0.01522390  1
  O  O92  1  0.20743723  0.70560722  0.39687473  1
  O  O93  1  0.29256277  0.20560722  0.89687473  1
  O  O94  1  0.79256277  0.29439278  0.60312527  1
  O  O95  1  0.70743723  0.79439278  0.10312527  1
  O  O96  1  0.42295033  0.65350629  0.28996215  1
  O  O97  1  0.07704967  0.15350629  0.78996215  1
  O  O98  1  0.57704967  0.34649371  0.71003785  1
  O  O99  1  0.92295033  0.84649371  0.21003785  1
  O  O100  1  0.87941584  0.71106901  0.36302610  1
  O  O101  1  0.62058416  0.21106901  0.86302610  1
  O  O102  1  0.12058416  0.28893099  0.63697390  1
  O  O103  1  0.37941584  0.78893099  0.13697390  1
  O  O104  1  0.96318445  0.93936503  0.60932055  1
  O  O105  1  0.53681555  0.43936503  0.10932055  1
  O  O106  1  0.03681555  0.06063497  0.39067945  1
  O  O107  1  0.46318445  0.56063497  0.89067945  1
  O  O108  1  0.25526016  0.98552290  0.46586753  1
  O  O109  1  0.24473984  0.48552290  0.96586753  1
  O  O110  1  0.74473984  0.01447710  0.53413247  1
  O  O111  1  0.75526016  0.51447710  0.03413247  1
  O  O112  1  0.58988017  0.88856630  0.33592288  1
  O  O113  1  0.91011983  0.38856630  0.83592288  1
  O  O114  1  0.41011983  0.11143370  0.66407712  1
  O  O115  1  0.08988017  0.61143370  0.16407712  1
