# generated using pymatgen
data_TaInO4
_symmetry_space_group_name_H-M   'P 1'
_cell_length_a   4.88890214
_cell_length_b   5.22774686
_cell_length_c   5.88188733
_cell_angle_alpha   90.00000000
_cell_angle_beta   90.00000000
_cell_angle_gamma   91.32183623
_symmetry_Int_Tables_number   1
_chemical_formula_structural   TaInO4
_chemical_formula_sum   'Ta2 In2 O8'
_cell_volume   150.28893590
_cell_formula_units_Z   2
loop_
 _symmetry_equiv_pos_site_id
 _symmetry_equiv_pos_as_xyz
  1  'x, y, z'
loop_
 _atom_site_type_symbol
 _atom_site_label
 _atom_site_symmetry_multiplicity
 _atom_site_fract_x
 _atom_site_fract_y
 _atom_site_fract_z
 _atom_site_occupancy
  O  O0  1  0.25931796  0.39979160  0.62234718  1
  O  O1  1  0.74068204  0.10020840  0.62234718  1
  O  O2  1  0.74068204  0.60020840  0.37765282  1
  O  O3  1  0.25931796  0.89979160  0.37765282  1
  O  O4  1  0.21312001  0.43608803  0.10360241  1
  O  O5  1  0.78687999  0.06391197  0.10360241  1
  O  O6  1  0.78687999  0.56391197  0.89639759  1
  O  O7  1  0.21312001  0.93608803  0.89639759  1
  In  In8  1  0.50000000  0.25000000  0.32441094  1
  In  In9  1  0.50000000  0.75000000  0.67558906  1
  Ta  Ta10  1  0.00000000  0.25000000  0.82903855  1
  Ta  Ta11  1  0.00000000  0.75000000  0.17096145  1
