# generated using pymatgen
data_RbErS2
_symmetry_space_group_name_H-M   'P 1'
_cell_length_a   8.02359256
_cell_length_b   8.02359256
_cell_length_c   8.02359257
_cell_angle_alpha   29.20923184
_cell_angle_beta   29.20923185
_cell_angle_gamma   29.20923187
_symmetry_Int_Tables_number   1
_chemical_formula_structural   RbErS2
_chemical_formula_sum   'Rb1 Er1 S2'
_cell_volume   108.83555958
_cell_formula_units_Z   1
loop_
 _symmetry_equiv_pos_site_id
 _symmetry_equiv_pos_as_xyz
  1  'x, y, z'
loop_
 _atom_site_type_symbol
 _atom_site_label
 _atom_site_symmetry_multiplicity
 _atom_site_fract_x
 _atom_site_fract_y
 _atom_site_fract_z
 _atom_site_occupancy
  S  S0  1  0.76988720  0.76988720  0.76988720  1
  S  S1  1  0.23011280  0.23011280  0.23011280  1
  Rb  Rb2  1  0.00000000  0.00000000  0.00000000  1
  Er  Er3  1  0.50000000  0.50000000  0.50000000  1
