# generated using pymatgen
data_Np(SiPd)2
_symmetry_space_group_name_H-M   'P 1'
_cell_length_a   4.08779542
_cell_length_b   4.08779543
_cell_length_c   5.91200842
_cell_angle_alpha   110.22573444
_cell_angle_beta   110.22573440
_cell_angle_gamma   90.00000007
_symmetry_Int_Tables_number   1
_chemical_formula_structural   Np(SiPd)2
_chemical_formula_sum   'Np1 Si2 Pd2'
_cell_volume   86.17733600
_cell_formula_units_Z   1
loop_
 _symmetry_equiv_pos_site_id
 _symmetry_equiv_pos_as_xyz
  1  'x, y, z'
loop_
 _atom_site_type_symbol
 _atom_site_label
 _atom_site_symmetry_multiplicity
 _atom_site_fract_x
 _atom_site_fract_y
 _atom_site_fract_z
 _atom_site_occupancy
  Si  Si0  1  0.61248846  0.61248846  0.22497692  1
  Si  Si1  1  0.38751154  0.38751154  0.77502308  1
  Pd  Pd2  1  0.75000000  0.25000000  0.50000000  1
  Pd  Pd3  1  0.25000000  0.75000000  0.50000000  1
  Np  Np4  1  0.00000000  0.00000000  0.00000000  1
