# generated using pymatgen
data_Ce2CrN3
_symmetry_space_group_name_H-M   'P 1'
_cell_length_a   3.46259382
_cell_length_b   3.74137293
_cell_length_c   6.79328797
_cell_angle_alpha   105.98376930
_cell_angle_beta   104.76493672
_cell_angle_gamma   89.99999995
_symmetry_Int_Tables_number   1
_chemical_formula_structural   Ce2CrN3
_chemical_formula_sum   'Ce2 Cr1 N3'
_cell_volume   81.57660931
_cell_formula_units_Z   1
loop_
 _symmetry_equiv_pos_site_id
 _symmetry_equiv_pos_as_xyz
  1  'x, y, z'
loop_
 _atom_site_type_symbol
 _atom_site_label
 _atom_site_symmetry_multiplicity
 _atom_site_fract_x
 _atom_site_fract_y
 _atom_site_fract_z
 _atom_site_occupancy
  N  N0  1  0.83623129  0.83622963  0.67246257  1
  N  N1  1  0.16376871  0.16377037  0.32753743  1
  N  N2  1  0.00000000  0.50000000  0.00000000  1
  Cr  Cr3  1  0.00000000  0.00000000  0.00000000  1
  Ce  Ce4  1  0.64706195  0.64706727  0.29412389  1
  Ce  Ce5  1  0.35293805  0.35293273  0.70587611  1
