# generated using pymatgen
data_KZrCuS3
_symmetry_space_group_name_H-M   'P 1'
_cell_length_a   3.76394472
_cell_length_b   7.40059249
_cell_length_c   9.83612851
_cell_angle_alpha   90.00000000
_cell_angle_beta   90.00000000
_cell_angle_gamma   104.73212435
_symmetry_Int_Tables_number   1
_chemical_formula_structural   KZrCuS3
_chemical_formula_sum   'K2 Zr2 Cu2 S6'
_cell_volume   264.98218524
_cell_formula_units_Z   2
loop_
 _symmetry_equiv_pos_site_id
 _symmetry_equiv_pos_as_xyz
  1  'x, y, z'
loop_
 _atom_site_type_symbol
 _atom_site_label
 _atom_site_symmetry_multiplicity
 _atom_site_fract_x
 _atom_site_fract_y
 _atom_site_fract_z
 _atom_site_occupancy
  S  S0  1  0.93543833  0.87087666  0.25000000  1
  S  S1  1  0.06456167  0.12912334  0.75000000  1
  S  S2  1  0.37993343  0.75986685  0.55477063  1
  S  S3  1  0.37993343  0.75986685  0.94522937  1
  S  S4  1  0.62006657  0.24013315  0.05477063  1
  S  S5  1  0.62006657  0.24013315  0.44522937  1
  K  K6  1  0.25466697  0.50933395  0.25000000  1
  K  K7  1  0.74533303  0.49066605  0.75000000  1
  Cu  Cu8  1  0.53256806  0.06513612  0.25000000  1
  Cu  Cu9  1  0.46743194  0.93486388  0.75000000  1
  Zr  Zr10  1  0.00000000  0.00000000  0.00000000  1
  Zr  Zr11  1  0.00000000  0.00000000  0.50000000  1
