# generated using pymatgen
data_HoAl3
_symmetry_space_group_name_H-M   'P 1'
_cell_length_a   12.49603755
_cell_length_b   12.49603755
_cell_length_c   12.49603755
_cell_angle_alpha   28.16172587
_cell_angle_beta   28.16172588
_cell_angle_gamma   28.16172589
_symmetry_Int_Tables_number   1
_chemical_formula_structural   HoAl3
_chemical_formula_sum   'Ho5 Al15'
_cell_volume   383.97980429
_cell_formula_units_Z   5
loop_
 _symmetry_equiv_pos_site_id
 _symmetry_equiv_pos_as_xyz
  1  'x, y, z'
loop_
 _atom_site_type_symbol
 _atom_site_label
 _atom_site_symmetry_multiplicity
 _atom_site_fract_x
 _atom_site_fract_y
 _atom_site_fract_z
 _atom_site_occupancy
  Al  Al0  1  0.11741354  0.56648469  0.11741354  1
  Al  Al1  1  0.56648469  0.11741354  0.11741354  1
  Al  Al2  1  0.11741354  0.11741354  0.56648469  1
  Al  Al3  1  0.88258646  0.43351531  0.88258646  1
  Al  Al4  1  0.43351531  0.88258646  0.88258646  1
  Al  Al5  1  0.50000000  0.50000000  0.00000000  1
  Al  Al6  1  0.00000000  0.50000000  0.50000000  1
  Al  Al7  1  0.50000000  0.00000000  0.50000000  1
  Al  Al8  1  0.63522760  0.63522760  0.13091995  1
  Al  Al9  1  0.13091995  0.63522760  0.63522760  1
  Al  Al10  1  0.63522760  0.13091995  0.63522760  1
  Al  Al11  1  0.36477240  0.36477240  0.86908005  1
  Al  Al12  1  0.86908005  0.36477240  0.36477240  1
  Al  Al13  1  0.36477240  0.86908005  0.36477240  1
  Al  Al14  1  0.88258646  0.88258646  0.43351531  1
  Ho  Ho15  1  0.59994007  0.59994007  0.59994007  1
  Ho  Ho16  1  0.40005993  0.40005993  0.40005993  1
  Ho  Ho17  1  0.86901426  0.86901426  0.86901426  1
  Ho  Ho18  1  0.13098574  0.13098574  0.13098574  1
  Ho  Ho19  1  0.00000000  0.00000000  0.00000000  1
