# generated using pymatgen
data_RbPd2F5
_symmetry_space_group_name_H-M   'P 1'
_cell_length_a   6.50410072
_cell_length_b   7.45226634
_cell_length_c   7.45226635
_cell_angle_alpha   63.00309417
_cell_angle_beta   64.12660252
_cell_angle_gamma   64.12660250
_symmetry_Int_Tables_number   1
_chemical_formula_structural   RbPd2F5
_chemical_formula_sum   'Rb2 Pd4 F10'
_cell_volume   276.50267219
_cell_formula_units_Z   2
loop_
 _symmetry_equiv_pos_site_id
 _symmetry_equiv_pos_as_xyz
  1  'x, y, z'
loop_
 _atom_site_type_symbol
 _atom_site_label
 _atom_site_symmetry_multiplicity
 _atom_site_fract_x
 _atom_site_fract_y
 _atom_site_fract_z
 _atom_site_occupancy
  F  F0  1  0.85965029  0.44931261  0.31139218  1
  F  F1  1  0.62035509  0.55068739  0.68860782  1
  F  F2  1  0.14034971  0.18860782  0.05068739  1
  F  F3  1  0.37964491  0.81139218  0.94931261  1
  F  F4  1  0.14034971  0.55068739  0.68860782  1
  F  F5  1  0.37964491  0.44931261  0.31139218  1
  F  F6  1  0.90699403  0.84300597  0.34300597  1
  F  F7  1  0.09300597  0.15699403  0.65699403  1
  F  F8  1  0.62035509  0.18860782  0.05068739  1
  F  F9  1  0.85965029  0.81139218  0.94931261  1
  Rb  Rb10  1  0.60585614  0.14414386  0.64414386  1
  Rb  Rb11  1  0.39414386  0.85585614  0.35585614  1
  Pd  Pd12  1  0.00000000  0.50000000  0.50000000  1
  Pd  Pd13  1  0.00000000  0.00000000  0.00000000  1
  Pd  Pd14  1  0.00000000  0.50000000  0.00000000  1
  Pd  Pd15  1  0.50000000  0.50000000  0.00000000  1
