# generated using pymatgen
data_Cd2Mo15Se19
_symmetry_space_group_name_H-M   'P 1'
_cell_length_a   9.79282629
_cell_length_b   9.79282629
_cell_length_c   20.18522525
_cell_angle_alpha   75.96148398
_cell_angle_beta   75.96148398
_cell_angle_gamma   60.00000436
_symmetry_Int_Tables_number   1
_chemical_formula_structural   Cd2Mo15Se19
_chemical_formula_sum   'Cd4 Mo30 Se38'
_cell_volume   1609.30488111
_cell_formula_units_Z   2
loop_
 _symmetry_equiv_pos_site_id
 _symmetry_equiv_pos_as_xyz
  1  'x, y, z'
loop_
 _atom_site_type_symbol
 _atom_site_label
 _atom_site_symmetry_multiplicity
 _atom_site_fract_x
 _atom_site_fract_y
 _atom_site_fract_z
 _atom_site_occupancy
  Cd  Cd0  1  0.61403481  0.61403481  0.15789557  1
  Cd  Cd1  1  0.11403481  0.11403481  0.65789557  1
  Cd  Cd2  1  0.38596519  0.38596519  0.84210443  1
  Cd  Cd3  1  0.88596519  0.88596519  0.34210443  1
  Mo  Mo4  1  0.50047842  0.68808535  0.44024468  1
  Mo  Mo5  1  0.68808535  0.37119156  0.44024468  1
  Mo  Mo6  1  0.37119156  0.50047842  0.44024468  1
  Mo  Mo7  1  0.00047842  0.87119156  0.94024468  1
  Mo  Mo8  1  0.87119156  0.18808535  0.94024468  1
  Mo  Mo9  1  0.18808535  0.00047842  0.94024468  1
  Mo  Mo10  1  0.49952158  0.31191465  0.55975532  1
  Mo  Mo11  1  0.31191465  0.62880844  0.55975532  1
  Mo  Mo12  1  0.62880844  0.49952158  0.55975532  1
  Mo  Mo13  1  0.99952158  0.12880844  0.05975532  1
  Mo  Mo14  1  0.12880844  0.81191465  0.05975532  1
  Mo  Mo15  1  0.81191465  0.99952158  0.05975532  1
  Mo  Mo16  1  0.72184017  0.86150984  0.86862556  1
  Mo  Mo17  1  0.86150984  0.54802443  0.86862556  1
  Mo  Mo18  1  0.54802443  0.72184017  0.86862556  1
  Mo  Mo19  1  0.22184017  0.04802443  0.36862556  1
  Mo  Mo20  1  0.04802443  0.36150984  0.36862556  1
  Mo  Mo21  1  0.36150984  0.22184017  0.36862556  1
  Mo  Mo22  1  0.27815983  0.13849016  0.13137444  1
  Mo  Mo23  1  0.13849016  0.45197557  0.13137444  1
  Mo  Mo24  1  0.45197557  0.27815983  0.13137444  1
  Mo  Mo25  1  0.77815983  0.95197557  0.63137444  1
  Mo  Mo26  1  0.95197557  0.63849016  0.63137444  1
  Mo  Mo27  1  0.63849016  0.77815983  0.63137444  1
  Mo  Mo28  1  0.59080648  0.90919352  0.75000000  1
  Mo  Mo29  1  0.90919352  0.75000000  0.75000000  1
  Mo  Mo30  1  0.75000000  0.59080648  0.75000000  1
  Mo  Mo31  1  0.09080648  0.25000000  0.25000000  1
  Mo  Mo32  1  0.25000000  0.40919352  0.25000000  1
  Mo  Mo33  1  0.40919352  0.09080648  0.25000000  1
  Se  Se34  1  0.80042454  0.55683163  0.44929767  1
  Se  Se35  1  0.55683163  0.19344616  0.44929767  1
  Se  Se36  1  0.19344616  0.80042454  0.44929767  1
  Se  Se37  1  0.30042454  0.69344616  0.94929767  1
  Se  Se38  1  0.69344616  0.05683163  0.94929767  1
  Se  Se39  1  0.05683163  0.30042454  0.94929767  1
  Se  Se40  1  0.19957546  0.44316837  0.55070233  1
  Se  Se41  1  0.44316837  0.80655384  0.55070233  1
  Se  Se42  1  0.80655384  0.19957546  0.55070233  1
  Se  Se43  1  0.69957546  0.30655384  0.05070233  1
  Se  Se44  1  0.30655384  0.94316837  0.05070233  1
  Se  Se45  1  0.94316837  0.69957546  0.05070233  1
  Se  Se46  1  0.42237950  0.04104959  0.85697262  1
  Se  Se47  1  0.04104959  0.67959829  0.85697262  1
  Se  Se48  1  0.67959829  0.42237950  0.85697262  1
  Se  Se49  1  0.92237950  0.17959829  0.35697262  1
  Se  Se50  1  0.17959829  0.54104959  0.35697262  1
  Se  Se51  1  0.54104959  0.92237950  0.35697262  1
  Se  Se52  1  0.57762050  0.95895041  0.14302738  1
  Se  Se53  1  0.95895041  0.32040171  0.14302738  1
  Se  Se54  1  0.32040171  0.57762050  0.14302738  1
  Se  Se55  1  0.07762050  0.82040171  0.64302738  1
  Se  Se56  1  0.82040171  0.45895041  0.64302738  1
  Se  Se57  1  0.45895041  0.07762050  0.64302738  1
  Se  Se58  1  0.05640970  0.44359030  0.75000000  1
  Se  Se59  1  0.44359030  0.75000000  0.75000000  1
  Se  Se60  1  0.75000000  0.05640970  0.75000000  1
  Se  Se61  1  0.55640970  0.25000000  0.25000000  1
  Se  Se62  1  0.25000000  0.94359030  0.25000000  1
  Se  Se63  1  0.94359030  0.55640970  0.25000000  1
  Se  Se64  1  0.55490929  0.55490929  0.33527214  1
  Se  Se65  1  0.05490929  0.05490929  0.83527214  1
  Se  Se66  1  0.44509071  0.44509071  0.66472786  1
  Se  Se67  1  0.94509071  0.94509071  0.16472786  1
  Se  Se68  1  0.67546576  0.67546576  0.97360273  1
  Se  Se69  1  0.17546576  0.17546576  0.47360273  1
  Se  Se70  1  0.32453424  0.32453424  0.02639727  1
  Se  Se71  1  0.82453424  0.82453424  0.52639727  1
