# generated using pymatgen
data_ReC4IO4
_symmetry_space_group_name_H-M   'P 1'
_cell_length_a   10.18446527
_cell_length_b   12.38941513
_cell_length_c   13.27742955
_cell_angle_alpha   90.00000000
_cell_angle_beta   107.82365069
_cell_angle_gamma   90.00000000
_symmetry_Int_Tables_number   1
_chemical_formula_structural   ReC4IO4
_chemical_formula_sum   'Re8 C32 I8 O32'
_cell_volume   1594.92922770
_cell_formula_units_Z   8
loop_
 _symmetry_equiv_pos_site_id
 _symmetry_equiv_pos_as_xyz
  1  'x, y, z'
loop_
 _atom_site_type_symbol
 _atom_site_label
 _atom_site_symmetry_multiplicity
 _atom_site_fract_x
 _atom_site_fract_y
 _atom_site_fract_z
 _atom_site_occupancy
  Re  Re0  1  0.39007318  0.87171882  0.68343828  1
  Re  Re1  1  0.16467147  0.13040746  0.21017386  1
  Re  Re2  1  0.83532853  0.86959254  0.78982614  1
  Re  Re3  1  0.60992682  0.12828118  0.31656172  1
  Re  Re4  1  0.60992682  0.37171882  0.81656172  1
  Re  Re5  1  0.39007318  0.62828118  0.18343828  1
  Re  Re6  1  0.16467147  0.36959254  0.71017386  1
  Re  Re7  1  0.83532853  0.63040746  0.28982614  1
  C  C8  1  0.60206639  0.03572684  0.19058448  1
  C  C9  1  0.75063407  0.21626913  0.28963910  1
  C  C10  1  0.02622519  0.21863747  0.11345303  1
  C  C11  1  0.60206639  0.46427316  0.69058448  1
  C  C12  1  0.25095781  0.53724688  0.09038093  1
  C  C13  1  0.60745851  0.27574967  0.93734236  1
  C  C14  1  0.02722274  0.46037721  0.73948293  1
  C  C15  1  0.39254149  0.72425033  0.06265764  1
  C  C16  1  0.97377481  0.71863747  0.38654697  1
  C  C17  1  0.97277726  0.53962279  0.26051707  1
  C  C18  1  0.02622519  0.28136253  0.61345303  1
  C  C19  1  0.24936593  0.71626913  0.21036090  1
  C  C20  1  0.39793361  0.96427316  0.80941552  1
  C  C21  1  0.16647724  0.22681080  0.33198414  1
  C  C22  1  0.39254149  0.77574967  0.56265764  1
  C  C23  1  0.17740440  0.03363639  0.09252067  1
  C  C24  1  0.16647724  0.27318920  0.83198414  1
  C  C25  1  0.60745851  0.22425033  0.43734236  1
  C  C26  1  0.24936593  0.78373087  0.71036090  1
  C  C27  1  0.75063407  0.28373087  0.78963910  1
  C  C28  1  0.82259560  0.53363639  0.40747933  1
  C  C29  1  0.82259560  0.96636361  0.90747933  1
  C  C30  1  0.25095781  0.96275312  0.59038093  1
  C  C31  1  0.97377481  0.78136253  0.88654697  1
  C  C32  1  0.97277726  0.96037721  0.76051707  1
  C  C33  1  0.74904219  0.03724688  0.40961907  1
  C  C34  1  0.02722274  0.03962279  0.23948293  1
  C  C35  1  0.17740440  0.46636361  0.59252067  1
  C  C36  1  0.83352276  0.72681080  0.16801586  1
  C  C37  1  0.74904219  0.46275312  0.90961907  1
  C  C38  1  0.39793361  0.53572684  0.30941552  1
  C  C39  1  0.83352276  0.77318920  0.66801586  1
  I  I40  1  0.61506609  0.99150712  0.65074729  1
  I  I41  1  0.61187517  0.74676400  0.81993576  1
  I  I42  1  0.38812483  0.25323600  0.18006424  1
  I  I43  1  0.38493391  0.00849288  0.34925271  1
  I  I44  1  0.61187517  0.75323600  0.31993576  1
  I  I45  1  0.38493391  0.49150712  0.84925271  1
  I  I46  1  0.61506609  0.50849288  0.15074729  1
  I  I47  1  0.38812483  0.24676400  0.68006424  1
  O  O48  1  0.94238943  0.27110039  0.05416433  1
  O  O49  1  0.61031268  0.22000075  0.00798664  1
  O  O50  1  0.83438230  0.98331516  0.46571581  1
  O  O51  1  0.83646774  0.22975214  0.77433743  1
  O  O52  1  0.05541161  0.01544649  0.74190750  1
  O  O53  1  0.16353226  0.72975214  0.72566257  1
  O  O54  1  0.59828702  0.98562809  0.11619091  1
  O  O55  1  0.38968732  0.72000075  0.49201336  1
  O  O56  1  0.16561770  0.48331516  0.03428419  1
  O  O57  1  0.61031268  0.27999925  0.50798664  1
  O  O58  1  0.83438230  0.51668484  0.96571581  1
  O  O59  1  0.05761057  0.72889961  0.94583567  1
  O  O60  1  0.83259206  0.71829474  0.59708353  1
  O  O61  1  0.83259206  0.78170526  0.09708353  1
  O  O62  1  0.18295851  0.52284783  0.52452147  1
  O  O63  1  0.16740794  0.21829474  0.90291647  1
  O  O64  1  0.05761057  0.77110039  0.44583567  1
  O  O65  1  0.59828702  0.51437191  0.61619091  1
  O  O66  1  0.83646774  0.27024786  0.27433743  1
  O  O67  1  0.05541161  0.48455351  0.24190750  1
  O  O68  1  0.16353226  0.77024786  0.22566257  1
  O  O69  1  0.18295851  0.97715217  0.02452147  1
  O  O70  1  0.16740794  0.28170526  0.40291647  1
  O  O71  1  0.38968732  0.77999925  0.99201336  1
  O  O72  1  0.40171298  0.01437191  0.88380909  1
  O  O73  1  0.94458839  0.98455351  0.25809250  1
  O  O74  1  0.40171298  0.48562809  0.38380909  1
  O  O75  1  0.81704149  0.02284783  0.97547853  1
  O  O76  1  0.16561770  0.01668484  0.53428419  1
  O  O77  1  0.94458839  0.51544649  0.75809250  1
  O  O78  1  0.81704149  0.47715217  0.47547853  1
  O  O79  1  0.94238943  0.22889961  0.55416433  1
