# generated using pymatgen
data_Fe3O4
_symmetry_space_group_name_H-M   'P 1'
_cell_length_a   2.95863937
_cell_length_b   9.80150186
_cell_length_c   10.00172197
_cell_angle_alpha   90.00000000
_cell_angle_beta   90.00000000
_cell_angle_gamma   90.00000000
_symmetry_Int_Tables_number   1
_chemical_formula_structural   Fe3O4
_chemical_formula_sum   'Fe12 O16'
_cell_volume   290.04102848
_cell_formula_units_Z   4
loop_
 _symmetry_equiv_pos_site_id
 _symmetry_equiv_pos_as_xyz
  1  'x, y, z'
loop_
 _atom_site_type_symbol
 _atom_site_label
 _atom_site_symmetry_multiplicity
 _atom_site_fract_x
 _atom_site_fract_y
 _atom_site_fract_z
 _atom_site_occupancy
  Fe  Fe0  1  0.73229470  0.13259982  0.75000000  1
  Fe  Fe1  1  0.26770530  0.86740018  0.25000000  1
  Fe  Fe2  1  0.73229470  0.36740018  0.25000000  1
  Fe  Fe3  1  0.26770530  0.63259982  0.75000000  1
  Fe  Fe4  1  0.24380012  0.38218341  0.57538593  1
  Fe  Fe5  1  0.75619988  0.61781659  0.07538593  1
  Fe  Fe6  1  0.24380012  0.11781659  0.42461407  1
  Fe  Fe7  1  0.75619988  0.88218341  0.92461407  1
  Fe  Fe8  1  0.75619988  0.61781659  0.42461407  1
  Fe  Fe9  1  0.24380012  0.38218341  0.92461407  1
  Fe  Fe10  1  0.75619988  0.88218341  0.57538593  1
  Fe  Fe11  1  0.24380012  0.11781659  0.07538593  1
  O  O12  1  0.74284196  0.25000000  0.50000000  1
  O  O13  1  0.25715804  0.75000000  0.00000000  1
  O  O14  1  0.25715804  0.75000000  0.50000000  1
  O  O15  1  0.74284196  0.25000000  0.00000000  1
  O  O16  1  0.23100849  0.28894490  0.75000000  1
  O  O17  1  0.76899151  0.71105510  0.25000000  1
  O  O18  1  0.23100849  0.21105510  0.25000000  1
  O  O19  1  0.76899151  0.78894490  0.75000000  1
  O  O20  1  0.25250243  0.02104077  0.61239768  1
  O  O21  1  0.74749757  0.97895923  0.11239768  1
  O  O22  1  0.25250243  0.47895923  0.38760232  1
  O  O23  1  0.74749757  0.52104077  0.88760232  1
  O  O24  1  0.74749757  0.97895923  0.38760232  1
  O  O25  1  0.25250243  0.02104077  0.88760232  1
  O  O26  1  0.74749757  0.52104077  0.61239768  1
  O  O27  1  0.25250243  0.47895923  0.11239768  1
