# generated using pymatgen
data_RbSmS2
_symmetry_space_group_name_H-M   'P 1'
_cell_length_a   8.07211090
_cell_length_b   8.07211090
_cell_length_c   8.07211090
_cell_angle_alpha   29.96485344
_cell_angle_beta   29.96485349
_cell_angle_gamma   29.96485345
_symmetry_Int_Tables_number   1
_chemical_formula_structural   RbSmS2
_chemical_formula_sum   'Rb1 Sm1 S2'
_cell_volume   116.22032221
_cell_formula_units_Z   1
loop_
 _symmetry_equiv_pos_site_id
 _symmetry_equiv_pos_as_xyz
  1  'x, y, z'
loop_
 _atom_site_type_symbol
 _atom_site_label
 _atom_site_symmetry_multiplicity
 _atom_site_fract_x
 _atom_site_fract_y
 _atom_site_fract_z
 _atom_site_occupancy
  S  S0  1  0.76824244  0.76824244  0.76824244  1
  S  S1  1  0.23175756  0.23175756  0.23175756  1
  Rb  Rb2  1  0.00000000  0.00000000  0.00000000  1
  Sm  Sm3  1  0.50000000  0.50000000  0.50000000  1
