# generated using pymatgen
data_TiTlCuTe3
_symmetry_space_group_name_H-M   'P 1'
_cell_length_a   3.98034933
_cell_length_b   8.70482857
_cell_length_c   10.57462084
_cell_angle_alpha   113.42046350
_cell_angle_beta   90.00000000
_cell_angle_gamma   90.00000000
_symmetry_Int_Tables_number   1
_chemical_formula_structural   TiTlCuTe3
_chemical_formula_sum   'Ti2 Tl2 Cu2 Te6'
_cell_volume   336.20614189
_cell_formula_units_Z   2
loop_
 _symmetry_equiv_pos_site_id
 _symmetry_equiv_pos_as_xyz
  1  'x, y, z'
loop_
 _atom_site_type_symbol
 _atom_site_label
 _atom_site_symmetry_multiplicity
 _atom_site_fract_x
 _atom_site_fract_y
 _atom_site_fract_z
 _atom_site_occupancy
  Ti  Ti0  1  0.25000000  0.28888647  0.82225673  1
  Ti  Ti1  1  0.75000000  0.71111353  0.17774327  1
  Cu  Cu2  1  0.25000000  0.92027721  0.39951321  1
  Cu  Cu3  1  0.75000000  0.07972279  0.60048679  1
  Te  Te4  1  0.75000000  0.07791050  0.84572292  1
  Te  Te5  1  0.25000000  0.92208950  0.15427708  1
  Te  Te6  1  0.25000000  0.25089430  0.55621055  1
  Te  Te7  1  0.75000000  0.74910570  0.44378945  1
  Te  Te8  1  0.75000000  0.54390034  0.88179987  1
  Te  Te9  1  0.25000000  0.45609966  0.11820013  1
  Tl  Tl10  1  0.25000000  0.71650089  0.71636067  1
  Tl  Tl11  1  0.75000000  0.28349911  0.28363933  1
