# generated using pymatgen
data_Sr(AuO2)2
_symmetry_space_group_name_H-M   'P 1'
_cell_length_a   6.31082090
_cell_length_b   6.31082090
_cell_length_c   6.82409437
_cell_angle_alpha   117.54160297
_cell_angle_beta   117.54160294
_cell_angle_gamma   90.00000004
_symmetry_Int_Tables_number   1
_chemical_formula_structural   Sr(AuO2)2
_chemical_formula_sum   'Sr2 Au4 O8'
_cell_volume   205.61809371
_cell_formula_units_Z   2
loop_
 _symmetry_equiv_pos_site_id
 _symmetry_equiv_pos_as_xyz
  1  'x, y, z'
loop_
 _atom_site_type_symbol
 _atom_site_label
 _atom_site_symmetry_multiplicity
 _atom_site_fract_x
 _atom_site_fract_y
 _atom_site_fract_z
 _atom_site_occupancy
  O  O0  1  0.82640530  0.20485433  0.34614394  1
  O  O1  1  0.14128961  0.32640530  0.84614394  1
  O  O2  1  0.70485433  0.01973864  0.84614394  1
  O  O3  1  0.51973864  0.64128961  0.34614394  1
  O  O4  1  0.17359470  0.79514567  0.65385606  1
  O  O5  1  0.85871039  0.67359470  0.15385606  1
  O  O6  1  0.48026136  0.35871039  0.65385606  1
  O  O7  1  0.29514567  0.98026136  0.15385606  1
  Sr  Sr8  1  0.12500000  0.37500000  0.25000000  1
  Sr  Sr9  1  0.87500000  0.62500000  0.75000000  1
  Au  Au10  1  0.50000000  0.00000000  0.50000000  1
  Au  Au11  1  0.50000000  0.50000000  0.00000000  1
  Au  Au12  1  0.00000000  0.00000000  0.50000000  1
  Au  Au13  1  0.50000000  0.00000000  0.00000000  1
