# generated using pymatgen
data_AsH10C3I
_symmetry_space_group_name_H-M   'P 1'
_cell_length_a   6.63357850
_cell_length_b   8.79441647
_cell_length_c   14.54530889
_cell_angle_alpha   90.00000000
_cell_angle_beta   90.00000000
_cell_angle_gamma   90.00000000
_symmetry_Int_Tables_number   1
_chemical_formula_structural   AsH10C3I
_chemical_formula_sum   'As4 H40 C12 I4'
_cell_volume   848.55080473
_cell_formula_units_Z   4
loop_
 _symmetry_equiv_pos_site_id
 _symmetry_equiv_pos_as_xyz
  1  'x, y, z'
loop_
 _atom_site_type_symbol
 _atom_site_label
 _atom_site_symmetry_multiplicity
 _atom_site_fract_x
 _atom_site_fract_y
 _atom_site_fract_z
 _atom_site_occupancy
  As  As0  1  0.44720481  0.75000000  0.40106229  1
  As  As1  1  0.05279519  0.75000000  0.90106229  1
  As  As2  1  0.55279519  0.25000000  0.59893771  1
  As  As3  1  0.94720481  0.25000000  0.09893771  1
  H  H4  1  0.39678404  0.75000000  0.50236643  1
  H  H5  1  0.10321596  0.75000000  0.00236643  1
  H  H6  1  0.60321596  0.25000000  0.49763357  1
  H  H7  1  0.89678404  0.25000000  0.99763357  1
  H  H8  1  0.63078334  0.91969957  0.29554470  1
  H  H9  1  0.86921666  0.58030043  0.79554470  1
  H  H10  1  0.36921666  0.41969957  0.70445530  1
  H  H11  1  0.13078334  0.08030043  0.20445530  1
  H  H12  1  0.36921666  0.08030043  0.70445530  1
  H  H13  1  0.13078334  0.41969957  0.20445530  1
  H  H14  1  0.63078334  0.58030043  0.29554470  1
  H  H15  1  0.86921666  0.91969957  0.79554470  1
  H  H16  1  0.49669134  0.02867802  0.38104078  1
  H  H17  1  0.00330866  0.47132198  0.88104078  1
  H  H18  1  0.50330866  0.52867802  0.61895922  1
  H  H19  1  0.99669134  0.97132198  0.11895922  1
  H  H20  1  0.50330866  0.97132198  0.61895922  1
  H  H21  1  0.99669134  0.52867802  0.11895922  1
  H  H22  1  0.49669134  0.47132198  0.38104078  1
  H  H23  1  0.00330866  0.02867802  0.88104078  1
  H  H24  1  0.73236134  0.93652596  0.41118609  1
  H  H25  1  0.76763866  0.56347404  0.91118609  1
  H  H26  1  0.26763866  0.43652596  0.58881391  1
  H  H27  1  0.23236134  0.06347404  0.08881391  1
  H  H28  1  0.26763866  0.06347404  0.58881391  1
  H  H29  1  0.23236134  0.43652596  0.08881391  1
  H  H30  1  0.73236134  0.56347404  0.41118609  1
  H  H31  1  0.76763866  0.93652596  0.91118609  1
  H  H32  1  0.11424499  0.64702651  0.35136508  1
  H  H33  1  0.38575501  0.85297349  0.85136508  1
  H  H34  1  0.88575501  0.14702651  0.64863492  1
  H  H35  1  0.61424499  0.35297349  0.14863492  1
  H  H36  1  0.88575501  0.35297349  0.64863492  1
  H  H37  1  0.61424499  0.14702651  0.14863492  1
  H  H38  1  0.11424499  0.85297349  0.35136508  1
  H  H39  1  0.38575501  0.64702651  0.85136508  1
  H  H40  1  0.24056526  0.75000000  0.25990604  1
  H  H41  1  0.25943474  0.75000000  0.75990604  1
  H  H42  1  0.75943474  0.25000000  0.74009396  1
  H  H43  1  0.74056526  0.25000000  0.24009396  1
  C  C44  1  0.59551160  0.93060269  0.36918418  1
  C  C45  1  0.90448840  0.56939731  0.86918418  1
  C  C46  1  0.40448840  0.43060269  0.63081582  1
  C  C47  1  0.09551160  0.06939731  0.13081582  1
  C  C48  1  0.40448840  0.06939731  0.63081582  1
  C  C49  1  0.09551160  0.43060269  0.13081582  1
  C  C50  1  0.59551160  0.56939731  0.36918418  1
  C  C51  1  0.90448840  0.93060269  0.86918418  1
  C  C52  1  0.19834270  0.75000000  0.33283043  1
  C  C53  1  0.30165730  0.75000000  0.83283043  1
  C  C54  1  0.80165730  0.25000000  0.66716957  1
  C  C55  1  0.69834270  0.25000000  0.16716957  1
  I  I56  1  0.61563284  0.75000000  0.10066807  1
  I  I57  1  0.88436716  0.75000000  0.60066807  1
  I  I58  1  0.38436716  0.25000000  0.89933193  1
  I  I59  1  0.11563284  0.25000000  0.39933193  1
