# generated using pymatgen
data_ScSiPt
_symmetry_space_group_name_H-M   'P 1'
_cell_length_a   4.15967500
_cell_length_b   6.61008859
_cell_length_c   7.33300491
_cell_angle_alpha   90.00000000
_cell_angle_beta   90.00000000
_cell_angle_gamma   90.00000000
_symmetry_Int_Tables_number   1
_chemical_formula_structural   ScSiPt
_chemical_formula_sum   'Sc4 Si4 Pt4'
_cell_volume   201.62698494
_cell_formula_units_Z   4
loop_
 _symmetry_equiv_pos_site_id
 _symmetry_equiv_pos_as_xyz
  1  'x, y, z'
loop_
 _atom_site_type_symbol
 _atom_site_label
 _atom_site_symmetry_multiplicity
 _atom_site_fract_x
 _atom_site_fract_y
 _atom_site_fract_z
 _atom_site_occupancy
  Si  Si0  1  0.25000000  0.80606473  0.09344549  1
  Si  Si1  1  0.25000000  0.30606473  0.40655451  1
  Si  Si2  1  0.75000000  0.19393527  0.90655451  1
  Si  Si3  1  0.75000000  0.69393527  0.59344549  1
  Sc  Sc4  1  0.75000000  0.50095931  0.20048486  1
  Sc  Sc5  1  0.25000000  0.99904069  0.70048486  1
  Sc  Sc6  1  0.75000000  0.00095931  0.29951514  1
  Sc  Sc7  1  0.25000000  0.49904069  0.79951514  1
  Pt  Pt8  1  0.25000000  0.69914201  0.41640533  1
  Pt  Pt9  1  0.25000000  0.19914201  0.08359467  1
  Pt  Pt10  1  0.75000000  0.80085799  0.91640533  1
  Pt  Pt11  1  0.75000000  0.30085799  0.58359467  1
