# generated using pymatgen
data_EuGeAu
_symmetry_space_group_name_H-M   'P 1'
_cell_length_a   4.64189719
_cell_length_b   5.92119169
_cell_length_c   5.92119169
_cell_angle_alpha   77.73333494
_cell_angle_beta   66.92266510
_cell_angle_gamma   66.92266506
_symmetry_Int_Tables_number   1
_chemical_formula_structural   EuGeAu
_chemical_formula_sum   'Eu2 Ge2 Au2'
_cell_volume   137.40927020
_cell_formula_units_Z   2
loop_
 _symmetry_equiv_pos_site_id
 _symmetry_equiv_pos_as_xyz
  1  'x, y, z'
loop_
 _atom_site_type_symbol
 _atom_site_label
 _atom_site_symmetry_multiplicity
 _atom_site_fract_x
 _atom_site_fract_y
 _atom_site_fract_z
 _atom_site_occupancy
  Ge  Ge0  1  0.66657382  0.64501136  0.02184100  1
  Ge  Ge1  1  0.66657382  0.02184100  0.64501136  1
  Eu  Eu2  1  0.29683304  0.20316696  0.20316696  1
  Eu  Eu3  1  0.36824779  0.63175221  0.63175221  1
  Au  Au4  1  0.99805076  0.78410608  0.21979240  1
  Au  Au5  1  0.99805076  0.21979240  0.78410608  1
