# generated using pymatgen
data_GdAgGe
_symmetry_space_group_name_H-M   'P 1'
_cell_length_a   7.24337352
_cell_length_b   7.24337352
_cell_length_c   4.26937017
_cell_angle_alpha   90.00000000
_cell_angle_beta   90.00000000
_cell_angle_gamma   119.99999999
_symmetry_Int_Tables_number   1
_chemical_formula_structural   GdAgGe
_chemical_formula_sum   'Gd3 Ag3 Ge3'
_cell_volume   193.98859850
_cell_formula_units_Z   3
loop_
 _symmetry_equiv_pos_site_id
 _symmetry_equiv_pos_as_xyz
  1  'x, y, z'
loop_
 _atom_site_type_symbol
 _atom_site_label
 _atom_site_symmetry_multiplicity
 _atom_site_fract_x
 _atom_site_fract_y
 _atom_site_fract_z
 _atom_site_occupancy
  Ge  Ge0  1  0.00000000  0.00000000  0.00000000  1
  Ge  Ge1  1  0.33333333  0.66666667  0.50000000  1
  Ge  Ge2  1  0.66666667  0.33333333  0.50000000  1
  Ag  Ag3  1  0.74972379  0.00000000  0.50000000  1
  Ag  Ag4  1  0.25027621  0.25027621  0.50000000  1
  Ag  Ag5  1  0.00000000  0.74972379  0.50000000  1
  Gd  Gd6  1  0.00000000  0.41548367  0.00000000  1
  Gd  Gd7  1  0.58451633  0.58451633  0.00000000  1
  Gd  Gd8  1  0.41548367  0.00000000  0.00000000  1
