# generated using pymatgen
data_CdCuF4
_symmetry_space_group_name_H-M   'P 1'
_cell_length_a   5.44297856
_cell_length_b   5.44297855
_cell_length_c   6.47977734
_cell_angle_alpha   114.83441985
_cell_angle_beta   114.83441980
_cell_angle_gamma   90.00000006
_symmetry_Int_Tables_number   1
_chemical_formula_structural   CdCuF4
_chemical_formula_sum   'Cd2 Cu2 F8'
_cell_volume   154.43796865
_cell_formula_units_Z   2
loop_
 _symmetry_equiv_pos_site_id
 _symmetry_equiv_pos_as_xyz
  1  'x, y, z'
loop_
 _atom_site_type_symbol
 _atom_site_label
 _atom_site_symmetry_multiplicity
 _atom_site_fract_x
 _atom_site_fract_y
 _atom_site_fract_z
 _atom_site_occupancy
  F  F0  1  0.94745803  0.44745803  0.25553938  1
  F  F1  1  0.69191864  0.19191864  0.74446062  1
  F  F2  1  0.05254197  0.55254197  0.74446062  1
  F  F3  1  0.19191864  0.05254197  0.74446062  1
  F  F4  1  0.30808136  0.80808136  0.25553938  1
  F  F5  1  0.44745803  0.30808136  0.25553938  1
  F  F6  1  0.80808136  0.94745803  0.25553938  1
  F  F7  1  0.55254197  0.69191864  0.74446062  1
  Cu  Cu8  1  0.50000000  0.00000000  0.00000000  1
  Cu  Cu9  1  0.00000000  0.50000000  0.00000000  1
  Cd  Cd10  1  0.75000000  0.75000000  0.50000000  1
  Cd  Cd11  1  0.25000000  0.25000000  0.50000000  1
