# generated using pymatgen
data_RbNdS2
_symmetry_space_group_name_H-M   'P 1'
_cell_length_a   8.09037468
_cell_length_b   8.09037467
_cell_length_c   8.09037467
_cell_angle_alpha   30.29487032
_cell_angle_beta   30.29487033
_cell_angle_gamma   30.29487032
_symmetry_Int_Tables_number   1
_chemical_formula_structural   RbNdS2
_chemical_formula_sum   'Rb1 Nd1 S2'
_cell_volume   119.41537818
_cell_formula_units_Z   1
loop_
 _symmetry_equiv_pos_site_id
 _symmetry_equiv_pos_as_xyz
  1  'x, y, z'
loop_
 _atom_site_type_symbol
 _atom_site_label
 _atom_site_symmetry_multiplicity
 _atom_site_fract_x
 _atom_site_fract_y
 _atom_site_fract_z
 _atom_site_occupancy
  S  S0  1  0.76758680  0.76758680  0.76758680  1
  S  S1  1  0.23241320  0.23241320  0.23241320  1
  Rb  Rb2  1  0.00000000  0.00000000  0.00000000  1
  Nd  Nd3  1  0.50000000  0.50000000  0.50000000  1
