# generated using pymatgen
data_Li4NpO5
_symmetry_space_group_name_H-M   'P 1'
_cell_length_a   4.44187956
_cell_length_b   5.26674908
_cell_length_c   5.26674908
_cell_angle_alpha   79.75700970
_cell_angle_beta   65.05861741
_cell_angle_gamma   65.05861739
_symmetry_Int_Tables_number   1
_chemical_formula_structural   Li4NpO5
_chemical_formula_sum   'Li4 Np1 O5'
_cell_volume   101.30182675
_cell_formula_units_Z   1
loop_
 _symmetry_equiv_pos_site_id
 _symmetry_equiv_pos_as_xyz
  1  'x, y, z'
loop_
 _atom_site_type_symbol
 _atom_site_label
 _atom_site_symmetry_multiplicity
 _atom_site_fract_x
 _atom_site_fract_y
 _atom_site_fract_z
 _atom_site_occupancy
  Li  Li0  1  0.18964942  0.22348591  0.39721525  1
  Li  Li1  1  0.58686467  0.60278475  0.22348591  1
  Li  Li2  1  0.41313533  0.39721525  0.77651409  1
  Li  Li3  1  0.81035058  0.77651409  0.60278475  1
  O  O4  1  0.50000000  0.00000000  0.00000000  1
  O  O5  1  0.91323124  0.37165594  0.80188157  1
  O  O6  1  0.28488718  0.80188157  0.62834406  1
  O  O7  1  0.08676876  0.62834406  0.19811843  1
  O  O8  1  0.71511282  0.19811843  0.37165594  1
  Np  Np9  1  0.00000000  0.00000000  0.00000000  1
