# generated using pymatgen
data_LiFeP2(HO3)2
_symmetry_space_group_name_H-M   'P 1'
_cell_length_a   9.12897002
_cell_length_b   9.12897002
_cell_length_c   9.12897002
_cell_angle_alpha   107.92008887
_cell_angle_beta   107.92008887
_cell_angle_gamma   112.62012114
_symmetry_Int_Tables_number   1
_chemical_formula_structural   LiFeP2(HO3)2
_chemical_formula_sum   'Li4 Fe4 P8 H8 O24'
_cell_volume   584.32255845
_cell_formula_units_Z   4
loop_
 _symmetry_equiv_pos_site_id
 _symmetry_equiv_pos_as_xyz
  1  'x, y, z'
loop_
 _atom_site_type_symbol
 _atom_site_label
 _atom_site_symmetry_multiplicity
 _atom_site_fract_x
 _atom_site_fract_y
 _atom_site_fract_z
 _atom_site_occupancy
  Li  Li0  1  0.87500000  0.68793676  0.31293676  1
  Li  Li1  1  0.37500000  0.56206324  0.68706324  1
  Li  Li2  1  0.31206324  0.62500000  0.18706324  1
  Li  Li3  1  0.43793676  0.12500000  0.81293676  1
  Fe  Fe4  1  0.87500000  0.40657003  0.03157003  1
  Fe  Fe5  1  0.37500000  0.84342997  0.96842997  1
  Fe  Fe6  1  0.59342997  0.62500000  0.46842997  1
  Fe  Fe7  1  0.15657003  0.12500000  0.53157003  1
  P  P8  1  0.59918276  0.29686794  0.19714483  1
  P  P9  1  0.15081724  0.84796207  0.19768518  1
  P  P10  1  0.09972311  0.40203793  0.80285517  1
  P  P11  1  0.65027689  0.95313206  0.80231482  1
  P  P12  1  0.70313206  0.90027689  0.30231482  1
  P  P13  1  0.04686794  0.84918276  0.69714483  1
  P  P14  1  0.59796207  0.40081724  0.69768518  1
  P  P15  1  0.15203793  0.34972311  0.30285517  1
  H  H16  1  0.71993957  0.27764596  0.31722487  1
  H  H17  1  0.03006043  0.84728530  0.05770639  1
  H  H18  1  0.96042109  0.40271470  0.68277513  1
  H  H19  1  0.78957891  0.97235404  0.94229361  1
  H  H20  1  0.72235404  0.03957891  0.44229361  1
  H  H21  1  0.02764596  0.96993957  0.81722487  1
  H  H22  1  0.59728530  0.28006043  0.55770639  1
  H  H23  1  0.15271470  0.21042109  0.18277513  1
  O  O24  1  0.45342629  0.10703027  0.03616638  1
  O  O25  1  0.29657371  0.83274009  0.15360397  1
  O  O26  1  0.07086389  0.41725991  0.96383362  1
  O  O27  1  0.67913611  0.14296973  0.84639603  1
  O  O28  1  0.89296973  0.92913611  0.34639603  1
  O  O29  1  0.85703027  0.70342629  0.53616638  1
  O  O30  1  0.58274009  0.54657371  0.65360397  1
  O  O31  1  0.16725991  0.32086389  0.46383362  1
  O  O32  1  0.70732449  0.42109553  0.13770479  1
  O  O33  1  0.04267551  0.68038030  0.21377104  1
  O  O34  1  0.28339074  0.56961970  0.86229521  1
  O  O35  1  0.46660926  0.82890447  0.78622896  1
  O  O36  1  0.57890447  0.71660926  0.28622896  1
  O  O37  1  0.17109553  0.95732449  0.63770479  1
  O  O38  1  0.43038030  0.29267551  0.71377104  1
  O  O39  1  0.31961970  0.53339074  0.36229521  1
  O  O40  1  0.51554876  0.38043220  0.29034579  1
  O  O41  1  0.23445124  0.02479702  0.36488343  1
  O  O42  1  0.09008641  0.22520298  0.70965421  1
  O  O43  1  0.65991359  0.86956780  0.63511657  1
  O  O44  1  0.61956780  0.90991359  0.13511657  1
  O  O45  1  0.13043220  0.76554876  0.79034579  1
  O  O46  1  0.77479702  0.48445124  0.86488343  1
  O  O47  1  0.97520298  0.34008641  0.20965421  1
