# generated using pymatgen
data_NaLi2AsO4
_symmetry_space_group_name_H-M   'P 1'
_cell_length_a   5.15839613
_cell_length_b   5.34904611
_cell_length_c   7.02748283
_cell_angle_alpha   90.00000000
_cell_angle_beta   90.00000000
_cell_angle_gamma   90.00000000
_symmetry_Int_Tables_number   1
_chemical_formula_structural   NaLi2AsO4
_chemical_formula_sum   'Na2 Li4 As2 O8'
_cell_volume   193.90581122
_cell_formula_units_Z   2
loop_
 _symmetry_equiv_pos_site_id
 _symmetry_equiv_pos_as_xyz
  1  'x, y, z'
loop_
 _atom_site_type_symbol
 _atom_site_label
 _atom_site_symmetry_multiplicity
 _atom_site_fract_x
 _atom_site_fract_y
 _atom_site_fract_z
 _atom_site_occupancy
  Li  Li0  1  0.50734751  0.32312868  0.74941220  1
  Li  Li1  1  0.00734751  0.67687132  0.24941220  1
  Li  Li2  1  0.50734751  0.32312868  0.25058780  1
  Li  Li3  1  0.00734751  0.67687132  0.75058780  1
  O  O4  1  0.06526094  0.87178541  0.00000000  1
  O  O5  1  0.66608500  0.22740273  0.00000000  1
  O  O6  1  0.56526094  0.12821459  0.50000000  1
  O  O7  1  0.16608500  0.77259727  0.50000000  1
  O  O8  1  0.12722629  0.32896169  0.80018935  1
  O  O9  1  0.62722629  0.67103831  0.69981065  1
  O  O10  1  0.62722629  0.67103831  0.30018935  1
  O  O11  1  0.12722629  0.32896169  0.19981065  1
  Na  Na12  1  0.52047866  0.80089738  0.00000000  1
  Na  Na13  1  0.02047866  0.19910262  0.50000000  1
  As  As14  1  0.49912780  0.81051442  0.50000000  1
  As  As15  1  0.99912780  0.18948558  0.00000000  1
