# generated using pymatgen
data_Ta3SnS6
_symmetry_space_group_name_H-M   'P 1'
_cell_length_a   5.80943656
_cell_length_b   5.80943657
_cell_length_c   14.71512550
_cell_angle_alpha   90.00000000
_cell_angle_beta   90.00000000
_cell_angle_gamma   119.99999996
_symmetry_Int_Tables_number   1
_chemical_formula_structural   Ta3SnS6
_chemical_formula_sum   'Ta6 Sn2 S12'
_cell_volume   430.09325302
_cell_formula_units_Z   2
loop_
 _symmetry_equiv_pos_site_id
 _symmetry_equiv_pos_as_xyz
  1  'x, y, z'
loop_
 _atom_site_type_symbol
 _atom_site_label
 _atom_site_symmetry_multiplicity
 _atom_site_fract_x
 _atom_site_fract_y
 _atom_site_fract_z
 _atom_site_occupancy
  S  S0  1  0.33537603  0.00000000  0.39388291  1
  S  S1  1  0.00000000  0.33537603  0.39388291  1
  S  S2  1  0.66462397  0.66462397  0.39388291  1
  S  S3  1  0.33537603  0.33537603  0.89388291  1
  S  S4  1  0.66462397  0.66462397  0.60611709  1
  S  S5  1  0.66462397  0.00000000  0.89388291  1
  S  S6  1  0.00000000  0.66462397  0.89388291  1
  S  S7  1  0.00000000  0.66462397  0.10611709  1
  S  S8  1  0.33537603  0.33537603  0.10611709  1
  S  S9  1  0.00000000  0.33537603  0.60611709  1
  S  S10  1  0.33537603  0.00000000  0.60611709  1
  S  S11  1  0.66462397  0.00000000  0.10611709  1
  Sn  Sn12  1  0.00000000  0.00000000  0.75000000  1
  Sn  Sn13  1  0.00000000  0.00000000  0.25000000  1
  Ta  Ta14  1  0.33333333  0.66666667  0.50000000  1
  Ta  Ta15  1  0.66666667  0.33333333  0.00000000  1
  Ta  Ta16  1  0.66666667  0.33333333  0.50000000  1
  Ta  Ta17  1  0.33333333  0.66666667  0.00000000  1
  Ta  Ta18  1  0.00000000  0.00000000  0.50000000  1
  Ta  Ta19  1  0.00000000  0.00000000  0.00000000  1
