# generated using pymatgen
data_NaZrCuS3
_symmetry_space_group_name_H-M   'P 1'
_cell_length_a   3.71164712
_cell_length_b   6.81193178
_cell_length_c   9.80787966
_cell_angle_alpha   90.00000000
_cell_angle_beta   90.00000000
_cell_angle_gamma   105.80934554
_symmetry_Int_Tables_number   1
_chemical_formula_structural   NaZrCuS3
_chemical_formula_sum   'Na2 Zr2 Cu2 S6'
_cell_volume   238.59729760
_cell_formula_units_Z   2
loop_
 _symmetry_equiv_pos_site_id
 _symmetry_equiv_pos_as_xyz
  1  'x, y, z'
loop_
 _atom_site_type_symbol
 _atom_site_label
 _atom_site_symmetry_multiplicity
 _atom_site_fract_x
 _atom_site_fract_y
 _atom_site_fract_z
 _atom_site_occupancy
  Na  Na0  1  0.75084413  0.50168826  0.75000000  1
  Na  Na1  1  0.24915587  0.49831174  0.25000000  1
  S  S2  1  0.92197447  0.84394894  0.25000000  1
  S  S3  1  0.36940713  0.73881425  0.93991000  1
  S  S4  1  0.07802553  0.15605106  0.75000000  1
  S  S5  1  0.36940713  0.73881425  0.56009000  1
  S  S6  1  0.63059287  0.26118575  0.06009000  1
  S  S7  1  0.63059287  0.26118575  0.43991000  1
  Cu  Cu8  1  0.47033745  0.94067491  0.75000000  1
  Cu  Cu9  1  0.52966255  0.05932509  0.25000000  1
  Zr  Zr10  1  0.00000000  0.00000000  0.50000000  1
  Zr  Zr11  1  0.00000000  0.00000000  0.00000000  1
