# generated using pymatgen
data_LaF3
_symmetry_space_group_name_H-M   'P 1'
_cell_length_a   7.24650519
_cell_length_b   7.24650519
_cell_length_c   7.39085067
_cell_angle_alpha   90.00000000
_cell_angle_beta   90.00000000
_cell_angle_gamma   120.00000005
_symmetry_Int_Tables_number   1
_chemical_formula_structural   LaF3
_chemical_formula_sum   'La6 F18'
_cell_volume   336.11065037
_cell_formula_units_Z   6
loop_
 _symmetry_equiv_pos_site_id
 _symmetry_equiv_pos_as_xyz
  1  'x, y, z'
loop_
 _atom_site_type_symbol
 _atom_site_label
 _atom_site_symmetry_multiplicity
 _atom_site_fract_x
 _atom_site_fract_y
 _atom_site_fract_z
 _atom_site_occupancy
  F  F0  1  0.00000000  0.00000000  0.75000000  1
  F  F1  1  0.00000000  0.00000000  0.25000000  1
  F  F2  1  0.33333333  0.66666667  0.81485136  1
  F  F3  1  0.66666667  0.33333333  0.68514864  1
  F  F4  1  0.66666667  0.33333333  0.18514864  1
  F  F5  1  0.33333333  0.66666667  0.31485136  1
  F  F6  1  0.30946916  0.93919627  0.57990111  1
  F  F7  1  0.06080373  0.37027289  0.57990111  1
  F  F8  1  0.62972711  0.69053084  0.57990111  1
  F  F9  1  0.37027289  0.06080373  0.92009889  1
  F  F10  1  0.69053084  0.62972711  0.92009889  1
  F  F11  1  0.93919627  0.30946916  0.92009889  1
  F  F12  1  0.69053084  0.06080373  0.42009889  1
  F  F13  1  0.93919627  0.62972711  0.42009889  1
  F  F14  1  0.37027289  0.30946916  0.42009889  1
  F  F15  1  0.62972711  0.93919627  0.07990111  1
  F  F16  1  0.30946916  0.37027289  0.07990111  1
  F  F17  1  0.06080373  0.69053084  0.07990111  1
  La  La18  1  0.34267608  0.34267608  0.75000000  1
  La  La19  1  0.00000000  0.65732392  0.75000000  1
  La  La20  1  0.65732392  0.00000000  0.75000000  1
  La  La21  1  0.65732392  0.65732392  0.25000000  1
  La  La22  1  0.00000000  0.34267608  0.25000000  1
  La  La23  1  0.34267608  0.00000000  0.25000000  1
