# generated using pymatgen
data_BaPIr
_symmetry_space_group_name_H-M   'P 1'
_cell_length_a   6.55092211
_cell_length_b   6.55092211
_cell_length_c   6.55092211
_cell_angle_alpha   90.00000000
_cell_angle_beta   90.00000000
_cell_angle_gamma   90.00000000
_symmetry_Int_Tables_number   1
_chemical_formula_structural   BaPIr
_chemical_formula_sum   'Ba4 P4 Ir4'
_cell_volume   281.13007418
_cell_formula_units_Z   4
loop_
 _symmetry_equiv_pos_site_id
 _symmetry_equiv_pos_as_xyz
  1  'x, y, z'
loop_
 _atom_site_type_symbol
 _atom_site_label
 _atom_site_symmetry_multiplicity
 _atom_site_fract_x
 _atom_site_fract_y
 _atom_site_fract_z
 _atom_site_occupancy
  P  P0  1  0.15416228  0.34583772  0.65416228  1
  P  P1  1  0.65416228  0.15416228  0.34583772  1
  P  P2  1  0.34583772  0.65416228  0.15416228  1
  P  P3  1  0.84583772  0.84583772  0.84583772  1
  Ba  Ba4  1  0.62628787  0.37371213  0.87371213  1
  Ba  Ba5  1  0.37371213  0.87371213  0.62628787  1
  Ba  Ba6  1  0.12628787  0.12628787  0.12628787  1
  Ba  Ba7  1  0.87371213  0.62628787  0.37371213  1
  Ir  Ir8  1  0.59669875  0.90330125  0.09669875  1
  Ir  Ir9  1  0.09669875  0.59669875  0.90330125  1
  Ir  Ir10  1  0.40330125  0.40330125  0.40330125  1
  Ir  Ir11  1  0.90330125  0.09669875  0.59669875  1
