# generated using pymatgen
data_Sr4IrO6
_symmetry_space_group_name_H-M   'P 1'
_cell_length_a   6.94680758
_cell_length_b   6.94680758
_cell_length_c   6.94680758
_cell_angle_alpha   90.34956873
_cell_angle_beta   90.34956876
_cell_angle_gamma   90.34956873
_symmetry_Int_Tables_number   1
_chemical_formula_structural   Sr4IrO6
_chemical_formula_sum   'Sr8 Ir2 O12'
_cell_volume   335.22118717
_cell_formula_units_Z   2
loop_
 _symmetry_equiv_pos_site_id
 _symmetry_equiv_pos_as_xyz
  1  'x, y, z'
loop_
 _atom_site_type_symbol
 _atom_site_label
 _atom_site_symmetry_multiplicity
 _atom_site_fract_x
 _atom_site_fract_y
 _atom_site_fract_z
 _atom_site_occupancy
  O  O0  1  0.78457961  0.57218704  0.44189190  1
  O  O1  1  0.57218704  0.44189190  0.78457961  1
  O  O2  1  0.44189190  0.78457961  0.57218704  1
  O  O3  1  0.05810810  0.92781296  0.71542039  1
  O  O4  1  0.92781296  0.71542039  0.05810810  1
  O  O5  1  0.71542039  0.05810810  0.92781296  1
  O  O6  1  0.21542039  0.42781296  0.55810810  1
  O  O7  1  0.42781296  0.55810810  0.21542039  1
  O  O8  1  0.55810810  0.21542039  0.42781296  1
  O  O9  1  0.94189190  0.07218704  0.28457961  1
  O  O10  1  0.28457961  0.94189190  0.07218704  1
  O  O11  1  0.07218704  0.28457961  0.94189190  1
  Sr  Sr12  1  0.25000000  0.25000000  0.25000000  1
  Sr  Sr13  1  0.75000000  0.75000000  0.75000000  1
  Sr  Sr14  1  0.11578618  0.75000000  0.38421382  1
  Sr  Sr15  1  0.75000000  0.38421382  0.11578618  1
  Sr  Sr16  1  0.38421382  0.11578618  0.75000000  1
  Sr  Sr17  1  0.88421382  0.25000000  0.61578618  1
  Sr  Sr18  1  0.25000000  0.61578618  0.88421382  1
  Sr  Sr19  1  0.61578618  0.88421382  0.25000000  1
  Ir  Ir20  1  0.00000000  0.00000000  0.00000000  1
  Ir  Ir21  1  0.50000000  0.50000000  0.50000000  1
