# generated using pymatgen
data_Rb2HgF4
_symmetry_space_group_name_H-M   'P 1'
_cell_length_a   4.68603600
_cell_length_b   4.68603600
_cell_length_c   7.71568447
_cell_angle_alpha   107.67813545
_cell_angle_beta   107.67813544
_cell_angle_gamma   89.99999994
_symmetry_Int_Tables_number   1
_chemical_formula_structural   Rb2HgF4
_chemical_formula_sum   'Rb2 Hg1 F4'
_cell_volume   153.00873874
_cell_formula_units_Z   1
loop_
 _symmetry_equiv_pos_site_id
 _symmetry_equiv_pos_as_xyz
  1  'x, y, z'
loop_
 _atom_site_type_symbol
 _atom_site_label
 _atom_site_symmetry_multiplicity
 _atom_site_fract_x
 _atom_site_fract_y
 _atom_site_fract_z
 _atom_site_occupancy
  F  F0  1  0.16323840  0.16323840  0.32647681  1
  F  F1  1  0.83676160  0.83676160  0.67352319  1
  F  F2  1  0.50000000  0.00000000  0.00000000  1
  F  F3  1  0.00000000  0.50000000  0.00000000  1
  Rb  Rb4  1  0.35871698  0.35871698  0.71743396  1
  Rb  Rb5  1  0.64128302  0.64128302  0.28256604  1
  Hg  Hg6  1  0.00000000  0.00000000  0.00000000  1
