# generated using pymatgen
data_MnB10(H13O4)2
_symmetry_space_group_name_H-M   'P 1'
_cell_length_a   6.90458664
_cell_length_b   7.48132131
_cell_length_c   18.71047810
_cell_angle_alpha   80.35110058
_cell_angle_beta   79.36736264
_cell_angle_gamma   62.51896239
_symmetry_Int_Tables_number   1
_chemical_formula_structural   MnB10(H13O4)2
_chemical_formula_sum   'Mn2 B20 H52 O16'
_cell_volume   838.94213174
_cell_formula_units_Z   2
loop_
 _symmetry_equiv_pos_site_id
 _symmetry_equiv_pos_as_xyz
  1  'x, y, z'
loop_
 _atom_site_type_symbol
 _atom_site_label
 _atom_site_symmetry_multiplicity
 _atom_site_fract_x
 _atom_site_fract_y
 _atom_site_fract_z
 _atom_site_occupancy
  Mn  Mn0  1  -0.00000000  -0.00000000  0.50000000  1
  Mn  Mn1  1  0.50000000  0.50000000  0.00000000  1
  B  B2  1  0.31311538  0.38110551  0.65603891  1
  B  B3  1  0.35025980  0.11889449  0.84396109  1
  B  B4  1  0.68688462  0.61889449  0.34396109  1
  B  B5  1  0.64974020  0.88110551  0.15603891  1
  B  B6  1  0.11204131  0.36954869  0.72218260  1
  B  B7  1  0.20377260  0.13045131  0.77781740  1
  B  B8  1  0.88795869  0.63045131  0.27781740  1
  B  B9  1  0.79622740  0.86954869  0.22218260  1
  B  B10  1  0.30437751  0.46376336  0.73676718  1
  B  B11  1  0.50490805  0.03623664  0.76323282  1
  B  B12  1  0.69562249  0.53623664  0.26323282  1
  B  B13  1  0.49509195  0.96376336  0.23676718  1
  B  B14  1  0.53591052  0.23645946  0.70165223  1
  B  B15  1  0.47402221  0.26354054  0.79834777  1
  B  B16  1  0.46408948  0.76354054  0.29834777  1
  B  B17  1  0.52597779  0.73645946  0.20165223  1
  B  B18  1  0.17397977  0.35689269  0.81277738  1
  B  B19  1  0.34364984  0.14310731  0.68722262  1
  B  B20  1  0.82602023  0.64310731  0.18722262  1
  B  B21  1  0.65635016  0.85689269  0.31277738  1
  H  H22  1  0.33037513  0.28278156  0.94520784  1
  H  H23  1  0.55836453  0.21721844  0.55479216  1
  H  H24  1  0.66962487  0.71721844  0.05479216  1
  H  H25  1  0.44163547  0.78278156  0.44520784  1
  H  H26  1  0.25851829  0.25313906  0.02966261  1
  H  H27  1  0.54131996  0.24686094  0.47033739  1
  H  H28  1  0.74148171  0.74686094  0.97033739  1
  H  H29  1  0.45868004  0.75313906  0.52966261  1
  H  H30  1  0.12585020  0.20364759  0.58299308  1
  H  H31  1  0.91249087  0.29635241  0.91700692  1
  H  H32  1  0.87414980  0.79635241  0.41700692  1
  H  H33  1  0.08750913  0.70364759  0.08299308  1
  H  H34  1  0.89644919  0.36774659  0.55924661  1
  H  H35  1  0.82344239  0.13225341  0.94075339  1
  H  H36  1  0.10355081  0.63225341  0.44075339  1
  H  H37  1  0.17655761  0.86774659  0.05924661  1
  H  H38  1  0.05354236  0.72513255  0.63224559  1
  H  H39  1  0.41092050  0.77486745  0.86775441  1
  H  H40  1  0.94645764  0.27486745  0.36775441  1
  H  H41  1  0.58907950  0.22513255  0.13224559  1
  H  H42  1  0.85650158  0.93806137  0.64962236  1
  H  H43  1  0.44418531  0.56193863  0.85037764  1
  H  H44  1  0.14349842  0.06193863  0.35037764  1
  H  H45  1  0.55581469  0.43806137  0.14962236  1
  H  H46  1  0.02408969  0.80657713  0.90512311  1
  H  H47  1  0.73578992  0.69342287  0.59487689  1
  H  H48  1  0.97591031  0.19342287  0.09487689  1
  H  H49  1  0.26421008  0.30657713  0.40512311  1
  H  H50  1  0.80886008  0.92721007  0.86722085  1
  H  H51  1  0.60329100  0.57278993  0.63277915  1
  H  H52  1  0.19113992  0.07278993  0.13277915  1
  H  H53  1  0.39670900  0.42721007  0.36722085  1
  H  H54  1  0.30169652  0.46510500  0.59522695  1
  H  H55  1  0.36202848  0.03489500  0.90477305  1
  H  H56  1  0.69830348  0.53489500  0.40477305  1
  H  H57  1  0.63797152  0.96510500  0.09522695  1
  H  H58  1  0.92306292  0.45528882  0.71148158  1
  H  H59  1  0.08983331  0.04471118  0.78851842  1
  H  H60  1  0.07693708  0.54471118  0.28851842  1
  H  H61  1  0.91016669  0.95528882  0.21148158  1
  H  H62  1  0.28431714  0.63171207  0.73810046  1
  H  H63  1  0.65412968  0.86828793  0.76189954  1
  H  H64  1  0.71568286  0.36828793  0.26189954  1
  H  H65  1  0.34587032  0.13171207  0.23810046  1
  H  H66  1  0.71830299  0.20636026  0.67315560  1
  H  H67  1  0.59781885  0.29363974  0.82684440  1
  H  H68  1  0.28169701  0.79363974  0.32684440  1
  H  H69  1  0.40218115  0.70636026  0.17315560  1
  H  H70  1  0.03375272  0.47069683  0.85455286  1
  H  H71  1  0.35900241  0.02930317  0.64544714  1
  H  H72  1  0.96624728  0.52930317  0.14544714  1
  H  H73  1  0.64099759  0.97069683  0.35455286  1
  O  O74  1  0.32669930  0.32591527  0.99240473  1
  O  O75  1  0.64501929  0.17408473  0.50759527  1
  O  O76  1  0.67330070  0.67408473  0.00759527  1
  O  O77  1  0.35498071  0.82591527  0.49240473  1
  O  O78  1  0.02433995  0.23800120  0.54689044  1
  O  O79  1  0.80923159  0.26199880  0.95310956  1
  O  O80  1  0.97566005  0.76199880  0.45310956  1
  O  O81  1  0.19076841  0.73800120  0.04689044  1
  O  O82  1  0.93781558  0.84775632  0.61044140  1
  O  O83  1  0.39601331  0.65224368  0.88955860  1
  O  O84  1  0.06218442  0.15224368  0.38955860  1
  O  O85  1  0.60398669  0.34775632  0.11044140  1
  O  O86  1  0.86409946  0.88934703  0.91472875  1
  O  O87  1  0.66817524  0.61065297  0.58527125  1
  O  O88  1  0.13590054  0.11065297  0.08527125  1
  O  O89  1  0.33182476  0.38934703  0.41472875  1
