# generated using pymatgen
data_K4Ge2Au7
_symmetry_space_group_name_H-M   'P 1'
_cell_length_a   10.24987365
_cell_length_b   10.24987365
_cell_length_c   10.24987365
_cell_angle_alpha   37.62563633
_cell_angle_beta   37.62563634
_cell_angle_gamma   37.62563630
_symmetry_Int_Tables_number   1
_chemical_formula_structural   K4Ge2Au7
_chemical_formula_sum   'K4 Ge2 Au7'
_cell_volume   360.02555391
_cell_formula_units_Z   1
loop_
 _symmetry_equiv_pos_site_id
 _symmetry_equiv_pos_as_xyz
  1  'x, y, z'
loop_
 _atom_site_type_symbol
 _atom_site_label
 _atom_site_symmetry_multiplicity
 _atom_site_fract_x
 _atom_site_fract_y
 _atom_site_fract_z
 _atom_site_occupancy
  K  K0  1  0.68281290  0.68281290  0.68281290  1
  K  K1  1  0.31718710  0.31718710  0.31718710  1
  K  K2  1  0.81095596  0.81095596  0.81095596  1
  K  K3  1  0.18904404  0.18904404  0.18904404  1
  Ge  Ge4  1  0.54511936  0.54511936  0.54511936  1
  Ge  Ge5  1  0.45488064  0.45488064  0.45488064  1
  Au  Au6  1  0.00000000  0.00000000  0.00000000  1
  Au  Au7  1  0.22321858  0.22321858  0.79489557  1
  Au  Au8  1  0.22321858  0.79489557  0.22321858  1
  Au  Au9  1  0.79489557  0.22321858  0.22321858  1
  Au  Au10  1  0.20510443  0.77678142  0.77678142  1
  Au  Au11  1  0.77678142  0.77678142  0.20510443  1
  Au  Au12  1  0.77678142  0.20510443  0.77678142  1
