# generated using pymatgen
data_Ba3NaTaO6
_symmetry_space_group_name_H-M   'P 1'
_cell_length_a   7.23648093
_cell_length_b   7.23648093
_cell_length_c   7.23648094
_cell_angle_alpha   91.90242556
_cell_angle_beta   91.90242550
_cell_angle_gamma   91.90242553
_symmetry_Int_Tables_number   1
_chemical_formula_structural   Ba3NaTaO6
_chemical_formula_sum   'Ba6 Na2 Ta2 O12'
_cell_volume   378.30945739
_cell_formula_units_Z   2
loop_
 _symmetry_equiv_pos_site_id
 _symmetry_equiv_pos_as_xyz
  1  'x, y, z'
loop_
 _atom_site_type_symbol
 _atom_site_label
 _atom_site_symmetry_multiplicity
 _atom_site_fract_x
 _atom_site_fract_y
 _atom_site_fract_z
 _atom_site_occupancy
  O  O0  1  0.23406396  0.55057084  0.42279542  1
  O  O1  1  0.55057084  0.42279542  0.23406396  1
  O  O2  1  0.42279542  0.23406396  0.55057084  1
  O  O3  1  0.07720458  0.94942916  0.26593604  1
  O  O4  1  0.94942916  0.26593604  0.07720458  1
  O  O5  1  0.26593604  0.07720458  0.94942916  1
  O  O6  1  0.76593604  0.44942916  0.57720458  1
  O  O7  1  0.44942916  0.57720458  0.76593604  1
  O  O8  1  0.57720458  0.76593604  0.44942916  1
  O  O9  1  0.92279542  0.05057084  0.73406396  1
  O  O10  1  0.73406396  0.92279542  0.05057084  1
  O  O11  1  0.05057084  0.73406396  0.92279542  1
  Na  Na12  1  0.25000000  0.25000000  0.25000000  1
  Na  Na13  1  0.75000000  0.75000000  0.75000000  1
  Ba  Ba14  1  0.25000000  0.89907396  0.60092604  1
  Ba  Ba15  1  0.89907396  0.60092604  0.25000000  1
  Ba  Ba16  1  0.39907396  0.75000000  0.10092604  1
  Ba  Ba17  1  0.75000000  0.10092604  0.39907396  1
  Ba  Ba18  1  0.10092604  0.39907396  0.75000000  1
  Ba  Ba19  1  0.60092604  0.25000000  0.89907396  1
  Ta  Ta20  1  0.00000000  0.00000000  0.00000000  1
  Ta  Ta21  1  0.50000000  0.50000000  0.50000000  1
