# generated using pymatgen
data_CaBeAsO5
_symmetry_space_group_name_H-M   'P 1'
_cell_length_a   4.98399944
_cell_length_b   7.93128693
_cell_length_c   10.20059976
_cell_angle_alpha   90.00000000
_cell_angle_beta   90.00318839
_cell_angle_gamma   90.00000000
_symmetry_Int_Tables_number   1
_chemical_formula_structural   CaBeAsO5
_chemical_formula_sum   'Ca4 Be4 As4 O20'
_cell_volume   403.22490986
_cell_formula_units_Z   4
loop_
 _symmetry_equiv_pos_site_id
 _symmetry_equiv_pos_as_xyz
  1  'x, y, z'
loop_
 _atom_site_type_symbol
 _atom_site_label
 _atom_site_symmetry_multiplicity
 _atom_site_fract_x
 _atom_site_fract_y
 _atom_site_fract_z
 _atom_site_occupancy
  Ca  Ca0  1  0.99586698  0.38473486  0.82789107  1
  Ca  Ca1  1  0.00413302  0.88473486  0.67210893  1
  Ca  Ca2  1  0.00413302  0.61526514  0.17210893  1
  Ca  Ca3  1  0.99586698  0.11526514  0.32789107  1
  Be  Be4  1  0.55621005  0.08409244  0.83838677  1
  Be  Be5  1  0.44378995  0.58409244  0.66161323  1
  Be  Be6  1  0.44378995  0.91590756  0.16161323  1
  Be  Be7  1  0.55621005  0.41590756  0.33838677  1
  As  As8  1  0.47451860  0.22520075  0.57965625  1
  As  As9  1  0.52548140  0.72520075  0.92034375  1
  As  As10  1  0.52548140  0.77479925  0.42034375  1
  As  As11  1  0.47451860  0.27479925  0.07965625  1
  O  O12  1  0.23656491  0.08428844  0.53324930  1
  O  O13  1  0.76343509  0.58428844  0.96675070  1
  O  O14  1  0.76343509  0.91571156  0.46675070  1
  O  O15  1  0.23656491  0.41571156  0.03324930  1
  O  O16  1  0.67154030  0.21093239  0.95115552  1
  O  O17  1  0.32845970  0.71093239  0.54884448  1
  O  O18  1  0.32845970  0.78906761  0.04884448  1
  O  O19  1  0.67154030  0.28906761  0.45115552  1
  O  O20  1  0.69337038  0.15210937  0.69951211  1
  O  O21  1  0.30662962  0.65210937  0.80048789  1
  O  O22  1  0.30662962  0.84789063  0.30048789  1
  O  O23  1  0.69337038  0.34789063  0.19951211  1
  O  O24  1  0.31221810  0.39751349  0.64607892  1
  O  O25  1  0.68778190  0.89751349  0.85392108  1
  O  O26  1  0.68778190  0.60248651  0.35392108  1
  O  O27  1  0.31221810  0.10248651  0.14607892  1
  O  O28  1  0.23733679  0.09584534  0.81179592  1
  O  O29  1  0.76266321  0.59584534  0.68820408  1
  O  O30  1  0.76266321  0.90415466  0.18820408  1
  O  O31  1  0.23733679  0.40415466  0.31179592  1
