# generated using pymatgen
data_PrBN2
_symmetry_space_group_name_H-M   'P 1'
_cell_length_a   7.44658660
_cell_length_b   7.44658661
_cell_length_c   7.44658660
_cell_angle_alpha   110.47094813
_cell_angle_beta   110.47094814
_cell_angle_gamma   110.47094812
_symmetry_Int_Tables_number   1
_chemical_formula_structural   PrBN2
_chemical_formula_sum   'Pr6 B6 N12'
_cell_volume   305.53930384
_cell_formula_units_Z   6
loop_
 _symmetry_equiv_pos_site_id
 _symmetry_equiv_pos_as_xyz
  1  'x, y, z'
loop_
 _atom_site_type_symbol
 _atom_site_label
 _atom_site_symmetry_multiplicity
 _atom_site_fract_x
 _atom_site_fract_y
 _atom_site_fract_z
 _atom_site_occupancy
  B  B0  1  0.13096463  0.25000000  0.36903537  1
  B  B1  1  0.86903537  0.75000000  0.63096463  1
  B  B2  1  0.75000000  0.63096463  0.86903537  1
  B  B3  1  0.63096463  0.86903537  0.75000000  1
  B  B4  1  0.25000000  0.36903537  0.13096463  1
  B  B5  1  0.36903537  0.13096463  0.25000000  1
  N  N6  1  0.49046770  0.00953230  0.25000000  1
  N  N7  1  0.25000000  0.49046770  0.00953230  1
  N  N8  1  0.99046770  0.75000000  0.50953230  1
  N  N9  1  0.00953230  0.25000000  0.49046770  1
  N  N10  1  0.50953230  0.99046770  0.75000000  1
  N  N11  1  0.75000000  0.50953230  0.99046770  1
  N  N12  1  0.12834640  0.37165360  0.25000000  1
  N  N13  1  0.25000000  0.12834640  0.37165360  1
  N  N14  1  0.37165360  0.25000000  0.12834640  1
  N  N15  1  0.87165360  0.62834640  0.75000000  1
  N  N16  1  0.75000000  0.87165360  0.62834640  1
  N  N17  1  0.62834640  0.75000000  0.87165360  1
  Pr  Pr18  1  0.20438286  0.75000000  0.29561714  1
  Pr  Pr19  1  0.75000000  0.29561714  0.20438286  1
  Pr  Pr20  1  0.29561714  0.20438286  0.75000000  1
  Pr  Pr21  1  0.79561714  0.25000000  0.70438286  1
  Pr  Pr22  1  0.25000000  0.70438286  0.79561714  1
  Pr  Pr23  1  0.70438286  0.79561714  0.25000000  1
