# generated using pymatgen
data_Li3AsO4
_symmetry_space_group_name_H-M   'P 1'
_cell_length_a   5.05151748
_cell_length_b   5.46992473
_cell_length_c   6.36552868
_cell_angle_alpha   90.00000000
_cell_angle_beta   90.00000000
_cell_angle_gamma   90.00000000
_symmetry_Int_Tables_number   1
_chemical_formula_structural   Li3AsO4
_chemical_formula_sum   'Li6 As2 O8'
_cell_volume   175.88859895
_cell_formula_units_Z   2
loop_
 _symmetry_equiv_pos_site_id
 _symmetry_equiv_pos_as_xyz
  1  'x, y, z'
loop_
 _atom_site_type_symbol
 _atom_site_label
 _atom_site_symmetry_multiplicity
 _atom_site_fract_x
 _atom_site_fract_y
 _atom_site_fract_z
 _atom_site_occupancy
  Li  Li0  1  0.00462581  0.16336422  0.50000000  1
  Li  Li1  1  0.50462581  0.83663578  0.00000000  1
  Li  Li2  1  0.00440736  0.67003855  0.75224161  1
  Li  Li3  1  0.50440736  0.32996145  0.74775839  1
  Li  Li4  1  0.50440736  0.32996145  0.25224161  1
  Li  Li5  1  0.00440736  0.67003855  0.24775839  1
  O  O6  1  0.65600517  0.17643153  0.00000000  1
  O  O7  1  0.15600517  0.82356847  0.50000000  1
  O  O8  1  0.10954221  0.32050059  0.77777056  1
  O  O9  1  0.60954221  0.67949941  0.72222944  1
  O  O10  1  0.60954221  0.67949941  0.27777056  1
  O  O11  1  0.10954221  0.32050059  0.22222944  1
  O  O12  1  0.10706099  0.87256002  0.00000000  1
  O  O13  1  0.60706099  0.12743998  0.50000000  1
  As  As14  1  0.49760891  0.82860804  0.50000000  1
  As  As15  1  0.99760891  0.17139196  0.00000000  1
