# generated using pymatgen
data_La(PdO2)2
_symmetry_space_group_name_H-M   'P 1'
_cell_length_a   5.99836443
_cell_length_b   5.99836443
_cell_length_c   6.70778133
_cell_angle_alpha   116.55904646
_cell_angle_beta   116.55904647
_cell_angle_gamma   89.99999992
_symmetry_Int_Tables_number   1
_chemical_formula_structural   La(PdO2)2
_chemical_formula_sum   'La2 Pd4 O8'
_cell_volume   186.97385873
_cell_formula_units_Z   2
loop_
 _symmetry_equiv_pos_site_id
 _symmetry_equiv_pos_as_xyz
  1  'x, y, z'
loop_
 _atom_site_type_symbol
 _atom_site_label
 _atom_site_symmetry_multiplicity
 _atom_site_fract_x
 _atom_site_fract_y
 _atom_site_fract_z
 _atom_site_occupancy
  O  O0  1  0.28071583  0.67390822  0.15261148  1
  O  O1  1  0.47870326  0.78071583  0.65261148  1
  O  O2  1  0.17390822  0.37189565  0.65261148  1
  O  O3  1  0.87189565  0.97870326  0.15261148  1
  O  O4  1  0.71928417  0.32609178  0.84738852  1
  O  O5  1  0.52129674  0.21928417  0.34738852  1
  O  O6  1  0.12810435  0.02129674  0.84738852  1
  O  O7  1  0.82609178  0.62810435  0.34738852  1
  Pd  Pd8  1  0.50000000  0.00000000  0.00000000  1
  Pd  Pd9  1  0.00000000  0.00000000  0.50000000  1
  Pd  Pd10  1  0.50000000  0.00000000  0.50000000  1
  Pd  Pd11  1  0.50000000  0.50000000  0.00000000  1
  La  La12  1  0.12500000  0.37500000  0.25000000  1
  La  La13  1  0.87500000  0.62500000  0.75000000  1
