# generated using pymatgen
data_PrNiC2
_symmetry_space_group_name_H-M   'P 1'
_cell_length_a   3.89682382
_cell_length_b   3.81750174
_cell_length_c   3.81750174
_cell_angle_alpha   106.76489082
_cell_angle_beta   90.00000000
_cell_angle_gamma   90.00000000
_symmetry_Int_Tables_number   1
_chemical_formula_structural   PrNiC2
_chemical_formula_sum   'Pr1 Ni1 C2'
_cell_volume   54.37589530
_cell_formula_units_Z   1
loop_
 _symmetry_equiv_pos_site_id
 _symmetry_equiv_pos_as_xyz
  1  'x, y, z'
loop_
 _atom_site_type_symbol
 _atom_site_label
 _atom_site_symmetry_multiplicity
 _atom_site_fract_x
 _atom_site_fract_y
 _atom_site_fract_z
 _atom_site_occupancy
  C  C0  1  0.50000000  0.45360185  0.84586381  1
  C  C1  1  0.50000000  0.15413619  0.54639815  1
  Ni  Ni2  1  0.50000000  0.61531629  0.38468371  1
  Pr  Pr3  1  0.00000000  0.00194568  0.99805432  1
