# generated using pymatgen
data_Nd2H26C11NO21
_symmetry_space_group_name_H-M   'P 1'
_cell_length_a   10.10984669
_cell_length_b   11.24898239
_cell_length_c   21.55921753
_cell_angle_alpha   90.00000000
_cell_angle_beta   90.00000000
_cell_angle_gamma   93.33596901
_symmetry_Int_Tables_number   1
_chemical_formula_structural   Nd2H26C11NO21
_chemical_formula_sum   'Nd8 H104 C44 N4 O84'
_cell_volume   2447.67784843
_cell_formula_units_Z   4
loop_
 _symmetry_equiv_pos_site_id
 _symmetry_equiv_pos_as_xyz
  1  'x, y, z'
loop_
 _atom_site_type_symbol
 _atom_site_label
 _atom_site_symmetry_multiplicity
 _atom_site_fract_x
 _atom_site_fract_y
 _atom_site_fract_z
 _atom_site_occupancy
  Nd  Nd0  1  0.06447529  0.44218287  0.40321935  1
  Nd  Nd1  1  0.56447529  0.94218287  0.09678065  1
  Nd  Nd2  1  0.93552471  0.55781713  0.59678065  1
  Nd  Nd3  1  0.43552471  0.05781713  0.90321935  1
  Nd  Nd4  1  0.58043508  0.80870807  0.39610592  1
  Nd  Nd5  1  0.08043508  0.30870807  0.10389408  1
  Nd  Nd6  1  0.41956492  0.19129193  0.60389408  1
  Nd  Nd7  1  0.91956492  0.69129193  0.89610592  1
  H  H8  1  0.77507765  0.35078088  0.44592119  1
  H  H9  1  0.27507765  0.85078088  0.05407881  1
  H  H10  1  0.22492235  0.64921912  0.55407881  1
  H  H11  1  0.72492235  0.14921912  0.94592119  1
  H  H12  1  0.83650303  0.24621801  0.41048725  1
  H  H13  1  0.33650303  0.74621801  0.08951275  1
  H  H14  1  0.16349697  0.75378199  0.58951275  1
  H  H15  1  0.66349697  0.25378199  0.91048725  1
  H  H16  1  0.18654948  0.17826063  0.39829543  1
  H  H17  1  0.68654948  0.67826063  0.10170457  1
  H  H18  1  0.81345052  0.82173937  0.60170457  1
  H  H19  1  0.31345052  0.32173937  0.89829543  1
  H  H20  1  0.22308569  0.26220189  0.45691053  1
  H  H21  1  0.72308569  0.76220189  0.04308947  1
  H  H22  1  0.77691431  0.73779811  0.54308947  1
  H  H23  1  0.27691431  0.23779811  0.95691053  1
  H  H24  1  0.86797715  0.90254845  0.44093154  1
  H  H25  1  0.36797715  0.40254845  0.05906846  1
  H  H26  1  0.13202285  0.09745155  0.55906846  1
  H  H27  1  0.63202285  0.59745155  0.94093154  1
  H  H28  1  0.80710507  0.01088892  0.40721014  1
  H  H29  1  0.30710507  0.51088892  0.09278986  1
  H  H30  1  0.19289493  0.98911108  0.59278986  1
  H  H31  1  0.69289493  0.48911108  0.90721014  1
  H  H32  1  0.56313503  0.44701484  0.44112807  1
  H  H33  1  0.06313503  0.94701484  0.05887193  1
  H  H34  1  0.43686497  0.55298516  0.55887193  1
  H  H35  1  0.93686497  0.05298516  0.94112807  1
  H  H36  1  0.54804319  0.31058966  0.45999872  1
  H  H37  1  0.04804319  0.81058966  0.04000128  1
  H  H38  1  0.45195681  0.68941034  0.54000128  1
  H  H39  1  0.95195681  0.18941034  0.95999872  1
  H  H40  1  0.75202755  0.07794202  0.32757264  1
  H  H41  1  0.25202755  0.57794202  0.17242736  1
  H  H42  1  0.24797245  0.92205798  0.67242736  1
  H  H43  1  0.74797245  0.42205798  0.82757264  1
  H  H44  1  0.88087508  0.17357786  0.32963281  1
  H  H45  1  0.38087508  0.67357786  0.17036719  1
  H  H46  1  0.11912492  0.82642214  0.67036719  1
  H  H47  1  0.61912492  0.32642214  0.82963281  1
  H  H48  1  0.07914914  0.79152912  0.43541167  1
  H  H49  1  0.57914914  0.29152912  0.06458833  1
  H  H50  1  0.92085086  0.20847088  0.56458833  1
  H  H51  1  0.42085086  0.70847088  0.93541167  1
  H  H52  1  0.07817258  0.88569074  0.48769513  1
  H  H53  1  0.57817258  0.38569074  0.01230487  1
  H  H54  1  0.92182742  0.11430926  0.51230487  1
  H  H55  1  0.42182742  0.61430926  0.98769513  1
  H  H56  1  0.66348618  0.48542197  0.10419504  1
  H  H57  1  0.16348618  0.98542197  0.39580496  1
  H  H58  1  0.33651382  0.51457803  0.89580496  1
  H  H59  1  0.83651382  0.01457803  0.60419504  1
  H  H60  1  0.81152564  0.52552196  0.11611369  1
  H  H61  1  0.31152564  0.02552196  0.38388631  1
  H  H62  1  0.18847436  0.47447804  0.88388631  1
  H  H63  1  0.68847436  0.97447804  0.61611369  1
  H  H64  1  0.92081494  0.98623162  0.23394840  1
  H  H65  1  0.42081494  0.48623162  0.26605160  1
  H  H66  1  0.07918506  0.01376838  0.76605160  1
  H  H67  1  0.57918506  0.51376838  0.73394840  1
  H  H68  1  0.03136447  0.98506194  0.29922622  1
  H  H69  1  0.53136447  0.48506194  0.20077378  1
  H  H70  1  0.96863553  0.01493806  0.70077378  1
  H  H71  1  0.46863553  0.51493806  0.79922622  1
  H  H72  1  0.89069745  0.87918651  0.29507709  1
  H  H73  1  0.39069745  0.37918651  0.20492291  1
  H  H74  1  0.10930255  0.12081349  0.70492291  1
  H  H75  1  0.60930255  0.62081349  0.79507709  1
  H  H76  1  0.02881584  0.70675769  0.16883934  1
  H  H77  1  0.52881584  0.20675769  0.33116066  1
  H  H78  1  0.97118416  0.29324231  0.83116066  1
  H  H79  1  0.47118416  0.79324231  0.66883934  1
  H  H80  1  0.91997468  0.82635752  0.15863649  1
  H  H81  1  0.41997468  0.32635752  0.34136351  1
  H  H82  1  0.08002532  0.17364248  0.84136351  1
  H  H83  1  0.58002532  0.67364248  0.65863649  1
  H  H84  1  0.88978779  0.71922589  0.21991493  1
  H  H85  1  0.38978779  0.21922589  0.28008507  1
  H  H86  1  0.11021221  0.28077411  0.78008507  1
  H  H87  1  0.61021221  0.78077411  0.71991493  1
  H  H88  1  0.21642175  0.85086385  0.17618305  1
  H  H89  1  0.71642175  0.35086385  0.32381695  1
  H  H90  1  0.78357825  0.14913615  0.82381695  1
  H  H91  1  0.28357825  0.64913615  0.67618305  1
  H  H92  1  0.21627524  0.96747335  0.23313117  1
  H  H93  1  0.71627524  0.46747335  0.26686883  1
  H  H94  1  0.78372476  0.03252665  0.76686883  1
  H  H95  1  0.28372476  0.53252665  0.73313117  1
  H  H96  1  0.10826115  0.97140545  0.16716736  1
  H  H97  1  0.60826115  0.47140545  0.33283264  1
  H  H98  1  0.89173885  0.02859455  0.83283264  1
  H  H99  1  0.39173885  0.52859455  0.66716736  1
  H  H100  1  0.17707838  0.70805978  0.25840492  1
  H  H101  1  0.67707838  0.20805978  0.24159508  1
  H  H102  1  0.82292162  0.29194022  0.74159508  1
  H  H103  1  0.32292162  0.79194022  0.75840492  1
  H  H104  1  0.03577618  0.71664174  0.30730208  1
  H  H105  1  0.53577618  0.21664174  0.19269792  1
  H  H106  1  0.96422382  0.28335826  0.69269792  1
  H  H107  1  0.46422382  0.78335826  0.80730208  1
  H  H108  1  0.17258029  0.82633541  0.31394614  1
  H  H109  1  0.67258029  0.32633541  0.18605386  1
  H  H110  1  0.82741971  0.17366459  0.68605386  1
  H  H111  1  0.32741971  0.67366459  0.81394614  1
  C  C112  1  0.82699446  0.62790411  0.37165164  1
  C  C113  1  0.32699446  0.12790411  0.12834836  1
  C  C114  1  0.17300554  0.37209589  0.62834836  1
  C  C115  1  0.67300554  0.87209589  0.87165164  1
  C  C116  1  0.81794008  0.62942363  0.44368062  1
  C  C117  1  0.31794008  0.12942363  0.05631938  1
  C  C118  1  0.18205992  0.37057637  0.55631938  1
  C  C119  1  0.68205992  0.87057637  0.94368062  1
  C  C120  1  0.36818468  0.57169708  0.40871139  1
  C  C121  1  0.86818468  0.07169708  0.09128861  1
  C  C122  1  0.63181532  0.42830292  0.59128861  1
  C  C123  1  0.13181532  0.92830292  0.90871139  1
  C  C124  1  0.27934382  0.67886909  0.41124886  1
  C  C125  1  0.77934382  0.17886909  0.08875114  1
  C  C126  1  0.72065618  0.32113091  0.58875114  1
  C  C127  1  0.22065618  0.82113091  0.91124886  1
  C  C128  1  0.61849148  0.92853105  0.25139402  1
  C  C129  1  0.11849148  0.42853105  0.24860598  1
  C  C130  1  0.38150852  0.07146895  0.74860598  1
  C  C131  1  0.88150852  0.57146895  0.75139402  1
  C  C132  1  0.52271519  0.81772169  0.24165531  1
  C  C133  1  0.02271519  0.31772169  0.25834469  1
  C  C134  1  0.47728481  0.18227831  0.75834469  1
  C  C135  1  0.97728481  0.68227831  0.74165531  1
  C  C136  1  0.51138485  0.95345329  0.52604687  1
  C  C137  1  0.01138485  0.45345329  0.97395313  1
  C  C138  1  0.48861515  0.04654671  0.47395313  1
  C  C139  1  0.98861515  0.54654671  0.02604687  1
  C  C140  1  0.96655364  0.93044629  0.26853631  1
  C  C141  1  0.46655364  0.43044629  0.23146369  1
  C  C142  1  0.03344636  0.06955371  0.73146369  1
  C  C143  1  0.53344636  0.56955371  0.76853631  1
  C  C144  1  0.96575377  0.76858831  0.19239657  1
  C  C145  1  0.46575377  0.26858831  0.30760343  1
  C  C146  1  0.03424623  0.23141169  0.80760343  1
  C  C147  1  0.53424623  0.73141169  0.69239657  1
  C  C148  1  0.15594781  0.91382556  0.20022441  1
  C  C149  1  0.65594781  0.41382556  0.29977559  1
  C  C150  1  0.84405219  0.08617444  0.79977559  1
  C  C151  1  0.34405219  0.58617444  0.70022441  1
  C  C152  1  0.11349917  0.76848156  0.28242279  1
  C  C153  1  0.61349917  0.26848156  0.21757721  1
  C  C154  1  0.88650083  0.23151844  0.71757721  1
  C  C155  1  0.38650083  0.73151844  0.78242279  1
  N  N156  1  0.05015415  0.84492264  0.23564236  1
  N  N157  1  0.55015415  0.34492264  0.26435764  1
  N  N158  1  0.94984585  0.15507736  0.76435764  1
  N  N159  1  0.44984585  0.65507736  0.73564236  1
  O  O160  1  0.90393210  0.55636712  0.34705741  1
  O  O161  1  0.40393210  0.05636712  0.15294259  1
  O  O162  1  0.09606790  0.44363288  0.65294259  1
  O  O163  1  0.59606790  0.94363288  0.84705741  1
  O  O164  1  0.75800019  0.70008261  0.34284526  1
  O  O165  1  0.25800019  0.20008261  0.15715474  1
  O  O166  1  0.24199981  0.29991739  0.65715474  1
  O  O167  1  0.74199981  0.79991739  0.84284526  1
  O  O168  1  0.89792524  0.56743130  0.47390114  1
  O  O169  1  0.39792524  0.06743130  0.02609886  1
  O  O170  1  0.10207476  0.43256870  0.52609886  1
  O  O171  1  0.60207476  0.93256870  0.97390114  1
  O  O172  1  0.73280364  0.69477242  0.46639882  1
  O  O173  1  0.23280364  0.19477242  0.03360118  1
  O  O174  1  0.26719636  0.30522758  0.53360118  1
  O  O175  1  0.76719636  0.80522758  0.96639882  1
  O  O176  1  0.31125038  0.46892858  0.40982372  1
  O  O177  1  0.81125038  0.96892858  0.09017628  1
  O  O178  1  0.68874962  0.53107142  0.59017628  1
  O  O179  1  0.18874962  0.03107142  0.90982372  1
  O  O180  1  0.49266407  0.59501200  0.40507084  1
  O  O181  1  0.99266407  0.09501200  0.09492916  1
  O  O182  1  0.50733593  0.40498800  0.59492916  1
  O  O183  1  0.00733593  0.90498800  0.90507084  1
  O  O184  1  0.15438389  0.65479405  0.41530636  1
  O  O185  1  0.65438389  0.15479405  0.08469364  1
  O  O186  1  0.84561611  0.34520595  0.58469364  1
  O  O187  1  0.34561611  0.84520595  0.91530636  1
  O  O188  1  0.33524958  0.78160667  0.40882784  1
  O  O189  1  0.83524958  0.28160667  0.09117216  1
  O  O190  1  0.66475042  0.21839333  0.59117216  1
  O  O191  1  0.16475042  0.71839333  0.90882784  1
  O  O192  1  0.65867525  0.98550430  0.20394178  1
  O  O193  1  0.15867525  0.48550430  0.29605822  1
  O  O194  1  0.34132475  0.01449570  0.79605822  1
  O  O195  1  0.84132475  0.51449570  0.70394178  1
  O  O196  1  0.64983275  0.95276481  0.30745856  1
  O  O197  1  0.14983275  0.45276481  0.19254144  1
  O  O198  1  0.35016725  0.04723519  0.69254144  1
  O  O199  1  0.85016725  0.54723519  0.80745856  1
  O  O200  1  0.49000290  0.79539751  0.18552533  1
  O  O201  1  0.99000290  0.29539751  0.31447467  1
  O  O202  1  0.50999710  0.20460249  0.81447467  1
  O  O203  1  0.00999710  0.70460249  0.68552533  1
  O  O204  1  0.48490518  0.75956177  0.28898242  1
  O  O205  1  0.98490518  0.25956177  0.21101758  1
  O  O206  1  0.51509482  0.24043823  0.71101758  1
  O  O207  1  0.01509482  0.74043823  0.78898242  1
  O  O208  1  0.53197088  0.84844341  0.50892969  1
  O  O209  1  0.03197088  0.34844341  0.99107031  1
  O  O210  1  0.46802912  0.15155659  0.49107031  1
  O  O211  1  0.96802912  0.65155659  0.00892969  1
  O  O212  1  0.50841771  0.99053185  0.58167190  1
  O  O213  1  0.00841771  0.49053185  0.91832810  1
  O  O214  1  0.49158229  0.00946815  0.41832810  1
  O  O215  1  0.99158229  0.50946815  0.08167190  1
  O  O216  1  0.86176404  0.31737532  0.43561042  1
  O  O217  1  0.36176404  0.81737532  0.06438958  1
  O  O218  1  0.13823596  0.68262468  0.56438958  1
  O  O219  1  0.63823596  0.18262468  0.93561042  1
  O  O220  1  0.16414935  0.25299732  0.42022370  1
  O  O221  1  0.66414935  0.75299732  0.07977630  1
  O  O222  1  0.83585065  0.74700268  0.57977630  1
  O  O223  1  0.33585065  0.24700268  0.92022370  1
  O  O224  1  0.78348627  0.94052265  0.43374556  1
  O  O225  1  0.28348627  0.44052265  0.06625444  1
  O  O226  1  0.21651373  0.05947735  0.56625444  1
  O  O227  1  0.71651373  0.55947735  0.93374556  1
  O  O228  1  0.61186218  0.37927326  0.45589650  1
  O  O229  1  0.11186218  0.87927326  0.04410350  1
  O  O230  1  0.38813782  0.62072674  0.54410350  1
  O  O231  1  0.88813782  0.12072674  0.95589650  1
  O  O232  1  0.81204074  0.12837939  0.35471701  1
  O  O233  1  0.31204074  0.62837939  0.14528299  1
  O  O234  1  0.18795926  0.87162061  0.64528299  1
  O  O235  1  0.68795926  0.37162061  0.85471701  1
  O  O236  1  0.04858800  0.87237481  0.44505836  1
  O  O237  1  0.54858800  0.37237481  0.05494164  1
  O  O238  1  0.95141200  0.12762519  0.55494164  1
  O  O239  1  0.45141200  0.62762519  0.94505836  1
  O  O240  1  0.72062987  0.54311710  0.12802066  1
  O  O241  1  0.22062987  0.04311710  0.37197934  1
  O  O242  1  0.27937013  0.45688290  0.87197934  1
  O  O243  1  0.77937013  0.95688290  0.62802066  1
