# generated using pymatgen
data_CsK2PdF5
_symmetry_space_group_name_H-M   'P 1'
_cell_length_a   6.36249524
_cell_length_b   7.49485239
_cell_length_c   7.49485239
_cell_angle_alpha   90.00000000
_cell_angle_beta   90.00000000
_cell_angle_gamma   90.00000000
_symmetry_Int_Tables_number   1
_chemical_formula_structural   CsK2PdF5
_chemical_formula_sum   'Cs2 K4 Pd2 F10'
_cell_volume   357.39925118
_cell_formula_units_Z   2
loop_
 _symmetry_equiv_pos_site_id
 _symmetry_equiv_pos_as_xyz
  1  'x, y, z'
loop_
 _atom_site_type_symbol
 _atom_site_label
 _atom_site_symmetry_multiplicity
 _atom_site_fract_x
 _atom_site_fract_y
 _atom_site_fract_z
 _atom_site_occupancy
  F  F0  1  0.77490950  0.86929026  0.36929026  1
  F  F1  1  0.77490950  0.13070974  0.63070974  1
  F  F2  1  0.77490950  0.36929026  0.13070974  1
  F  F3  1  0.77490950  0.63070974  0.86929026  1
  F  F4  1  0.22509050  0.86929026  0.36929026  1
  F  F5  1  0.22509050  0.63070974  0.86929026  1
  F  F6  1  0.22509050  0.36929026  0.13070974  1
  F  F7  1  0.22509050  0.13070974  0.63070974  1
  F  F8  1  0.50000000  0.00000000  0.00000000  1
  F  F9  1  0.50000000  0.50000000  0.50000000  1
  K  K10  1  0.50000000  0.32183721  0.82183721  1
  K  K11  1  0.50000000  0.17816279  0.32183721  1
  K  K12  1  0.50000000  0.67816279  0.17816279  1
  K  K13  1  0.50000000  0.82183721  0.67816279  1
  Pd  Pd14  1  0.00000000  0.00000000  0.50000000  1
  Pd  Pd15  1  0.00000000  0.50000000  0.00000000  1
  Cs  Cs16  1  0.00000000  0.50000000  0.50000000  1
  Cs  Cs17  1  0.00000000  0.00000000  0.00000000  1
