# generated using pymatgen
data_KLi6TaO6
_symmetry_space_group_name_H-M   'P 1'
_cell_length_a   5.38152339
_cell_length_b   5.38152338
_cell_length_c   5.38152339
_cell_angle_alpha   101.19522875
_cell_angle_beta   101.19522876
_cell_angle_gamma   101.19522869
_symmetry_Int_Tables_number   1
_chemical_formula_structural   KLi6TaO6
_chemical_formula_sum   'K1 Li6 Ta1 O6'
_cell_volume   145.56028487
_cell_formula_units_Z   1
loop_
 _symmetry_equiv_pos_site_id
 _symmetry_equiv_pos_as_xyz
  1  'x, y, z'
loop_
 _atom_site_type_symbol
 _atom_site_label
 _atom_site_symmetry_multiplicity
 _atom_site_fract_x
 _atom_site_fract_y
 _atom_site_fract_z
 _atom_site_occupancy
  Li  Li0  1  0.34348257  0.00000000  0.65651743  1
  Li  Li1  1  0.00000000  0.65651743  0.34348257  1
  Li  Li2  1  0.34348257  0.65651743  0.00000000  1
  Li  Li3  1  0.00000000  0.34348257  0.65651743  1
  Li  Li4  1  0.65651743  0.00000000  0.34348257  1
  Li  Li5  1  0.65651743  0.34348257  0.00000000  1
  O  O6  1  0.27103698  0.91712052  0.27103698  1
  O  O7  1  0.27103698  0.27103698  0.91712052  1
  O  O8  1  0.72896302  0.08287948  0.72896302  1
  O  O9  1  0.72896302  0.72896302  0.08287948  1
  O  O10  1  0.08287948  0.72896302  0.72896302  1
  O  O11  1  0.91712052  0.27103698  0.27103698  1
  K  K12  1  0.50000000  0.50000000  0.50000000  1
  Ta  Ta13  1  0.00000000  0.00000000  0.00000000  1
