# generated using pymatgen
data_Cd4P6SN12
_symmetry_space_group_name_H-M   'P 1'
_cell_length_a   7.41173734
_cell_length_b   7.41173734
_cell_length_c   7.41173734
_cell_angle_alpha   109.47122060
_cell_angle_beta   109.47122060
_cell_angle_gamma   109.47122066
_symmetry_Int_Tables_number   1
_chemical_formula_structural   Cd4P6SN12
_chemical_formula_sum   'Cd4 P6 S1 N12'
_cell_volume   313.42827340
_cell_formula_units_Z   1
loop_
 _symmetry_equiv_pos_site_id
 _symmetry_equiv_pos_as_xyz
  1  'x, y, z'
loop_
 _atom_site_type_symbol
 _atom_site_label
 _atom_site_symmetry_multiplicity
 _atom_site_fract_x
 _atom_site_fract_y
 _atom_site_fract_z
 _atom_site_occupancy
  N  N0  1  0.28516796  0.71019371  0.28516796  1
  N  N1  1  0.28516796  0.28516796  0.71019371  1
  N  N2  1  0.57497424  0.28980629  0.57497424  1
  N  N3  1  0.28980629  0.57497424  0.57497424  1
  N  N4  1  0.00000000  0.42502576  0.71483204  1
  N  N5  1  0.42502576  0.00000000  0.71483204  1
  N  N6  1  0.57497424  0.57497424  0.28980629  1
  N  N7  1  0.42502576  0.71483204  0.00000000  1
  N  N8  1  0.71483204  0.42502576  0.00000000  1
  N  N9  1  0.00000000  0.71483204  0.42502576  1
  N  N10  1  0.71019371  0.28516796  0.28516796  1
  N  N11  1  0.71483204  0.00000000  0.42502576  1
  P  P12  1  0.50000000  0.25000000  0.75000000  1
  P  P13  1  0.50000000  0.75000000  0.25000000  1
  P  P14  1  0.25000000  0.75000000  0.50000000  1
  P  P15  1  0.75000000  0.25000000  0.50000000  1
  P  P16  1  0.25000000  0.50000000  0.75000000  1
  P  P17  1  0.75000000  0.50000000  0.25000000  1
  S  S18  1  0.00000000  0.00000000  0.00000000  1
  Cd  Cd19  1  0.00000000  0.66379904  0.00000000  1
  Cd  Cd20  1  0.66379904  0.00000000  0.00000000  1
  Cd  Cd21  1  0.00000000  0.00000000  0.66379904  1
  Cd  Cd22  1  0.33620096  0.33620096  0.33620096  1
