# generated using pymatgen
data_KHgC3(SN)3
_symmetry_space_group_name_H-M   'P 1'
_cell_length_a   4.10727795
_cell_length_b   12.07062739
_cell_length_c   19.08289668
_cell_angle_alpha   91.53347516
_cell_angle_beta   90.00000000
_cell_angle_gamma   90.00000000
_symmetry_Int_Tables_number   1
_chemical_formula_structural   KHgC3(SN)3
_chemical_formula_sum   'K4 Hg4 C12 S12 N12'
_cell_volume   945.74198737
_cell_formula_units_Z   4
loop_
 _symmetry_equiv_pos_site_id
 _symmetry_equiv_pos_as_xyz
  1  'x, y, z'
loop_
 _atom_site_type_symbol
 _atom_site_label
 _atom_site_symmetry_multiplicity
 _atom_site_fract_x
 _atom_site_fract_y
 _atom_site_fract_z
 _atom_site_occupancy
  K  K0  1  0.28914694  0.09541543  0.69017291  1
  K  K1  1  0.71085306  0.90458457  0.30982709  1
  K  K2  1  0.21085306  0.59541543  0.19017291  1
  K  K3  1  0.78914694  0.40458457  0.80982709  1
  Hg  Hg4  1  0.78948278  0.31543747  0.46027519  1
  Hg  Hg5  1  0.71051722  0.81543747  0.96027519  1
  Hg  Hg6  1  0.28948278  0.18456253  0.03972481  1
  Hg  Hg7  1  0.21051722  0.68456253  0.53972481  1
  C  C8  1  0.74646990  0.89912404  0.80191802  1
  C  C9  1  0.74405345  0.41471716  0.05589310  1
  C  C10  1  0.25353010  0.10087596  0.19808198  1
  C  C11  1  0.76787239  0.34298207  0.62690755  1
  C  C12  1  0.26787239  0.15701793  0.87309245  1
  C  C13  1  0.23212761  0.65701793  0.37309245  1
  C  C14  1  0.24646990  0.60087596  0.69808198  1
  C  C15  1  0.75594655  0.91471716  0.55589310  1
  C  C16  1  0.25594655  0.58528284  0.94410690  1
  C  C17  1  0.73212761  0.84298207  0.12690755  1
  C  C18  1  0.24405345  0.08528284  0.44410690  1
  C  C19  1  0.75353010  0.39912404  0.30191802  1
  S  S20  1  0.21755782  0.67820884  0.00908898  1
  S  S21  1  0.23443279  0.05884889  0.93189579  1
  S  S22  1  0.28244218  0.17820884  0.50908898  1
  S  S23  1  0.65820937  0.77497304  0.83209911  1
  S  S24  1  0.26556721  0.55884889  0.43189579  1
  S  S25  1  0.84179063  0.27497304  0.33209911  1
  S  S26  1  0.15820937  0.72502696  0.66790089  1
  S  S27  1  0.34179063  0.22502696  0.16790089  1
  S  S28  1  0.73443279  0.44115111  0.56810421  1
  S  S29  1  0.76556721  0.94115111  0.06810421  1
  S  S30  1  0.78244218  0.32179116  0.99091102  1
  S  S31  1  0.71755782  0.82179116  0.49091102  1
  N  N32  1  0.20844798  0.72603349  0.33065374  1
  N  N33  1  0.29155202  0.22603349  0.83065374  1
  N  N34  1  0.80390477  0.98498573  0.77641695  1
  N  N35  1  0.19609523  0.01501427  0.22358305  1
  N  N36  1  0.30390477  0.51501427  0.72358305  1
  N  N37  1  0.69609523  0.48498573  0.27641695  1
  N  N38  1  0.79155202  0.27396651  0.66934626  1
  N  N39  1  0.21334817  0.01906178  0.39827105  1
  N  N40  1  0.28665183  0.51906178  0.89827105  1
  N  N41  1  0.70844798  0.77396651  0.16934626  1
  N  N42  1  0.71334817  0.48093822  0.10172895  1
  N  N43  1  0.78665183  0.98093822  0.60172895  1
