# generated using pymatgen
data_ErF3
_symmetry_space_group_name_H-M   'P 1'
_cell_length_a   4.73956879
_cell_length_b   6.13361782
_cell_length_c   6.85195230
_cell_angle_alpha   90.00000000
_cell_angle_beta   90.00000000
_cell_angle_gamma   90.00000000
_symmetry_Int_Tables_number   1
_chemical_formula_structural   ErF3
_chemical_formula_sum   'Er4 F12'
_cell_volume   199.19107432
_cell_formula_units_Z   4
loop_
 _symmetry_equiv_pos_site_id
 _symmetry_equiv_pos_as_xyz
  1  'x, y, z'
loop_
 _atom_site_type_symbol
 _atom_site_label
 _atom_site_symmetry_multiplicity
 _atom_site_fract_x
 _atom_site_fract_y
 _atom_site_fract_z
 _atom_site_occupancy
  F  F0  1  0.34879498  0.16132515  0.43629773  1
  F  F1  1  0.84879498  0.33867485  0.56370227  1
  F  F2  1  0.15120502  0.66132515  0.06370227  1
  F  F3  1  0.65120502  0.83867485  0.93629773  1
  F  F4  1  0.63089280  0.53545587  0.25000000  1
  F  F5  1  0.13089280  0.96454413  0.75000000  1
  F  F6  1  0.86910720  0.03545587  0.25000000  1
  F  F7  1  0.36910720  0.46454413  0.75000000  1
  F  F8  1  0.34879498  0.16132515  0.06370227  1
  F  F9  1  0.84879498  0.33867485  0.93629773  1
  F  F10  1  0.15120502  0.66132515  0.43629773  1
  F  F11  1  0.65120502  0.83867485  0.56370227  1
  Er  Er12  1  0.96094651  0.63529593  0.75000000  1
  Er  Er13  1  0.46094651  0.86470407  0.25000000  1
  Er  Er14  1  0.53905349  0.13529593  0.75000000  1
  Er  Er15  1  0.03905349  0.36470407  0.25000000  1
