# generated using pymatgen
data_Ni2W4C
_symmetry_space_group_name_H-M   'P 1'
_cell_length_a   8.00495778
_cell_length_b   8.00495778
_cell_length_c   8.00495778
_cell_angle_alpha   60.00000000
_cell_angle_beta   60.00000000
_cell_angle_gamma   60.00000000
_symmetry_Int_Tables_number   1
_chemical_formula_structural   Ni2W4C
_chemical_formula_sum   'Ni8 W16 C4'
_cell_volume   362.71217984
_cell_formula_units_Z   4
loop_
 _symmetry_equiv_pos_site_id
 _symmetry_equiv_pos_as_xyz
  1  'x, y, z'
loop_
 _atom_site_type_symbol
 _atom_site_label
 _atom_site_symmetry_multiplicity
 _atom_site_fract_x
 _atom_site_fract_y
 _atom_site_fract_z
 _atom_site_occupancy
  Ni  Ni0  1  0.20846320  0.20846320  0.20846320  1
  Ni  Ni1  1  0.20846320  0.20846320  0.87461140  1
  Ni  Ni2  1  0.87461140  0.20846320  0.20846320  1
  Ni  Ni3  1  0.20846320  0.87461140  0.20846320  1
  Ni  Ni4  1  0.79153680  0.79153680  0.79153680  1
  Ni  Ni5  1  0.79153680  0.79153680  0.12539060  1
  Ni  Ni6  1  0.79153680  0.12539060  0.79153680  1
  Ni  Ni7  1  0.12539060  0.79153680  0.79153680  1
  W  W8  1  0.81608288  0.43391612  0.43391612  1
  W  W9  1  0.43391612  0.81608388  0.81608388  1
  W  W10  1  0.43391612  0.81608288  0.43391612  1
  W  W11  1  0.43391612  0.43391612  0.81608288  1
  W  W12  1  0.81608388  0.43391612  0.81608388  1
  W  W13  1  0.81608388  0.81608388  0.43391612  1
  W  W14  1  0.56608288  0.18391712  0.56608288  1
  W  W15  1  0.18391712  0.56608288  0.18391712  1
  W  W16  1  0.18391712  0.56608288  0.56608288  1
  W  W17  1  0.56608288  0.56608288  0.18391712  1
  W  W18  1  0.56608288  0.18391712  0.18391712  1
  W  W19  1  0.18391712  0.18391712  0.56608288  1
  W  W20  1  0.00000000  0.00000000  0.00000000  1
  W  W21  1  0.00000000  0.00000000  0.50000000  1
  W  W22  1  0.50000000  0.00000000  0.00000000  1
  W  W23  1  0.00000000  0.50000000  0.00000000  1
  C  C24  1  0.50000100  0.50000100  0.50000100  1
  C  C25  1  0.50000100  0.50000100  0.99999800  1
  C  C26  1  0.99999800  0.50000100  0.50000100  1
  C  C27  1  0.50000100  0.99999800  0.50000100  1
