# generated using pymatgen
data_HfTlCuS3
_symmetry_space_group_name_H-M   'P 1'
_cell_length_a   3.71095538
_cell_length_b   7.43886908
_cell_length_c   9.75999714
_cell_angle_alpha   90.00000000
_cell_angle_beta   90.00000000
_cell_angle_gamma   104.44378967
_symmetry_Int_Tables_number   1
_chemical_formula_structural   HfTlCuS3
_chemical_formula_sum   'Hf2 Tl2 Cu2 S6'
_cell_volume   260.91190463
_cell_formula_units_Z   2
loop_
 _symmetry_equiv_pos_site_id
 _symmetry_equiv_pos_as_xyz
  1  'x, y, z'
loop_
 _atom_site_type_symbol
 _atom_site_label
 _atom_site_symmetry_multiplicity
 _atom_site_fract_x
 _atom_site_fract_y
 _atom_site_fract_z
 _atom_site_occupancy
  S  S0  1  0.38031992  0.76063985  0.54836744  1
  S  S1  1  0.61968008  0.23936015  0.45163256  1
  S  S2  1  0.61968008  0.23936015  0.04836744  1
  S  S3  1  0.06057876  0.12115753  0.75000000  1
  S  S4  1  0.93942124  0.87884247  0.25000000  1
  S  S5  1  0.38031992  0.76063985  0.95163256  1
  Cu  Cu6  1  0.46186471  0.92372942  0.75000000  1
  Cu  Cu7  1  0.53813529  0.07627058  0.25000000  1
  Hf  Hf8  1  0.00000000  0.00000000  0.50000000  1
  Hf  Hf9  1  0.00000000  0.00000000  0.00000000  1
  Tl  Tl10  1  0.25565312  0.51130624  0.25000000  1
  Tl  Tl11  1  0.74434688  0.48869376  0.75000000  1
