# generated using pymatgen
data_Na3AlSe3
_symmetry_space_group_name_H-M   'P 1'
_cell_length_a   7.29839074
_cell_length_b   7.56685862
_cell_length_c   13.28702093
_cell_angle_alpha   90.15986538
_cell_angle_beta   90.00000000
_cell_angle_gamma   90.00000000
_symmetry_Int_Tables_number   1
_chemical_formula_structural   Na3AlSe3
_chemical_formula_sum   'Na12 Al4 Se12'
_cell_volume   733.78471187
_cell_formula_units_Z   4
loop_
 _symmetry_equiv_pos_site_id
 _symmetry_equiv_pos_as_xyz
  1  'x, y, z'
loop_
 _atom_site_type_symbol
 _atom_site_label
 _atom_site_symmetry_multiplicity
 _atom_site_fract_x
 _atom_site_fract_y
 _atom_site_fract_z
 _atom_site_occupancy
  Na  Na0  1  0.47326593  0.72510121  0.78642435  1
  Na  Na1  1  0.97326593  0.77489879  0.71357565  1
  Na  Na2  1  0.52673407  0.27489879  0.21357565  1
  Na  Na3  1  0.02673407  0.22510121  0.28642435  1
  Na  Na4  1  0.50302534  0.33955928  0.61006969  1
  Na  Na5  1  0.00302534  0.16044072  0.88993031  1
  Na  Na6  1  0.49697466  0.66044072  0.38993031  1
  Na  Na7  1  0.99697466  0.83955928  0.11006969  1
  Na  Na8  1  0.50330117  0.20640709  0.89795533  1
  Na  Na9  1  0.00330117  0.29359291  0.60204467  1
  Na  Na10  1  0.49669883  0.79359291  0.10204467  1
  Na  Na11  1  0.99669883  0.70640709  0.39795533  1
  Al  Al12  1  0.85988163  0.58162461  0.91989892  1
  Al  Al13  1  0.35988163  0.91837539  0.58010108  1
  Al  Al14  1  0.14011837  0.41837539  0.08010108  1
  Al  Al15  1  0.64011837  0.08162461  0.41989892  1
  Se  Se16  1  0.69647095  0.91902211  0.57317448  1
  Se  Se17  1  0.19647095  0.58097789  0.92682552  1
  Se  Se18  1  0.30352905  0.08097789  0.42682552  1
  Se  Se19  1  0.80352905  0.41902211  0.07317448  1
  Se  Se20  1  0.25911109  0.07211249  0.72600803  1
  Se  Se21  1  0.75911109  0.42788751  0.77399197  1
  Se  Se22  1  0.74088891  0.92788751  0.27399197  1
  Se  Se23  1  0.24088891  0.57211249  0.22600803  1
  Se  Se24  1  0.74462227  0.87453800  0.92744213  1
  Se  Se25  1  0.24462227  0.62546200  0.57255787  1
  Se  Se26  1  0.25537773  0.12546200  0.07255787  1
  Se  Se27  1  0.75537773  0.37453800  0.42744213  1
