# generated using pymatgen
data_BaCu(SeO3)2
_symmetry_space_group_name_H-M   'P 1'
_cell_length_a   4.94140963
_cell_length_b   4.94140962
_cell_length_c   16.01537095
_cell_angle_alpha   91.08171476
_cell_angle_beta   91.08171476
_cell_angle_gamma   64.24918509
_symmetry_Int_Tables_number   1
_chemical_formula_structural   BaCu(SeO3)2
_chemical_formula_sum   'Ba2 Cu2 Se4 O12'
_cell_volume   352.13332054
_cell_formula_units_Z   2
loop_
 _symmetry_equiv_pos_site_id
 _symmetry_equiv_pos_as_xyz
  1  'x, y, z'
loop_
 _atom_site_type_symbol
 _atom_site_label
 _atom_site_symmetry_multiplicity
 _atom_site_fract_x
 _atom_site_fract_y
 _atom_site_fract_z
 _atom_site_occupancy
  O  O0  1  0.75511733  0.17474125  0.40166911  1
  O  O1  1  0.82525875  0.24488267  0.09833089  1
  O  O2  1  0.24488267  0.82525875  0.59833089  1
  O  O3  1  0.17474125  0.75511733  0.90166911  1
  O  O4  1  0.31387917  0.73836342  0.42162316  1
  O  O5  1  0.26163658  0.68612083  0.07837684  1
  O  O6  1  0.68612083  0.26163658  0.57837684  1
  O  O7  1  0.73836342  0.31387917  0.92162316  1
  O  O8  1  0.36153767  0.27268763  0.80604667  1
  O  O9  1  0.72731237  0.63846233  0.69395333  1
  O  O10  1  0.63846233  0.72731237  0.19395333  1
  O  O11  1  0.27268763  0.36153767  0.30604667  1
  Cu  Cu12  1  0.00000000  0.00000000  0.50000000  1
  Cu  Cu13  1  0.00000000  0.00000000  0.00000000  1
  Se  Se14  1  0.36348297  0.36527531  0.40908017  1
  Se  Se15  1  0.36527531  0.36348297  0.90908017  1
  Se  Se16  1  0.63472469  0.63651703  0.09091983  1
  Se  Se17  1  0.63651703  0.63472469  0.59091983  1
  Ba  Ba18  1  0.03589907  0.96410093  0.25000000  1
  Ba  Ba19  1  0.96410093  0.03589907  0.75000000  1
