# generated using pymatgen
data_Na2LiAlP2
_symmetry_space_group_name_H-M   'P 1'
_cell_length_a   5.80139211
_cell_length_b   8.95947350
_cell_length_c   8.95947350
_cell_angle_alpha   99.28255967
_cell_angle_beta   90.00000000
_cell_angle_gamma   90.00000000
_symmetry_Int_Tables_number   1
_chemical_formula_structural   Na2LiAlP2
_chemical_formula_sum   'Na8 Li4 Al4 P8'
_cell_volume   459.59202795
_cell_formula_units_Z   4
loop_
 _symmetry_equiv_pos_site_id
 _symmetry_equiv_pos_as_xyz
  1  'x, y, z'
loop_
 _atom_site_type_symbol
 _atom_site_label
 _atom_site_symmetry_multiplicity
 _atom_site_fract_x
 _atom_site_fract_y
 _atom_site_fract_z
 _atom_site_occupancy
  Li  Li0  1  0.50000000  0.88131050  0.88131050  1
  Li  Li1  1  0.50000000  0.11868950  0.11868950  1
  Li  Li2  1  0.00000000  0.61868950  0.61868950  1
  Li  Li3  1  0.00000000  0.38131050  0.38131050  1
  Na  Na4  1  0.75000000  0.93151100  0.56848900  1
  Na  Na5  1  0.78600415  0.32176976  0.67823024  1
  Na  Na6  1  0.21399585  0.67823024  0.32176976  1
  Na  Na7  1  0.75000000  0.43151100  0.06848900  1
  Na  Na8  1  0.25000000  0.56848900  0.93151100  1
  Na  Na9  1  0.25000000  0.06848900  0.43151100  1
  Na  Na10  1  0.28600415  0.17823024  0.82176976  1
  Na  Na11  1  0.71399585  0.82176976  0.17823024  1
  Al  Al12  1  0.00000000  0.87033471  0.87033471  1
  Al  Al13  1  0.00000000  0.12966529  0.12966529  1
  Al  Al14  1  0.50000000  0.37033471  0.37033471  1
  Al  Al15  1  0.50000000  0.62966529  0.62966529  1
  P  P16  1  0.21363400  0.89582148  0.10417852  1
  P  P17  1  0.28636600  0.39582148  0.60417852  1
  P  P18  1  0.78636600  0.10417852  0.89582148  1
  P  P19  1  0.71363400  0.60417852  0.39582148  1
  P  P20  1  0.75000000  0.14861527  0.35138473  1
  P  P21  1  0.25000000  0.35138473  0.14861527  1
  P  P22  1  0.25000000  0.85138473  0.64861527  1
  P  P23  1  0.75000000  0.64861527  0.85138473  1
