# generated using pymatgen
data_K2GeSe3
_symmetry_space_group_name_H-M   'P 1'
_cell_length_a   6.94493273
_cell_length_b   7.60226291
_cell_length_c   8.81444420
_cell_angle_alpha   75.91869698
_cell_angle_beta   73.20327608
_cell_angle_gamma   66.75587083
_symmetry_Int_Tables_number   1
_chemical_formula_structural   K2GeSe3
_chemical_formula_sum   'K4 Ge2 Se6'
_cell_volume   404.91725468
_cell_formula_units_Z   2
loop_
 _symmetry_equiv_pos_site_id
 _symmetry_equiv_pos_as_xyz
  1  'x, y, z'
loop_
 _atom_site_type_symbol
 _atom_site_label
 _atom_site_symmetry_multiplicity
 _atom_site_fract_x
 _atom_site_fract_y
 _atom_site_fract_z
 _atom_site_occupancy
  K  K0  1  0.38721856  0.79940142  0.89324960  1
  K  K1  1  0.61278144  0.20059858  0.10675040  1
  K  K2  1  0.15433046  0.46471209  0.67799943  1
  K  K3  1  0.84566954  0.53528791  0.32200057  1
  Ge  Ge4  1  0.86117850  0.05825373  0.68194700  1
  Ge  Ge5  1  0.13882150  0.94174627  0.31805300  1
  Se  Se6  1  0.66585612  0.38119150  0.71660124  1
  Se  Se7  1  0.33414388  0.61880850  0.28339876  1
  Se  Se8  1  0.86690411  0.81885881  0.90591864  1
  Se  Se9  1  0.13309589  0.18114119  0.09408136  1
  Se  Se10  1  0.22561619  0.03497679  0.53484691  1
  Se  Se11  1  0.77438381  0.96502321  0.46515309  1
