# generated using pymatgen
data_Th(CuP)2
_symmetry_space_group_name_H-M   'P 1'
_cell_length_a   4.01772813
_cell_length_b   4.01772812
_cell_length_c   6.48605223
_cell_angle_alpha   90.00000000
_cell_angle_beta   90.00000000
_cell_angle_gamma   119.99999998
_symmetry_Int_Tables_number   1
_chemical_formula_structural   Th(CuP)2
_chemical_formula_sum   'Th1 Cu2 P2'
_cell_volume   90.67178469
_cell_formula_units_Z   1
loop_
 _symmetry_equiv_pos_site_id
 _symmetry_equiv_pos_as_xyz
  1  'x, y, z'
loop_
 _atom_site_type_symbol
 _atom_site_label
 _atom_site_symmetry_multiplicity
 _atom_site_fract_x
 _atom_site_fract_y
 _atom_site_fract_z
 _atom_site_occupancy
  P  P0  1  0.66666667  0.33333333  0.73246086  1
  P  P1  1  0.33333333  0.66666667  0.26753914  1
  Cu  Cu2  1  0.66666667  0.33333333  0.36230021  1
  Cu  Cu3  1  0.33333333  0.66666667  0.63769979  1
  Th  Th4  1  0.00000000  0.00000000  0.00000000  1
