# generated using pymatgen
data_Ba4Na(BN2)3
_symmetry_space_group_name_H-M   'P 1'
_cell_length_a   6.92069388
_cell_length_b   6.92069388
_cell_length_c   6.92069387
_cell_angle_alpha   109.47122064
_cell_angle_beta   109.47122065
_cell_angle_gamma   109.47122062
_symmetry_Int_Tables_number   1
_chemical_formula_structural   Ba4Na(BN2)3
_chemical_formula_sum   'Ba4 Na1 B3 N6'
_cell_volume   255.16848048
_cell_formula_units_Z   1
loop_
 _symmetry_equiv_pos_site_id
 _symmetry_equiv_pos_as_xyz
  1  'x, y, z'
loop_
 _atom_site_type_symbol
 _atom_site_label
 _atom_site_symmetry_multiplicity
 _atom_site_fract_x
 _atom_site_fract_y
 _atom_site_fract_z
 _atom_site_occupancy
  B  B0  1  0.50000000  0.50000000  0.00000000  1
  B  B1  1  0.50000000  0.00000000  0.50000000  1
  B  B2  1  0.00000000  0.50000000  0.50000000  1
  N  N3  1  0.00000000  0.66971269  0.66971269  1
  N  N4  1  0.33028731  0.33028731  0.00000000  1
  N  N5  1  0.00000000  0.33028731  0.33028731  1
  N  N6  1  0.33028731  0.00000000  0.33028731  1
  N  N7  1  0.66971269  0.00000000  0.66971269  1
  N  N8  1  0.66971269  0.66971269  0.00000000  1
  Na  Na9  1  0.00000000  0.00000000  0.00000000  1
  Ba  Ba10  1  0.00000000  0.50000000  0.00000000  1
  Ba  Ba11  1  0.50000000  0.00000000  0.00000000  1
  Ba  Ba12  1  0.50000000  0.50000000  0.50000000  1
  Ba  Ba13  1  0.00000000  0.00000000  0.50000000  1
