# generated using pymatgen
data_Sr4Al6TeO12
_symmetry_space_group_name_H-M   'P 1'
_cell_length_a   8.20096442
_cell_length_b   8.20096442
_cell_length_c   8.20096442
_cell_angle_alpha   109.47122066
_cell_angle_beta   109.47122067
_cell_angle_gamma   109.47122059
_symmetry_Int_Tables_number   1
_chemical_formula_structural   Sr4Al6TeO12
_chemical_formula_sum   'Sr4 Al6 Te1 O12'
_cell_volume   424.59306081
_cell_formula_units_Z   1
loop_
 _symmetry_equiv_pos_site_id
 _symmetry_equiv_pos_as_xyz
  1  'x, y, z'
loop_
 _atom_site_type_symbol
 _atom_site_label
 _atom_site_symmetry_multiplicity
 _atom_site_fract_x
 _atom_site_fract_y
 _atom_site_fract_z
 _atom_site_occupancy
  O  O0  1  0.30551512  0.68931503  0.30551512  1
  O  O1  1  0.30551512  0.30551512  0.68931503  1
  O  O2  1  0.61620010  0.31068497  0.61620010  1
  O  O3  1  0.31068497  0.61620010  0.61620010  1
  O  O4  1  0.00000000  0.38379990  0.69448488  1
  O  O5  1  0.38379990  0.00000000  0.69448488  1
  O  O6  1  0.61620010  0.61620010  0.31068497  1
  O  O7  1  0.38379990  0.69448488  0.00000000  1
  O  O8  1  0.69448488  0.38379990  0.00000000  1
  O  O9  1  0.00000000  0.69448488  0.38379990  1
  O  O10  1  0.68931503  0.30551512  0.30551512  1
  O  O11  1  0.69448488  0.00000000  0.38379990  1
  Al  Al12  1  0.50000000  0.25000000  0.75000000  1
  Al  Al13  1  0.50000000  0.75000000  0.25000000  1
  Al  Al14  1  0.25000000  0.75000000  0.50000000  1
  Al  Al15  1  0.75000000  0.25000000  0.50000000  1
  Al  Al16  1  0.25000000  0.50000000  0.75000000  1
  Al  Al17  1  0.75000000  0.50000000  0.25000000  1
  Sr  Sr18  1  0.00000000  0.00000000  0.59201826  1
  Sr  Sr19  1  0.59201826  0.00000000  0.00000000  1
  Sr  Sr20  1  0.40798174  0.40798174  0.40798174  1
  Sr  Sr21  1  0.00000000  0.59201826  0.00000000  1
  Te  Te22  1  0.00000000  0.00000000  0.00000000  1
