# generated using pymatgen
data_Co3S4
_symmetry_space_group_name_H-M   'P 1'
_cell_length_a   6.57259686
_cell_length_b   6.57259686
_cell_length_c   6.57259686
_cell_angle_alpha   60.00000002
_cell_angle_beta   60.00000000
_cell_angle_gamma   60.00000005
_symmetry_Int_Tables_number   1
_chemical_formula_structural   Co3S4
_chemical_formula_sum   'Co6 S8'
_cell_volume   200.76869112
_cell_formula_units_Z   2
loop_
 _symmetry_equiv_pos_site_id
 _symmetry_equiv_pos_as_xyz
  1  'x, y, z'
loop_
 _atom_site_type_symbol
 _atom_site_label
 _atom_site_symmetry_multiplicity
 _atom_site_fract_x
 _atom_site_fract_y
 _atom_site_fract_z
 _atom_site_occupancy
  S  S0  1  0.74285068  0.74285068  0.74285068  1
  S  S1  1  0.25714932  0.25714932  0.72855203  1
  S  S2  1  0.25714932  0.72855203  0.25714932  1
  S  S3  1  0.72855203  0.25714932  0.25714932  1
  S  S4  1  0.74285068  0.27144797  0.74285068  1
  S  S5  1  0.27144797  0.74285068  0.74285068  1
  S  S6  1  0.25714932  0.25714932  0.25714932  1
  S  S7  1  0.74285068  0.74285068  0.27144797  1
  Co  Co8  1  0.50000000  0.00000000  0.50000000  1
  Co  Co9  1  0.00000000  0.50000000  0.50000000  1
  Co  Co10  1  0.50000000  0.50000000  0.00000000  1
  Co  Co11  1  0.50000000  0.50000000  0.50000000  1
  Co  Co12  1  0.12500000  0.12500000  0.12500000  1
  Co  Co13  1  0.87500000  0.87500000  0.87500000  1
