# generated using pymatgen
data_Th7Te12
_symmetry_space_group_name_H-M   'P 1'
_cell_length_a   12.58297970
_cell_length_b   12.58297970
_cell_length_c   4.35503106
_cell_angle_alpha   90.00000000
_cell_angle_beta   90.00000000
_cell_angle_gamma   120.00000004
_symmetry_Int_Tables_number   1
_chemical_formula_structural   Th7Te12
_chemical_formula_sum   'Th7 Te12'
_cell_volume   597.15748479
_cell_formula_units_Z   1
loop_
 _symmetry_equiv_pos_site_id
 _symmetry_equiv_pos_as_xyz
  1  'x, y, z'
loop_
 _atom_site_type_symbol
 _atom_site_label
 _atom_site_symmetry_multiplicity
 _atom_site_fract_x
 _atom_site_fract_y
 _atom_site_fract_z
 _atom_site_occupancy
  Te  Te0  1  0.74512761  0.75278328  0.00000000  1
  Te  Te1  1  0.24721672  0.99234433  0.00000000  1
  Te  Te2  1  0.00765567  0.25487239  0.00000000  1
  Te  Te3  1  0.49167407  0.86657561  0.00000000  1
  Te  Te4  1  0.13342439  0.62509846  0.00000000  1
  Te  Te5  1  0.37490154  0.50832593  0.00000000  1
  Te  Te6  1  0.86353669  0.38544036  0.50000000  1
  Te  Te7  1  0.21694669  0.21354247  0.50000000  1
  Te  Te8  1  0.99659579  0.78305331  0.50000000  1
  Te  Te9  1  0.78645753  0.00340421  0.50000000  1
  Te  Te10  1  0.52190366  0.13646331  0.50000000  1
  Te  Te11  1  0.61455964  0.47809634  0.50000000  1
  Th  Th12  1  0.72232610  0.16048617  0.00000000  1
  Th  Th13  1  0.83951383  0.56183993  0.00000000  1
  Th  Th14  1  0.43816007  0.27767390  0.00000000  1
  Th  Th15  1  0.54846325  0.71151863  0.50000000  1
  Th  Th16  1  0.28848137  0.83694462  0.50000000  1
  Th  Th17  1  0.16305538  0.45153675  0.50000000  1
  Th  Th18  1  0.00000000  0.00000000  0.00000000  1
