# generated using pymatgen
data_Eu(CuO2)2
_symmetry_space_group_name_H-M   'P 1'
_cell_length_a   5.84701736
_cell_length_b   5.84354179
_cell_length_c   6.36318086
_cell_angle_alpha   117.30485920
_cell_angle_beta   117.32248717
_cell_angle_gamma   90.05529250
_symmetry_Int_Tables_number   1
_chemical_formula_structural   Eu(CuO2)2
_chemical_formula_sum   'Eu2 Cu4 O8'
_cell_volume   165.36010883
_cell_formula_units_Z   2
loop_
 _symmetry_equiv_pos_site_id
 _symmetry_equiv_pos_as_xyz
  1  'x, y, z'
loop_
 _atom_site_type_symbol
 _atom_site_label
 _atom_site_symmetry_multiplicity
 _atom_site_fract_x
 _atom_site_fract_y
 _atom_site_fract_z
 _atom_site_occupancy
  O  O0  1  0.70148782  0.52811935  0.84830512  1
  O  O1  1  0.14681731  0.82018577  0.84830512  1
  O  O2  1  0.29851218  0.47188065  0.15169488  1
  O  O3  1  0.85318269  0.17981423  0.15169488  1
  O  O4  1  0.52832998  0.14696834  0.34836147  1
  O  O5  1  0.82003149  0.70139313  0.34836147  1
  O  O6  1  0.17996851  0.29860687  0.65163853  1
  O  O7  1  0.47167002  0.85303166  0.65163853  1
  Cu  Cu8  1  0.50000000  0.00000000  0.00000000  1
  Cu  Cu9  1  0.50000000  0.50000000  0.00000000  1
  Cu  Cu10  1  0.00000000  0.50000000  0.50000000  1
  Cu  Cu11  1  0.50000000  0.50000000  0.50000000  1
  Eu  Eu12  1  0.87497479  0.12497479  0.74994957  1
  Eu  Eu13  1  0.12502521  0.87502521  0.25005043  1
