# generated using pymatgen
data_HoVB4
_symmetry_space_group_name_H-M   'P 1'
_cell_length_a   5.98960084
_cell_length_b   11.59536903
_cell_length_c   3.43638059
_cell_angle_alpha   90.00015901
_cell_angle_beta   90.00014468
_cell_angle_gamma   90.00001234
_symmetry_Int_Tables_number   1
_chemical_formula_structural   HoVB4
_chemical_formula_sum   'Ho4 V4 B16'
_cell_volume   238.66224043
_cell_formula_units_Z   4
loop_
 _symmetry_equiv_pos_site_id
 _symmetry_equiv_pos_as_xyz
  1  'x, y, z'
loop_
 _atom_site_type_symbol
 _atom_site_label
 _atom_site_symmetry_multiplicity
 _atom_site_fract_x
 _atom_site_fract_y
 _atom_site_fract_z
 _atom_site_occupancy
  Ho  Ho0  1  0.12412158  0.15148614  0.99999938  1
  Ho  Ho1  1  0.87587879  0.84850086  -0.00000125  1
  Ho  Ho2  1  0.62412670  0.34852910  0.00000002  1
  Ho  Ho3  1  0.37587958  0.65147962  -0.00000093  1
  V  V4  1  0.12729565  0.41711001  0.00000079  1
  V  V5  1  0.87270759  0.58289407  -0.00000193  1
  V  V6  1  0.62728787  0.08288951  0.00000392  1
  V  V7  1  0.37271110  0.91710746  0.00000079  1
  B  B8  1  0.47720778  0.19248177  0.49999835  1
  B  B9  1  0.52279397  0.80751975  0.50000116  1
  B  B10  1  0.97720149  0.30751951  0.50000070  1
  B  B11  1  0.02279366  0.69247933  0.49999986  1
  B  B12  1  0.28653268  0.31421745  0.50000130  1
  B  B13  1  0.71347165  0.68577939  0.49999942  1
  B  B14  1  0.78652625  0.18578038  0.49999902  1
  B  B15  1  0.21347378  0.81421908  0.50000272  1
  B  B16  1  0.36476416  0.46744555  0.50000021  1
  B  B17  1  0.63523821  0.53256219  0.50000252  1
  B  B18  1  0.86475964  0.03255856  0.50000148  1
  B  B19  1  0.13523613  0.96744093  0.50000196  1
  B  B20  1  0.38523304  0.04751711  0.50000282  1
  B  B21  1  0.61476460  0.95247834  0.50000149  1
  B  B22  1  0.88523257  0.45248370  0.50000194  1
  B  B23  1  0.11476454  0.54752119  0.50000027  1
