# generated using pymatgen
data_CsReF6
_symmetry_space_group_name_H-M   'P 1'
_cell_length_a   5.41290777
_cell_length_b   5.41290777
_cell_length_c   5.41290777
_cell_angle_alpha   96.21161224
_cell_angle_beta   96.21161233
_cell_angle_gamma   96.21161227
_symmetry_Int_Tables_number   1
_chemical_formula_structural   CsReF6
_chemical_formula_sum   'Cs1 Re1 F6'
_cell_volume   155.58119588
_cell_formula_units_Z   1
loop_
 _symmetry_equiv_pos_site_id
 _symmetry_equiv_pos_as_xyz
  1  'x, y, z'
loop_
 _atom_site_type_symbol
 _atom_site_label
 _atom_site_symmetry_multiplicity
 _atom_site_fract_x
 _atom_site_fract_y
 _atom_site_fract_z
 _atom_site_occupancy
  F  F0  1  0.08109841  0.70793893  0.80543869  1
  F  F1  1  0.70793893  0.80543869  0.08109841  1
  F  F2  1  0.19456131  0.91890159  0.29206107  1
  F  F3  1  0.29206107  0.19456131  0.91890159  1
  F  F4  1  0.91890159  0.29206107  0.19456131  1
  F  F5  1  0.80543869  0.08109841  0.70793893  1
  Cs  Cs6  1  0.50000000  0.50000000  0.50000000  1
  Re  Re7  1  0.00000000  0.00000000  0.00000000  1
