# generated using pymatgen
data_Ca3ReO6
_symmetry_space_group_name_H-M   'P 1'
_cell_length_a   5.57459140
_cell_length_b   5.85850317
_cell_length_c   8.07261064
_cell_angle_alpha   90.00000000
_cell_angle_beta   90.06988216
_cell_angle_gamma   90.00000000
_symmetry_Int_Tables_number   1
_chemical_formula_structural   Ca3ReO6
_chemical_formula_sum   'Ca6 Re2 O12'
_cell_volume   263.64126848
_cell_formula_units_Z   2
loop_
 _symmetry_equiv_pos_site_id
 _symmetry_equiv_pos_as_xyz
  1  'x, y, z'
loop_
 _atom_site_type_symbol
 _atom_site_label
 _atom_site_symmetry_multiplicity
 _atom_site_fract_x
 _atom_site_fract_y
 _atom_site_fract_z
 _atom_site_occupancy
  O  O0  1  0.88580751  0.55261803  0.27428379  1
  O  O1  1  0.61419249  0.05261803  0.22571621  1
  O  O2  1  0.11419249  0.44738197  0.72571621  1
  O  O3  1  0.38580751  0.94738197  0.77428379  1
  O  O4  1  0.83277652  0.77560945  0.57054060  1
  O  O5  1  0.66722348  0.27560945  0.92945940  1
  O  O6  1  0.16722348  0.22439055  0.42945940  1
  O  O7  1  0.33277652  0.72439055  0.07054060  1
  O  O8  1  0.21518500  0.17615771  0.05033395  1
  O  O9  1  0.28481500  0.67615771  0.44966605  1
  O  O10  1  0.78481500  0.82384229  0.94966605  1
  O  O11  1  0.71518500  0.32384229  0.55033395  1
  Ca  Ca12  1  0.51599938  0.55861308  0.74343658  1
  Ca  Ca13  1  0.98400062  0.05861308  0.75656342  1
  Ca  Ca14  1  0.00000000  0.50000000  0.00000000  1
  Ca  Ca15  1  0.50000000  0.00000000  0.50000000  1
  Ca  Ca16  1  0.01599938  0.94138692  0.24343658  1
  Ca  Ca17  1  0.48400062  0.44138692  0.25656342  1
  Re  Re18  1  0.50000000  0.00000000  0.00000000  1
  Re  Re19  1  0.00000000  0.50000000  0.50000000  1
