# generated using pymatgen
data_Yb2C3
_symmetry_space_group_name_H-M   'P 1'
_cell_length_a   7.22919783
_cell_length_b   7.22919784
_cell_length_c   7.22919784
_cell_angle_alpha   109.47122061
_cell_angle_beta   109.47122063
_cell_angle_gamma   109.47122063
_symmetry_Int_Tables_number   1
_chemical_formula_structural   Yb2C3
_chemical_formula_sum   'Yb8 C12'
_cell_volume   290.83618508
_cell_formula_units_Z   4
loop_
 _symmetry_equiv_pos_site_id
 _symmetry_equiv_pos_as_xyz
  1  'x, y, z'
loop_
 _atom_site_type_symbol
 _atom_site_label
 _atom_site_symmetry_multiplicity
 _atom_site_fract_x
 _atom_site_fract_y
 _atom_site_fract_z
 _atom_site_occupancy
  C  C0  1  0.75000000  0.79757041  0.04757041  1
  C  C1  1  0.75000000  0.95242959  0.20242959  1
  C  C2  1  0.29757041  0.25000000  0.54757041  1
  C  C3  1  0.54757041  0.29757041  0.25000000  1
  C  C4  1  0.20242959  0.75000000  0.95242959  1
  C  C5  1  0.95242959  0.20242959  0.75000000  1
  C  C6  1  0.25000000  0.70242959  0.45242959  1
  C  C7  1  0.70242959  0.45242959  0.25000000  1
  C  C8  1  0.25000000  0.54757041  0.29757041  1
  C  C9  1  0.45242959  0.25000000  0.70242959  1
  C  C10  1  0.04757041  0.75000000  0.79757041  1
  C  C11  1  0.79757041  0.04757041  0.75000000  1
  Yb  Yb12  1  0.61310501  0.61310501  0.61310501  1
  Yb  Yb13  1  0.38689499  0.50000000  0.00000000  1
  Yb  Yb14  1  0.50000000  0.00000000  0.38689499  1
  Yb  Yb15  1  0.00000000  0.38689499  0.50000000  1
  Yb  Yb16  1  0.50000000  0.00000000  0.88689499  1
  Yb  Yb17  1  0.00000000  0.88689499  0.50000000  1
  Yb  Yb18  1  0.88689499  0.50000000  0.00000000  1
  Yb  Yb19  1  0.11310501  0.11310501  0.11310501  1
