# generated using pymatgen
data_Rb3BAs2
_symmetry_space_group_name_H-M   'P 1'
_cell_length_a   6.91470439
_cell_length_b   6.91470439
_cell_length_c   9.65514162
_cell_angle_alpha   75.34576509
_cell_angle_beta   75.34576512
_cell_angle_gamma   87.66756172
_symmetry_Int_Tables_number   1
_chemical_formula_structural   Rb3BAs2
_chemical_formula_sum   'Rb6 B2 As4'
_cell_volume   431.96282318
_cell_formula_units_Z   2
loop_
 _symmetry_equiv_pos_site_id
 _symmetry_equiv_pos_as_xyz
  1  'x, y, z'
loop_
 _atom_site_type_symbol
 _atom_site_label
 _atom_site_symmetry_multiplicity
 _atom_site_fract_x
 _atom_site_fract_y
 _atom_site_fract_z
 _atom_site_occupancy
  B  B0  1  0.78313896  0.21686104  0.25000000  1
  B  B1  1  0.21686104  0.78313896  0.75000000  1
  As  As2  1  0.90636674  0.34876964  0.35593616  1
  As  As3  1  0.65123036  0.09363326  0.14406384  1
  As  As4  1  0.34876964  0.90636674  0.85593616  1
  As  As5  1  0.09363326  0.65123036  0.64406384  1
  Rb  Rb6  1  0.85129539  0.14870461  0.75000000  1
  Rb  Rb7  1  0.14870461  0.85129539  0.25000000  1
  Rb  Rb8  1  0.24355711  0.35035287  0.98092694  1
  Rb  Rb9  1  0.64964713  0.75644289  0.51907306  1
  Rb  Rb10  1  0.75644289  0.64964713  0.01907306  1
  Rb  Rb11  1  0.35035287  0.24355711  0.48092694  1
