# generated using pymatgen
data_La(PO3)3
_symmetry_space_group_name_H-M   'P 1'
_cell_length_a   7.18969727
_cell_length_b   7.18969728
_cell_length_c   7.49946167
_cell_angle_alpha   90.00000000
_cell_angle_beta   90.00000000
_cell_angle_gamma   105.09570914
_symmetry_Int_Tables_number   1
_chemical_formula_structural   La(PO3)3
_chemical_formula_sum   'La2 P6 O18'
_cell_volume   374.28294708
_cell_formula_units_Z   2
loop_
 _symmetry_equiv_pos_site_id
 _symmetry_equiv_pos_as_xyz
  1  'x, y, z'
loop_
 _atom_site_type_symbol
 _atom_site_label
 _atom_site_symmetry_multiplicity
 _atom_site_fract_x
 _atom_site_fract_y
 _atom_site_fract_z
 _atom_site_occupancy
  O  O0  1  0.25182329  0.46925358  0.71164320  1
  O  O1  1  0.74817671  0.53074642  0.21164320  1
  O  O2  1  0.46925358  0.25182329  0.78835680  1
  O  O3  1  0.53074642  0.74817671  0.28835680  1
  O  O4  1  0.77713545  0.52171580  0.78416211  1
  O  O5  1  0.22286455  0.47828420  0.28416211  1
  O  O6  1  0.52171580  0.77713545  0.71583789  1
  O  O7  1  0.47828420  0.22286455  0.21583789  1
  O  O8  1  0.37294563  0.62705437  0.00000000  1
  O  O9  1  0.62705437  0.37294563  0.50000000  1
  O  O10  1  0.82681626  0.86190100  0.08375158  1
  O  O11  1  0.17318374  0.13809900  0.58375158  1
  O  O12  1  0.86190100  0.82681626  0.41624842  1
  O  O13  1  0.13809900  0.17318374  0.91624842  1
  O  O14  1  0.22150059  0.82847789  0.21136915  1
  O  O15  1  0.77849941  0.17152211  0.71136915  1
  O  O16  1  0.82847789  0.22150059  0.28863085  1
  O  O17  1  0.17152211  0.77849941  0.78863085  1
  P  P18  1  0.33140004  0.68187850  0.79839720  1
  P  P19  1  0.66859996  0.31812150  0.29839720  1
  P  P20  1  0.68187850  0.33140004  0.70160280  1
  P  P21  1  0.31812150  0.66859996  0.20160280  1
  P  P22  1  0.25151500  0.25151500  0.75000000  1
  P  P23  1  0.74848500  0.74848500  0.25000000  1
  La  La24  1  0.87051872  0.87051872  0.75000000  1
  La  La25  1  0.12948128  0.12948128  0.25000000  1
