# generated using pymatgen
data_BaPr2PdO5
_symmetry_space_group_name_H-M   'P 1'
_cell_length_a   5.99689468
_cell_length_b   6.86452191
_cell_length_c   6.86452191
_cell_angle_alpha   90.00000000
_cell_angle_beta   90.00000000
_cell_angle_gamma   90.00000000
_symmetry_Int_Tables_number   1
_chemical_formula_structural   BaPr2PdO5
_chemical_formula_sum   'Ba2 Pr4 Pd2 O10'
_cell_volume   282.58363848
_cell_formula_units_Z   2
loop_
 _symmetry_equiv_pos_site_id
 _symmetry_equiv_pos_as_xyz
  1  'x, y, z'
loop_
 _atom_site_type_symbol
 _atom_site_label
 _atom_site_symmetry_multiplicity
 _atom_site_fract_x
 _atom_site_fract_y
 _atom_site_fract_z
 _atom_site_occupancy
  O  O0  1  0.50000000  0.50000000  0.50000000  1
  O  O1  1  0.50000000  0.00000000  0.00000000  1
  O  O2  1  0.25015318  0.64038407  0.14038407  1
  O  O3  1  0.25015318  0.35961593  0.85961593  1
  O  O4  1  0.25015318  0.14038407  0.35961593  1
  O  O5  1  0.25015318  0.85961593  0.64038407  1
  O  O6  1  0.74984682  0.64038407  0.14038407  1
  O  O7  1  0.74984682  0.85961593  0.64038407  1
  O  O8  1  0.74984682  0.35961593  0.85961593  1
  O  O9  1  0.74984682  0.14038407  0.35961593  1
  Pd  Pd10  1  0.00000000  0.50000000  0.00000000  1
  Pd  Pd11  1  0.00000000  0.00000000  0.50000000  1
  Ba  Ba12  1  0.00000000  0.50000000  0.50000000  1
  Ba  Ba13  1  0.00000000  0.00000000  0.00000000  1
  Pr  Pr14  1  0.50000000  0.17367927  0.67367927  1
  Pr  Pr15  1  0.50000000  0.32632073  0.17367927  1
  Pr  Pr16  1  0.50000000  0.67367927  0.82632073  1
  Pr  Pr17  1  0.50000000  0.82632073  0.32632073  1
