# generated using pymatgen
data_YbFeB4
_symmetry_space_group_name_H-M   'P 1'
_cell_length_a   5.89117491
_cell_length_b   11.40376114
_cell_length_c   3.32603845
_cell_angle_alpha   89.99998998
_cell_angle_beta   89.99998346
_cell_angle_gamma   89.99569328
_symmetry_Int_Tables_number   1
_chemical_formula_structural   YbFeB4
_chemical_formula_sum   'Yb4 Fe4 B16'
_cell_volume   223.44842293
_cell_formula_units_Z   4
loop_
 _symmetry_equiv_pos_site_id
 _symmetry_equiv_pos_as_xyz
  1  'x, y, z'
loop_
 _atom_site_type_symbol
 _atom_site_label
 _atom_site_symmetry_multiplicity
 _atom_site_fract_x
 _atom_site_fract_y
 _atom_site_fract_z
 _atom_site_occupancy
  Yb  Yb0  1  0.12617133  0.15096186  0.00000072  1
  Yb  Yb1  1  0.87383925  0.84903554  0.00000023  1
  Yb  Yb2  1  0.62617219  0.34904666  0.00000054  1
  Yb  Yb3  1  0.37383293  0.65096191  0.00000042  1
  Fe  Fe4  1  0.12687514  0.41709911  0.00000336  1
  Fe  Fe5  1  0.87312774  0.58290372  0.00000038  1
  Fe  Fe6  1  0.62686452  0.08289769  0.99999972  1
  Fe  Fe7  1  0.37312206  0.91709236  0.99999806  1
  B  B8  1  0.36132749  0.46772404  0.50000071  1
  B  B9  1  0.63868452  0.53227486  0.50000125  1
  B  B10  1  0.86134040  0.03227161  0.50000033  1
  B  B11  1  0.13867499  0.96772681  0.50000048  1
  B  B12  1  0.47526600  0.19036248  0.50000048  1
  B  B13  1  0.52472305  0.80964664  0.50000165  1
  B  B14  1  0.97527316  0.30963943  0.50000066  1
  B  B15  1  0.02472592  0.69035484  0.50000055  1
  B  B16  1  0.27913156  0.31745473  0.50000073  1
  B  B17  1  0.72087484  0.68253938  0.50000133  1
  B  B18  1  0.77914352  0.18255104  0.50000108  1
  B  B19  1  0.22087136  0.81746055  0.50000071  1
  B  B20  1  0.38772712  0.04644185  0.50000041  1
  B  B21  1  0.61224850  0.95354397  0.50000088  1
  B  B22  1  0.88773875  0.45355707  0.50000043  1
  B  B23  1  0.11224667  0.54645186  0.50000092  1
