# generated using pymatgen
data_K2MoO3F4
_symmetry_space_group_name_H-M   'P 1'
_cell_length_a   6.28853800
_cell_length_b   6.28951427
_cell_length_c   18.38859168
_cell_angle_alpha   95.02206360
_cell_angle_beta   90.00000000
_cell_angle_gamma   90.00000000
_symmetry_Int_Tables_number   1
_chemical_formula_structural   K2MoO3F4
_chemical_formula_sum   'K8 Mo4 O12 F16'
_cell_volume   724.51073989
_cell_formula_units_Z   4
loop_
 _symmetry_equiv_pos_site_id
 _symmetry_equiv_pos_as_xyz
  1  'x, y, z'
loop_
 _atom_site_type_symbol
 _atom_site_label
 _atom_site_symmetry_multiplicity
 _atom_site_fract_x
 _atom_site_fract_y
 _atom_site_fract_z
 _atom_site_occupancy
  K  K0  1  0.66542105  0.69706040  0.10213515  1
  K  K1  1  0.16542105  0.30293960  0.39786485  1
  K  K2  1  0.33457895  0.30293960  0.89786485  1
  K  K3  1  0.83457895  0.69706040  0.60213515  1
  K  K4  1  0.65038100  0.24688017  0.24939507  1
  K  K5  1  0.15038100  0.75311983  0.25060493  1
  K  K6  1  0.34961900  0.75311983  0.75060493  1
  K  K7  1  0.84961900  0.24688017  0.74939507  1
  Mo  Mo8  1  0.65454185  0.79613042  0.37009631  1
  Mo  Mo9  1  0.15454185  0.20386958  0.12990369  1
  Mo  Mo10  1  0.34545815  0.20386958  0.62990369  1
  Mo  Mo11  1  0.84545815  0.79613042  0.87009631  1
  O  O12  1  0.67611712  0.76763900  0.46335379  1
  O  O13  1  0.17611712  0.23236100  0.03664621  1
  O  O14  1  0.32388288  0.23236100  0.53664621  1
  O  O15  1  0.82388288  0.76763900  0.96335379  1
  O  O16  1  0.46827994  0.00188894  0.36604842  1
  O  O17  1  0.96827994  0.99811106  0.13395158  1
  O  O18  1  0.53172006  0.99811106  0.63395158  1
  O  O19  1  0.03172006  0.00188894  0.86604842  1
  O  O20  1  0.67558643  0.28726603  0.00940232  1
  O  O21  1  0.17558643  0.71273397  0.49059768  1
  O  O22  1  0.32441357  0.71273397  0.99059768  1
  O  O23  1  0.82441357  0.28726603  0.50940232  1
  F  F24  1  0.68057828  0.78606850  0.25584923  1
  F  F25  1  0.18057828  0.21393150  0.24415077  1
  F  F26  1  0.31942172  0.21393150  0.74415077  1
  F  F27  1  0.81942172  0.78606850  0.75584923  1
  F  F28  1  0.86907924  0.55039832  0.34537093  1
  F  F29  1  0.36907924  0.44960168  0.15462907  1
  F  F30  1  0.13092076  0.44960168  0.65462907  1
  F  F31  1  0.63092076  0.55039832  0.84537093  1
  F  F32  1  0.44533663  0.56613957  0.34612483  1
  F  F33  1  0.94533663  0.43386043  0.15387517  1
  F  F34  1  0.55466337  0.43386043  0.65387517  1
  F  F35  1  0.05466337  0.56613957  0.84612483  1
  F  F36  1  0.90783573  0.97684678  0.36419438  1
  F  F37  1  0.40783573  0.02315322  0.13580562  1
  F  F38  1  0.09216427  0.02315322  0.63580562  1
  F  F39  1  0.59216427  0.97684678  0.86419438  1
