# generated using pymatgen
data_B4Pb6O13
_symmetry_space_group_name_H-M   'P 1'
_cell_length_a   7.60165538
_cell_length_b   12.96861164
_cell_length_c   14.20646208
_cell_angle_alpha   90.00000000
_cell_angle_beta   90.00000000
_cell_angle_gamma   90.00000000
_symmetry_Int_Tables_number   1
_chemical_formula_structural   B4Pb6O13
_chemical_formula_sum   'B16 Pb24 O52'
_cell_volume   1400.51446420
_cell_formula_units_Z   4
loop_
 _symmetry_equiv_pos_site_id
 _symmetry_equiv_pos_as_xyz
  1  'x, y, z'
loop_
 _atom_site_type_symbol
 _atom_site_label
 _atom_site_symmetry_multiplicity
 _atom_site_fract_x
 _atom_site_fract_y
 _atom_site_fract_z
 _atom_site_occupancy
  B  B0  1  0.62409582  0.88731910  0.43780282  1
  B  B1  1  0.87590418  0.61268090  0.93780282  1
  B  B2  1  0.37590418  0.38731910  0.56219718  1
  B  B3  1  0.12409582  0.11268090  0.06219718  1
  B  B4  1  0.37590418  0.11268090  0.56219718  1
  B  B5  1  0.12409582  0.38731910  0.06219718  1
  B  B6  1  0.62409582  0.61268090  0.43780282  1
  B  B7  1  0.87590418  0.88731910  0.93780282  1
  B  B8  1  0.47170843  0.75000000  0.52908003  1
  B  B9  1  0.02829157  0.75000000  0.02908003  1
  B  B10  1  0.52829157  0.25000000  0.47091997  1
  B  B11  1  0.97170843  0.25000000  0.97091997  1
  B  B12  1  0.78501937  0.75000000  0.52710356  1
  B  B13  1  0.71498063  0.75000000  0.02710356  1
  B  B14  1  0.21498063  0.25000000  0.47289644  1
  B  B15  1  0.28501937  0.25000000  0.97289644  1
  Pb  Pb16  1  0.85803144  0.10053122  0.43693079  1
  Pb  Pb17  1  0.64196856  0.39946878  0.93693079  1
  Pb  Pb18  1  0.14196856  0.60053122  0.56306921  1
  Pb  Pb19  1  0.35803144  0.89946878  0.06306921  1
  Pb  Pb20  1  0.14196856  0.89946878  0.56306921  1
  Pb  Pb21  1  0.35803144  0.60053122  0.06306921  1
  Pb  Pb22  1  0.85803144  0.39946878  0.43693079  1
  Pb  Pb23  1  0.64196856  0.10053122  0.93693079  1
  Pb  Pb24  1  0.35484853  0.01021247  0.29650799  1
  Pb  Pb25  1  0.14515147  0.48978753  0.79650799  1
  Pb  Pb26  1  0.64515147  0.51021247  0.70349201  1
  Pb  Pb27  1  0.85484853  0.98978753  0.20349201  1
  Pb  Pb28  1  0.64515147  0.98978753  0.70349201  1
  Pb  Pb29  1  0.85484853  0.51021247  0.20349201  1
  Pb  Pb30  1  0.35484853  0.48978753  0.29650799  1
  Pb  Pb31  1  0.14515147  0.01021247  0.79650799  1
  Pb  Pb32  1  0.37763594  0.75000000  0.75617828  1
  Pb  Pb33  1  0.12236406  0.75000000  0.25617828  1
  Pb  Pb34  1  0.62236406  0.25000000  0.24382172  1
  Pb  Pb35  1  0.87763594  0.25000000  0.74382172  1
  Pb  Pb36  1  0.89705661  0.75000000  0.74234681  1
  Pb  Pb37  1  0.60294339  0.75000000  0.24234681  1
  Pb  Pb38  1  0.10294339  0.25000000  0.25765319  1
  Pb  Pb39  1  0.39705661  0.25000000  0.75765319  1
  O  O40  1  0.62148128  0.97166208  0.37776347  1
  O  O41  1  0.87851872  0.52833792  0.87776347  1
  O  O42  1  0.37851872  0.47166208  0.62223653  1
  O  O43  1  0.12148128  0.02833792  0.12223653  1
  O  O44  1  0.37851872  0.02833792  0.62223653  1
  O  O45  1  0.12148128  0.47166208  0.12223653  1
  O  O46  1  0.62148128  0.52833792  0.37776347  1
  O  O47  1  0.87851872  0.97166208  0.87776347  1
  O  O48  1  0.46588094  0.84387100  0.46664474  1
  O  O49  1  0.03411906  0.65612900  0.96664474  1
  O  O50  1  0.53411906  0.34387100  0.53335526  1
  O  O51  1  0.96588094  0.15612900  0.03335526  1
  O  O52  1  0.53411906  0.15612900  0.53335526  1
  O  O53  1  0.96588094  0.34387100  0.03335526  1
  O  O54  1  0.46588094  0.65612900  0.46664474  1
  O  O55  1  0.03411906  0.84387100  0.96664474  1
  O  O56  1  0.78213145  0.84565390  0.46648193  1
  O  O57  1  0.71786855  0.65434610  0.96648193  1
  O  O58  1  0.21786855  0.34565390  0.53351807  1
  O  O59  1  0.28213145  0.15434610  0.03351807  1
  O  O60  1  0.21786855  0.15434610  0.53351807  1
  O  O61  1  0.28213145  0.34565390  0.03351807  1
  O  O62  1  0.78213145  0.65434610  0.46648193  1
  O  O63  1  0.71786855  0.84565390  0.96648193  1
  O  O64  1  0.31662289  0.75000000  0.58911700  1
  O  O65  1  0.18337711  0.75000000  0.08911700  1
  O  O66  1  0.68337711  0.25000000  0.41088300  1
  O  O67  1  0.81662289  0.25000000  0.91088300  1
  O  O68  1  0.62880928  0.75000000  0.58905133  1
  O  O69  1  0.87119072  0.75000000  0.08905133  1
  O  O70  1  0.37119072  0.25000000  0.41094867  1
  O  O71  1  0.12880928  0.25000000  0.91094867  1
  O  O72  1  0.94483507  0.75000000  0.58276901  1
  O  O73  1  0.55516493  0.75000000  0.08276901  1
  O  O74  1  0.05516493  0.25000000  0.41723099  1
  O  O75  1  0.44483507  0.25000000  0.91723099  1
  O  O76  1  0.87571687  0.14066486  0.27217537  1
  O  O77  1  0.62428313  0.35933514  0.77217537  1
  O  O78  1  0.12428313  0.64066486  0.72782463  1
  O  O79  1  0.37571687  0.85933514  0.22782463  1
  O  O80  1  0.12428313  0.85933514  0.72782463  1
  O  O81  1  0.37571687  0.64066486  0.22782463  1
  O  O82  1  0.87571687  0.35933514  0.27217537  1
  O  O83  1  0.62428313  0.14066486  0.77217537  1
  O  O84  1  0.43836677  0.93490791  0.80679325  1
  O  O85  1  0.06163323  0.56509209  0.30679325  1
  O  O86  1  0.56163323  0.43490791  0.19320675  1
  O  O87  1  0.93836677  0.06509209  0.69320675  1
  O  O88  1  0.56163323  0.06509209  0.19320675  1
  O  O89  1  0.93836677  0.43490791  0.69320675  1
  O  O90  1  0.43836677  0.56509209  0.80679325  1
  O  O91  1  0.06163323  0.93490791  0.30679325  1
