# generated using pymatgen
data_Li2UO4
_symmetry_space_group_name_H-M   'P 1'
_cell_length_a   5.18215635
_cell_length_b   6.10495266
_cell_length_c   10.67378569
_cell_angle_alpha   90.00000000
_cell_angle_beta   90.00000000
_cell_angle_gamma   90.00000000
_symmetry_Int_Tables_number   1
_chemical_formula_structural   Li2UO4
_chemical_formula_sum   'Li8 U4 O16'
_cell_volume   337.68462798
_cell_formula_units_Z   4
loop_
 _symmetry_equiv_pos_site_id
 _symmetry_equiv_pos_as_xyz
  1  'x, y, z'
loop_
 _atom_site_type_symbol
 _atom_site_label
 _atom_site_symmetry_multiplicity
 _atom_site_fract_x
 _atom_site_fract_y
 _atom_site_fract_z
 _atom_site_occupancy
  Li  Li0  1  0.54020039  0.75000000  0.07622571  1
  Li  Li1  1  0.04020039  0.25000000  0.42377429  1
  Li  Li2  1  0.45979961  0.25000000  0.92377429  1
  Li  Li3  1  0.95979961  0.75000000  0.57622571  1
  Li  Li4  1  0.50000000  0.00000000  0.50000000  1
  Li  Li5  1  0.00000000  0.00000000  0.00000000  1
  Li  Li6  1  0.50000000  0.50000000  0.50000000  1
  Li  Li7  1  0.00000000  0.50000000  0.00000000  1
  O  O8  1  0.17377737  0.75000000  0.10229002  1
  O  O9  1  0.21442436  0.25000000  0.58595190  1
  O  O10  1  0.28557564  0.25000000  0.08595190  1
  O  O11  1  0.71442436  0.75000000  0.91404810  1
  O  O12  1  0.26609781  0.01364733  0.83273574  1
  O  O13  1  0.76609781  0.98635267  0.66726426  1
  O  O14  1  0.73390219  0.51364733  0.16726426  1
  O  O15  1  0.23390219  0.48635267  0.33273574  1
  O  O16  1  0.73390219  0.98635267  0.16726426  1
  O  O17  1  0.23390219  0.01364733  0.33273574  1
  O  O18  1  0.26609781  0.48635267  0.83273574  1
  O  O19  1  0.76609781  0.51364733  0.66726426  1
  O  O20  1  0.82622263  0.25000000  0.89770998  1
  O  O21  1  0.32622263  0.75000000  0.60229002  1
  O  O22  1  0.78557564  0.75000000  0.41404810  1
  O  O23  1  0.67377737  0.25000000  0.39770998  1
  U  U24  1  0.98769670  0.75000000  0.26161710  1
  U  U25  1  0.48769670  0.25000000  0.23838290  1
  U  U26  1  0.01230330  0.25000000  0.73838290  1
  U  U27  1  0.51230330  0.75000000  0.76161710  1
