# generated using pymatgen
data_Na2CrH2F8
_symmetry_space_group_name_H-M   'P 1'
_cell_length_a   5.48620687
_cell_length_b   5.48001651
_cell_length_c   5.48001651
_cell_angle_alpha   94.58550115
_cell_angle_beta   106.20396348
_cell_angle_gamma   106.20396348
_symmetry_Int_Tables_number   1
_chemical_formula_structural   Na2CrH2F8
_chemical_formula_sum   'Na2 Cr1 H2 F8'
_cell_volume   149.68249678
_cell_formula_units_Z   1
loop_
 _symmetry_equiv_pos_site_id
 _symmetry_equiv_pos_as_xyz
  1  'x, y, z'
loop_
 _atom_site_type_symbol
 _atom_site_label
 _atom_site_symmetry_multiplicity
 _atom_site_fract_x
 _atom_site_fract_y
 _atom_site_fract_z
 _atom_site_occupancy
  Na  Na0  1  0.49999900  0.73757821  0.26241979  1
  Na  Na1  1  0.49999900  0.26241979  0.73757821  1
  Cr  Cr2  1  -0.00000000  -0.00000000  -0.00000000  1
  H  H3  1  0.78213691  0.34607347  0.34607347  1
  H  H4  1  0.21786309  0.65392753  0.65392753  1
  F  F5  1  0.77934780  0.67841697  0.00170142  1
  F  F6  1  0.77775339  0.14356964  0.14356964  1
  F  F7  1  0.22065220  0.99829958  0.32158403  1
  F  F8  1  0.73500583  0.45987409  0.45987409  1
  F  F9  1  0.26499417  0.54012591  0.54012591  1
  F  F10  1  0.77934780  0.00170142  0.67841697  1
  F  F11  1  0.22224661  0.85642936  0.85642936  1
  F  F12  1  0.22065220  0.32158403  0.99829958  1
