# generated using pymatgen
data_RbTmS2
_symmetry_space_group_name_H-M   'P 1'
_cell_length_a   8.01420417
_cell_length_b   8.01420417
_cell_length_c   8.01420417
_cell_angle_alpha   29.10209964
_cell_angle_beta   29.10209966
_cell_angle_gamma   29.10209962
_symmetry_Int_Tables_number   1
_chemical_formula_structural   RbTmS2
_chemical_formula_sum   'Rb1 Tm1 S2'
_cell_volume   107.71272241
_cell_formula_units_Z   1
loop_
 _symmetry_equiv_pos_site_id
 _symmetry_equiv_pos_as_xyz
  1  'x, y, z'
loop_
 _atom_site_type_symbol
 _atom_site_label
 _atom_site_symmetry_multiplicity
 _atom_site_fract_x
 _atom_site_fract_y
 _atom_site_fract_z
 _atom_site_occupancy
  S  S0  1  0.77011212  0.77011212  0.77011212  1
  S  S1  1  0.22988788  0.22988788  0.22988788  1
  Rb  Rb2  1  0.00000000  0.00000000  0.00000000  1
  Tm  Tm3  1  0.50000000  0.50000000  0.50000000  1
