# generated using pymatgen
data_K3BP2
_symmetry_space_group_name_H-M   'P 1'
_cell_length_a   6.52226278
_cell_length_b   6.52226277
_cell_length_c   8.95878298
_cell_angle_alpha   75.12941068
_cell_angle_beta   75.12941072
_cell_angle_gamma   86.52831873
_symmetry_Int_Tables_number   1
_chemical_formula_structural   K3BP2
_chemical_formula_sum   'K6 B2 P4'
_cell_volume   355.99954680
_cell_formula_units_Z   2
loop_
 _symmetry_equiv_pos_site_id
 _symmetry_equiv_pos_as_xyz
  1  'x, y, z'
loop_
 _atom_site_type_symbol
 _atom_site_label
 _atom_site_symmetry_multiplicity
 _atom_site_fract_x
 _atom_site_fract_y
 _atom_site_fract_z
 _atom_site_occupancy
  B  B0  1  0.28257789  0.71742211  0.25000000  1
  B  B1  1  0.71742211  0.28257789  0.75000000  1
  P  P2  1  0.40815700  0.85265719  0.35195046  1
  P  P3  1  0.14734281  0.59184300  0.14804954  1
  P  P4  1  0.85265719  0.40815700  0.85195046  1
  P  P5  1  0.59184300  0.14734281  0.64804954  1
  K  K6  1  0.65079659  0.34920341  0.25000000  1
  K  K7  1  0.34920341  0.65079659  0.75000000  1
  K  K8  1  0.25208768  0.15176428  0.01898307  1
  K  K9  1  0.84823572  0.74791232  0.48101693  1
  K  K10  1  0.74791232  0.84823572  0.98101693  1
  K  K11  1  0.15176428  0.25208768  0.51898307  1
