# generated using pymatgen
data_AuF3
_symmetry_space_group_name_H-M   'P 1'
_cell_length_a   5.32364251
_cell_length_b   5.32364252
_cell_length_c   16.61694623
_cell_angle_alpha   90.00000000
_cell_angle_beta   90.00000000
_cell_angle_gamma   120.00000002
_symmetry_Int_Tables_number   1
_chemical_formula_structural   AuF3
_chemical_formula_sum   'Au6 F18'
_cell_volume   407.84920058
_cell_formula_units_Z   6
loop_
 _symmetry_equiv_pos_site_id
 _symmetry_equiv_pos_as_xyz
  1  'x, y, z'
loop_
 _atom_site_type_symbol
 _atom_site_label
 _atom_site_symmetry_multiplicity
 _atom_site_fract_x
 _atom_site_fract_y
 _atom_site_fract_z
 _atom_site_occupancy
  F  F0  1  0.77604738  0.46393729  0.16236827  1
  F  F1  1  0.53606271  0.31211009  0.49570160  1
  F  F2  1  0.68788991  0.22395262  0.82903493  1
  F  F3  1  0.31211009  0.77604738  0.32903493  1
  F  F4  1  0.22395262  0.68788991  0.50429840  1
  F  F5  1  0.22395262  0.53606271  0.66236827  1
  F  F6  1  0.16733004  0.00000000  0.00000000  1
  F  F7  1  0.16733004  0.16733004  0.16666667  1
  F  F8  1  0.00000000  0.83266996  0.83333333  1
  F  F9  1  0.00000000  0.16733004  0.33333333  1
  F  F10  1  0.83266996  0.83266996  0.66666667  1
  F  F11  1  0.83266996  0.00000000  0.50000000  1
  F  F12  1  0.77604738  0.31211009  0.00429840  1
  F  F13  1  0.46393729  0.77604738  0.17096507  1
  F  F14  1  0.31211009  0.53606271  0.83763173  1
  F  F15  1  0.68788991  0.46393729  0.33763173  1
  F  F16  1  0.53606271  0.22395262  0.67096507  1
  F  F17  1  0.46393729  0.68788991  0.99570160  1
  Au  Au18  1  0.75940071  0.51880142  0.75000000  1
  Au  Au19  1  0.24059929  0.75940071  0.91666667  1
  Au  Au20  1  0.51880142  0.75940071  0.58333333  1
  Au  Au21  1  0.48119858  0.24059929  0.08333333  1
  Au  Au22  1  0.75940071  0.24059929  0.41666667  1
  Au  Au23  1  0.24059929  0.48119858  0.25000000  1
