# generated using pymatgen
data_K(ThSe3)2
_symmetry_space_group_name_H-M   'P 1'
_cell_length_a   4.24909504
_cell_length_b   5.58703801
_cell_length_c   11.75909672
_cell_angle_alpha   103.74271463
_cell_angle_beta   100.40894397
_cell_angle_gamma   90.00000001
_symmetry_Int_Tables_number   1
_chemical_formula_structural   K(ThSe3)2
_chemical_formula_sum   'K1 Th2 Se6'
_cell_volume   266.43575766
_cell_formula_units_Z   1
loop_
 _symmetry_equiv_pos_site_id
 _symmetry_equiv_pos_as_xyz
  1  'x, y, z'
loop_
 _atom_site_type_symbol
 _atom_site_label
 _atom_site_symmetry_multiplicity
 _atom_site_fract_x
 _atom_site_fract_y
 _atom_site_fract_z
 _atom_site_occupancy
  K  K0  1  0.00000000  0.00000000  0.00000000  1
  Se  Se1  1  0.22828081  0.22828081  0.45656162  1
  Se  Se2  1  0.60478976  0.35869430  0.20957952  1
  Se  Se3  1  0.39521024  0.64130570  0.79042048  1
  Se  Se4  1  0.39521024  0.14911479  0.79042048  1
  Se  Se5  1  0.60478976  0.85088521  0.20957952  1
  Se  Se6  1  0.77171919  0.77171919  0.54343838  1
  Th  Th7  1  0.82185421  0.32185421  0.64370842  1
  Th  Th8  1  0.17814579  0.67814579  0.35629158  1
