# generated using pymatgen
data_Cs3BP2
_symmetry_space_group_name_H-M   'P 1'
_cell_length_a   7.00097548
_cell_length_b   7.00097548
_cell_length_c   9.91498563
_cell_angle_alpha   75.98825693
_cell_angle_beta   75.98825698
_cell_angle_gamma   89.18466892
_symmetry_Int_Tables_number   1
_chemical_formula_structural   Cs3BP2
_chemical_formula_sum   'Cs6 B2 P4'
_cell_volume   456.97201391
_cell_formula_units_Z   2
loop_
 _symmetry_equiv_pos_site_id
 _symmetry_equiv_pos_as_xyz
  1  'x, y, z'
loop_
 _atom_site_type_symbol
 _atom_site_label
 _atom_site_symmetry_multiplicity
 _atom_site_fract_x
 _atom_site_fract_y
 _atom_site_fract_z
 _atom_site_occupancy
  B  B0  1  0.28744129  0.71255871  0.25000000  1
  B  B1  1  0.71255871  0.28744129  0.75000000  1
  P  P2  1  0.40269231  0.83355660  0.35034854  1
  P  P3  1  0.16644340  0.59730769  0.14965146  1
  P  P4  1  0.83355660  0.40269231  0.85034854  1
  P  P5  1  0.59730769  0.16644340  0.64965146  1
  Cs  Cs6  1  0.65782224  0.34217776  0.25000000  1
  Cs  Cs7  1  0.34217776  0.65782224  0.75000000  1
  Cs  Cs8  1  0.25644592  0.15295165  0.02134462  1
  Cs  Cs9  1  0.84704835  0.74355408  0.47865538  1
  Cs  Cs10  1  0.74355408  0.84704835  0.97865538  1
  Cs  Cs11  1  0.15295165  0.25644592  0.52134462  1
