# generated using pymatgen
data_Sr4Li(BN2)3
_symmetry_space_group_name_H-M   'P 1'
_cell_length_a   6.48922707
_cell_length_b   6.48922707
_cell_length_c   6.48922707
_cell_angle_alpha   109.47122064
_cell_angle_beta   109.47122065
_cell_angle_gamma   109.47122066
_symmetry_Int_Tables_number   1
_chemical_formula_structural   Sr4Li(BN2)3
_chemical_formula_sum   'Sr4 Li1 B3 N6'
_cell_volume   210.35702593
_cell_formula_units_Z   1
loop_
 _symmetry_equiv_pos_site_id
 _symmetry_equiv_pos_as_xyz
  1  'x, y, z'
loop_
 _atom_site_type_symbol
 _atom_site_label
 _atom_site_symmetry_multiplicity
 _atom_site_fract_x
 _atom_site_fract_y
 _atom_site_fract_z
 _atom_site_occupancy
  Li  Li0  1  0.00000000  0.00000000  0.00000000  1
  B  B1  1  0.00000000  0.50000000  0.50000000  1
  B  B2  1  0.50000000  0.00000000  0.50000000  1
  B  B3  1  0.50000000  0.50000000  0.00000000  1
  N  N4  1  0.68021998  0.00000000  0.68021998  1
  N  N5  1  0.00000000  0.31978002  0.31978002  1
  N  N6  1  0.31978002  0.00000000  0.31978002  1
  N  N7  1  0.31978002  0.31978002  0.00000000  1
  N  N8  1  0.68021998  0.68021998  0.00000000  1
  N  N9  1  0.00000000  0.68021998  0.68021998  1
  Sr  Sr10  1  0.00000000  0.50000000  0.00000000  1
  Sr  Sr11  1  0.50000000  0.00000000  0.00000000  1
  Sr  Sr12  1  0.50000000  0.50000000  0.50000000  1
  Sr  Sr13  1  0.00000000  0.00000000  0.50000000  1
