# generated using pymatgen
data_RbCu3P3(O4F3)2
_symmetry_space_group_name_H-M   'P 1'
_cell_length_a   7.81480633
_cell_length_b   7.68615743
_cell_length_c   11.31570838
_cell_angle_alpha   99.60737830
_cell_angle_beta   110.20058743
_cell_angle_gamma   89.99999985
_symmetry_Int_Tables_number   1
_chemical_formula_structural   RbCu3P3(O4F3)2
_chemical_formula_sum   'Rb2 Cu6 P6 O16 F12'
_cell_volume   627.71198278
_cell_formula_units_Z   2
loop_
 _symmetry_equiv_pos_site_id
 _symmetry_equiv_pos_as_xyz
  1  'x, y, z'
loop_
 _atom_site_type_symbol
 _atom_site_label
 _atom_site_symmetry_multiplicity
 _atom_site_fract_x
 _atom_site_fract_y
 _atom_site_fract_z
 _atom_site_occupancy
  Rb  Rb0  1  0.84689526  0.25000000  0.00000000  1
  Rb  Rb1  1  0.15310474  0.75000000  1.00000000  1
  Cu  Cu2  1  0.66478241  0.27775982  0.27747921  1
  Cu  Cu3  1  0.38730320  0.22224018  0.72252079  1
  Cu  Cu4  1  0.33521759  0.72224018  0.72252079  1
  Cu  Cu5  1  0.61269680  0.77775982  0.27747921  1
  Cu  Cu6  1  0.00000000  0.00000000  0.50000000  1
  Cu  Cu7  1  0.50000000  0.50000000  0.50000000  1
  P  P8  1  0.98249404  0.59727403  0.33468469  1
  P  P9  1  0.64780934  0.90272597  0.66531531  1
  P  P10  1  0.01750596  0.40272597  0.66531531  1
  P  P11  1  0.35219066  0.09727403  0.33468469  1
  P  P12  1  0.34351829  0.25000000  0.00000000  1
  P  P13  1  0.65648171  0.75000000  1.00000000  1
  O  O14  1  0.41145846  0.29806945  0.89322378  1
  O  O15  1  0.51823469  0.20193055  0.10677622  1
  O  O16  1  0.58854154  0.70193055  0.10677622  1
  O  O17  1  0.48176531  0.79806945  0.89322378  1
  O  O18  1  0.20672846  0.09013778  0.94738459  1
  O  O19  1  0.25934387  0.40986222  0.05261541  1
  O  O20  1  0.79327154  0.90986222  0.05261541  1
  O  O21  1  0.74065613  0.59013778  0.94738459  1
  O  O22  1  0.48317843  0.25930657  0.38147219  1
  O  O23  1  0.10170624  0.24069343  0.61852781  1
  O  O24  1  0.51682157  0.74069343  0.61852781  1
  O  O25  1  0.89829376  0.75930657  0.38147219  1
  O  O26  1  0.87250318  0.42805821  0.27500109  1
  O  O27  1  0.59750209  0.07194179  0.72499891  1
  O  O28  1  0.12749682  0.57194179  0.72499891  1
  O  O29  1  0.40249791  0.92805821  0.27500109  1
  F  F30  1  0.08301370  0.64526125  0.24567166  1
  F  F31  1  0.83734204  0.85473875  0.75432834  1
  F  F32  1  0.91698630  0.35473875  0.75432834  1
  F  F33  1  0.16265796  0.14526125  0.24567166  1
  F  F34  1  0.81923521  0.09690866  0.37123865  1
  F  F35  1  0.44799657  0.40309134  0.62876136  1
  F  F36  1  0.18076479  0.90309134  0.62876135  1
  F  F37  1  0.55200343  0.59690866  0.37123864  1
  F  F38  1  0.84495557  0.43501043  0.54944925  1
  F  F39  1  0.29550631  0.06498957  0.45055075  1
  F  F40  1  0.15504443  0.56498957  0.45055075  1
  F  F41  1  0.70449369  0.93501043  0.54944925  1
