# generated using pymatgen
data_LaCo5P3
_symmetry_space_group_name_H-M   'P 1'
_cell_length_a   3.63140338
_cell_length_b   6.01450561
_cell_length_c   11.43758050
_cell_angle_alpha   90.00000000
_cell_angle_beta   90.00000000
_cell_angle_gamma   107.57098238
_symmetry_Int_Tables_number   1
_chemical_formula_structural   LaCo5P3
_chemical_formula_sum   'La2 Co10 P6'
_cell_volume   238.15411172
_cell_formula_units_Z   2
loop_
 _symmetry_equiv_pos_site_id
 _symmetry_equiv_pos_as_xyz
  1  'x, y, z'
loop_
 _atom_site_type_symbol
 _atom_site_label
 _atom_site_symmetry_multiplicity
 _atom_site_fract_x
 _atom_site_fract_y
 _atom_site_fract_z
 _atom_site_occupancy
  P  P0  1  0.39123944  0.78247887  0.25000000  1
  P  P1  1  0.60876056  0.21752113  0.75000000  1
  P  P2  1  0.88287556  0.76575112  0.53756968  1
  P  P3  1  0.11712444  0.23424888  0.46243032  1
  P  P4  1  0.11712444  0.23424888  0.03756968  1
  P  P5  1  0.88287556  0.76575112  0.96243032  1
  Co  Co6  1  0.94571921  0.89143841  0.14233841  1
  Co  Co7  1  0.94571921  0.89143841  0.35766159  1
  Co  Co8  1  0.30199050  0.60398100  0.43192956  1
  Co  Co9  1  0.69800950  0.39601900  0.56807044  1
  Co  Co10  1  0.69800950  0.39601900  0.93192956  1
  Co  Co11  1  0.30199050  0.60398100  0.06807044  1
  Co  Co12  1  0.50000000  0.00000000  0.50000000  1
  Co  Co13  1  0.50000000  0.00000000  0.00000000  1
  Co  Co14  1  0.05428079  0.10856159  0.64233841  1
  Co  Co15  1  0.05428079  0.10856159  0.85766159  1
  La  La16  1  0.66215512  0.32431024  0.25000000  1
  La  La17  1  0.33784488  0.67568976  0.75000000  1
