# generated using pymatgen
data_Tb3Fe5O12
_symmetry_space_group_name_H-M   'P 1'
_cell_length_a   10.82214648
_cell_length_b   10.82214724
_cell_length_c   10.82214603
_cell_angle_alpha   109.45336981
_cell_angle_beta   109.45337122
_cell_angle_gamma   109.45336704
_symmetry_Int_Tables_number   1
_chemical_formula_structural   Tb3Fe5O12
_chemical_formula_sum   'Tb12 Fe20 O48'
_cell_volume   976.34892084
_cell_formula_units_Z   4
loop_
 _symmetry_equiv_pos_site_id
 _symmetry_equiv_pos_as_xyz
  1  'x, y, z'
loop_
 _atom_site_type_symbol
 _atom_site_label
 _atom_site_symmetry_multiplicity
 _atom_site_fract_x
 _atom_site_fract_y
 _atom_site_fract_z
 _atom_site_occupancy
  Tb  Tb0  1  0.74949197  0.62435918  0.87569633  1
  Tb  Tb1  1  0.87569633  0.74949197  0.62435918  1
  Tb  Tb2  1  0.62435918  0.87569633  0.74949197  1
  Tb  Tb3  1  0.25050803  0.37564082  0.12430367  1
  Tb  Tb4  1  0.12430367  0.25050803  0.37564082  1
  Tb  Tb5  1  0.37564082  0.12430367  0.25050803  1
  Tb  Tb6  1  0.74969243  0.12301377  0.37692419  1
  Tb  Tb7  1  0.37692419  0.74969243  0.12301377  1
  Tb  Tb8  1  0.12301377  0.37692419  0.74969243  1
  Tb  Tb9  1  0.25030757  0.87698623  0.62307581  1
  Tb  Tb10  1  0.62307581  0.25030757  0.87698623  1
  Tb  Tb11  1  0.87698623  0.62307581  0.25030757  1
  Fe  Fe12  1  0.00000000  0.00000000  -0.00000000  1
  Fe  Fe13  1  0.50000000  0.50000000  0.50000000  1
  Fe  Fe14  1  0.50000000  0.00000000  0.50000000  1
  Fe  Fe15  1  0.50000000  0.50000000  -0.00000000  1
  Fe  Fe16  1  0.00000000  0.50000000  0.50000000  1
  Fe  Fe17  1  0.00000000  0.50000000  -0.00000000  1
  Fe  Fe18  1  0.00000000  0.00000000  0.50000000  1
  Fe  Fe19  1  0.50000000  0.00000000  -0.00000000  1
  Fe  Fe20  1  0.75273786  0.37447748  0.62667653  1
  Fe  Fe21  1  0.62667653  0.75273786  0.37447748  1
  Fe  Fe22  1  0.37447748  0.62667653  0.75273786  1
  Fe  Fe23  1  0.24726214  0.62552252  0.37332347  1
  Fe  Fe24  1  0.37332347  0.24726214  0.62552252  1
  Fe  Fe25  1  0.62552252  0.37332347  0.24726214  1
  Fe  Fe26  1  0.24929263  0.12697100  0.87283244  1
  Fe  Fe27  1  0.87283244  0.24929263  0.12697100  1
  Fe  Fe28  1  0.12697100  0.87283244  0.24929263  1
  Fe  Fe29  1  0.75070737  0.87302900  0.12716756  1
  Fe  Fe30  1  0.12716756  0.75070737  0.87302900  1
  Fe  Fe31  1  0.87302900  0.12716756  0.75070737  1
  O  O32  1  0.97249684  0.79393481  0.87678518  1
  O  O33  1  0.87678518  0.97249684  0.79393481  1
  O  O34  1  0.79393481  0.87678518  0.97249684  1
  O  O35  1  0.02750316  0.20606519  0.12321482  1
  O  O36  1  0.12321482  0.02750316  0.20606519  1
  O  O37  1  0.20606519  0.12321482  0.02750316  1
  O  O38  1  0.79732644  0.41789143  0.82660694  1
  O  O39  1  0.82660694  0.79732644  0.41789143  1
  O  O40  1  0.41789143  0.82660694  0.79732644  1
  O  O41  1  0.20267356  0.58210857  0.17339306  1
  O  O42  1  0.17339306  0.20267356  0.58210857  1
  O  O43  1  0.58210857  0.17339306  0.20267356  1
  O  O44  1  0.08538579  0.87142809  0.40361867  1
  O  O45  1  0.40361867  0.08538579  0.87142809  1
  O  O46  1  0.87142809  0.40361867  0.08538579  1
  O  O47  1  0.91461421  0.12857191  0.59638133  1
  O  O48  1  0.59638133  0.91461421  0.12857191  1
  O  O49  1  0.12857191  0.59638133  0.91461421  1
  O  O50  1  0.67225349  0.09091498  0.97059498  1
  O  O51  1  0.97059498  0.67225349  0.09091498  1
  O  O52  1  0.09091498  0.97059498  0.67225349  1
  O  O53  1  0.32774651  0.90908502  0.02940502  1
  O  O54  1  0.02940502  0.32774651  0.90908502  1
  O  O55  1  0.90908502  0.02940502  0.32774651  1
  O  O56  1  0.52976899  0.62623402  0.70796508  1
  O  O57  1  0.70796508  0.52976899  0.62623402  1
  O  O58  1  0.62623402  0.70796508  0.52976899  1
  O  O59  1  0.47023101  0.37376598  0.29203492  1
  O  O60  1  0.29203492  0.47023101  0.37376598  1
  O  O61  1  0.37376598  0.29203492  0.47023101  1
  O  O62  1  0.70492162  0.67293282  0.08145576  1
  O  O63  1  0.08145576  0.70492162  0.67293282  1
  O  O64  1  0.67293282  0.08145576  0.70492162  1
  O  O65  1  0.29507838  0.32706718  0.91854424  1
  O  O66  1  0.91854424  0.29507838  0.32706718  1
  O  O67  1  0.32706718  0.91854424  0.29507838  1
  O  O68  1  0.41977546  0.09317675  0.62137584  1
  O  O69  1  0.62137584  0.41977546  0.09317675  1
  O  O70  1  0.09317675  0.62137584  0.41977546  1
  O  O71  1  0.58022454  0.90682325  0.37862416  1
  O  O72  1  0.37862416  0.58022454  0.90682325  1
  O  O73  1  0.90682325  0.37862416  0.58022454  1
  O  O74  1  0.82488298  0.52872420  0.40482842  1
  O  O75  1  0.40482842  0.82488298  0.52872420  1
  O  O76  1  0.52872420  0.40482842  0.82488298  1
  O  O77  1  0.17511702  0.47127580  0.59517158  1
  O  O78  1  0.59517158  0.17511702  0.47127580  1
  O  O79  1  0.47127580  0.59517158  0.17511702  1
