# generated using pymatgen
data_Dy(CuO2)2
_symmetry_space_group_name_H-M   'P 1'
_cell_length_a   5.69512371
_cell_length_b   5.69722238
_cell_length_c   6.28670745
_cell_angle_alpha   116.92315786
_cell_angle_beta   116.91241875
_cell_angle_gamma   90.04066274
_symmetry_Int_Tables_number   1
_chemical_formula_structural   Dy(CuO2)2
_chemical_formula_sum   'Dy2 Cu4 O8'
_cell_volume   156.65590951
_cell_formula_units_Z   2
loop_
 _symmetry_equiv_pos_site_id
 _symmetry_equiv_pos_as_xyz
  1  'x, y, z'
loop_
 _atom_site_type_symbol
 _atom_site_label
 _atom_site_symmetry_multiplicity
 _atom_site_fract_x
 _atom_site_fract_y
 _atom_site_fract_z
 _atom_site_occupancy
  Dy  Dy0  1  0.87498710  0.12498710  0.74997521  1
  Dy  Dy1  1  0.12501290  0.87501290  0.25002479  1
  Cu  Cu2  1  0.50000000  -0.00000000  0.00000000  1
  Cu  Cu3  1  0.50000000  0.50000000  0.00000000  1
  Cu  Cu4  1  0.00000000  0.50000000  0.50000000  1
  Cu  Cu5  1  0.50000000  0.50000000  0.50000000  1
  O  O6  1  0.71978706  0.52997704  0.85491046  1
  O  O7  1  0.13512440  0.82493442  0.85491046  1
  O  O8  1  0.28021294  0.47002296  0.14508954  1
  O  O9  1  0.86487560  0.17506558  0.14508954  1
  O  O10  1  0.53020220  0.13539414  0.35505409  1
  O  O11  1  0.82485089  0.71965895  0.35505409  1
  O  O12  1  0.17514911  0.28034105  0.64494691  1
  O  O13  1  0.46979780  0.86460586  0.64494691  1
