# generated using pymatgen
data_Rb2CuC2O7
_symmetry_space_group_name_H-M   'P 1'
_cell_length_a   6.66299373
_cell_length_b   7.97428708
_cell_length_c   14.97562874
_cell_angle_alpha   90.00000000
_cell_angle_beta   90.00000000
_cell_angle_gamma   92.12821619
_symmetry_Int_Tables_number   1
_chemical_formula_structural   Rb2CuC2O7
_chemical_formula_sum   'Rb8 Cu4 C8 O28'
_cell_volume   795.14561412
_cell_formula_units_Z   4
loop_
 _symmetry_equiv_pos_site_id
 _symmetry_equiv_pos_as_xyz
  1  'x, y, z'
loop_
 _atom_site_type_symbol
 _atom_site_label
 _atom_site_symmetry_multiplicity
 _atom_site_fract_x
 _atom_site_fract_y
 _atom_site_fract_z
 _atom_site_occupancy
  Rb  Rb0  1  0.26641066  0.91713852  0.60438627  1
  Rb  Rb1  1  0.23358934  0.08286148  0.10438627  1
  Rb  Rb2  1  0.73358934  0.08286148  0.39561373  1
  Rb  Rb3  1  0.76641066  0.91713852  0.89561373  1
  Rb  Rb4  1  0.75530382  0.59180353  0.60048112  1
  Rb  Rb5  1  0.74469618  0.40819647  0.10048112  1
  Rb  Rb6  1  0.24469618  0.40819647  0.39951888  1
  Rb  Rb7  1  0.25530382  0.59180353  0.89951888  1
  Cu  Cu8  1  0.42851380  0.75176026  0.23537580  1
  Cu  Cu9  1  0.07148620  0.24823974  0.73537580  1
  Cu  Cu10  1  0.57148620  0.24823974  0.76462420  1
  Cu  Cu11  1  0.92851380  0.75176026  0.26462420  1
  C  C12  1  0.26253130  0.55411097  0.13849789  1
  C  C13  1  0.23746870  0.44588903  0.63849789  1
  C  C14  1  0.73746870  0.44588903  0.86150211  1
  C  C15  1  0.76253130  0.55411097  0.36150211  1
  C  C16  1  0.73653457  0.93995031  0.14373990  1
  C  C17  1  0.76346543  0.06004969  0.64373990  1
  C  C18  1  0.26346543  0.06004969  0.85626010  1
  C  C19  1  0.23653457  0.93995031  0.35626010  1
  O  O20  1  0.03084763  0.74411356  0.74407692  1
  O  O21  1  0.46915237  0.25588644  0.24407692  1
  O  O22  1  0.96915237  0.25588644  0.25592308  1
  O  O23  1  0.53084763  0.74411356  0.75592308  1
  O  O24  1  0.81961863  0.54740538  0.91452800  1
  O  O25  1  0.68038137  0.45259462  0.41452800  1
  O  O26  1  0.18038137  0.45259462  0.08547200  1
  O  O27  1  0.31961863  0.54740538  0.58547200  1
  O  O28  1  0.41574542  0.65721605  0.11616456  1
  O  O29  1  0.08425458  0.34278395  0.61616456  1
  O  O30  1  0.58425458  0.34278395  0.88383544  1
  O  O31  1  0.91574542  0.65721605  0.38383544  1
  O  O32  1  0.21118626  0.57636543  0.22307292  1
  O  O33  1  0.28881374  0.42363457  0.72307292  1
  O  O34  1  0.78881374  0.42363457  0.77692708  1
  O  O35  1  0.71118626  0.57636543  0.27692708  1
  O  O36  1  0.61083734  0.94264581  0.21202427  1
  O  O37  1  0.88916266  0.05735419  0.71202427  1
  O  O38  1  0.38916266  0.05735419  0.78797573  1
  O  O39  1  0.11083734  0.94264581  0.28797573  1
  O  O40  1  0.88141251  0.83117679  0.14596234  1
  O  O41  1  0.61858749  0.16882321  0.64596234  1
  O  O42  1  0.11858749  0.16882321  0.85403766  1
  O  O43  1  0.38141251  0.83117679  0.35403766  1
  O  O44  1  0.77741785  0.96119753  0.57870547  1
  O  O45  1  0.72258215  0.03880247  0.07870547  1
  O  O46  1  0.22258215  0.03880247  0.42129453  1
  O  O47  1  0.27741785  0.96119753  0.92129453  1
