# generated using pymatgen
data_SmZn2
_symmetry_space_group_name_H-M   'P 1'
_cell_length_a   4.55854404
_cell_length_b   5.74776273
_cell_length_c   5.74776273
_cell_angle_alpha   79.31131526
_cell_angle_beta   66.63735699
_cell_angle_gamma   66.63735705
_symmetry_Int_Tables_number   1
_chemical_formula_structural   SmZn2
_chemical_formula_sum   'Sm2 Zn4'
_cell_volume   126.84641373
_cell_formula_units_Z   2
loop_
 _symmetry_equiv_pos_site_id
 _symmetry_equiv_pos_as_xyz
  1  'x, y, z'
loop_
 _atom_site_type_symbol
 _atom_site_label
 _atom_site_symmetry_multiplicity
 _atom_site_fract_x
 _atom_site_fract_y
 _atom_site_fract_z
 _atom_site_occupancy
  Zn  Zn0  1  0.83426571  0.71483060  0.61663799  1
  Zn  Zn1  1  0.16573429  0.28516940  0.38336201  1
  Zn  Zn2  1  0.83426571  0.11663799  0.21483060  1
  Zn  Zn3  1  0.16573429  0.88336201  0.78516940  1
  Sm  Sm4  1  0.53361580  0.71638420  0.21638420  1
  Sm  Sm5  1  0.46638420  0.28361580  0.78361580  1
