# generated using pymatgen
data_Gd(Al2Cu)4
_symmetry_space_group_name_H-M   'P 1'
_cell_length_a   5.14712342
_cell_length_b   6.74275716
_cell_length_c   6.74275716
_cell_angle_alpha   98.37654912
_cell_angle_beta   67.56233804
_cell_angle_gamma   112.43766196
_symmetry_Int_Tables_number   1
_chemical_formula_structural   Gd(Al2Cu)4
_chemical_formula_sum   'Gd1 Al8 Cu4'
_cell_volume   199.92225998
_cell_formula_units_Z   1
loop_
 _symmetry_equiv_pos_site_id
 _symmetry_equiv_pos_as_xyz
  1  'x, y, z'
loop_
 _atom_site_type_symbol
 _atom_site_label
 _atom_site_symmetry_multiplicity
 _atom_site_fract_x
 _atom_site_fract_y
 _atom_site_fract_z
 _atom_site_occupancy
  Gd  Gd0  1  0.00000000  0.00000000  0.00000000  1
  Al  Al1  1  0.28023710  0.78023710  0.21976290  1
  Al  Al2  1  0.50000000  0.21976390  0.21976390  1
  Al  Al3  1  0.65237889  0.65237789  0.34762111  1
  Al  Al4  1  0.00000000  0.34762111  0.34762111  1
  Al  Al5  1  0.00000000  0.65237789  0.65237789  1
  Al  Al6  1  0.34762211  0.34762111  0.65237789  1
  Al  Al7  1  0.71976390  0.21976290  0.78023710  1
  Al  Al8  1  0.50000000  0.78023710  0.78023710  1
  Cu  Cu9  1  0.99999900  0.50000000  0.00000000  1
  Cu  Cu10  1  0.50000000  0.50000000  0.00000000  1
  Cu  Cu11  1  0.00000000  0.00000000  0.50000000  1
  Cu  Cu12  1  0.50000100  0.00000000  0.50000000  1
