# generated using pymatgen
data_YbAgSb
_symmetry_space_group_name_H-M   'P 1'
_cell_length_a   4.63275741
_cell_length_b   7.70196826
_cell_length_c   8.40349139
_cell_angle_alpha   90.00000000
_cell_angle_beta   90.00000000
_cell_angle_gamma   90.00000000
_symmetry_Int_Tables_number   1
_chemical_formula_structural   YbAgSb
_chemical_formula_sum   'Yb4 Ag4 Sb4'
_cell_volume   299.84792195
_cell_formula_units_Z   4
loop_
 _symmetry_equiv_pos_site_id
 _symmetry_equiv_pos_as_xyz
  1  'x, y, z'
loop_
 _atom_site_type_symbol
 _atom_site_label
 _atom_site_symmetry_multiplicity
 _atom_site_fract_x
 _atom_site_fract_y
 _atom_site_fract_z
 _atom_site_occupancy
  Ag  Ag0  1  0.25000000  0.64490286  0.43381931  1
  Ag  Ag1  1  0.75000000  0.35509714  0.56618069  1
  Ag  Ag2  1  0.25000000  0.14490286  0.06618069  1
  Ag  Ag3  1  0.75000000  0.85509714  0.93381931  1
  Sb  Sb4  1  0.75000000  0.74287721  0.61037768  1
  Sb  Sb5  1  0.25000000  0.25712279  0.38962232  1
  Sb  Sb6  1  0.75000000  0.24287721  0.88962232  1
  Sb  Sb7  1  0.25000000  0.75712279  0.11037768  1
  Yb  Yb8  1  0.25000000  0.51729810  0.80085655  1
  Yb  Yb9  1  0.75000000  0.48270190  0.19914345  1
  Yb  Yb10  1  0.25000000  0.01729810  0.69914345  1
  Yb  Yb11  1  0.75000000  0.98270190  0.30085655  1
