# generated using pymatgen
data_B20H30C3N2
_symmetry_space_group_name_H-M   'P 1'
_cell_length_a   10.46657583
_cell_length_b   11.63818228
_cell_length_c   18.23459222
_cell_angle_alpha   90.00000000
_cell_angle_beta   90.00000000
_cell_angle_gamma   90.00000000
_symmetry_Int_Tables_number   1
_chemical_formula_structural   B20H30C3N2
_chemical_formula_sum   'B80 H120 C12 N8'
_cell_volume   2221.19064054
_cell_formula_units_Z   4
loop_
 _symmetry_equiv_pos_site_id
 _symmetry_equiv_pos_as_xyz
  1  'x, y, z'
loop_
 _atom_site_type_symbol
 _atom_site_label
 _atom_site_symmetry_multiplicity
 _atom_site_fract_x
 _atom_site_fract_y
 _atom_site_fract_z
 _atom_site_occupancy
  B  B0  1  0.71011252  0.31177944  0.36195704  1
  B  B1  1  0.78988748  0.68822056  0.86195704  1
  B  B2  1  0.21011252  0.18822056  0.63804296  1
  B  B3  1  0.28988748  0.81177944  0.13804296  1
  B  B4  1  0.79890726  0.39007317  0.30251577  1
  B  B5  1  0.70109274  0.60992683  0.80251577  1
  B  B6  1  0.29890726  0.10992683  0.69748423  1
  B  B7  1  0.20109274  0.89007317  0.19748423  1
  B  B8  1  0.72029978  0.25018112  0.27256260  1
  B  B9  1  0.77970022  0.74981888  0.77256260  1
  B  B10  1  0.22029978  0.24981888  0.72743740  1
  B  B11  1  0.27970022  0.75018112  0.22743740  1
  B  B12  1  0.57630232  0.31059283  0.30767734  1
  B  B13  1  0.92369768  0.68940717  0.80767734  1
  B  B14  1  0.07630232  0.18940717  0.69232266  1
  B  B15  1  0.42369768  0.81059283  0.19232266  1
  B  B16  1  0.64236500  0.44591504  0.33576757  1
  B  B17  1  0.85763500  0.55408496  0.83576757  1
  B  B18  1  0.14236500  0.05408496  0.66423243  1
  B  B19  1  0.35763500  0.94591504  0.16423243  1
  B  B20  1  0.76625246  0.35616848  0.20757126  1
  B  B21  1  0.73374754  0.64383152  0.70757126  1
  B  B22  1  0.26625246  0.14383152  0.79242874  1
  B  B23  1  0.23374754  0.85616848  0.29242874  1
  B  B24  1  0.60420947  0.30348832  0.21056099  1
  B  B25  1  0.89579053  0.69651168  0.71056099  1
  B  B26  1  0.10420947  0.19651168  0.78943901  1
  B  B27  1  0.39579053  0.80348832  0.28943901  1
  B  B28  1  0.54917771  0.43890381  0.25461647  1
  B  B29  1  0.95082229  0.56109619  0.75461647  1
  B  B30  1  0.04917771  0.06109619  0.74538353  1
  B  B31  1  0.45082229  0.93890381  0.24538353  1
  B  B32  1  0.70803899  0.49680454  0.25228990  1
  B  B33  1  0.79196101  0.50319546  0.75228990  1
  B  B34  1  0.20803899  0.00319546  0.74771010  1
  B  B35  1  0.29196101  0.99680454  0.24771010  1
  B  B36  1  0.64050713  0.43611930  0.17663192  1
  B  B37  1  0.85949287  0.56388070  0.67663192  1
  B  B38  1  0.14050713  0.06388070  0.82336808  1
  B  B39  1  0.35949287  0.93611930  0.32336808  1
  B  B40  1  0.87754231  0.34424988  0.37815064  1
  B  B41  1  0.62245769  0.65575012  0.87815064  1
  B  B42  1  0.37754231  0.15575012  0.62184936  1
  B  B43  1  0.12245769  0.84424988  0.12184936  1
  B  B44  1  0.97145743  0.43073139  0.32786688  1
  B  B45  1  0.52854257  0.56926861  0.82786688  1
  B  B46  1  0.47145743  0.06926861  0.67213312  1
  B  B47  1  0.02854257  0.93073139  0.17213312  1
  B  B48  1  0.93988210  0.45690470  0.42884393  1
  B  B49  1  0.56011790  0.54309530  0.92884393  1
  B  B50  1  0.43988210  0.04309530  0.57115607  1
  B  B51  1  0.06011790  0.95690470  0.07115607  1
  B  B52  1  0.97900964  0.30547224  0.44572839  1
  B  B53  1  0.52099036  0.69452776  0.94572839  1
  B  B54  1  0.47900964  0.19452776  0.55427161  1
  B  B55  1  0.02099036  0.80547224  0.05427161  1
  B  B56  1  0.01889714  0.27694621  0.35045950  1
  B  B57  1  0.48110286  0.72305379  0.85045950  1
  B  B58  1  0.51889714  0.22305379  0.64954050  1
  B  B59  1  0.98110286  0.77694621  0.14954050  1
  B  B60  1  0.08176267  0.51020658  0.38933742  1
  B  B61  1  0.41823733  0.48979342  0.88933742  1
  B  B62  1  0.58176267  0.98979342  0.61066258  1
  B  B63  1  0.91823733  0.01020658  0.11066258  1
  B  B64  1  0.08746168  0.41954507  0.47014499  1
  B  B65  1  0.41253832  0.58045493  0.97014499  1
  B  B66  1  0.58746168  0.08045493  0.52985501  1
  B  B67  1  0.91253832  0.91954507  0.02985501  1
  B  B68  1  0.14260691  0.29507171  0.41556448  1
  B  B69  1  0.35739309  0.70492829  0.91556448  1
  B  B70  1  0.64260691  0.20492829  0.58443552  1
  B  B71  1  0.85739309  0.79507171  0.08443552  1
  B  B72  1  0.13833752  0.37989509  0.33202767  1
  B  B73  1  0.36166248  0.62010491  0.83202767  1
  B  B74  1  0.63833752  0.12010491  0.66797233  1
  B  B75  1  0.86166248  0.87989509  0.16797233  1
  B  B76  1  0.21140927  0.42829706  0.40933042  1
  B  B77  1  0.28859073  0.57170294  0.90933042  1
  B  B78  1  0.71140927  0.07170294  0.59066958  1
  B  B79  1  0.78859073  0.92829706  0.09066958  1
  H  H80  1  0.75877576  0.93870831  0.48700761  1
  H  H81  1  0.74122424  0.06129169  0.98700761  1
  H  H82  1  0.25877576  0.56129169  0.51299239  1
  H  H83  1  0.24122424  0.43870831  0.01299239  1
  H  H84  1  0.84232766  0.76262077  0.53747161  1
  H  H85  1  0.65767234  0.23737923  0.03747161  1
  H  H86  1  0.34232766  0.73737923  0.46252839  1
  H  H87  1  0.15767234  0.26262077  0.96252839  1
  H  H88  1  0.95881880  0.87488595  0.53217677  1
  H  H89  1  0.54118120  0.12511405  0.03217677  1
  H  H90  1  0.45881880  0.62511405  0.46782323  1
  H  H91  1  0.04118120  0.37488595  0.96782323  1
  H  H92  1  0.95803956  0.76120110  0.46473422  1
  H  H93  1  0.54196044  0.23879890  0.96473422  1
  H  H94  1  0.45803956  0.73879890  0.53526578  1
  H  H95  1  0.04196044  0.26120110  0.03526578  1
  H  H96  1  0.95334382  0.01171299  0.43293978  1
  H  H97  1  0.54665618  0.98828701  0.93293978  1
  H  H98  1  0.45334382  0.48828701  0.56706022  1
  H  H99  1  0.04665618  0.51171299  0.06706022  1
  H  H100  1  0.81870205  0.01632889  0.37208914  1
  H  H101  1  0.68129795  0.98367111  0.87208914  1
  H  H102  1  0.31870205  0.48367111  0.62791086  1
  H  H103  1  0.18129795  0.51632889  0.12791086  1
  H  H104  1  0.93629358  0.90477950  0.36254910  1
  H  H105  1  0.56370642  0.09522050  0.86254910  1
  H  H106  1  0.43629358  0.59522050  0.63745090  1
  H  H107  1  0.06370642  0.40477950  0.13745090  1
  H  H108  1  0.67947868  0.74743456  0.44987700  1
  H  H109  1  0.82052132  0.25256544  0.94987700  1
  H  H110  1  0.17947868  0.75256544  0.55012300  1
  H  H111  1  0.32052132  0.24743456  0.05012300  1
  H  H112  1  0.77365964  0.76434216  0.36870349  1
  H  H113  1  0.72634036  0.23565784  0.86870349  1
  H  H114  1  0.27365964  0.73565784  0.63129651  1
  H  H115  1  0.22634036  0.26434216  0.13129651  1
  H  H116  1  0.64527004  0.86264983  0.38712413  1
  H  H117  1  0.85472996  0.13735017  0.88712413  1
  H  H118  1  0.14527004  0.63735017  0.61287587  1
  H  H119  1  0.35472996  0.36264983  0.11287587  1
  H  H120  1  0.44059803  0.16985063  0.31619316  1
  H  H121  1  0.05940197  0.83014937  0.81619316  1
  H  H122  1  0.94059803  0.33014937  0.68380684  1
  H  H123  1  0.55940197  0.66985063  0.18380684  1
  H  H124  1  0.37521000  0.29638734  0.33517944  1
  H  H125  1  0.12479000  0.70361266  0.83517944  1
  H  H126  1  0.87521000  0.20361266  0.66482056  1
  H  H127  1  0.62479000  0.79638734  0.16482056  1
  H  H128  1  0.46658595  0.23231267  0.39637627  1
  H  H129  1  0.03341405  0.76768733  0.89637627  1
  H  H130  1  0.96658595  0.26768733  0.60362373  1
  H  H131  1  0.53341405  0.73231267  0.10362373  1
  H  H132  1  0.69863861  0.26632543  0.42038449  1
  H  H133  1  0.80136139  0.73367457  0.92038449  1
  H  H134  1  0.19863861  0.23367457  0.57961551  1
  H  H135  1  0.30136139  0.76632543  0.07961551  1
  H  H136  1  0.76263587  0.15528542  0.26807890  1
  H  H137  1  0.73736413  0.84471458  0.76807890  1
  H  H138  1  0.26263587  0.34471458  0.73192110  1
  H  H139  1  0.23736413  0.65528542  0.23192110  1
  H  H140  1  0.61721485  0.51046124  0.38464027  1
  H  H141  1  0.88278515  0.48953876  0.88464027  1
  H  H142  1  0.11721485  0.98953876  0.61535973  1
  H  H143  1  0.38278515  0.01046124  0.11535973  1
  H  H144  1  0.85548971  0.33720457  0.16826513  1
  H  H145  1  0.64451029  0.66279543  0.66826513  1
  H  H146  1  0.35548971  0.16279543  0.83173487  1
  H  H147  1  0.14451029  0.83720457  0.33173487  1
  H  H148  1  0.54768881  0.23397840  0.17448184  1
  H  H149  1  0.95231119  0.76602160  0.67448184  1
  H  H150  1  0.04768881  0.26602160  0.82551816  1
  H  H151  1  0.45231119  0.73397840  0.32551816  1
  H  H152  1  0.44563441  0.48285402  0.25588605  1
  H  H153  1  0.05436559  0.51714598  0.75588605  1
  H  H154  1  0.94563441  0.01714598  0.74411395  1
  H  H155  1  0.55436559  0.98285402  0.24411395  1
  H  H156  1  0.75102813  0.59216418  0.24971497  1
  H  H157  1  0.74897187  0.40783582  0.74971497  1
  H  H158  1  0.25102813  0.90783582  0.75028503  1
  H  H159  1  0.24897187  0.09216418  0.25028503  1
  H  H160  1  0.62296979  0.47616200  0.11727194  1
  H  H161  1  0.87703021  0.52383800  0.61727194  1
  H  H162  1  0.12296979  0.02383800  0.88272806  1
  H  H163  1  0.37703021  0.97616200  0.38272806  1
  H  H164  1  0.96311887  0.48821434  0.27320922  1
  H  H165  1  0.53688113  0.51178566  0.77320922  1
  H  H166  1  0.46311887  0.01178566  0.72679078  1
  H  H167  1  0.03688113  0.98821434  0.22679078  1
  H  H168  1  0.86400045  0.52074737  0.45630474  1
  H  H169  1  0.63599955  0.47925263  0.95630474  1
  H  H170  1  0.36400045  0.97925263  0.54369526  1
  H  H171  1  0.13599955  0.02074737  0.04369526  1
  H  H172  1  0.93377533  0.24110070  0.49016596  1
  H  H173  1  0.56622467  0.75889930  0.99016596  1
  H  H174  1  0.43377533  0.25889930  0.50983404  1
  H  H175  1  0.06622467  0.74110070  0.00983404  1
  H  H176  1  0.00904602  0.19414443  0.31209549  1
  H  H177  1  0.49095398  0.80585557  0.81209549  1
  H  H178  1  0.50904602  0.30585557  0.68790451  1
  H  H179  1  0.99095398  0.69414443  0.18790451  1
  H  H180  1  0.09364887  0.61137107  0.37914801  1
  H  H181  1  0.40635113  0.38862893  0.87914801  1
  H  H182  1  0.59364887  0.88862893  0.62085199  1
  H  H183  1  0.90635113  0.11137107  0.12085199  1
  H  H184  1  0.10128448  0.44247270  0.53410753  1
  H  H185  1  0.39871552  0.55752730  0.03410753  1
  H  H186  1  0.60128448  0.05752730  0.46589247  1
  H  H187  1  0.89871552  0.94247270  0.96589247  1
  H  H188  1  0.20492017  0.21260830  0.43208292  1
  H  H189  1  0.29507983  0.78739170  0.93208292  1
  H  H190  1  0.70492017  0.28739170  0.56791708  1
  H  H191  1  0.79507983  0.71260830  0.06791708  1
  H  H192  1  0.19756195  0.37554743  0.27559968  1
  H  H193  1  0.30243805  0.62445257  0.77559968  1
  H  H194  1  0.69756195  0.12445257  0.72440032  1
  H  H195  1  0.80243805  0.87554743  0.22440032  1
  H  H196  1  0.32070566  0.45704289  0.41676472  1
  H  H197  1  0.17929434  0.54295711  0.91676472  1
  H  H198  1  0.82070566  0.04295711  0.58323528  1
  H  H199  1  0.67929434  0.95704289  0.08323528  1
  C  C200  1  0.89921204  0.81579583  0.50029193  1
  C  C201  1  0.60078796  0.18420417  0.00029193  1
  C  C202  1  0.39921204  0.68420417  0.49970807  1
  C  C203  1  0.10078796  0.31579583  0.99970807  1
  C  C204  1  0.88539205  0.96024658  0.40137923  1
  C  C205  1  0.61460795  0.03975342  0.90137923  1
  C  C206  1  0.38539205  0.53975342  0.59862077  1
  C  C207  1  0.11460795  0.46024658  0.09862077  1
  C  C208  1  0.72053593  0.80970993  0.41161780  1
  C  C209  1  0.77946407  0.19029007  0.91161780  1
  C  C210  1  0.22053593  0.69029007  0.58838220  1
  C  C211  1  0.27946407  0.30970993  0.08838220  1
  N  N212  1  0.45751810  0.24774222  0.34103111  1
  N  N213  1  0.04248190  0.75225778  0.84103111  1
  N  N214  1  0.95751810  0.25225778  0.65896889  1
  N  N215  1  0.54248190  0.74774222  0.15896889  1
  N  N216  1  0.81162225  0.88503679  0.45283435  1
  N  N217  1  0.68837775  0.11496321  0.95283435  1
  N  N218  1  0.31162225  0.61496321  0.54716565  1
  N  N219  1  0.18837775  0.38503679  0.04716565  1
