# generated using pymatgen
data_La(Al2Fe)4
_symmetry_space_group_name_H-M   'P 1'
_cell_length_a   5.04370551
_cell_length_b   6.73736720
_cell_length_c   6.73736720
_cell_angle_alpha   98.05402267
_cell_angle_beta   68.01842926
_cell_angle_gamma   111.98157074
_symmetry_Int_Tables_number   1
_chemical_formula_structural   La(Al2Fe)4
_chemical_formula_sum   'La1 Al8 Fe4'
_cell_volume   196.86780696
_cell_formula_units_Z   1
loop_
 _symmetry_equiv_pos_site_id
 _symmetry_equiv_pos_as_xyz
  1  'x, y, z'
loop_
 _atom_site_type_symbol
 _atom_site_label
 _atom_site_symmetry_multiplicity
 _atom_site_fract_x
 _atom_site_fract_y
 _atom_site_fract_z
 _atom_site_occupancy
  La  La0  1  -0.00000000  -0.00000000  -0.00000000  1
  Al  Al1  1  0.50000000  0.22665977  0.22665977  1
  Al  Al2  1  0.27334123  0.77334123  0.22665977  1
  Al  Al3  1  0.00000000  0.34420362  0.34420362  1
  Al  Al4  1  0.65579638  0.65579638  0.34420462  1
  Al  Al5  1  0.00000000  0.65579638  0.65579638  1
  Al  Al6  1  0.34420462  0.34420462  0.65579638  1
  Al  Al7  1  0.50000000  0.77334023  0.77334023  1
  Al  Al8  1  0.72665977  0.22665977  0.77334123  1
  Fe  Fe9  1  0.00000100  0.49999900  0.00000000  1
  Fe  Fe10  1  0.49999900  0.49999900  -0.00000000  1
  Fe  Fe11  1  0.00000000  0.00000000  0.49999900  1
  Fe  Fe12  1  0.50000000  -0.00000000  0.49999900  1
