# generated using pymatgen
data_LuAlPd
_symmetry_space_group_name_H-M   'P 1'
_cell_length_a   7.04026333
_cell_length_b   7.03992668
_cell_length_c   4.02255124
_cell_angle_alpha   90.00000000
_cell_angle_beta   90.00000000
_cell_angle_gamma   120.00158185
_symmetry_Int_Tables_number   1
_chemical_formula_structural   LuAlPd
_chemical_formula_sum   'Lu3 Al3 Pd3'
_cell_volume   172.65626162
_cell_formula_units_Z   3
loop_
 _symmetry_equiv_pos_site_id
 _symmetry_equiv_pos_as_xyz
  1  'x, y, z'
loop_
 _atom_site_type_symbol
 _atom_site_label
 _atom_site_symmetry_multiplicity
 _atom_site_fract_x
 _atom_site_fract_y
 _atom_site_fract_z
 _atom_site_occupancy
  Lu  Lu0  1  0.58668714  0.00000000  0.49999900  1
  Lu  Lu1  1  0.99995896  0.58665036  0.49999900  1
  Lu  Lu2  1  0.41330860  0.41334964  0.49999900  1
  Al  Al3  1  0.24074493  0.00000000  0.00000000  1
  Al  Al4  1  0.99998774  0.24074177  0.00000000  1
  Al  Al5  1  0.75924697  0.75925923  0.00000000  1
  Pd  Pd6  1  0.00012205  0.00000000  0.49999900  1
  Pd  Pd7  1  0.33330548  0.66676435  0.00000000  1
  Pd  Pd8  1  0.66654213  0.33323665  0.00000000  1
