# generated using pymatgen
data_LuIO
_symmetry_space_group_name_H-M   'P 1'
_cell_length_a   3.86016713
_cell_length_b   3.86016713
_cell_length_c   9.89424074
_cell_angle_alpha   90.00000000
_cell_angle_beta   90.00000000
_cell_angle_gamma   90.00000000
_symmetry_Int_Tables_number   1
_chemical_formula_structural   LuIO
_chemical_formula_sum   'Lu2 I2 O2'
_cell_volume   147.43299559
_cell_formula_units_Z   2
loop_
 _symmetry_equiv_pos_site_id
 _symmetry_equiv_pos_as_xyz
  1  'x, y, z'
loop_
 _atom_site_type_symbol
 _atom_site_label
 _atom_site_symmetry_multiplicity
 _atom_site_fract_x
 _atom_site_fract_y
 _atom_site_fract_z
 _atom_site_occupancy
  Lu  Lu0  1  0.75000000  0.75000000  0.39344658  1
  Lu  Lu1  1  0.25000000  0.25000000  0.60655342  1
  I  I2  1  0.25000000  0.25000000  0.19864757  1
  I  I3  1  0.75000000  0.75000000  0.80135243  1
  O  O4  1  0.75000000  0.25000000  0.50000000  1
  O  O5  1  0.25000000  0.75000000  0.50000000  1
