# generated using pymatgen
data_Hf4Co4Ge7
_symmetry_space_group_name_H-M   'P 1'
_cell_length_a   9.68358202
_cell_length_b   9.68358202
_cell_length_c   9.68358202
_cell_angle_alpha   94.12836319
_cell_angle_beta   94.12836319
_cell_angle_gamma   148.87233737
_symmetry_Int_Tables_number   1
_chemical_formula_structural   Hf4Co4Ge7
_chemical_formula_sum   'Hf8 Co8 Ge14'
_cell_volume   452.19931681
_cell_formula_units_Z   2
loop_
 _symmetry_equiv_pos_site_id
 _symmetry_equiv_pos_as_xyz
  1  'x, y, z'
loop_
 _atom_site_type_symbol
 _atom_site_label
 _atom_site_symmetry_multiplicity
 _atom_site_fract_x
 _atom_site_fract_y
 _atom_site_fract_z
 _atom_site_occupancy
  Hf  Hf0  1  0.13872580  0.13872580  0.27745160  1
  Hf  Hf1  1  0.86127320  0.86127320  0.72254740  1
  Hf  Hf2  1  0.86127320  0.13872580  0.00000000  1
  Hf  Hf3  1  0.13872580  0.86127320  -0.00000000  1
  Hf  Hf4  1  0.50000000  0.30507792  0.80507792  1
  Hf  Hf5  1  0.49999900  0.69492008  0.19492108  1
  Hf  Hf6  1  0.69492008  0.49999900  0.19492108  1
  Hf  Hf7  1  0.30507792  0.50000000  0.80507792  1
  Co  Co8  1  0.39895734  0.60104366  0.50000000  1
  Co  Co9  1  0.10104366  0.89895734  0.50000000  1
  Co  Co10  1  0.60104366  0.10104366  0.20208733  1
  Co  Co11  1  0.89895734  0.39895734  0.79791367  1
  Co  Co12  1  0.10104366  0.60104366  0.20208733  1
  Co  Co13  1  0.39895734  0.89895734  0.79791367  1
  Co  Co14  1  0.89895734  0.10104366  0.50000000  1
  Co  Co15  1  0.60104366  0.39895734  0.50000000  1
  Ge  Ge16  1  0.29323107  0.29323107  0.58646214  1
  Ge  Ge17  1  0.70676893  0.70676893  0.41353886  1
  Ge  Ge18  1  0.70676893  0.29322907  0.00000000  1
  Ge  Ge19  1  0.29322907  0.70676893  -0.00000000  1
  Ge  Ge20  1  0.50000000  0.09412834  0.59412734  1
  Ge  Ge21  1  0.49999900  0.90587166  0.40587266  1
  Ge  Ge22  1  0.90587166  0.49999900  0.40587266  1
  Ge  Ge23  1  0.09412834  0.50000000  0.59412734  1
  Ge  Ge24  1  0.00000000  0.29178197  0.29178197  1
  Ge  Ge25  1  -0.00000000  0.70821803  0.70821803  1
  Ge  Ge26  1  0.70821803  -0.00000000  0.70821803  1
  Ge  Ge27  1  0.29178197  0.00000000  0.29178197  1
  Ge  Ge28  1  0.24875438  0.24875438  0.00000000  1
  Ge  Ge29  1  0.75124362  0.75124362  0.00000000  1
