# generated using pymatgen
data_HfTlCuSe3
_symmetry_space_group_name_H-M   'P 1'
_cell_length_a   3.85306472
_cell_length_b   7.69899773
_cell_length_c   10.14654408
_cell_angle_alpha   90.00000000
_cell_angle_beta   90.00000000
_cell_angle_gamma   104.49121627
_symmetry_Int_Tables_number   1
_chemical_formula_structural   HfTlCuSe3
_chemical_formula_sum   'Hf2 Tl2 Cu2 Se6'
_cell_volume   291.41872008
_cell_formula_units_Z   2
loop_
 _symmetry_equiv_pos_site_id
 _symmetry_equiv_pos_as_xyz
  1  'x, y, z'
loop_
 _atom_site_type_symbol
 _atom_site_label
 _atom_site_symmetry_multiplicity
 _atom_site_fract_x
 _atom_site_fract_y
 _atom_site_fract_z
 _atom_site_occupancy
  Cu  Cu0  1  0.46450408  0.92900816  0.75000000  1
  Cu  Cu1  1  0.53549592  0.07099184  0.25000000  1
  Se  Se2  1  0.62351775  0.24703549  0.04876635  1
  Se  Se3  1  0.37648225  0.75296451  0.95123365  1
  Se  Se4  1  0.37648225  0.75296451  0.54876635  1
  Se  Se5  1  0.62351775  0.24703549  0.45123365  1
  Se  Se6  1  0.06656724  0.13313449  0.75000000  1
  Se  Se7  1  0.93343276  0.86686551  0.25000000  1
  Hf  Hf8  1  0.00000000  0.00000000  0.50000000  1
  Hf  Hf9  1  0.00000000  0.00000000  0.00000000  1
  Tl  Tl10  1  0.24813209  0.49626417  0.25000000  1
  Tl  Tl11  1  0.75186791  0.50373583  0.75000000  1
