# generated using pymatgen
data_BaAs2Pt
_symmetry_space_group_name_H-M   'P 1'
_cell_length_a   4.66397727
_cell_length_b   4.74523200
_cell_length_c   9.02258280
_cell_angle_alpha   105.24601846
_cell_angle_beta   90.00000000
_cell_angle_gamma   90.00000000
_symmetry_Int_Tables_number   1
_chemical_formula_structural   BaAs2Pt
_chemical_formula_sum   'Ba2 As4 Pt2'
_cell_volume   192.65689999
_cell_formula_units_Z   2
loop_
 _symmetry_equiv_pos_site_id
 _symmetry_equiv_pos_as_xyz
  1  'x, y, z'
loop_
 _atom_site_type_symbol
 _atom_site_label
 _atom_site_symmetry_multiplicity
 _atom_site_fract_x
 _atom_site_fract_y
 _atom_site_fract_z
 _atom_site_occupancy
  As  As0  1  0.25000000  0.96108187  0.92216375  1
  As  As1  1  0.75000000  0.03891813  0.07783625  1
  As  As2  1  0.75000000  0.74970661  0.49941322  1
  As  As3  1  0.25000000  0.25029339  0.50058678  1
  Ba  Ba4  1  0.25000000  0.60455570  0.20911139  1
  Ba  Ba5  1  0.75000000  0.39544430  0.79088861  1
  Pt  Pt6  1  0.75000000  0.18738474  0.37476949  1
  Pt  Pt7  1  0.25000000  0.81261526  0.62523051  1
