# generated using pymatgen
data_K2SnSe3
_symmetry_space_group_name_H-M   'P 1'
_cell_length_a   7.00642235
_cell_length_b   7.78509617
_cell_length_c   8.88099969
_cell_angle_alpha   76.47111325
_cell_angle_beta   74.98277024
_cell_angle_gamma   67.44074253
_symmetry_Int_Tables_number   1
_chemical_formula_structural   K2SnSe3
_chemical_formula_sum   'K4 Sn2 Se6'
_cell_volume   427.13278716
_cell_formula_units_Z   2
loop_
 _symmetry_equiv_pos_site_id
 _symmetry_equiv_pos_as_xyz
  1  'x, y, z'
loop_
 _atom_site_type_symbol
 _atom_site_label
 _atom_site_symmetry_multiplicity
 _atom_site_fract_x
 _atom_site_fract_y
 _atom_site_fract_z
 _atom_site_occupancy
  K  K0  1  0.38606681  0.79337956  0.89812158  1
  K  K1  1  0.61393319  0.20662044  0.10187842  1
  K  K2  1  0.14486860  0.46952806  0.68438910  1
  K  K3  1  0.85513140  0.53047194  0.31561090  1
  Se  Se4  1  0.65220946  0.40216453  0.71471469  1
  Se  Se5  1  0.76661786  0.95616915  0.45622741  1
  Se  Se6  1  0.86126073  0.81012424  0.92247433  1
  Se  Se7  1  0.34779054  0.59783547  0.28528531  1
  Se  Se8  1  0.13873927  0.18987576  0.07752567  1
  Se  Se9  1  0.23338214  0.04383085  0.54377259  1
  Sn  Sn10  1  0.85011065  0.06291494  0.68720578  1
  Sn  Sn11  1  0.14988935  0.93708506  0.31279422  1
