# generated using pymatgen
data_Hf9CoMo4
_symmetry_space_group_name_H-M   'P 1'
_cell_length_a   8.68450168
_cell_length_b   8.68450034
_cell_length_c   8.41580054
_cell_angle_alpha   90.00000000
_cell_angle_beta   90.00000000
_cell_angle_gamma   120.00128547
_symmetry_Int_Tables_number   1
_chemical_formula_structural   Hf9CoMo4
_chemical_formula_sum   'Hf18 Co2 Mo8'
_cell_volume   549.68030921
_cell_formula_units_Z   2
loop_
 _symmetry_equiv_pos_site_id
 _symmetry_equiv_pos_as_xyz
  1  'x, y, z'
loop_
 _atom_site_type_symbol
 _atom_site_label
 _atom_site_symmetry_multiplicity
 _atom_site_fract_x
 _atom_site_fract_y
 _atom_site_fract_z
 _atom_site_occupancy
  Hf  Hf0  1  0.20150304  0.79849496  0.05821936  1
  Hf  Hf1  1  0.59697845  0.79846781  0.05826160  1
  Hf  Hf2  1  0.79846881  0.59697745  0.55826260  1
  Hf  Hf3  1  0.20153219  0.40302155  0.05826160  1
  Hf  Hf4  1  0.79849596  0.20150504  0.55821936  1
  Hf  Hf5  1  0.40302255  0.20153219  0.55826260  1
  Hf  Hf6  1  0.79846881  0.59697745  0.94173740  1
  Hf  Hf7  1  0.79849596  0.20150504  0.94178064  1
  Hf  Hf8  1  0.40302255  0.20153219  0.94173740  1
  Hf  Hf9  1  0.59697845  0.79846781  0.44173740  1
  Hf  Hf10  1  0.20150304  0.79849496  0.44178064  1
  Hf  Hf11  1  0.20153219  0.40302155  0.44173740  1
  Hf  Hf12  1  0.54204016  0.08402786  0.25000000  1
  Hf  Hf13  1  0.45795984  0.91597214  0.74999900  1
  Hf  Hf14  1  0.91597214  0.45795984  0.25000000  1
  Hf  Hf15  1  0.54203742  0.45796258  0.25000000  1
  Hf  Hf16  1  0.45796258  0.54203742  0.74999900  1
  Hf  Hf17  1  0.08402686  0.54204016  0.74999900  1
  Co  Co18  1  0.66668492  0.33331508  0.74999900  1
  Co  Co19  1  0.33331508  0.66668492  0.25000000  1
  Mo  Mo20  1  -0.00000000  -0.00000000  0.00000000  1
  Mo  Mo21  1  -0.00000000  -0.00000000  0.50000000  1
  Mo  Mo22  1  0.88815500  0.77630767  0.25000000  1
  Mo  Mo23  1  0.11184600  0.22369133  0.74999900  1
  Mo  Mo24  1  0.22369033  0.11184600  0.25000000  1
  Mo  Mo25  1  0.88814950  0.11185050  0.25000000  1
  Mo  Mo26  1  0.11185150  0.88815050  0.74999900  1
  Mo  Mo27  1  0.77630967  0.88815600  0.74999900  1
