# generated using pymatgen
data_Rb3BP2
_symmetry_space_group_name_H-M   'P 1'
_cell_length_a   6.73477454
_cell_length_b   6.73477454
_cell_length_c   9.43387022
_cell_angle_alpha   75.54742128
_cell_angle_beta   75.54742131
_cell_angle_gamma   87.92928437
_symmetry_Int_Tables_number   1
_chemical_formula_structural   Rb3BP2
_chemical_formula_sum   'Rb6 B2 P4'
_cell_volume   401.08440904
_cell_formula_units_Z   2
loop_
 _symmetry_equiv_pos_site_id
 _symmetry_equiv_pos_as_xyz
  1  'x, y, z'
loop_
 _atom_site_type_symbol
 _atom_site_label
 _atom_site_symmetry_multiplicity
 _atom_site_fract_x
 _atom_site_fract_y
 _atom_site_fract_z
 _atom_site_occupancy
  B  B0  1  0.78300120  0.21699880  0.25000000  1
  B  B1  1  0.21699880  0.78300120  0.75000000  1
  P  P2  1  0.90213214  0.34370435  0.35320639  1
  P  P3  1  0.65629565  0.09786786  0.14679361  1
  P  P4  1  0.34370435  0.90213214  0.85320639  1
  P  P5  1  0.09786786  0.65629565  0.64679361  1
  Rb  Rb6  1  0.24347377  0.34521722  0.98080590  1
  Rb  Rb7  1  0.65478278  0.75652623  0.51919410  1
  Rb  Rb8  1  0.75652623  0.65478278  0.01919410  1
  Rb  Rb9  1  0.34521722  0.24347377  0.48080590  1
  Rb  Rb10  1  0.84465224  0.15534776  0.75000000  1
  Rb  Rb11  1  0.15534776  0.84465224  0.25000000  1
