# generated using pymatgen
data_SrCu(SeO3)2
_symmetry_space_group_name_H-M   'P 1'
_cell_length_a   4.84677315
_cell_length_b   4.84677314
_cell_length_c   15.09780129
_cell_angle_alpha   90.84481438
_cell_angle_beta   90.84481439
_cell_angle_gamma   65.27074180
_symmetry_Int_Tables_number   1
_chemical_formula_structural   SrCu(SeO3)2
_chemical_formula_sum   'Sr2 Cu2 Se4 O12'
_cell_volume   322.09151367
_cell_formula_units_Z   2
loop_
 _symmetry_equiv_pos_site_id
 _symmetry_equiv_pos_as_xyz
  1  'x, y, z'
loop_
 _atom_site_type_symbol
 _atom_site_label
 _atom_site_symmetry_multiplicity
 _atom_site_fract_x
 _atom_site_fract_y
 _atom_site_fract_z
 _atom_site_occupancy
  O  O0  1  0.75095005  0.16044765  0.39425281  1
  O  O1  1  0.83955235  0.24904995  0.10574719  1
  O  O2  1  0.24904995  0.83955235  0.60574719  1
  O  O3  1  0.16044765  0.75095005  0.89425281  1
  O  O4  1  0.31835640  0.73462960  0.41821411  1
  O  O5  1  0.26537040  0.68164360  0.08178589  1
  O  O6  1  0.68164360  0.26537040  0.58178589  1
  O  O7  1  0.73462960  0.31835640  0.91821411  1
  O  O8  1  0.36419518  0.24181156  0.79948670  1
  O  O9  1  0.75818844  0.63580482  0.70051330  1
  O  O10  1  0.63580482  0.75818844  0.20051330  1
  O  O11  1  0.24181156  0.36419518  0.29948670  1
  Cu  Cu12  1  0.00000000  0.00000000  0.50000000  1
  Cu  Cu13  1  0.00000000  0.00000000  0.00000000  1
  Se  Se14  1  0.35681999  0.35726307  0.40637209  1
  Se  Se15  1  0.35726307  0.35681999  0.90637209  1
  Se  Se16  1  0.64273693  0.64318001  0.09362791  1
  Se  Se17  1  0.64318001  0.64273693  0.59362791  1
  Sr  Sr18  1  0.05966845  0.94033155  0.25000000  1
  Sr  Sr19  1  0.94033155  0.05966845  0.75000000  1
