# generated using pymatgen
data_Ho2Co3Si5
_symmetry_space_group_name_H-M   'P 1'
_cell_length_a   7.87289241
_cell_length_b   7.87289241
_cell_length_c   7.87289241
_cell_angle_alpha   105.49971995
_cell_angle_beta   88.74041678
_cell_angle_gamma   139.00339366
_symmetry_Int_Tables_number   1
_chemical_formula_structural   Ho2Co3Si5
_chemical_formula_sum   'Ho4 Co6 Si10'
_cell_volume   295.75237305
_cell_formula_units_Z   2
loop_
 _symmetry_equiv_pos_site_id
 _symmetry_equiv_pos_as_xyz
  1  'x, y, z'
loop_
 _atom_site_type_symbol
 _atom_site_label
 _atom_site_symmetry_multiplicity
 _atom_site_fract_x
 _atom_site_fract_y
 _atom_site_fract_z
 _atom_site_occupancy
  Ho  Ho0  1  0.86547665  0.73327014  0.59874879  1
  Ho  Ho1  1  0.36547665  0.76672886  0.13220651  1
  Ho  Ho2  1  0.63452235  0.23327114  0.86779349  1
  Ho  Ho3  1  0.13452235  0.26672886  0.40125221  1
  Co  Co4  1  0.25000100  0.25000100  -0.00000000  1
  Co  Co5  1  0.75000000  0.75000000  -0.00000000  1
  Co  Co6  1  0.86167887  0.39169447  0.25337534  1
  Co  Co7  1  0.63832013  0.89169447  0.53001559  1
  Co  Co8  1  0.36167987  0.10830453  0.46998441  1
  Co  Co9  1  0.13832013  0.60830353  0.74662366  1
  Si  Si10  1  0.02425039  0.24999900  0.77425139  1
  Si  Si11  1  0.97574761  0.75000000  0.22574761  1
  Si  Si12  1  0.52425239  0.75000100  0.77425139  1
  Si  Si13  1  0.10019059  0.84079326  0.94098384  1
  Si  Si14  1  0.89980941  0.15920574  0.05901616  1
  Si  Si15  1  0.25000100  0.75000100  0.50000000  1
  Si  Si16  1  0.75000100  0.25000100  0.50000000  1
  Si  Si17  1  0.39980941  0.34079326  0.74060367  1
  Si  Si18  1  0.60018959  0.65920674  0.25939833  1
  Si  Si19  1  0.47574861  0.25000100  0.22574761  1
