# generated using pymatgen
data_Ho(CuO2)2
_symmetry_space_group_name_H-M   'P 1'
_cell_length_a   5.67375878
_cell_length_b   5.67363207
_cell_length_c   6.26001823
_cell_angle_alpha   116.90684534
_cell_angle_beta   116.90749659
_cell_angle_gamma   90.07875816
_symmetry_Int_Tables_number   1
_chemical_formula_structural   Ho(CuO2)2
_chemical_formula_sum   'Ho2 Cu4 O8'
_cell_volume   154.76554505
_cell_formula_units_Z   2
loop_
 _symmetry_equiv_pos_site_id
 _symmetry_equiv_pos_as_xyz
  1  'x, y, z'
loop_
 _atom_site_type_symbol
 _atom_site_label
 _atom_site_symmetry_multiplicity
 _atom_site_fract_x
 _atom_site_fract_y
 _atom_site_fract_z
 _atom_site_occupancy
  O  O0  1  0.72118719  0.52910694  0.85507051  1
  O  O1  1  0.13388332  0.82596357  0.85507051  1
  O  O2  1  0.27881281  0.47089306  0.14492949  1
  O  O3  1  0.86611668  0.17403643  0.14492949  1
  O  O4  1  0.52954071  0.13404457  0.35498046  1
  O  O5  1  0.82543975  0.72093589  0.35498046  1
  O  O6  1  0.17456025  0.27906411  0.64501954  1
  O  O7  1  0.47045929  0.86595543  0.64501954  1
  Cu  Cu8  1  0.50000000  0.00000000  0.00000000  1
  Cu  Cu9  1  0.50000000  0.50000000  0.00000000  1
  Cu  Cu10  1  0.00000000  0.50000000  0.50000000  1
  Cu  Cu11  1  0.50000000  0.50000000  0.50000000  1
  Ho  Ho12  1  0.87499216  0.12499216  0.74998433  1
  Ho  Ho13  1  0.12500784  0.87500784  0.25001567  1
