# generated using pymatgen
data_Hf3Si3Ni2
_symmetry_space_group_name_H-M   'P 1'
_cell_length_a   3.84207336
_cell_length_b   5.29393776
_cell_length_c   12.91736416
_cell_angle_alpha   90.00000000
_cell_angle_beta   90.00000000
_cell_angle_gamma   111.27685351
_symmetry_Int_Tables_number   1
_chemical_formula_structural   Hf3Si3Ni2
_chemical_formula_sum   'Hf6 Si6 Ni4'
_cell_volume   244.82668770
_cell_formula_units_Z   2
loop_
 _symmetry_equiv_pos_site_id
 _symmetry_equiv_pos_as_xyz
  1  'x, y, z'
loop_
 _atom_site_type_symbol
 _atom_site_label
 _atom_site_symmetry_multiplicity
 _atom_site_fract_x
 _atom_site_fract_y
 _atom_site_fract_z
 _atom_site_occupancy
  Si  Si0  1  0.16048721  0.32097443  0.25000000  1
  Si  Si1  1  0.83951279  0.67902557  0.75000000  1
  Si  Si2  1  0.11147366  0.22294732  0.54070002  1
  Si  Si3  1  0.88852634  0.77705268  0.45929998  1
  Si  Si4  1  0.88852634  0.77705268  0.04070002  1
  Si  Si5  1  0.11147366  0.22294732  0.95929998  1
  Ni  Ni6  1  0.71910577  0.43821154  0.91132495  1
  Ni  Ni7  1  0.28089423  0.56178846  0.08867505  1
  Ni  Ni8  1  0.28089423  0.56178846  0.41132495  1
  Ni  Ni9  1  0.71910577  0.43821154  0.58867505  1
  Hf  Hf10  1  0.86596673  0.73193347  0.25000000  1
  Hf  Hf11  1  0.13403327  0.26806653  0.75000000  1
  Hf  Hf12  1  0.42738859  0.85477717  0.61801111  1
  Hf  Hf13  1  0.57261141  0.14522283  0.38198889  1
  Hf  Hf14  1  0.57261141  0.14522283  0.11801111  1
  Hf  Hf15  1  0.42738859  0.85477717  0.88198889  1
