# generated using pymatgen
data_KAlPO5
_symmetry_space_group_name_H-M   'P 1'
_cell_length_a   6.34004881
_cell_length_b   10.23878850
_cell_length_c   12.79641130
_cell_angle_alpha   90.00000000
_cell_angle_beta   90.00000000
_cell_angle_gamma   90.00000000
_symmetry_Int_Tables_number   1
_chemical_formula_structural   KAlPO5
_chemical_formula_sum   'K8 Al8 P8 O40'
_cell_volume   830.67160284
_cell_formula_units_Z   8
loop_
 _symmetry_equiv_pos_site_id
 _symmetry_equiv_pos_as_xyz
  1  'x, y, z'
loop_
 _atom_site_type_symbol
 _atom_site_label
 _atom_site_symmetry_multiplicity
 _atom_site_fract_x
 _atom_site_fract_y
 _atom_site_fract_z
 _atom_site_occupancy
  K  K0  1  0.46274039  0.34724829  0.85536134  1
  K  K1  1  0.46274039  0.65275171  0.64463866  1
  K  K2  1  0.03725961  0.15275171  0.85536134  1
  K  K3  1  0.03725961  0.84724829  0.64463866  1
  K  K4  1  0.53725961  0.65275171  0.14463866  1
  K  K5  1  0.53725961  0.34724829  0.35536134  1
  K  K6  1  0.96274039  0.84724829  0.14463866  1
  K  K7  1  0.96274039  0.15275171  0.35536134  1
  Al  Al8  1  0.75000000  0.25000000  0.63068880  1
  Al  Al9  1  0.75000000  0.75000000  0.86931120  1
  Al  Al10  1  0.25000000  0.75000000  0.36931120  1
  Al  Al11  1  0.25000000  0.25000000  0.13068880  1
  Al  Al12  1  0.50000000  -0.00000000  0.00000000  1
  Al  Al13  1  0.50000000  -0.00000000  0.50000000  1
  Al  Al14  1  -0.00000000  0.50000000  0.00000000  1
  Al  Al15  1  -0.00000000  0.50000000  0.50000000  1
  P  P16  1  0.75000000  0.25000000  0.06907795  1
  P  P17  1  0.75000000  0.75000000  0.43092205  1
  P  P18  1  0.25000000  0.75000000  0.93092205  1
  P  P19  1  0.25000000  0.25000000  0.56907795  1
  P  P20  1  0.57097663  -0.00000000  0.75000000  1
  P  P21  1  0.92902337  0.50000000  0.75000000  1
  P  P22  1  0.42902337  -0.00000000  0.25000000  1
  P  P23  1  0.07097663  0.50000000  0.25000000  1
  O  O24  1  0.43456978  0.02507609  0.84828449  1
  O  O25  1  0.43456978  0.97492391  0.65171551  1
  O  O26  1  0.06543022  0.47492391  0.84828449  1
  O  O27  1  0.06543022  0.52507609  0.65171551  1
  O  O28  1  0.56543022  0.97492391  0.15171551  1
  O  O29  1  0.56543022  0.02507609  0.34828449  1
  O  O30  1  0.93456978  0.52507609  0.15171551  1
  O  O31  1  0.93456978  0.47492391  0.34828449  1
  O  O32  1  0.69319200  0.13633456  0.99301752  1
  O  O33  1  0.69319200  0.86366544  0.50698248  1
  O  O34  1  0.80680800  0.36366544  0.99301752  1
  O  O35  1  0.80680800  0.63633456  0.50698248  1
  O  O36  1  0.30680800  0.86366544  0.00698248  1
  O  O37  1  0.30680800  0.13633456  0.49301752  1
  O  O38  1  0.19319200  0.63633456  0.00698248  1
  O  O39  1  0.19319200  0.36366544  0.49301752  1
  O  O40  1  0.44168464  0.28904271  0.63651898  1
  O  O41  1  0.44168464  0.71095729  0.86348102  1
  O  O42  1  0.05831536  0.21095729  0.63651898  1
  O  O43  1  0.05831536  0.78904271  0.86348102  1
  O  O44  1  0.55831536  0.71095729  0.36348102  1
  O  O45  1  0.55831536  0.28904271  0.13651898  1
  O  O46  1  0.94168464  0.78904271  0.36348102  1
  O  O47  1  0.94168464  0.21095729  0.13651898  1
  O  O48  1  0.71639295  0.12012027  0.73220816  1
  O  O49  1  0.71639295  0.87987973  0.76779184  1
  O  O50  1  0.78360705  0.37987973  0.73220816  1
  O  O51  1  0.78360705  0.62012027  0.76779184  1
  O  O52  1  0.28360705  0.87987973  0.26779184  1
  O  O53  1  0.28360705  0.12012027  0.23220816  1
  O  O54  1  0.21639295  0.62012027  0.26779184  1
  O  O55  1  0.21639295  0.37987973  0.23220816  1
  O  O56  1  0.28800477  0.12606925  0.02554594  1
  O  O57  1  0.28800477  0.87393075  0.47445406  1
  O  O58  1  0.21199523  0.37393075  0.02554594  1
  O  O59  1  0.21199523  0.62606925  0.47445406  1
  O  O60  1  0.71199523  0.87393075  0.97445406  1
  O  O61  1  0.71199523  0.12606925  0.52554594  1
  O  O62  1  0.78800477  0.62606925  0.97445406  1
  O  O63  1  0.78800477  0.37393075  0.52554594  1
