# generated using pymatgen
data_Cr(CuO3)2
_symmetry_space_group_name_H-M   'P 1'
_cell_length_a   5.14178430
_cell_length_b   5.80738590
_cell_length_c   14.42726522
_cell_angle_alpha   83.40881745
_cell_angle_beta   90.00000000
_cell_angle_gamma   90.00000000
_symmetry_Int_Tables_number   1
_chemical_formula_structural   Cr(CuO3)2
_chemical_formula_sum   'Cr4 Cu8 O24'
_cell_volume   427.95542114
_cell_formula_units_Z   4
loop_
 _symmetry_equiv_pos_site_id
 _symmetry_equiv_pos_as_xyz
  1  'x, y, z'
loop_
 _atom_site_type_symbol
 _atom_site_label
 _atom_site_symmetry_multiplicity
 _atom_site_fract_x
 _atom_site_fract_y
 _atom_site_fract_z
 _atom_site_occupancy
  Cr  Cr0  1  0.54774738  0.72199555  0.12388160  1
  Cr  Cr1  1  0.04774738  0.77800445  0.37611840  1
  Cr  Cr2  1  0.45225262  0.27800445  0.87611840  1
  Cr  Cr3  1  0.95225262  0.22199555  0.62388160  1
  Cu  Cu4  1  0.50000000  0.50000000  0.50000000  1
  Cu  Cu5  1  -0.00000000  0.00000000  -0.00000000  1
  Cu  Cu6  1  0.50000000  0.00000000  0.50000000  1
  Cu  Cu7  1  -0.00000000  0.50000000  -0.00000000  1
  Cu  Cu8  1  0.73044103  0.31841250  0.32066336  1
  Cu  Cu9  1  0.23044103  0.18158750  0.17933664  1
  Cu  Cu10  1  0.26955897  0.68158750  0.67933664  1
  Cu  Cu11  1  0.76955897  0.81841250  0.82066336  1
  O  O12  1  0.88658747  0.52496304  0.40219795  1
  O  O13  1  0.38658747  0.97503696  0.09780205  1
  O  O14  1  0.11341253  0.47503696  0.59780205  1
  O  O15  1  0.61341253  0.02496304  0.90219795  1
  O  O16  1  0.58180636  0.65553827  0.23455690  1
  O  O17  1  0.08180636  0.84446173  0.26544310  1
  O  O18  1  0.41819364  0.34446173  0.76544310  1
  O  O19  1  0.91819364  0.15553827  0.73455690  1
  O  O20  1  0.86341729  0.73401142  0.07214486  1
  O  O21  1  0.36341729  0.76598858  0.42785514  1
  O  O22  1  0.13658271  0.26598858  0.92785514  1
  O  O23  1  0.63658271  0.23401142  0.57214486  1
  O  O24  1  0.38284012  0.51607469  0.08269121  1
  O  O25  1  0.88284012  0.98392531  0.41730879  1
  O  O26  1  0.61715988  0.48392531  0.91730879  1
  O  O27  1  0.11715988  0.01607469  0.58269121  1
  O  O28  1  0.45644179  0.28044986  0.41336052  1
  O  O29  1  0.95644179  0.21955014  0.08663948  1
  O  O30  1  0.54355821  0.71955014  0.58663948  1
  O  O31  1  0.04355821  0.78044986  0.91336052  1
  O  O32  1  0.04935851  0.34845516  0.25670218  1
  O  O33  1  0.54935851  0.15154484  0.24329782  1
  O  O34  1  0.95064149  0.65154484  0.74329782  1
  O  O35  1  0.45064149  0.84845516  0.75670218  1
