# generated using pymatgen
data_K3NpO2F5
_symmetry_space_group_name_H-M   'P 1'
_cell_length_a   9.28331419
_cell_length_b   9.28331418
_cell_length_c   11.29458938
_cell_angle_alpha   114.26533640
_cell_angle_beta   114.26533642
_cell_angle_gamma   89.99999996
_symmetry_Int_Tables_number   1
_chemical_formula_structural   K3NpO2F5
_chemical_formula_sum   'K12 Np4 O8 F20'
_cell_volume   792.09517081
_cell_formula_units_Z   4
loop_
 _symmetry_equiv_pos_site_id
 _symmetry_equiv_pos_as_xyz
  1  'x, y, z'
loop_
 _atom_site_type_symbol
 _atom_site_label
 _atom_site_symmetry_multiplicity
 _atom_site_fract_x
 _atom_site_fract_y
 _atom_site_fract_z
 _atom_site_occupancy
  O  O0  1  0.64418074  0.16046374  0.20662086  1
  O  O1  1  0.04615713  0.14418074  0.70662086  1
  O  O2  1  0.66046374  0.06244013  0.70662086  1
  O  O3  1  0.56244013  0.54615713  0.20662086  1
  O  O4  1  0.35581926  0.83953626  0.79337914  1
  O  O5  1  0.95384287  0.85581926  0.29337914  1
  O  O6  1  0.33953626  0.93755987  0.29337914  1
  O  O7  1  0.43755987  0.45384287  0.79337914  1
  F  F8  1  0.12635130  0.55750661  0.70967661  1
  F  F9  1  0.15217001  0.62635130  0.20967661  1
  F  F10  1  0.05750661  0.08332531  0.20967661  1
  F  F11  1  0.58332531  0.65217001  0.70967661  1
  F  F12  1  0.87364870  0.44249339  0.29032339  1
  F  F13  1  0.84782999  0.37364870  0.79032339  1
  F  F14  1  0.94249339  0.91667469  0.79032339  1
  F  F15  1  0.41667469  0.34782999  0.29032339  1
  F  F16  1  0.27035756  0.52035756  0.54071512  1
  F  F17  1  0.02035756  0.77035756  0.04071512  1
  F  F18  1  0.72964244  0.47964244  0.45928488  1
  F  F19  1  0.97964244  0.22964244  0.95928488  1
  F  F20  1  0.36242142  0.23626118  0.01157786  1
  F  F21  1  0.77531668  0.86242142  0.51157786  1
  F  F22  1  0.73626118  0.14915644  0.51157786  1
  F  F23  1  0.64915644  0.27531668  0.01157786  1
  F  F24  1  0.63757858  0.76373882  0.98842214  1
  F  F25  1  0.22468332  0.13757858  0.48842214  1
  F  F26  1  0.26373882  0.85084356  0.48842214  1
  F  F27  1  0.35084356  0.72468332  0.98842214  1
  K  K28  1  0.19865222  0.47310572  0.97654946  1
  K  K29  1  0.50344374  0.69865222  0.47654946  1
  K  K30  1  0.97310572  0.27789724  0.47654946  1
  K  K31  1  0.77789724  0.00344374  0.97654946  1
  K  K32  1  0.80134778  0.52689428  0.02345054  1
  K  K33  1  0.49655626  0.30134778  0.52345054  1
  K  K34  1  0.02689428  0.72210276  0.52345054  1
  K  K35  1  0.22210276  0.99655626  0.02345054  1
  K  K36  1  0.37500000  0.12500000  0.75000000  1
  K  K37  1  0.62500000  0.87500000  0.25000000  1
  K  K38  1  0.87500000  0.62500000  0.75000000  1
  K  K39  1  0.12500000  0.37500000  0.25000000  1
  Np  Np40  1  0.85374506  0.10374506  0.70749012  1
  Np  Np41  1  0.60374506  0.35374506  0.20749012  1
  Np  Np42  1  0.14625494  0.89625494  0.29250988  1
  Np  Np43  1  0.39625494  0.64625494  0.79250988  1
