# generated using pymatgen
data_NaZnMoO5
_symmetry_space_group_name_H-M   'P 1'
_cell_length_a   6.19666727
_cell_length_b   7.98380186
_cell_length_c   9.37001216
_cell_angle_alpha   90.00000000
_cell_angle_beta   90.00000000
_cell_angle_gamma   90.00000000
_symmetry_Int_Tables_number   1
_chemical_formula_structural   NaZnMoO5
_chemical_formula_sum   'Na4 Zn4 Mo4 O20'
_cell_volume   463.56227124
_cell_formula_units_Z   4
loop_
 _symmetry_equiv_pos_site_id
 _symmetry_equiv_pos_as_xyz
  1  'x, y, z'
loop_
 _atom_site_type_symbol
 _atom_site_label
 _atom_site_symmetry_multiplicity
 _atom_site_fract_x
 _atom_site_fract_y
 _atom_site_fract_z
 _atom_site_occupancy
  Na  Na0  1  0.65725375  0.85899549  0.18499623  1
  Na  Na1  1  0.15725375  0.14100451  0.81500377  1
  Na  Na2  1  0.15725375  0.64100451  0.68499623  1
  Na  Na3  1  0.65725375  0.35899549  0.31500377  1
  Zn  Zn4  1  0.40472179  0.01007510  0.49619235  1
  Zn  Zn5  1  0.90472179  0.98992490  0.50380765  1
  Zn  Zn6  1  0.90472179  0.48992490  0.99619235  1
  Zn  Zn7  1  0.40472179  0.51007510  0.00380765  1
  Mo  Mo8  1  0.15248976  0.62214838  0.32629426  1
  Mo  Mo9  1  0.65248976  0.37785162  0.67370574  1
  Mo  Mo10  1  0.65248976  0.87785162  0.82629426  1
  Mo  Mo11  1  0.15248976  0.12214838  0.17370574  1
  O  O12  1  0.91095938  0.60726801  0.22059171  1
  O  O13  1  0.41095938  0.39273199  0.77940829  1
  O  O14  1  0.41095938  0.89273199  0.72059171  1
  O  O15  1  0.91095938  0.10726801  0.27940829  1
  O  O16  1  0.39165204  0.61263095  0.21351376  1
  O  O17  1  0.89165204  0.38736905  0.78648624  1
  O  O18  1  0.89165204  0.88736905  0.71351376  1
  O  O19  1  0.39165204  0.11263095  0.28648624  1
  O  O20  1  0.15777739  0.95286453  0.05330451  1
  O  O21  1  0.65777739  0.04713547  0.94669549  1
  O  O22  1  0.65777739  0.54713547  0.55330451  1
  O  O23  1  0.15777739  0.45286453  0.44669549  1
  O  O24  1  0.64919129  0.38338557  0.06916577  1
  O  O25  1  0.14919129  0.61661443  0.93083423  1
  O  O26  1  0.14919129  0.11661443  0.56916577  1
  O  O27  1  0.64919129  0.88338557  0.43083423  1
  O  O28  1  0.15104460  0.81207548  0.43583414  1
  O  O29  1  0.65104460  0.18792452  0.56416586  1
  O  O30  1  0.65104460  0.68792452  0.93583414  1
  O  O31  1  0.15104460  0.31207548  0.06416586  1
