# generated using pymatgen
data_ErZnAsO
_symmetry_space_group_name_H-M   'P 1'
_cell_length_a   3.93512956
_cell_length_b   3.93512956
_cell_length_c   8.87645265
_cell_angle_alpha   90.00000000
_cell_angle_beta   90.00000000
_cell_angle_gamma   90.00000000
_symmetry_Int_Tables_number   1
_chemical_formula_structural   ErZnAsO
_chemical_formula_sum   'Er2 Zn2 As2 O2'
_cell_volume   137.45404094
_cell_formula_units_Z   2
loop_
 _symmetry_equiv_pos_site_id
 _symmetry_equiv_pos_as_xyz
  1  'x, y, z'
loop_
 _atom_site_type_symbol
 _atom_site_label
 _atom_site_symmetry_multiplicity
 _atom_site_fract_x
 _atom_site_fract_y
 _atom_site_fract_z
 _atom_site_occupancy
  Er  Er0  1  0.25000000  0.25000000  0.12054940  1
  Er  Er1  1  0.74999900  0.74999900  0.87944960  1
  Zn  Zn2  1  0.74999900  0.25000000  0.50000000  1
  Zn  Zn3  1  0.25000000  0.74999900  0.50000000  1
  As  As4  1  0.74999900  0.74999900  0.31442448  1
  As  As5  1  0.25000000  0.25000000  0.68557552  1
  O  O6  1  0.74999900  0.25000000  0.00000000  1
  O  O7  1  0.25000000  0.74999900  0.00000000  1
