# generated using pymatgen
data_InGe2P(H3C)8
_symmetry_space_group_name_H-M   'P 1'
_cell_length_a   9.81348182
_cell_length_b   10.29702862
_cell_length_c   10.35824366
_cell_angle_alpha   77.22142054
_cell_angle_beta   80.44899478
_cell_angle_gamma   64.14891344
_symmetry_Int_Tables_number   1
_chemical_formula_structural   InGe2P(H3C)8
_chemical_formula_sum   'In2 Ge4 P2 H48 C16'
_cell_volume   915.74120325
_cell_formula_units_Z   2
loop_
 _symmetry_equiv_pos_site_id
 _symmetry_equiv_pos_as_xyz
  1  'x, y, z'
loop_
 _atom_site_type_symbol
 _atom_site_label
 _atom_site_symmetry_multiplicity
 _atom_site_fract_x
 _atom_site_fract_y
 _atom_site_fract_z
 _atom_site_occupancy
  In  In0  1  0.96353443  0.35733086  0.92965007  1
  In  In1  1  0.03646557  0.64266914  0.07034993  1
  Ge  Ge2  1  0.75118310  0.80780759  0.76352905  1
  Ge  Ge3  1  0.24881690  0.19219241  0.23647095  1
  Ge  Ge4  1  0.17279014  0.63063931  0.66541858  1
  Ge  Ge5  1  0.82720986  0.36936069  0.33458142  1
  P  P6  1  0.98250905  0.61616996  0.83329209  1
  P  P7  1  0.01749095  0.38383004  0.16670791  1
  H  H8  1  0.58274550  0.70229928  0.92114062  1
  H  H9  1  0.41725450  0.29770072  0.07885938  1
  H  H10  1  0.61953002  0.82292083  0.99736147  1
  H  H11  1  0.38046998  0.17707917  0.00263853  1
  H  H12  1  0.48403592  0.89592758  0.87526409  1
  H  H13  1  0.51596408  0.10407242  0.12473591  1
  H  H14  1  0.84476402  0.00602590  0.65114035  1
  H  H15  1  0.15523598  0.99397410  0.34885965  1
  H  H16  1  0.64802170  0.08579855  0.70646287  1
  H  H17  1  0.35197830  0.91420145  0.29353713  1
  H  H18  1  0.78821594  0.01901670  0.82291457  1
  H  H19  1  0.21178406  0.98098330  0.17708543  1
  H  H20  1  0.67845756  0.68005879  0.61683958  1
  H  H21  1  0.32154244  0.31994121  0.38316042  1
  H  H22  1  0.57780625  0.87408248  0.58083588  1
  H  H23  1  0.42219375  0.12591752  0.41916412  1
  H  H24  1  0.77050027  0.78833203  0.51604403  1
  H  H25  1  0.22949973  0.21166797  0.48395597  1
  H  H26  1  0.01589108  0.76380214  0.46223463  1
  H  H27  1  0.98410892  0.23619786  0.53776537  1
  H  H28  1  0.21064634  0.66329763  0.41398451  1
  H  H29  1  0.78935366  0.33670237  0.58601549  1
  H  H30  1  0.09007840  0.56983589  0.47047317  1
  H  H31  1  0.90992160  0.43016411  0.52952683  1
  H  H32  1  0.12691604  0.89800618  0.65857735  1
  H  H33  1  0.87308396  0.10199382  0.34142265  1
  H  H34  1  0.26369889  0.77741294  0.77357790  1
  H  H35  1  0.73630111  0.22258706  0.22642210  1
  H  H36  1  0.31740974  0.79247638  0.59960187  1
  H  H37  1  0.68259026  0.20752362  0.40039813  1
  H  H38  1  0.39443039  0.42739879  0.78983180  1
  H  H39  1  0.60556961  0.57260121  0.21016820  1
  H  H40  1  0.33182295  0.35489689  0.68032561  1
  H  H41  1  0.66817705  0.64510311  0.31967439  1
  H  H42  1  0.44515286  0.45499113  0.61556733  1
  H  H43  1  0.55484714  0.54500887  0.38443267  1
  H  H44  1  0.25713469  0.16334488  0.85376560  1
  H  H45  1  0.74286531  0.83665512  0.14623440  1
  H  H46  1  0.13944744  0.06629108  0.90936951  1
  H  H47  1  0.86055256  0.93370892  0.09063049  1
  H  H48  1  0.12672023  0.17192414  0.74725390  1
  H  H49  1  0.87327977  0.82807586  0.25274610  1
  H  H50  1  0.64631455  0.47631740  0.96678669  1
  H  H51  1  0.35368545  0.52368260  0.03321331  1
  H  H52  1  0.70717233  0.38850889  0.82383582  1
  H  H53  1  0.29282767  0.61149111  0.17616418  1
  H  H54  1  0.71863019  0.28212724  0.98537087  1
  H  H55  1  0.28136981  0.71787276  0.01462913  1
  C  C56  1  0.59257708  0.80675971  0.90523910  1
  C  C57  1  0.40742292  0.19324029  0.09476090  1
  C  C58  1  0.75987489  0.99972138  0.73287830  1
  C  C59  1  0.24012511  0.00027862  0.26712170  1
  C  C60  1  0.68933096  0.78390049  0.60181793  1
  C  C61  1  0.31066904  0.21609951  0.39818207  1
  C  C62  1  0.11474497  0.65976285  0.48452619  1
  C  C63  1  0.88525503  0.34023715  0.51547381  1
  C  C64  1  0.22514580  0.79199657  0.67574637  1
  C  C65  1  0.77485420  0.20800343  0.32425363  1
  C  C66  1  0.35532364  0.44662934  0.69132526  1
  C  C67  1  0.64467636  0.55337066  0.30867474  1
  C  C68  1  0.14459736  0.16755072  0.85040939  1
  C  C69  1  0.85540264  0.83244928  0.14959061  1
  C  C70  1  0.73055660  0.38010128  0.92636009  1
  C  C71  1  0.26944340  0.61989872  0.07363991  1
