# generated using pymatgen
data_YB4Os
_symmetry_space_group_name_H-M   'P 1'
_cell_length_a   5.97825193
_cell_length_b   11.56774396
_cell_length_c   3.57084356
_cell_angle_alpha   90.00001842
_cell_angle_beta   90.00003756
_cell_angle_gamma   90.00027001
_symmetry_Int_Tables_number   1
_chemical_formula_structural   YB4Os
_chemical_formula_sum   'Y4 B16 Os4'
_cell_volume   246.94128522
_cell_formula_units_Z   4
loop_
 _symmetry_equiv_pos_site_id
 _symmetry_equiv_pos_as_xyz
  1  'x, y, z'
loop_
 _atom_site_type_symbol
 _atom_site_label
 _atom_site_symmetry_multiplicity
 _atom_site_fract_x
 _atom_site_fract_y
 _atom_site_fract_z
 _atom_site_occupancy
  Y  Y0  1  0.12813586  0.14984412  0.00000029  1
  Y  Y1  1  0.87186380  0.85015515  0.00000020  1
  Y  Y2  1  0.62813712  0.35015666  0.00000008  1
  Y  Y3  1  0.37186243  0.64984444  0.99999997  1
  B  B4  1  0.47472174  0.19142652  0.50000097  1
  B  B5  1  0.52527733  0.80857394  0.50000080  1
  B  B6  1  0.97472272  0.30857598  0.50000096  1
  B  B7  1  0.02527781  0.69142510  0.50000060  1
  B  B8  1  0.28871247  0.31427335  0.50000080  1
  B  B9  1  0.71128670  0.68572710  0.50000086  1
  B  B10  1  0.78871513  0.18572772  0.50000075  1
  B  B11  1  0.21128494  0.81427223  0.50000069  1
  B  B12  1  0.36360977  0.46976176  0.50000074  1
  B  B13  1  0.63638930  0.53023745  0.50000129  1
  B  B14  1  0.86361130  0.03023827  0.50000097  1
  B  B15  1  0.13638832  0.96976258  0.50000110  1
  B  B16  1  0.38749539  0.04657923  0.50000123  1
  B  B17  1  0.61250528  0.95342050  0.50000098  1
  B  B18  1  0.88749603  0.45342135  0.50000082  1
  B  B19  1  0.11250315  0.54657816  0.50000065  1
  Os  Os20  1  0.14046591  0.40661212  0.99999989  1
  Os  Os21  1  0.85953377  0.59338810  0.00000072  1
  Os  Os22  1  0.64047131  0.09339323  0.00000024  1
  Os  Os23  1  0.35952843  0.90660694  0.00000040  1
