# generated using pymatgen
data_ZnCO3
_symmetry_space_group_name_H-M   'P 1'
_cell_length_a   5.76844535
_cell_length_b   5.76844535
_cell_length_c   5.76844535
_cell_angle_alpha   48.31382094
_cell_angle_beta   48.31382091
_cell_angle_gamma   48.31382090
_symmetry_Int_Tables_number   1
_chemical_formula_structural   ZnCO3
_chemical_formula_sum   'Zn2 C2 O6'
_cell_volume   98.13938979
_cell_formula_units_Z   2
loop_
 _symmetry_equiv_pos_site_id
 _symmetry_equiv_pos_as_xyz
  1  'x, y, z'
loop_
 _atom_site_type_symbol
 _atom_site_label
 _atom_site_symmetry_multiplicity
 _atom_site_fract_x
 _atom_site_fract_y
 _atom_site_fract_z
 _atom_site_occupancy
  C  C0  1  0.75000000  0.75000000  0.75000000  1
  C  C1  1  0.25000000  0.25000000  0.25000000  1
  O  O2  1  0.75000000  0.47504841  0.02495159  1
  O  O3  1  0.02495159  0.75000000  0.47504841  1
  O  O4  1  0.52495159  0.97504841  0.25000000  1
  O  O5  1  0.25000000  0.52495159  0.97504841  1
  O  O6  1  0.97504841  0.25000000  0.52495159  1
  O  O7  1  0.47504841  0.02495159  0.75000000  1
  Zn  Zn8  1  0.50000000  0.50000000  0.50000000  1
  Zn  Zn9  1  0.00000000  0.00000000  0.00000000  1
