# generated using pymatgen
data_YReN3
_symmetry_space_group_name_H-M   'P 1'
_cell_length_a   5.40331031
_cell_length_b   5.63008872
_cell_length_c   7.72468530
_cell_angle_alpha   90.00235815
_cell_angle_beta   89.99769957
_cell_angle_gamma   89.99778365
_symmetry_Int_Tables_number   1
_chemical_formula_structural   YReN3
_chemical_formula_sum   'Y4 Re4 N12'
_cell_volume   234.99355059
_cell_formula_units_Z   4
loop_
 _symmetry_equiv_pos_site_id
 _symmetry_equiv_pos_as_xyz
  1  'x, y, z'
loop_
 _atom_site_type_symbol
 _atom_site_label
 _atom_site_symmetry_multiplicity
 _atom_site_fract_x
 _atom_site_fract_y
 _atom_site_fract_z
 _atom_site_occupancy
  Y  Y0  1  0.48842337  0.93892581  0.24989802  1
  Y  Y1  1  0.01157696  0.43894731  0.24990533  1
  Y  Y2  1  0.51157288  0.06108290  0.75009405  1
  Y  Y3  1  0.98841928  0.56106406  0.75011118  1
  Re  Re4  1  0.49999393  0.49998530  0.50001131  1
  Re  Re5  1  0.99999147  -0.00000709  -0.00003736  1
  Re  Re6  1  0.00000455  0.00001305  0.50002711  1
  Re  Re7  1  0.50001890  0.50001499  -0.00001780  1
  N  N8  1  0.69962047  0.79671692  0.54338094  1
  N  N9  1  0.30020272  0.20311447  0.04336789  1
  N  N10  1  0.19961002  0.70329864  0.04336708  1
  N  N11  1  0.41812136  0.48196405  0.75005349  1
  N  N12  1  0.91811316  0.01803579  0.24981654  1
  N  N13  1  0.30037985  0.20329272  0.45661843  1
  N  N14  1  0.80038571  0.29668851  0.95663272  1
  N  N15  1  0.69979445  0.79687621  0.95663073  1
  N  N16  1  0.80021884  0.29688296  0.54338798  1
  N  N17  1  0.08188416  0.98195888  0.75018688  1
  N  N18  1  0.19978118  0.70310988  0.45661808  1
  N  N19  1  0.58188672  0.51803466  0.24994738  1
