# generated using pymatgen
data_Sr5Ti7O19
_symmetry_space_group_name_H-M   'P 1'
_cell_length_a   3.83557358
_cell_length_b   5.61462227
_cell_length_c   32.32718714
_cell_angle_alpha   90.00000000
_cell_angle_beta   90.00000000
_cell_angle_gamma   90.00000000
_symmetry_Int_Tables_number   1
_chemical_formula_structural   Sr5Ti7O19
_chemical_formula_sum   'Sr5 Ti7 O19'
_cell_volume   696.17557108
_cell_formula_units_Z   1
loop_
 _symmetry_equiv_pos_site_id
 _symmetry_equiv_pos_as_xyz
  1  'x, y, z'
loop_
 _atom_site_type_symbol
 _atom_site_label
 _atom_site_symmetry_multiplicity
 _atom_site_fract_x
 _atom_site_fract_y
 _atom_site_fract_z
 _atom_site_occupancy
  Sr  Sr0  1  0.00000000  -0.00000000  0.17205980  1
  Sr  Sr1  1  -0.00000000  -0.00000000  0.82794020  1
  Sr  Sr2  1  -0.00000000  0.50000000  0.08746646  1
  Sr  Sr3  1  -0.00000000  0.50000000  0.91253354  1
  Sr  Sr4  1  -0.00000000  -0.00000000  -0.00000000  1
  Ti  Ti5  1  0.50000000  -0.00000000  0.25362738  1
  Ti  Ti6  1  0.50000000  -0.00000000  0.74637262  1
  Ti  Ti7  1  0.50000000  0.50000000  0.17445449  1
  Ti  Ti8  1  0.50000000  0.50000000  0.82554551  1
  Ti  Ti9  1  0.50000000  -0.00000000  0.08677308  1
  Ti  Ti10  1  0.50000000  -0.00000000  0.91322692  1
  Ti  Ti11  1  0.50000000  0.50000000  -0.00000000  1
  O  O12  1  -0.00000000  -0.00000000  0.26834835  1
  O  O13  1  -0.00000000  -0.00000000  0.73165165  1
  O  O14  1  0.50000000  0.23715527  0.21618917  1
  O  O15  1  0.50000000  0.76284473  0.21618917  1
  O  O16  1  0.50000000  0.76284473  0.78381083  1
  O  O17  1  0.50000000  0.23715527  0.78381083  1
  O  O18  1  -0.00000000  0.50000000  0.17117363  1
  O  O19  1  -0.00000000  0.50000000  0.82882637  1
  O  O20  1  0.50000000  0.75038925  0.13053525  1
  O  O21  1  0.50000000  0.24961075  0.13053525  1
  O  O22  1  0.50000000  0.24961075  0.86946475  1
  O  O23  1  0.50000000  0.75038925  0.86946475  1
  O  O24  1  0.00000000  -0.00000000  0.08708162  1
  O  O25  1  0.00000000  -0.00000000  0.91291838  1
  O  O26  1  0.50000000  0.75034215  0.04347737  1
  O  O27  1  0.50000000  0.24965785  0.04347737  1
  O  O28  1  0.50000000  0.24965785  0.95652263  1
  O  O29  1  0.50000000  0.75034215  0.95652263  1
  O  O30  1  0.00000000  0.50000000  0.00000000  1
