# generated using pymatgen
data_RbSm(CO3)2
_symmetry_space_group_name_H-M   'P 1'
_cell_length_a   6.57443378
_cell_length_b   6.57443378
_cell_length_c   7.32466763
_cell_angle_alpha   104.31546296
_cell_angle_beta   104.31546300
_cell_angle_gamma   94.84905854
_symmetry_Int_Tables_number   1
_chemical_formula_structural   RbSm(CO3)2
_chemical_formula_sum   'Rb2 Sm2 C4 O12'
_cell_volume   293.63997612
_cell_formula_units_Z   2
loop_
 _symmetry_equiv_pos_site_id
 _symmetry_equiv_pos_as_xyz
  1  'x, y, z'
loop_
 _atom_site_type_symbol
 _atom_site_label
 _atom_site_symmetry_multiplicity
 _atom_site_fract_x
 _atom_site_fract_y
 _atom_site_fract_z
 _atom_site_occupancy
  C  C0  1  0.14883964  0.39615798  0.25195770  1
  C  C1  1  0.60384202  0.85116036  0.24804230  1
  C  C2  1  0.85116036  0.60384202  0.74804230  1
  C  C3  1  0.39615798  0.14883964  0.75195770  1
  O  O4  1  0.39862836  0.95135742  0.73747638  1
  O  O5  1  0.04864258  0.60137164  0.76252362  1
  O  O6  1  0.60137164  0.04864258  0.26252362  1
  O  O7  1  0.95135742  0.39862836  0.23747638  1
  O  O8  1  0.26538000  0.21550372  0.62368478  1
  O  O9  1  0.78449628  0.73462000  0.87631522  1
  O  O10  1  0.73462000  0.78449628  0.37631522  1
  O  O11  1  0.21550372  0.26538000  0.12368478  1
  O  O12  1  0.53130182  0.29739246  0.89702002  1
  O  O13  1  0.70260754  0.46869818  0.60297998  1
  O  O14  1  0.46869818  0.70260754  0.10297998  1
  O  O15  1  0.29739246  0.53130182  0.39702002  1
  Rb  Rb16  1  0.88583045  0.11416955  0.75000000  1
  Rb  Rb17  1  0.11416955  0.88583045  0.25000000  1
  Sm  Sm18  1  0.40411098  0.59588902  0.75000000  1
  Sm  Sm19  1  0.59588902  0.40411098  0.25000000  1
