# generated using pymatgen
data_FeAuO2
_symmetry_space_group_name_H-M   'P 1'
_cell_length_a   3.09734727
_cell_length_b   3.09734687
_cell_length_c   6.47678832
_cell_angle_alpha   76.16590003
_cell_angle_beta   76.16590724
_cell_angle_gamma   59.99999496
_symmetry_Int_Tables_number   1
_chemical_formula_structural   FeAuO2
_chemical_formula_sum   'Fe1 Au1 O2'
_cell_volume   51.71915785
_cell_formula_units_Z   1
loop_
 _symmetry_equiv_pos_site_id
 _symmetry_equiv_pos_as_xyz
  1  'x, y, z'
loop_
 _atom_site_type_symbol
 _atom_site_label
 _atom_site_symmetry_multiplicity
 _atom_site_fract_x
 _atom_site_fract_y
 _atom_site_fract_z
 _atom_site_occupancy
  Fe  Fe0  1  -0.00000000  0.00000000  0.00000000  1
  Au  Au1  1  0.50000000  0.50000000  0.50000000  1
  O  O2  1  0.38797277  0.38797277  0.83608169  1
  O  O3  1  0.61202723  0.61202723  0.16391831  1
