# generated using pymatgen
data_Zn3Si12H78(C13O2)2
_symmetry_space_group_name_H-M   'P 1'
_cell_length_a   10.26204890
_cell_length_b   11.98540245
_cell_length_c   14.07953245
_cell_angle_alpha   103.13039229
_cell_angle_beta   97.72674139
_cell_angle_gamma   111.15707492
_symmetry_Int_Tables_number   1
_chemical_formula_structural   Zn3Si12H78(C13O2)2
_chemical_formula_sum   'Zn3 Si12 H78 C26 O4'
_cell_volume   1527.44555809
_cell_formula_units_Z   1
loop_
 _symmetry_equiv_pos_site_id
 _symmetry_equiv_pos_as_xyz
  1  'x, y, z'
loop_
 _atom_site_type_symbol
 _atom_site_label
 _atom_site_symmetry_multiplicity
 _atom_site_fract_x
 _atom_site_fract_y
 _atom_site_fract_z
 _atom_site_occupancy
  Zn  Zn0  1  -0.00000000  0.50000000  0.50000000  1
  Zn  Zn1  1  0.90574964  0.70837502  0.53182475  1
  Zn  Zn2  1  0.09425036  0.29162498  0.46817525  1
  Si  Si3  1  0.43866470  0.52029888  0.75376791  1
  Si  Si4  1  0.56133530  0.47970112  0.24623209  1
  Si  Si5  1  0.04905041  0.39091076  0.78578416  1
  Si  Si6  1  0.95094959  0.60908924  0.21421584  1
  Si  Si7  1  0.36901755  0.84138660  0.64153648  1
  Si  Si8  1  0.63098245  0.15861340  0.35846352  1
  Si  Si9  1  0.16064790  0.83817526  0.85657642  1
  Si  Si10  1  0.83935210  0.16182474  0.14342358  1
  Si  Si11  1  0.18600313  0.71441146  0.70579180  1
  Si  Si12  1  0.81399687  0.28558854  0.29420820  1
  Si  Si13  1  0.20425997  0.51680190  0.70257693  1
  Si  Si14  1  0.79574003  0.48319810  0.29742307  1
  H  H15  1  0.39252604  0.65578329  0.53056029  1
  H  H16  1  0.60747396  0.34421671  0.46943971  1
  H  H17  1  0.27347228  0.70436810  0.46379132  1
  H  H18  1  0.72652772  0.29563190  0.53620868  1
  H  H19  1  0.46220720  0.79141407  0.48974907  1
  H  H20  1  0.53779280  0.20858593  0.51025093  1
  H  H21  1  0.91389258  0.83067461  0.79900129  1
  H  H22  1  0.08610742  0.16932539  0.20099871  1
  H  H23  1  0.90376846  0.70524130  0.84959059  1
  H  H24  1  0.09623154  0.29475870  0.15040941  1
  H  H25  1  0.96393146  0.86033736  0.93136399  1
  H  H26  1  0.03606854  0.13966264  0.06863601  1
  H  H27  1  0.80561488  0.34690341  0.81643514  1
  H  H28  1  0.19438512  0.65309659  0.18356486  1
  H  H29  1  0.89938578  0.51033506  0.83533595  1
  H  H30  1  0.10061422  0.48966494  0.16466405  1
  H  H31  1  0.82086191  0.40562737  0.71131393  1
  H  H32  1  0.17913809  0.59437263  0.28868607  1
  H  H33  1  0.65952294  0.55309730  0.69214050  1
  H  H34  1  0.34047706  0.44690270  0.30785950  1
  H  H35  1  0.50915669  0.49866173  0.58873182  1
  H  H36  1  0.49084331  0.50133827  0.41126818  1
  H  H37  1  0.58673054  0.65908519  0.66362532  1
  H  H38  1  0.41326946  0.34091481  0.33637468  1
  H  H39  1  0.92621863  0.19402661  0.63989530  1
  H  H40  1  0.07378137  0.80597339  0.36010470  1
  H  H41  1  0.08368083  0.19401711  0.71035258  1
  H  H42  1  0.91631917  0.80598289  0.28964742  1
  H  H43  1  0.92496830  0.16127268  0.75653921  1
  H  H44  1  0.07503170  0.83872732  0.24346079  1
  H  H45  1  0.36805246  0.33371757  0.81934876  1
  H  H46  1  0.63194754  0.66628243  0.18065124  1
  H  H47  1  0.37314547  0.28828900  0.69063596  1
  H  H48  1  0.62685453  0.71171100  0.30936404  1
  H  H49  1  0.53608641  0.36675540  0.78562243  1
  H  H50  1  0.46391359  0.63324460  0.21437757  1
  H  H51  1  0.63209809  0.96528690  0.68644052  1
  H  H52  1  0.36790191  0.03471310  0.31355948  1
  H  H53  1  0.56035607  0.99362791  0.79346576  1
  H  H54  1  0.43964393  0.00637209  0.20653424  1
  H  H55  1  0.58965686  0.85412670  0.75469780  1
  H  H56  1  0.41034314  0.14587330  0.24530220  1
  H  H57  1  0.55172011  0.73345740  0.88230656  1
  H  H58  1  0.44827989  0.26654260  0.11769344  1
  H  H59  1  0.47131988  0.61475515  0.93866284  1
  H  H60  1  0.52868012  0.38524485  0.06133716  1
  H  H61  1  0.63848534  0.63492910  0.90621207  1
  H  H62  1  0.36151466  0.36507090  0.09378793  1
  H  H63  1  0.23833831  0.06500716  0.94370630  1
  H  H64  1  0.76166169  0.93499284  0.05629370  1
  H  H65  1  0.36832890  0.04241341  0.87874789  1
  H  H66  1  0.63167110  0.95758659  0.12125211  1
  H  H67  1  0.20541799  0.03768375  0.81142957  1
  H  H68  1  0.79458201  0.96231625  0.18857043  1
  H  H69  1  0.21846353  0.85827365  0.03776013  1
  H  H70  1  0.78153647  0.14172635  0.96223987  1
  H  H71  1  0.19884675  0.70799498  0.96539838  1
  H  H72  1  0.80115325  0.29200502  0.03460162  1
  H  H73  1  0.36082083  0.84176760  0.98441757  1
  H  H74  1  0.63917917  0.15823240  0.01558243  1
  H  H75  1  0.21194199  0.93201129  0.56154786  1
  H  H76  1  0.78805801  0.06798871  0.43845214  1
  H  H77  1  0.33527754  0.04389136  0.67350958  1
  H  H78  1  0.66472246  0.95610864  0.32649042  1
  H  H79  1  0.39544122  0.01060864  0.56193462  1
  H  H80  1  0.60455878  0.98939136  0.43806538  1
  H  H81  1  0.72807317  0.81060935  0.52001257  1
  H  H82  1  0.27192683  0.18939065  0.47998743  1
  H  H83  1  0.86399297  0.89171458  0.63445571  1
  H  H84  1  0.13600703  0.10828542  0.36554429  1
  H  H85  1  0.90305919  0.91417413  0.51881493  1
  H  H86  1  0.09694081  0.08582587  0.48118507  1
  H  H87  1  0.05858473  0.35352928  0.95171653  1
  H  H88  1  0.94141527  0.64647072  0.04828347  1
  H  H89  1  0.23173318  0.39339550  0.92577564  1
  H  H90  1  0.76826682  0.60660450  0.07422436  1
  H  H91  1  0.16999375  0.51275662  0.96764654  1
  H  H92  1  0.83000625  0.48724338  0.03235346  1
  C  C93  1  0.37489759  0.73763392  0.52042385  1
  C  C94  1  0.62510241  0.26236608  0.47957615  1
  C  C95  1  0.96668009  0.80446077  0.85825963  1
  C  C96  1  0.03331991  0.19553923  0.14174037  1
  C  C97  1  0.87811414  0.41673874  0.78692339  1
  C  C98  1  0.12188586  0.58326126  0.21307661  1
  C  C99  1  0.55895017  0.56230589  0.66564177  1
  C  C100  1  0.44104983  0.43769411  0.33435823  1
  C  C101  1  0.99194031  0.21943768  0.71613269  1
  C  C102  1  0.00805969  0.78056232  0.28386731  1
  C  C103  1  0.42661651  0.36200343  0.76299516  1
  C  C104  1  0.57338349  0.63799657  0.23700484  1
  C  C105  1  0.55486044  0.92031806  0.72779995  1
  C  C106  1  0.44513956  0.07968194  0.27220005  1
  C  C107  1  0.53297170  0.63717214  0.88231567  1
  C  C108  1  0.46702830  0.36282786  0.11768433  1
  C  C109  1  0.25225365  0.01186421  0.87359663  1
  C  C110  1  0.74774635  0.98813579  0.12640337  1
  C  C111  1  0.24314687  0.80822835  0.97139071  1
  C  C112  1  0.75685313  0.19177165  0.02860929  1
  C  C113  1  0.32248237  0.96856834  0.60710631  1
  C  C114  1  0.67751763  0.03143166  0.39289369  1
  C  C115  1  0.84354517  0.84469311  0.55382098  1
  C  C116  1  0.15645483  0.15530689  0.44617902  1
  C  C117  1  0.13704882  0.41612475  0.92023460  1
  C  C118  1  0.86295118  0.58387525  0.07976540  1
  O  O119  1  0.12942773  0.44294187  0.57767586  1
  O  O120  1  0.87057227  0.55705813  0.42232414  1
  O  O121  1  0.03787834  0.65699530  0.60897320  1
  O  O122  1  0.96212166  0.34300470  0.39102680  1
