# generated using pymatgen
data_SmNiB4
_symmetry_space_group_name_H-M   'P 1'
_cell_length_a   6.89494119
_cell_length_b   6.89494119
_cell_length_c   6.89494119
_cell_angle_alpha   112.86796276
_cell_angle_beta   112.86796276
_cell_angle_gamma   102.87250906
_symmetry_Int_Tables_number   1
_chemical_formula_structural   SmNiB4
_chemical_formula_sum   'Sm4 Ni4 B16'
_cell_volume   249.86026268
_cell_formula_units_Z   4
loop_
 _symmetry_equiv_pos_site_id
 _symmetry_equiv_pos_as_xyz
  1  'x, y, z'
loop_
 _atom_site_type_symbol
 _atom_site_label
 _atom_site_symmetry_multiplicity
 _atom_site_fract_x
 _atom_site_fract_y
 _atom_site_fract_z
 _atom_site_occupancy
  Sm  Sm0  1  0.75000000  0.25000000  0.50000000  1
  Sm  Sm1  1  0.25000000  0.75000000  0.50000000  1
  Sm  Sm2  1  0.20441345  0.20441345  0.00000000  1
  Sm  Sm3  1  0.79558655  0.79558655  0.00000000  1
  Ni  Ni4  1  0.50000000  0.27186784  0.77186784  1
  Ni  Ni5  1  0.50000000  0.72813216  0.22813216  1
  Ni  Ni6  1  0.72813216  0.50000000  0.22813216  1
  Ni  Ni7  1  0.27186784  0.50000000  0.77186784  1
  B  B8  1  0.41765498  0.41765498  0.53106901  1
  B  B9  1  0.88658697  0.88658697  0.46893099  1
  B  B10  1  0.58234402  0.11341303  0.00000000  1
  B  B11  1  0.11341303  0.58234402  0.00000000  1
  B  B12  1  0.58234402  0.58234402  0.46893099  1
  B  B13  1  0.11341303  0.11341303  0.53106901  1
  B  B14  1  0.88658697  0.41765498  0.00000000  1
  B  B15  1  0.41765498  0.88658697  0.00000000  1
  B  B16  1  0.11204647  0.27582535  0.38787182  1
  B  B17  1  0.88795353  0.72417365  0.61212618  1
  B  B18  1  0.88795353  0.27582735  0.16378088  1
  B  B19  1  0.11204647  0.72417265  0.83621912  1
  B  B20  1  0.72417365  0.88795353  0.61212618  1
  B  B21  1  0.27582535  0.11204647  0.38787182  1
  B  B22  1  0.72417265  0.11204647  0.83621912  1
  B  B23  1  0.27582735  0.88795353  0.16378088  1
