# generated using pymatgen
data_Np3S5
_symmetry_space_group_name_H-M   'P 1'
_cell_length_a   11.49647273
_cell_length_b   7.92354577
_cell_length_c   7.30899450
_cell_angle_alpha   89.95802713
_cell_angle_beta   90.02016888
_cell_angle_gamma   89.99159083
_symmetry_Int_Tables_number   1
_chemical_formula_structural   Np3S5
_chemical_formula_sum   'Np12 S20'
_cell_volume   665.79675039
_cell_formula_units_Z   4
loop_
 _symmetry_equiv_pos_site_id
 _symmetry_equiv_pos_as_xyz
  1  'x, y, z'
loop_
 _atom_site_type_symbol
 _atom_site_label
 _atom_site_symmetry_multiplicity
 _atom_site_fract_x
 _atom_site_fract_y
 _atom_site_fract_z
 _atom_site_occupancy
  Np  Np0  1  0.17839805  0.00329715  0.52269655  1
  Np  Np1  1  0.32104565  0.99754615  0.02386852  1
  Np  Np2  1  0.67912224  0.49625903  0.97729077  1
  Np  Np3  1  0.82151088  0.50190323  0.47670736  1
  Np  Np4  1  0.82153582  0.99811086  0.47662875  1
  Np  Np5  1  0.67917472  0.00370984  0.97744009  1
  Np  Np6  1  0.32107499  0.50248696  0.02408037  1
  Np  Np7  1  0.17837337  0.49663500  0.52269771  1
  Np  Np8  1  0.00824459  0.25002788  0.07747721  1
  Np  Np9  1  0.49130943  0.74997933  0.57525880  1
  Np  Np10  1  0.50874267  0.25005029  0.42313408  1
  Np  Np11  1  0.99082963  0.74995964  0.92419397  1
  S  S12  1  0.19113401  0.25003084  0.83094160  1
  S  S13  1  0.30933530  0.74990967  0.33174069  1
  S  S14  1  0.69058772  0.25007436  0.66796384  1
  S  S15  1  0.80987049  0.74997459  0.16779490  1
  S  S16  1  0.99912372  0.25000793  0.46280503  1
  S  S17  1  0.50085450  0.74990804  0.96259126  1
  S  S18  1  0.49914773  0.25010526  0.03818260  1
  S  S19  1  0.00065139  0.74998664  0.53715007  1
  S  S20  1  0.09606714  0.54858225  0.17010228  1
  S  S21  1  0.40362593  0.45344194  0.67005502  1
  S  S22  1  0.59584763  0.95423265  0.33059359  1
  S  S23  1  0.90401615  0.04552520  0.82856542  1
  S  S24  1  0.90391954  0.45439224  0.82866555  1
  S  S25  1  0.59588590  0.54567157  0.33048672  1
  S  S26  1  0.40364617  0.04666012  0.66994461  1
  S  S27  1  0.09605243  0.95151799  0.17012300  1
  S  S28  1  0.28186476  0.25006585  0.30073239  1
  S  S29  1  0.21808303  0.74991127  0.80107151  1
  S  S30  1  0.78188553  0.25009647  0.19903112  1
  S  S31  1  0.71903888  0.74995178  0.69998461  1
