# generated using pymatgen
data_Cs3P(SeO6)2
_symmetry_space_group_name_H-M   'P 1'
_cell_length_a   8.18148653
_cell_length_b   9.35030945
_cell_length_c   11.19165638
_cell_angle_alpha   100.61221354
_cell_angle_beta   111.43941755
_cell_angle_gamma   90.00000000
_symmetry_Int_Tables_number   1
_chemical_formula_structural   Cs3P(SeO6)2
_chemical_formula_sum   'Cs6 P2 Se4 O24'
_cell_volume   781.15996566
_cell_formula_units_Z   2
loop_
 _symmetry_equiv_pos_site_id
 _symmetry_equiv_pos_as_xyz
  1  'x, y, z'
loop_
 _atom_site_type_symbol
 _atom_site_label
 _atom_site_symmetry_multiplicity
 _atom_site_fract_x
 _atom_site_fract_y
 _atom_site_fract_z
 _atom_site_occupancy
  Cs  Cs0  1  0.80178798  0.10834633  0.34608961  1
  Cs  Cs1  1  0.54430163  0.60834633  0.34608961  1
  Cs  Cs2  1  0.19821202  0.89165367  0.65391039  1
  Cs  Cs3  1  0.45569837  0.39165367  0.65391039  1
  Cs  Cs4  1  0.91028200  0.25000000  0.00000000  1
  Cs  Cs5  1  0.08971800  0.75000000  0.00000000  1
  P  P6  1  0.41794644  0.25000000  0.00000000  1
  P  P7  1  0.58205356  0.75000000  -0.00000000  1
  Se  Se8  1  0.97749186  0.42732275  0.67822758  1
  Se  Se9  1  0.70073572  0.92732275  0.67822758  1
  Se  Se10  1  0.02250814  0.57267725  0.32177242  1
  Se  Se11  1  0.29926428  0.07267725  0.32177242  1
  O  O12  1  0.07640297  0.27258660  0.65855473  1
  O  O13  1  0.58215176  0.77258660  0.65855473  1
  O  O14  1  0.92359703  0.72741340  0.34144527  1
  O  O15  1  0.41784824  0.22741340  0.34144527  1
  O  O16  1  0.90898286  0.44251826  0.80390068  1
  O  O17  1  0.89491782  0.94251826  0.80390068  1
  O  O18  1  0.09101714  0.55748174  0.19609932  1
  O  O19  1  0.10508218  0.05748174  0.19609932  1
  O  O20  1  0.11463456  0.57374200  0.70700406  1
  O  O21  1  0.59236950  0.07374200  0.70700406  1
  O  O22  1  0.88536544  0.42625800  0.29299594  1
  O  O23  1  0.40763050  0.92625800  0.29299594  1
  O  O24  1  0.79809262  0.42082870  0.54086420  1
  O  O25  1  0.74277158  0.92082870  0.54086420  1
  O  O26  1  0.20190738  0.57917130  0.45913580  1
  O  O27  1  0.25722842  0.07917130  0.45913580  1
  O  O28  1  0.55791760  0.14378174  0.05277937  1
  O  O29  1  0.49486178  0.64378174  0.05277937  1
  O  O30  1  0.44208240  0.85621826  0.94722063  1
  O  O31  1  0.50513822  0.35621826  0.94722063  1
  O  O32  1  0.35724698  0.32873926  0.10908273  1
  O  O33  1  0.75183575  0.82873926  0.10908273  1
  O  O34  1  0.64275302  0.67126074  0.89091727  1
  O  O35  1  0.24816425  0.17126074  0.89091727  1
