# generated using pymatgen
data_K(IO3)2
_symmetry_space_group_name_H-M   'P 1'
_cell_length_a   7.48471440
_cell_length_b   8.57399418
_cell_length_c   20.00188483
_cell_angle_alpha   90.00000000
_cell_angle_beta   90.00000000
_cell_angle_gamma   90.00000000
_symmetry_Int_Tables_number   1
_chemical_formula_structural   K(IO3)2
_chemical_formula_sum   'K8 I16 O48'
_cell_volume   1283.59891098
_cell_formula_units_Z   8
loop_
 _symmetry_equiv_pos_site_id
 _symmetry_equiv_pos_as_xyz
  1  'x, y, z'
loop_
 _atom_site_type_symbol
 _atom_site_label
 _atom_site_symmetry_multiplicity
 _atom_site_fract_x
 _atom_site_fract_y
 _atom_site_fract_z
 _atom_site_occupancy
  K  K0  1  0.47876583  0.48512314  0.64662815  1
  K  K1  1  0.52123417  0.51487686  0.14662815  1
  K  K2  1  0.47876583  0.01487686  0.14662815  1
  K  K3  1  0.52123417  0.98512314  0.64662815  1
  K  K4  1  0.00954854  0.46327818  0.84269341  1
  K  K5  1  0.99045146  0.53672182  0.34269341  1
  K  K6  1  0.00954854  0.03672182  0.34269341  1
  K  K7  1  0.99045146  0.96327818  0.84269341  1
  I  I8  1  0.18532433  0.17678979  0.99618544  1
  I  I9  1  0.81467567  0.82321021  0.49618544  1
  I  I10  1  0.18532433  0.32321021  0.49618544  1
  I  I11  1  0.81467567  0.67678979  0.99618544  1
  I  I12  1  0.68652414  0.26448741  0.99538624  1
  I  I13  1  0.31347586  0.73551259  0.49538624  1
  I  I14  1  0.68652414  0.23551259  0.49538624  1
  I  I15  1  0.31347586  0.76448741  0.99538624  1
  I  I16  1  0.03971698  0.18409202  0.66724382  1
  I  I17  1  0.96028302  0.81590798  0.16724382  1
  I  I18  1  0.03971698  0.31590798  0.16724382  1
  I  I19  1  0.96028302  0.68409202  0.66724382  1
  I  I20  1  0.47435897  0.24318985  0.80941567  1
  I  I21  1  0.52564103  0.75681015  0.30941567  1
  I  I22  1  0.47435897  0.25681015  0.30941567  1
  I  I23  1  0.52564103  0.74318985  0.80941567  1
  O  O24  1  0.27139132  0.35949372  0.03685262  1
  O  O25  1  0.72860868  0.64050628  0.53685262  1
  O  O26  1  0.27139132  0.14050628  0.53685262  1
  O  O27  1  0.72860868  0.85949372  0.03685262  1
  O  O28  1  0.39552755  0.06823353  0.01306024  1
  O  O29  1  0.60447245  0.93176647  0.51306024  1
  O  O30  1  0.39552755  0.43176647  0.51306024  1
  O  O31  1  0.60447245  0.56823353  0.01306024  1
  O  O32  1  0.21641231  0.21337904  0.90687880  1
  O  O33  1  0.78358769  0.78662096  0.40687880  1
  O  O34  1  0.21641231  0.28662096  0.40687880  1
  O  O35  1  0.78358769  0.71337904  0.90687880  1
  O  O36  1  0.89493400  0.37211569  0.97385426  1
  O  O37  1  0.10506600  0.62788431  0.47385426  1
  O  O38  1  0.89493400  0.12788431  0.47385426  1
  O  O39  1  0.10506600  0.87211569  0.97385426  1
  O  O40  1  0.79917666  0.07860066  0.96736938  1
  O  O41  1  0.20082334  0.92139934  0.46736938  1
  O  O42  1  0.79917666  0.42139934  0.46736938  1
  O  O43  1  0.20082334  0.57860066  0.96736938  1
  O  O44  1  0.71860606  0.24976511  0.08562783  1
  O  O45  1  0.28139394  0.75023489  0.58562783  1
  O  O46  1  0.71860606  0.25023489  0.58562783  1
  O  O47  1  0.28139394  0.74976511  0.08562783  1
  O  O48  1  0.91396528  0.22560286  0.74589106  1
  O  O49  1  0.08603472  0.77439714  0.24589106  1
  O  O50  1  0.91396528  0.27439714  0.24589106  1
  O  O51  1  0.08603472  0.72560286  0.74589106  1
  O  O52  1  0.11560165  0.37857134  0.64191782  1
  O  O53  1  0.88439835  0.62142866  0.14191782  1
  O  O54  1  0.11560165  0.12142866  0.14191782  1
  O  O55  1  0.88439835  0.87857134  0.64191782  1
  O  O56  1  0.23591288  0.11364551  0.71291778  1
  O  O57  1  0.76408712  0.88635449  0.21291778  1
  O  O58  1  0.23591288  0.38635449  0.21291778  1
  O  O59  1  0.76408712  0.61364551  0.71291778  1
  O  O60  1  0.65169936  0.30643328  0.86594968  1
  O  O61  1  0.34830064  0.69356672  0.36594968  1
  O  O62  1  0.65169936  0.19356672  0.36594968  1
  O  O63  1  0.34830064  0.80643328  0.86594968  1
  O  O64  1  0.60368503  0.24546673  0.72870377  1
  O  O65  1  0.39631497  0.75453327  0.22870377  1
  O  O66  1  0.60368503  0.25453327  0.22870377  1
  O  O67  1  0.39631497  0.74546673  0.72870377  1
  O  O68  1  0.35868990  0.42750465  0.79502402  1
  O  O69  1  0.64131010  0.57249535  0.29502402  1
  O  O70  1  0.35868990  0.07249535  0.29502402  1
  O  O71  1  0.64131010  0.92750465  0.79502402  1
