# generated using pymatgen
data_Hf(TlTe)4
_symmetry_space_group_name_H-M   'P 1'
_cell_length_a   9.87452039
_cell_length_b   9.87451955
_cell_length_c   9.87451927
_cell_angle_alpha   98.36522649
_cell_angle_beta   98.36522576
_cell_angle_gamma   98.36522518
_symmetry_Int_Tables_number   1
_chemical_formula_structural   Hf(TlTe)4
_chemical_formula_sum   'Hf3 Tl12 Te12'
_cell_volume   928.68882814
_cell_formula_units_Z   3
loop_
 _symmetry_equiv_pos_site_id
 _symmetry_equiv_pos_as_xyz
  1  'x, y, z'
loop_
 _atom_site_type_symbol
 _atom_site_label
 _atom_site_symmetry_multiplicity
 _atom_site_fract_x
 _atom_site_fract_y
 _atom_site_fract_z
 _atom_site_occupancy
  Hf  Hf0  1  0.24459190  0.24459190  0.24459190  1
  Hf  Hf1  1  0.75540810  0.75540810  0.75540810  1
  Hf  Hf2  1  0.50000100  0.50000100  0.50000100  1
  Tl  Tl3  1  0.33498940  0.88217298  0.01170286  1
  Tl  Tl4  1  0.01170286  0.33498940  0.88217298  1
  Tl  Tl5  1  0.88217298  0.01170286  0.33498940  1
  Tl  Tl6  1  0.66501060  0.11782702  0.98829714  1
  Tl  Tl7  1  0.98829614  0.66501060  0.11782702  1
  Tl  Tl8  1  0.11782702  0.98829714  0.66501060  1
  Tl  Tl9  1  0.36470208  0.53345601  0.87040872  1
  Tl  Tl10  1  0.87040972  0.36470208  0.53345501  1
  Tl  Tl11  1  0.53345501  0.87040872  0.36470308  1
  Tl  Tl12  1  0.63529792  0.46654399  0.12959128  1
  Tl  Tl13  1  0.12959028  0.63529792  0.46654499  1
  Tl  Tl14  1  0.46654499  0.12959128  0.63529692  1
  Te  Te15  1  0.29460377  0.19595650  0.96440615  1
  Te  Te16  1  0.96440615  0.29460477  0.19595650  1
  Te  Te17  1  0.19595650  0.96440615  0.29460377  1
  Te  Te18  1  0.70539623  0.80404350  0.03559385  1
  Te  Te19  1  0.03559385  0.70539523  0.80404350  1
  Te  Te20  1  0.80404350  0.03559385  0.70539623  1
  Te  Te21  1  0.54710184  0.24052619  0.34191537  1
  Te  Te22  1  0.34191637  0.54710184  0.24052619  1
  Te  Te23  1  0.24052619  0.34191537  0.54710184  1
  Te  Te24  1  0.45289816  0.75947381  0.65808463  1
  Te  Te25  1  0.65808363  0.45289816  0.75947381  1
  Te  Te26  1  0.75947381  0.65808463  0.45289816  1
