# generated using pymatgen
data_CaSn4(PO4)6
_symmetry_space_group_name_H-M   'P 1'
_cell_length_a   9.14585952
_cell_length_b   9.14615883
_cell_length_c   9.14614353
_cell_angle_alpha   54.81726227
_cell_angle_beta   54.81706080
_cell_angle_gamma   54.81666599
_symmetry_Int_Tables_number   1
_chemical_formula_structural   CaSn4(PO4)6
_chemical_formula_sum   'Ca1 Sn4 P6 O24'
_cell_volume   475.69878417
_cell_formula_units_Z   1
loop_
 _symmetry_equiv_pos_site_id
 _symmetry_equiv_pos_as_xyz
  1  'x, y, z'
loop_
 _atom_site_type_symbol
 _atom_site_label
 _atom_site_symmetry_multiplicity
 _atom_site_fract_x
 _atom_site_fract_y
 _atom_site_fract_z
 _atom_site_occupancy
  Ca  Ca0  1  0.00000000  0.00000000  0.00000000  1
  Sn  Sn1  1  0.34917281  0.34917650  0.34917987  1
  Sn  Sn2  1  0.65082719  0.65082350  0.65082113  1
  Sn  Sn3  1  0.14783009  0.14783742  0.14783565  1
  Sn  Sn4  1  0.85217191  0.85216158  0.85216535  1
  P  P5  1  0.45688049  0.03799813  0.75072892  1
  P  P6  1  0.75071319  0.45688514  0.03799007  1
  P  P7  1  0.03798368  0.75073310  0.45687911  1
  P  P8  1  0.54311951  0.96200087  0.24927108  1
  P  P9  1  0.24928781  0.54311286  0.96200993  1
  P  P10  1  0.96201632  0.24926890  0.54311989  1
  O  O11  1  0.60438253  0.01596761  0.80044402  1
  O  O12  1  0.80044852  0.60438307  0.01595580  1
  O  O13  1  0.01596463  0.80044580  0.60438124  1
  O  O14  1  0.39561647  0.98403339  0.19955598  1
  O  O15  1  0.19955148  0.39561693  0.98404520  1
  O  O16  1  0.98403737  0.19955220  0.39561976  1
  O  O17  1  0.46709509  0.84187582  0.79382416  1
  O  O18  1  0.79383976  0.46709546  0.84186603  1
  O  O19  1  0.84186437  0.79384802  0.46709038  1
  O  O20  1  0.53290591  0.15812518  0.20617484  1
  O  O21  1  0.20616124  0.53290354  0.15813397  1
  O  O22  1  0.15813363  0.20615098  0.53291062  1
  O  O23  1  0.48643548  0.17290805  0.54015400  1
  O  O24  1  0.54017300  0.48642077  0.17288996  1
  O  O25  1  0.17288894  0.54016587  0.48642898  1
  O  O26  1  0.51356352  0.82709095  0.45984600  1
  O  O27  1  0.45982700  0.51357923  0.82710904  1
  O  O28  1  0.82711106  0.45983413  0.51357102  1
  O  O29  1  0.24879128  0.12318133  0.88708960  1
  O  O30  1  0.88709808  0.24878805  0.12317265  1
  O  O31  1  0.12318144  0.88710057  0.24878518  1
  O  O32  1  0.75120972  0.87681767  0.11291040  1
  O  O33  1  0.11290192  0.75121195  0.87682735  1
  O  O34  1  0.87681956  0.11289843  0.75121482  1
