# generated using pymatgen
data_YbB4Ru
_symmetry_space_group_name_H-M   'P 1'
_cell_length_a   5.94774793
_cell_length_b   11.52003897
_cell_length_c   3.53222280
_cell_angle_alpha   89.99994549
_cell_angle_beta   89.99988746
_cell_angle_gamma   89.99985769
_symmetry_Int_Tables_number   1
_chemical_formula_structural   YbB4Ru
_chemical_formula_sum   'Yb4 B16 Ru4'
_cell_volume   242.02185887
_cell_formula_units_Z   4
loop_
 _symmetry_equiv_pos_site_id
 _symmetry_equiv_pos_as_xyz
  1  'x, y, z'
loop_
 _atom_site_type_symbol
 _atom_site_label
 _atom_site_symmetry_multiplicity
 _atom_site_fract_x
 _atom_site_fract_y
 _atom_site_fract_z
 _atom_site_occupancy
  Yb  Yb0  1  0.12987070  0.15049144  0.99999987  1
  Yb  Yb1  1  0.87012134  0.84951728  0.99999870  1
  Yb  Yb2  1  0.62986678  0.34951506  -0.00000009  1
  Yb  Yb3  1  0.37012105  0.65047845  0.99999925  1
  B  B4  1  0.47644574  0.19220490  0.49999799  1
  B  B5  1  0.52354761  0.80780888  0.50000005  1
  B  B6  1  0.97644951  0.30780236  0.49999983  1
  B  B7  1  0.02354715  0.69218436  0.49999999  1
  B  B8  1  0.28696997  0.31500123  0.49999944  1
  B  B9  1  0.71304094  0.68499455  0.50000145  1
  B  B10  1  0.78697025  0.18500423  0.49999978  1
  B  B11  1  0.21304139  0.81499911  0.49999784  1
  B  B12  1  0.36483316  0.46886809  0.50000054  1
  B  B13  1  0.63519075  0.53112582  0.49999948  1
  B  B14  1  0.86483275  0.03113228  0.50000063  1
  B  B15  1  0.13518584  0.96887216  0.49999873  1
  B  B16  1  0.38731674  0.04726449  0.49999932  1
  B  B17  1  0.61267230  0.95272620  0.49999868  1
  B  B18  1  0.88732134  0.45273843  0.49999871  1
  B  B19  1  0.11266719  0.54726974  0.49999902  1
  Ru  Ru20  1  0.13548464  0.41249692  0.00000654  1
  Ru  Ru21  1  0.86451095  0.58750245  0.00000033  1
  Ru  Ru22  1  0.63549904  0.08751811  0.99999764  1
  Ru  Ru23  1  0.36449288  0.91248046  0.00000628  1
