# generated using pymatgen
data_TmB4Os
_symmetry_space_group_name_H-M   'P 1'
_cell_length_a   5.93438716
_cell_length_b   11.47632078
_cell_length_c   3.54697556
_cell_angle_alpha   89.99980468
_cell_angle_beta   90.00018531
_cell_angle_gamma   90.00031872
_symmetry_Int_Tables_number   1
_chemical_formula_structural   TmB4Os
_chemical_formula_sum   'Tm4 B16 Os4'
_cell_volume   241.56652464
_cell_formula_units_Z   4
loop_
 _symmetry_equiv_pos_site_id
 _symmetry_equiv_pos_as_xyz
  1  'x, y, z'
loop_
 _atom_site_type_symbol
 _atom_site_label
 _atom_site_symmetry_multiplicity
 _atom_site_fract_x
 _atom_site_fract_y
 _atom_site_fract_z
 _atom_site_occupancy
  Tm  Tm0  1  0.12871187  0.14995350  0.00000041  1
  Tm  Tm1  1  0.87128908  0.85004612  -0.00000018  1
  Tm  Tm2  1  0.62871178  0.35004329  -0.00000216  1
  Tm  Tm3  1  0.37128646  0.64995538  0.00000287  1
  B  B4  1  0.47567132  0.19217525  0.50000029  1
  B  B5  1  0.52432733  0.80782502  0.50000084  1
  B  B6  1  0.97567143  0.30782321  0.49999864  1
  B  B7  1  0.02432866  0.69217625  0.50000248  1
  B  B8  1  0.29075539  0.31384194  0.50000147  1
  B  B9  1  0.70924615  0.68615774  0.49999992  1
  B  B10  1  0.79075255  0.18615635  0.49999683  1
  B  B11  1  0.20924552  0.81384201  0.50000026  1
  B  B12  1  0.36465304  0.47005119  0.49999871  1
  B  B13  1  0.63534677  0.52994831  0.49999775  1
  B  B14  1  0.86464941  0.02994835  0.49999948  1
  B  B15  1  0.13535020  0.97005064  0.50000071  1
  B  B16  1  0.38693630  0.04718615  0.49999974  1
  B  B17  1  0.61306189  0.95281382  0.50000152  1
  B  B18  1  0.88693619  0.45281361  0.49999886  1
  B  B19  1  0.11306447  0.54718735  0.49999999  1
  Os  Os20  1  0.14210854  0.40605874  0.99999529  1
  Os  Os21  1  0.85789306  0.59394099  0.00000338  1
  Os  Os22  1  0.64211142  0.09393893  0.00000314  1
  Os  Os23  1  0.35789216  0.90606286  0.99999977  1
