# generated using pymatgen
data_TbH3
_symmetry_space_group_name_H-M   'P 1'
_cell_length_a   6.37636306
_cell_length_b   6.37635421
_cell_length_c   6.62698612
_cell_angle_alpha   90.00004051
_cell_angle_beta   90.00025070
_cell_angle_gamma   119.99995532
_symmetry_Int_Tables_number   1
_chemical_formula_structural   TbH3
_chemical_formula_sum   'Tb6 H18'
_cell_volume   233.34170132
_cell_formula_units_Z   6
loop_
 _symmetry_equiv_pos_site_id
 _symmetry_equiv_pos_as_xyz
  1  'x, y, z'
loop_
 _atom_site_type_symbol
 _atom_site_label
 _atom_site_symmetry_multiplicity
 _atom_site_fract_x
 _atom_site_fract_y
 _atom_site_fract_z
 _atom_site_occupancy
  Tb  Tb0  1  0.99999932  0.66340284  0.25000009  1
  Tb  Tb1  1  0.33659453  0.33659468  0.25000033  1
  Tb  Tb2  1  0.66340218  0.99999912  0.24999947  1
  Tb  Tb3  1  0.66340481  0.66340390  0.74999924  1
  Tb  Tb4  1  0.00000169  0.33659823  0.74999985  1
  Tb  Tb5  1  0.33659588  -0.00000072  0.74999983  1
  H  H6  1  0.67821489  0.65109680  0.09295727  1
  H  H7  1  0.34890237  0.02712000  0.09295767  1
  H  H8  1  0.97288056  0.32178251  0.09295752  1
  H  H9  1  0.33333262  0.66666630  0.18103329  1
  H  H10  1  0.99999970  0.00000166  0.24999913  1
  H  H11  1  0.66666638  0.33333312  0.31896693  1
  H  H12  1  0.02712046  0.34890203  0.40704254  1
  H  H13  1  0.65109834  0.67821835  0.40704252  1
  H  H14  1  0.32178456  0.97288239  0.40704279  1
  H  H15  1  0.67821579  0.02711917  0.59295645  1
  H  H16  1  0.34890172  0.32178178  0.59295837  1
  H  H17  1  0.97287994  0.65109828  0.59295824  1
  H  H18  1  0.33333391  0.66666735  0.68103227  1
  H  H19  1  0.00000022  0.99999856  0.75000012  1
  H  H20  1  0.66666747  0.33333463  0.81896788  1
  H  H21  1  0.02711972  0.67821790  0.90704173  1
  H  H22  1  0.65109778  0.97288013  0.90704176  1
  H  H23  1  0.32178516  0.34890301  0.90704372  1
