# generated using pymatgen
data_BaBAsO5
_symmetry_space_group_name_H-M   'P 1'
_cell_length_a   7.44012071
_cell_length_b   7.44012070
_cell_length_c   7.20150201
_cell_angle_alpha   90.00000000
_cell_angle_beta   90.00000000
_cell_angle_gamma   120.00000003
_symmetry_Int_Tables_number   1
_chemical_formula_structural   BaBAsO5
_chemical_formula_sum   'Ba3 B3 As3 O15'
_cell_volume   345.23409591
_cell_formula_units_Z   3
loop_
 _symmetry_equiv_pos_site_id
 _symmetry_equiv_pos_as_xyz
  1  'x, y, z'
loop_
 _atom_site_type_symbol
 _atom_site_label
 _atom_site_symmetry_multiplicity
 _atom_site_fract_x
 _atom_site_fract_y
 _atom_site_fract_z
 _atom_site_occupancy
  B  B0  1  0.57052506  0.23751116  0.83660307  1
  B  B1  1  0.66698610  0.42947494  0.50326973  1
  B  B2  1  0.76248884  0.33301390  0.16993640  1
  O  O3  1  0.64066497  0.30627238  0.33714624  1
  O  O4  1  0.69372762  0.33439259  0.67047957  1
  O  O5  1  0.66560741  0.35933503  0.00381290  1
  O  O6  1  0.23333568  0.48396913  0.81936092  1
  O  O7  1  0.25063346  0.76666432  0.48602759  1
  O  O8  1  0.51603087  0.74936654  0.15269425  1
  O  O9  1  0.81011133  0.15566690  0.14904649  1
  O  O10  1  0.84433310  0.65444442  0.48237983  1
  O  O11  1  0.34555558  0.18988867  0.81571316  1
  O  O12  1  0.81681505  0.89966402  0.85269280  1
  O  O13  1  0.10033598  0.91715102  0.18602614  1
  O  O14  1  0.08284898  0.18318495  0.51935947  1
  O  O15  1  0.52324072  0.01251635  0.85636387  1
  O  O16  1  0.98748365  0.51072437  0.18969720  1
  O  O17  1  0.48927563  0.47675928  0.52303053  1
  As  As18  1  0.27275393  0.33351723  0.66936936  1
  As  As19  1  0.06076330  0.72724607  0.33603603  1
  As  As20  1  0.66648277  0.93923670  0.00270270  1
  Ba  Ba21  1  0.05589473  0.72263520  0.83608392  1
  Ba  Ba22  1  0.66674046  0.94410527  0.50275058  1
  Ba  Ba23  1  0.27736480  0.33325954  0.16941725  1
