# generated using pymatgen
data_Er2FeC4
_symmetry_space_group_name_H-M   'P 1'
_cell_length_a   4.99445413
_cell_length_b   6.53495051
_cell_length_c   6.53495051
_cell_angle_alpha   69.60714582
_cell_angle_beta   67.53406689
_cell_angle_gamma   67.53406695
_symmetry_Int_Tables_number   1
_chemical_formula_structural   Er2FeC4
_chemical_formula_sum   'Er4 Fe2 C8'
_cell_volume   176.95362412
_cell_formula_units_Z   2
loop_
 _symmetry_equiv_pos_site_id
 _symmetry_equiv_pos_as_xyz
  1  'x, y, z'
loop_
 _atom_site_type_symbol
 _atom_site_label
 _atom_site_symmetry_multiplicity
 _atom_site_fract_x
 _atom_site_fract_y
 _atom_site_fract_z
 _atom_site_occupancy
  C  C0  1  0.42194963  0.24421075  0.91188998  1
  C  C1  1  0.57805037  0.75578925  0.08811002  1
  C  C2  1  0.07805037  0.08811002  0.75578925  1
  C  C3  1  0.92194963  0.91188998  0.24421075  1
  C  C4  1  0.37061564  0.46808552  0.79068320  1
  C  C5  1  0.62938436  0.53191448  0.20931680  1
  C  C6  1  0.87061564  0.79068320  0.46808552  1
  C  C7  1  0.12938436  0.20931680  0.53191448  1
  Fe  Fe8  1  0.25000000  0.00000000  0.00000000  1
  Fe  Fe9  1  0.75000000  0.00000000  0.00000000  1
  Er  Er10  1  0.14461027  0.51094744  0.19983202  1
  Er  Er11  1  0.85538973  0.48905256  0.80016798  1
  Er  Er12  1  0.35538973  0.80016798  0.48905256  1
  Er  Er13  1  0.64461027  0.19983202  0.51094744  1
