# generated using pymatgen
data_KAgO2
_symmetry_space_group_name_H-M   'P 1'
_cell_length_a   4.38893987
_cell_length_b   6.01970000
_cell_length_c   6.48731000
_cell_angle_alpha   90.00000000
_cell_angle_beta   70.22841820
_cell_angle_gamma   90.00000000
_symmetry_Int_Tables_number   1
_chemical_formula_structural   KAgO2
_chemical_formula_sum   'K2 Ag2 O4'
_cell_volume   161.29140047
_cell_formula_units_Z   2
loop_
 _symmetry_equiv_pos_site_id
 _symmetry_equiv_pos_as_xyz
  1  'x, y, z'
loop_
 _atom_site_type_symbol
 _atom_site_label
 _atom_site_symmetry_multiplicity
 _atom_site_fract_x
 _atom_site_fract_y
 _atom_site_fract_z
 _atom_site_occupancy
  K  K0  1  0.29393000  0.25000000  0.41214000  1
  K  K1  1  0.70607000  0.75000000  0.58786000  1
  Ag  Ag2  1  0.00325000  0.25000000  0.99350000  1
  Ag  Ag3  1  0.99675000  0.75000000  0.00650000  1
  O  O4  1  0.11236000  0.99341000  0.77528000  1
  O  O5  1  0.88764000  0.49341000  0.22472000  1
  O  O6  1  0.11236000  0.50659000  0.77528000  1
  O  O7  1  0.88764000  0.00659000  0.22472000  1
