# generated using pymatgen
data_Be3Ni
_symmetry_space_group_name_H-M   'P 1'
_cell_length_a   4.59180390
_cell_length_b   4.59180262
_cell_length_c   3.70154038
_cell_angle_alpha   90.00000000
_cell_angle_beta   90.00000000
_cell_angle_gamma   120.00000189
_symmetry_Int_Tables_number   1
_chemical_formula_structural   Be3Ni
_chemical_formula_sum   'Be6 Ni2'
_cell_volume   67.58956614
_cell_formula_units_Z   2
loop_
 _symmetry_equiv_pos_site_id
 _symmetry_equiv_pos_as_xyz
  1  'x, y, z'
loop_
 _atom_site_type_symbol
 _atom_site_label
 _atom_site_symmetry_multiplicity
 _atom_site_fract_x
 _atom_site_fract_y
 _atom_site_fract_z
 _atom_site_occupancy
  Be  Be0  1  0.83405156  0.16595044  0.75000100  1
  Be  Be1  1  0.33189988  0.16595044  0.75000100  1
  Be  Be2  1  0.83405156  0.66810112  0.75000100  1
  Be  Be3  1  0.16594944  0.83405156  0.24999900  1
  Be  Be4  1  0.66810112  0.83405156  0.24999900  1
  Be  Be5  1  0.16595044  0.33189988  0.24999900  1
  Ni  Ni6  1  0.66666800  0.33333500  0.24999900  1
  Ni  Ni7  1  0.33333300  0.66666700  0.75000100  1
