# generated using pymatgen
data_SmCu
_symmetry_space_group_name_H-M   'P 1'
_cell_length_a   7.22417309
_cell_length_b   4.51671826
_cell_length_c   5.47434144
_cell_angle_alpha   90.00000000
_cell_angle_beta   90.00000000
_cell_angle_gamma   90.00000000
_symmetry_Int_Tables_number   1
_chemical_formula_structural   SmCu
_chemical_formula_sum   'Sm4 Cu4'
_cell_volume   178.62532242
_cell_formula_units_Z   4
loop_
 _symmetry_equiv_pos_site_id
 _symmetry_equiv_pos_as_xyz
  1  'x, y, z'
loop_
 _atom_site_type_symbol
 _atom_site_label
 _atom_site_symmetry_multiplicity
 _atom_site_fract_x
 _atom_site_fract_y
 _atom_site_fract_z
 _atom_site_occupancy
  Sm  Sm0  1  0.18019662  0.25000000  0.13010142  1
  Sm  Sm1  1  0.31980238  0.75000000  0.63010142  1
  Sm  Sm2  1  0.68019862  0.25000000  0.36989758  1
  Sm  Sm3  1  0.81980238  0.75000000  0.86989958  1
  Cu  Cu4  1  0.03339220  0.25000000  0.62016436  1
  Cu  Cu5  1  0.46660680  0.75000000  0.12016436  1
  Cu  Cu6  1  0.53339320  0.25000000  0.87983564  1
  Cu  Cu7  1  0.96660580  0.75000000  0.37983564  1
