# generated using pymatgen
data_Yb2Cr2C3
_symmetry_space_group_name_H-M   'P 1'
_cell_length_a   5.39657476
_cell_length_b   5.39826463
_cell_length_c   5.54121537
_cell_angle_alpha   75.32953288
_cell_angle_beta   104.70153595
_cell_angle_gamma   141.57414570
_symmetry_Int_Tables_number   1
_chemical_formula_structural   Yb2Cr2C3
_chemical_formula_sum   'Yb2 Cr2 C3'
_cell_volume   96.64399160
_cell_formula_units_Z   1
loop_
 _symmetry_equiv_pos_site_id
 _symmetry_equiv_pos_as_xyz
  1  'x, y, z'
loop_
 _atom_site_type_symbol
 _atom_site_label
 _atom_site_symmetry_multiplicity
 _atom_site_fract_x
 _atom_site_fract_y
 _atom_site_fract_z
 _atom_site_occupancy
  Yb  Yb0  1  0.40077776  0.59887902  0.18497363  1
  Yb  Yb1  1  0.59920496  0.40112862  0.81501581  1
  Cr  Cr2  1  0.15854322  0.84171836  0.40255241  1
  Cr  Cr3  1  0.84148706  0.15825006  0.59747359  1
  C  C4  1  0.99997166  0.00002027  0.50000769  1
  C  C5  1  0.68923951  0.31068867  0.29329414  1
  C  C6  1  0.31076482  0.68930801  0.70668374  1
