# generated using pymatgen
data_Hf5ZnSb3
_symmetry_space_group_name_H-M   'P 1'
_cell_length_a   8.60098177
_cell_length_b   8.60098177
_cell_length_c   5.78670757
_cell_angle_alpha   90.00000000
_cell_angle_beta   90.00000000
_cell_angle_gamma   120.00000003
_symmetry_Int_Tables_number   1
_chemical_formula_structural   Hf5ZnSb3
_chemical_formula_sum   'Hf10 Zn2 Sb6'
_cell_volume   370.73041895
_cell_formula_units_Z   2
loop_
 _symmetry_equiv_pos_site_id
 _symmetry_equiv_pos_as_xyz
  1  'x, y, z'
loop_
 _atom_site_type_symbol
 _atom_site_label
 _atom_site_symmetry_multiplicity
 _atom_site_fract_x
 _atom_site_fract_y
 _atom_site_fract_z
 _atom_site_occupancy
  Zn  Zn0  1  0.00000000  0.00000000  0.00000000  1
  Zn  Zn1  1  0.00000000  0.00000000  0.50000000  1
  Sb  Sb2  1  0.38604092  0.00000000  0.75000000  1
  Sb  Sb3  1  0.38604092  0.38604092  0.25000000  1
  Sb  Sb4  1  0.00000000  0.61395908  0.25000000  1
  Sb  Sb5  1  0.00000000  0.38604092  0.75000000  1
  Sb  Sb6  1  0.61395908  0.61395908  0.75000000  1
  Sb  Sb7  1  0.61395908  0.00000000  0.25000000  1
  Hf  Hf8  1  0.73088750  0.73088750  0.25000000  1
  Hf  Hf9  1  0.73088750  0.00000000  0.75000000  1
  Hf  Hf10  1  0.00000000  0.26911250  0.25000000  1
  Hf  Hf11  1  0.00000000  0.73088750  0.75000000  1
  Hf  Hf12  1  0.26911250  0.26911250  0.75000000  1
  Hf  Hf13  1  0.26911250  0.00000000  0.25000000  1
  Hf  Hf14  1  0.33333333  0.66666667  0.50000000  1
  Hf  Hf15  1  0.66666667  0.33333333  0.00000000  1
  Hf  Hf16  1  0.66666667  0.33333333  0.50000000  1
  Hf  Hf17  1  0.33333333  0.66666667  0.00000000  1
