# generated using pymatgen
data_Ba3(AsO4)2
_symmetry_space_group_name_H-M   'P 1'
_cell_length_a   7.96406241
_cell_length_b   7.96406241
_cell_length_c   7.96406241
_cell_angle_alpha   43.33882988
_cell_angle_beta   43.33882985
_cell_angle_gamma   43.33882989
_symmetry_Int_Tables_number   1
_chemical_formula_structural   Ba3(AsO4)2
_chemical_formula_sum   'Ba3 As2 O8'
_cell_volume   215.80843602
_cell_formula_units_Z   1
loop_
 _symmetry_equiv_pos_site_id
 _symmetry_equiv_pos_as_xyz
  1  'x, y, z'
loop_
 _atom_site_type_symbol
 _atom_site_label
 _atom_site_symmetry_multiplicity
 _atom_site_fract_x
 _atom_site_fract_y
 _atom_site_fract_z
 _atom_site_occupancy
  O  O0  1  0.67217827  0.67217827  0.67217827  1
  O  O1  1  0.32782173  0.32782173  0.32782173  1
  O  O2  1  0.72619361  0.72619361  0.24557530  1
  O  O3  1  0.72619361  0.24557530  0.72619361  1
  O  O4  1  0.24557530  0.72619361  0.72619361  1
  O  O5  1  0.27380639  0.75442470  0.27380639  1
  O  O6  1  0.27380639  0.27380639  0.75442470  1
  O  O7  1  0.75442470  0.27380639  0.27380639  1
  As  As8  1  0.59278250  0.59278250  0.59278250  1
  As  As9  1  0.40721750  0.40721750  0.40721750  1
  Ba  Ba10  1  0.79303089  0.79303089  0.79303089  1
  Ba  Ba11  1  0.20696911  0.20696911  0.20696911  1
  Ba  Ba12  1  0.00000000  0.00000000  0.00000000  1
