# generated using pymatgen
data_DyB4Ru
_symmetry_space_group_name_H-M   'P 1'
_cell_length_a   5.96383429
_cell_length_b   11.53512766
_cell_length_c   3.55857927
_cell_angle_alpha   90.00007833
_cell_angle_beta   90.00001564
_cell_angle_gamma   89.99772393
_symmetry_Int_Tables_number   1
_chemical_formula_structural   DyB4Ru
_chemical_formula_sum   'Dy4 B16 Ru4'
_cell_volume   244.80744275
_cell_formula_units_Z   4
loop_
 _symmetry_equiv_pos_site_id
 _symmetry_equiv_pos_as_xyz
  1  'x, y, z'
loop_
 _atom_site_type_symbol
 _atom_site_label
 _atom_site_symmetry_multiplicity
 _atom_site_fract_x
 _atom_site_fract_y
 _atom_site_fract_z
 _atom_site_occupancy
  Dy  Dy0  1  0.12895082  0.14986795  0.00000015  1
  Dy  Dy1  1  0.87106630  0.85013129  0.99999965  1
  Dy  Dy2  1  0.62894415  0.35015661  0.00000102  1
  Dy  Dy3  1  0.37106470  0.64984957  0.00000021  1
  B  B4  1  0.47632209  0.19173981  0.50000024  1
  B  B5  1  0.52367148  0.80827540  0.50000006  1
  B  B6  1  0.97632496  0.30825868  0.50000053  1
  B  B7  1  0.02367443  0.69172616  0.49999915  1
  B  B8  1  0.28913914  0.31451063  0.49999973  1
  B  B9  1  0.71085900  0.68547592  0.50000006  1
  B  B10  1  0.78913509  0.18548824  0.49999969  1
  B  B11  1  0.21086163  0.81452475  0.50000062  1
  B  B12  1  0.36402419  0.46966752  0.49999969  1
  B  B13  1  0.63597263  0.53033948  0.49999981  1
  B  B14  1  0.86402897  0.03032816  0.49999979  1
  B  B15  1  0.13597177  0.96966123  0.50000042  1
  B  B16  1  0.38795798  0.04675850  0.49999970  1
  B  B17  1  0.61202935  0.95323511  0.49999982  1
  B  B18  1  0.88795957  0.45323810  0.50000059  1
  B  B19  1  0.11203185  0.54676546  0.49999962  1
  Ru  Ru20  1  0.14050938  0.40734638  0.00000291  1
  Ru  Ru21  1  0.85949191  0.59266076  0.99999810  1
  Ru  Ru22  1  0.64050587  0.09264217  0.99999976  1
  Ru  Ru23  1  0.35950173  0.90735112  0.99999868  1
