# generated using pymatgen
data_Si3MoPt2
_symmetry_space_group_name_H-M   'P 1'
_cell_length_a   3.51072382
_cell_length_b   9.25055202
_cell_length_c   5.53766744
_cell_angle_alpha   90.00000000
_cell_angle_beta   90.00000000
_cell_angle_gamma   90.00000000
_symmetry_Int_Tables_number   1
_chemical_formula_structural   Si3MoPt2
_chemical_formula_sum   'Si6 Mo2 Pt4'
_cell_volume   179.84202609
_cell_formula_units_Z   2
loop_
 _symmetry_equiv_pos_site_id
 _symmetry_equiv_pos_as_xyz
  1  'x, y, z'
loop_
 _atom_site_type_symbol
 _atom_site_label
 _atom_site_symmetry_multiplicity
 _atom_site_fract_x
 _atom_site_fract_y
 _atom_site_fract_z
 _atom_site_occupancy
  Si  Si0  1  0.49999900  0.43522889  0.17245026  1
  Si  Si1  1  0.49999900  0.77748894  0.18399584  1
  Si  Si2  1  0.00000000  0.12698366  0.34448372  1
  Si  Si3  1  0.49999900  0.56477011  0.67245026  1
  Si  Si4  1  0.49999900  0.22251006  0.68399484  1
  Si  Si5  1  0.00000000  0.87301634  0.84448372  1
  Mo  Mo6  1  0.00000000  0.60530668  0.99962557  1
  Mo  Mo7  1  0.00000000  0.39469332  0.49962557  1
  Pt  Pt8  1  0.00000000  0.28578794  0.99979431  1
  Pt  Pt9  1  0.49999900  0.02982476  0.00095130  1
  Pt  Pt10  1  0.00000000  0.71421106  0.49979531  1
  Pt  Pt11  1  0.49999900  0.97017524  0.50095030  1
