# generated using pymatgen
data_Ho2Se3
_symmetry_space_group_name_H-M   'P 1'
_cell_length_a   7.07352894
_cell_length_b   7.07352894
_cell_length_c   12.89799572
_cell_angle_alpha   100.67400220
_cell_angle_beta   100.67400222
_cell_angle_gamma   108.93713697
_symmetry_Int_Tables_number   1
_chemical_formula_structural   Ho2Se3
_chemical_formula_sum   'Ho8 Se12'
_cell_volume   578.58652088
_cell_formula_units_Z   4
loop_
 _symmetry_equiv_pos_site_id
 _symmetry_equiv_pos_as_xyz
  1  'x, y, z'
loop_
 _atom_site_type_symbol
 _atom_site_label
 _atom_site_symmetry_multiplicity
 _atom_site_fract_x
 _atom_site_fract_y
 _atom_site_fract_z
 _atom_site_occupancy
  Se  Se0  1  0.53923817  0.28274507  0.08811555  1
  Se  Se1  1  0.19462953  0.95112263  0.41188445  1
  Se  Se2  1  0.71725493  0.46076183  0.41188445  1
  Se  Se3  1  0.04887737  0.80537047  0.08811555  1
  Se  Se4  1  0.46076183  0.71725493  0.91188445  1
  Se  Se5  1  0.80537047  0.04887737  0.58811555  1
  Se  Se6  1  0.28274507  0.53923817  0.58811555  1
  Se  Se7  1  0.95112263  0.19462953  0.91188445  1
  Se  Se8  1  0.63313787  0.88313787  0.25000000  1
  Se  Se9  1  0.11686213  0.36686213  0.25000000  1
  Se  Se10  1  0.36686213  0.11686213  0.75000000  1
  Se  Se11  1  0.88313787  0.63313787  0.75000000  1
  Ho  Ho12  1  0.37774957  0.12774957  0.25549913  1
  Ho  Ho13  1  0.87225043  0.62225043  0.24450087  1
  Ho  Ho14  1  0.62225043  0.87225043  0.74450087  1
  Ho  Ho15  1  0.12774957  0.37774957  0.75549913  1
  Ho  Ho16  1  0.04110014  0.79110014  0.58220028  1
  Ho  Ho17  1  0.20889986  0.95889986  0.91779972  1
  Ho  Ho18  1  0.95889986  0.20889986  0.41779972  1
  Ho  Ho19  1  0.79110014  0.04110014  0.08220028  1
