# generated using pymatgen
data_Tm6Al7Cu16
_symmetry_space_group_name_H-M   'P 1'
_cell_length_a   8.62516030
_cell_length_b   8.62515697
_cell_length_c   8.62516757
_cell_angle_alpha   59.99969268
_cell_angle_beta   59.99966676
_cell_angle_gamma   59.99971492
_symmetry_Int_Tables_number   1
_chemical_formula_structural   Tm6Al7Cu16
_chemical_formula_sum   'Tm6 Al7 Cu16'
_cell_volume   453.71557560
_cell_formula_units_Z   1
loop_
 _symmetry_equiv_pos_site_id
 _symmetry_equiv_pos_as_xyz
  1  'x, y, z'
loop_
 _atom_site_type_symbol
 _atom_site_label
 _atom_site_symmetry_multiplicity
 _atom_site_fract_x
 _atom_site_fract_y
 _atom_site_fract_z
 _atom_site_occupancy
  Tm  Tm0  1  0.70873159  0.29126756  0.29126797  1
  Tm  Tm1  1  0.29126794  0.70873191  0.70873155  1
  Tm  Tm2  1  0.29126735  0.70873200  0.29126747  1
  Tm  Tm3  1  0.29126760  0.29126784  0.70873143  1
  Tm  Tm4  1  0.70873209  0.29126777  0.70873161  1
  Tm  Tm5  1  0.70873176  0.70873167  0.29126766  1
  Al  Al6  1  0.49999971  0.00000021  0.99999982  1
  Al  Al7  1  0.99999945  0.50000022  0.50000038  1
  Al  Al8  1  0.99999975  0.49999990  0.00000000  1
  Al  Al9  1  0.99999980  0.00000027  0.49999972  1
  Al  Al10  1  0.50000014  -0.00000016  0.50000031  1
  Al  Al11  1  0.50000040  0.50000050  0.99999948  1
  Al  Al12  1  0.99999983  0.00000034  0.99999977  1
  Cu  Cu13  1  0.32741432  0.32741448  0.32741129  1
  Cu  Cu14  1  0.32741468  0.32741442  0.01775708  1
  Cu  Cu15  1  0.01775846  0.32741476  0.32741307  1
  Cu  Cu16  1  0.32741497  0.01775703  0.32741504  1
  Cu  Cu17  1  0.67258755  0.67258562  0.67258787  1
  Cu  Cu18  1  0.67258712  0.67258706  0.98224054  1
  Cu  Cu19  1  0.67258685  0.98224207  0.67258684  1
  Cu  Cu20  1  0.98223862  0.67258536  0.67258768  1
  Cu  Cu21  1  0.12075908  0.12075741  0.12075946  1
  Cu  Cu22  1  0.12076227  0.12076112  0.63771659  1
  Cu  Cu23  1  0.63771585  0.12076124  0.12076128  1
  Cu  Cu24  1  0.12076141  0.63771672  0.12075882  1
  Cu  Cu25  1  0.87924157  0.87923962  0.87924096  1
  Cu  Cu26  1  0.87923662  0.87923702  0.36228295  1
  Cu  Cu27  1  0.87923902  0.36228392  0.87924023  1
  Cu  Cu28  1  0.36228121  0.87923912  0.87924014  1
