# generated using pymatgen
data_Ba4Nd4Zn3PtO15
_symmetry_space_group_name_H-M   'P 1'
_cell_length_a   11.88159943
_cell_length_b   11.88159942
_cell_length_c   6.87062407
_cell_angle_alpha   90.00000000
_cell_angle_beta   90.00000000
_cell_angle_gamma   119.99999999
_symmetry_Int_Tables_number   1
_chemical_formula_structural   Ba4Nd4Zn3PtO15
_chemical_formula_sum   'Ba8 Nd8 Zn6 Pt2 O30'
_cell_volume   839.99486560
_cell_formula_units_Z   2
loop_
 _symmetry_equiv_pos_site_id
 _symmetry_equiv_pos_as_xyz
  1  'x, y, z'
loop_
 _atom_site_type_symbol
 _atom_site_label
 _atom_site_symmetry_multiplicity
 _atom_site_fract_x
 _atom_site_fract_y
 _atom_site_fract_z
 _atom_site_occupancy
  O  O0  1  0.83298416  0.91649208  0.07077290  1
  O  O1  1  0.91649208  0.83298416  0.57077290  1
  O  O2  1  0.91649208  0.08350792  0.57077290  1
  O  O3  1  0.08350792  0.91649208  0.07077290  1
  O  O4  1  0.08350792  0.16701584  0.07077290  1
  O  O5  1  0.16701584  0.08350792  0.57077290  1
  O  O6  1  0.60504861  0.66182755  0.29995970  1
  O  O7  1  0.33817245  0.94322106  0.29995970  1
  O  O8  1  0.05677894  0.39495139  0.29995970  1
  O  O9  1  0.94322106  0.60504861  0.79995970  1
  O  O10  1  0.39495139  0.33817245  0.79995970  1
  O  O11  1  0.66182755  0.05677894  0.79995970  1
  O  O12  1  0.60504861  0.94322106  0.29995970  1
  O  O13  1  0.66182755  0.60504861  0.79995970  1
  O  O14  1  0.94322106  0.33817245  0.79995970  1
  O  O15  1  0.05677894  0.66182755  0.29995970  1
  O  O16  1  0.33817245  0.39495139  0.29995970  1
  O  O17  1  0.39495139  0.05677894  0.79995970  1
  O  O18  1  0.49778244  0.74889122  0.98835170  1
  O  O19  1  0.74889122  0.49778244  0.48835170  1
  O  O20  1  0.74889122  0.25110878  0.48835170  1
  O  O21  1  0.25110878  0.74889122  0.98835170  1
  O  O22  1  0.25110878  0.50221756  0.98835170  1
  O  O23  1  0.50221756  0.25110878  0.48835170  1
  O  O24  1  0.83323879  0.41661940  0.15551892  1
  O  O25  1  0.41661940  0.83323879  0.65551892  1
  O  O26  1  0.41661940  0.58338060  0.65551892  1
  O  O27  1  0.58338060  0.41661940  0.15551892  1
  O  O28  1  0.58338060  0.16676121  0.15551892  1
  O  O29  1  0.16676121  0.58338060  0.65551892  1
  Zn  Zn30  1  0.65729488  0.82864744  0.17558665  1
  Zn  Zn31  1  0.82864744  0.65729488  0.67558665  1
  Zn  Zn32  1  0.82864744  0.17135256  0.67558665  1
  Zn  Zn33  1  0.17135256  0.82864744  0.17558665  1
  Zn  Zn34  1  0.17135256  0.34270512  0.17558665  1
  Zn  Zn35  1  0.34270512  0.17135256  0.67558665  1
  Ba  Ba36  1  0.34615704  0.17307852  0.15853285  1
  Ba  Ba37  1  0.17307852  0.34615704  0.65853285  1
  Ba  Ba38  1  0.17307852  0.82692148  0.65853285  1
  Ba  Ba39  1  0.82692148  0.17307852  0.15853285  1
  Ba  Ba40  1  0.65384296  0.82692148  0.65853285  1
  Ba  Ba41  1  0.82692148  0.65384296  0.15853285  1
  Ba  Ba42  1  0.33333333  0.66666667  0.33893978  1
  Ba  Ba43  1  0.66666667  0.33333333  0.83893978  1
  Nd  Nd44  1  0.00000000  0.00000000  0.34141898  1
  Nd  Nd45  1  0.52302084  0.47697916  0.50029191  1
  Nd  Nd46  1  0.47697916  0.95395831  0.00029191  1
  Nd  Nd47  1  0.52302084  0.04604169  0.50029191  1
  Nd  Nd48  1  0.95395831  0.47697916  0.50029191  1
  Nd  Nd49  1  0.00000000  0.00000000  0.84141898  1
  Nd  Nd50  1  0.04604169  0.52302084  0.00029191  1
  Nd  Nd51  1  0.47697916  0.52302084  0.00029191  1
  Pt  Pt52  1  0.33333333  0.66666667  0.81573821  1
  Pt  Pt53  1  0.66666667  0.33333333  0.31573821  1
