# generated using pymatgen
data_HoMnB4
_symmetry_space_group_name_H-M   'P 1'
_cell_length_a   5.89364664
_cell_length_b   11.39649699
_cell_length_c   3.39397436
_cell_angle_alpha   89.99995884
_cell_angle_beta   89.99987195
_cell_angle_gamma   89.99914223
_symmetry_Int_Tables_number   1
_chemical_formula_structural   HoMnB4
_chemical_formula_sum   'Ho4 Mn4 B16'
_cell_volume   227.96282533
_cell_formula_units_Z   4
loop_
 _symmetry_equiv_pos_site_id
 _symmetry_equiv_pos_as_xyz
  1  'x, y, z'
loop_
 _atom_site_type_symbol
 _atom_site_label
 _atom_site_symmetry_multiplicity
 _atom_site_fract_x
 _atom_site_fract_y
 _atom_site_fract_z
 _atom_site_occupancy
  Ho  Ho0  1  0.12614144  0.15043637  -0.00000071  1
  Ho  Ho1  1  0.87384764  0.84956433  0.00000174  1
  Ho  Ho2  1  0.62615015  0.34956732  0.99999834  1
  Ho  Ho3  1  0.37384960  0.65042781  -0.00000032  1
  Mn  Mn4  1  0.12760535  0.41624976  0.00000202  1
  Mn  Mn5  1  0.87240766  0.58374532  -0.00000082  1
  Mn  Mn6  1  0.62760704  0.08375635  0.00000070  1
  Mn  Mn7  1  0.37240479  0.91625297  0.00000179  1
  B  B8  1  0.47525628  0.19115734  0.50000102  1
  B  B9  1  0.52474803  0.80883920  0.50000165  1
  B  B10  1  0.97525619  0.30884254  0.50000153  1
  B  B11  1  0.02475168  0.69116339  0.50000108  1
  B  B12  1  0.28143946  0.31613599  0.50000169  1
  B  B13  1  0.71855207  0.68387059  0.50000059  1
  B  B14  1  0.78143982  0.18386546  0.50000165  1
  B  B15  1  0.21855272  0.81613132  0.49999908  1
  B  B16  1  0.36215718  0.46775638  0.50000103  1
  B  B17  1  0.63782873  0.53224276  0.50000074  1
  B  B18  1  0.86215677  0.03224319  0.50000101  1
  B  B19  1  0.13783456  0.96775590  0.50000018  1
  B  B20  1  0.38762344  0.04644907  0.50000012  1
  B  B21  1  0.61238250  0.95355500  0.50000110  1
  B  B22  1  0.88762261  0.45354727  0.50000067  1
  B  B23  1  0.11238927  0.54644637  0.50000014  1
