# generated using pymatgen
data_Er2Ge5Rh3
_symmetry_space_group_name_H-M   'P 1'
_cell_length_a   8.34748607
_cell_length_b   8.34728561
_cell_length_c   5.88396336
_cell_angle_alpha   71.04311478
_cell_angle_beta   108.95586139
_cell_angle_gamma   86.39081955
_symmetry_Int_Tables_number   1
_chemical_formula_structural   Er2Ge5Rh3
_chemical_formula_sum   'Er4 Ge10 Rh6'
_cell_volume   360.15947699
_cell_formula_units_Z   2
loop_
 _symmetry_equiv_pos_site_id
 _symmetry_equiv_pos_as_xyz
  1  'x, y, z'
loop_
 _atom_site_type_symbol
 _atom_site_label
 _atom_site_symmetry_multiplicity
 _atom_site_fract_x
 _atom_site_fract_y
 _atom_site_fract_z
 _atom_site_occupancy
  Er  Er0  1  0.13146589  0.59089223  0.76614872  1
  Er  Er1  1  0.59089509  0.13146396  0.73384951  1
  Er  Er2  1  0.86853978  0.40910471  0.23385404  1
  Er  Er3  1  0.40910684  0.86853882  0.26613942  1
  Ge  Ge4  1  0.73569307  0.07444707  0.33200738  1
  Ge  Ge5  1  0.79169208  0.79168240  0.75000389  1
  Ge  Ge6  1  0.20830868  0.20831098  0.25000237  1
  Ge  Ge7  1  0.48940688  0.48939931  0.74999361  1
  Ge  Ge8  1  0.51059155  0.51059426  0.25000298  1
  Ge  Ge9  1  0.22113601  0.22113694  0.75000348  1
  Ge  Ge10  1  0.77886674  0.77886526  0.25001242  1
  Ge  Ge11  1  0.92554806  0.26430499  0.83201769  1
  Ge  Ge12  1  0.26430507  0.92555218  0.66799086  1
  Ge  Ge13  1  0.07444644  0.73568992  0.16798694  1
  Rh  Rh14  1  0.99887052  0.99887976  0.74999046  1
  Rh  Rh15  1  0.00112767  0.00113196  0.24998917  1
  Rh  Rh16  1  0.74230659  0.54364396  0.62145413  1
  Rh  Rh17  1  0.54364375  0.74230958  0.87856334  1
  Rh  Rh18  1  0.25769716  0.45635795  0.37855233  1
  Rh  Rh19  1  0.45635112  0.25769176  0.12145525  1
