# generated using pymatgen
data_Pr2Co12P7
_symmetry_space_group_name_H-M   'P 1'
_cell_length_a   9.09071911
_cell_length_b   9.09099545
_cell_length_c   3.63851280
_cell_angle_alpha   90.00000000
_cell_angle_beta   90.00000000
_cell_angle_gamma   120.01078749
_symmetry_Int_Tables_number   1
_chemical_formula_structural   Pr2Co12P7
_chemical_formula_sum   'Pr2 Co12 P7'
_cell_volume   260.38562159
_cell_formula_units_Z   1
loop_
 _symmetry_equiv_pos_site_id
 _symmetry_equiv_pos_as_xyz
  1  'x, y, z'
loop_
 _atom_site_type_symbol
 _atom_site_label
 _atom_site_symmetry_multiplicity
 _atom_site_fract_x
 _atom_site_fract_y
 _atom_site_fract_z
 _atom_site_occupancy
  Pr  Pr0  1  0.33364031  0.66698591  0.00000000  1
  Pr  Pr1  1  0.66639954  0.33298077  0.50000000  1
  Co  Co2  1  0.43155665  0.05788761  0.00000000  1
  Co  Co3  1  0.94202223  0.37350779  0.00000000  1
  Co  Co4  1  0.62646125  0.56855201  0.00000000  1
  Co  Co5  1  0.38031288  0.43022219  0.50000000  1
  Co  Co6  1  0.56977795  0.95005646  0.50000000  1
  Co  Co7  1  0.04996310  0.61980391  0.50000000  1
  Co  Co8  1  0.14969514  0.26968620  0.00000000  1
  Co  Co9  1  0.73027438  0.87997170  0.00000000  1
  Co  Co10  1  0.12010876  0.85043249  0.00000000  1
  Co  Co11  1  0.22773027  0.10101375  0.50000000  1
  Co  Co12  1  0.89873364  0.12668643  0.50000000  1
  Co  Co13  1  0.87331148  0.77230363  0.50000000  1
  P  P14  1  0.10398906  0.39650579  0.50000000  1
  P  P15  1  0.60357710  0.70749090  0.50000000  1
  P  P16  1  0.29259218  0.89616183  0.50000000  1
  P  P17  1  -0.00002619  -0.00005533  0.00000000  1
  P  P18  1  0.40085759  0.29451693  0.00000000  1
  P  P19  1  0.70538949  0.10615032  0.00000000  1
  P  P20  1  0.89363120  0.59913172  0.00000000  1
