# generated using pymatgen
data_PrP5
_symmetry_space_group_name_H-M   'P 1'
_cell_length_a   5.08216905
_cell_length_b   5.49476281
_cell_length_c   9.63273040
_cell_angle_alpha   90.00000000
_cell_angle_beta   90.00000000
_cell_angle_gamma   102.01833462
_symmetry_Int_Tables_number   1
_chemical_formula_structural   PrP5
_chemical_formula_sum   'Pr2 P10'
_cell_volume   263.10087545
_cell_formula_units_Z   2
loop_
 _symmetry_equiv_pos_site_id
 _symmetry_equiv_pos_as_xyz
  1  'x, y, z'
loop_
 _atom_site_type_symbol
 _atom_site_label
 _atom_site_symmetry_multiplicity
 _atom_site_fract_x
 _atom_site_fract_y
 _atom_site_fract_z
 _atom_site_occupancy
  P  P0  1  0.29174061  0.90116800  0.25000000  1
  P  P1  1  0.70825939  0.09883200  0.75000000  1
  P  P2  1  0.61457616  0.95173877  0.40973615  1
  P  P3  1  0.38542384  0.04826123  0.90973615  1
  P  P4  1  0.38542384  0.04826123  0.59026385  1
  P  P5  1  0.61457616  0.95173877  0.09026385  1
  P  P6  1  0.70546174  0.59760031  0.46999674  1
  P  P7  1  0.29453826  0.40239969  0.96999674  1
  P  P8  1  0.29453826  0.40239969  0.53000326  1
  P  P9  1  0.70546174  0.59760031  0.03000326  1
  Pr  Pr10  1  0.00867039  0.34848864  0.25000000  1
  Pr  Pr11  1  0.99132961  0.65151136  0.75000000  1
