# generated using pymatgen
data_Eu2MgSi2O7
_symmetry_space_group_name_H-M   'P 1'
_cell_length_a   8.06409379
_cell_length_b   8.06409379
_cell_length_c   5.21822262
_cell_angle_alpha   90.00000000
_cell_angle_beta   90.00000000
_cell_angle_gamma   90.00000000
_symmetry_Int_Tables_number   1
_chemical_formula_structural   Eu2MgSi2O7
_chemical_formula_sum   'Eu4 Mg2 Si4 O14'
_cell_volume   339.33897485
_cell_formula_units_Z   2
loop_
 _symmetry_equiv_pos_site_id
 _symmetry_equiv_pos_as_xyz
  1  'x, y, z'
loop_
 _atom_site_type_symbol
 _atom_site_label
 _atom_site_symmetry_multiplicity
 _atom_site_fract_x
 _atom_site_fract_y
 _atom_site_fract_z
 _atom_site_occupancy
  Eu  Eu0  1  0.83452828  0.33453028  0.49094199  1
  Eu  Eu1  1  0.16547072  0.66547072  0.49094199  1
  Eu  Eu2  1  0.33453028  0.16547072  0.50905801  1
  Eu  Eu3  1  0.66547072  0.83452828  0.50905801  1
  Mg  Mg4  1  0.00000000  0.00000000  0.00000000  1
  Mg  Mg5  1  0.50000000  0.50000000  0.00000000  1
  Si  Si6  1  0.63939951  0.13940151  0.05844987  1
  Si  Si7  1  0.36059949  0.86059849  0.05844987  1
  Si  Si8  1  0.13940151  0.36059949  0.94155013  1
  Si  Si9  1  0.86059849  0.63939951  0.94155013  1
  O  O10  1  0.50000000  0.00000000  0.16506309  1
  O  O11  1  0.81091306  0.07946764  0.20181029  1
  O  O12  1  0.57946864  0.31091506  0.20181029  1
  O  O13  1  0.42053236  0.68908594  0.20181029  1
  O  O14  1  0.18908694  0.92053136  0.20181029  1
  O  O15  1  0.14190207  0.35809593  0.25233376  1
  O  O16  1  0.85809793  0.64190207  0.25233376  1
  O  O17  1  0.64190207  0.14190207  0.74766724  1
  O  O18  1  0.35809593  0.85809793  0.74766724  1
  O  O19  1  0.07946764  0.18908694  0.79818971  1
  O  O20  1  0.31091506  0.42053236  0.79818971  1
  O  O21  1  0.68908594  0.57946864  0.79818971  1
  O  O22  1  0.92053136  0.81091306  0.79818971  1
  O  O23  1  0.00000000  0.50000000  0.83493791  1
