# generated using pymatgen
data_Sr(AsO3)2
_symmetry_space_group_name_H-M   'P 1'
_cell_length_a   4.94946126
_cell_length_b   4.94946132
_cell_length_c   10.96952792
_cell_angle_alpha   90.00000000
_cell_angle_beta   90.00000000
_cell_angle_gamma   120.00000831
_symmetry_Int_Tables_number   1
_chemical_formula_structural   Sr(AsO3)2
_chemical_formula_sum   'Sr2 As4 O12'
_cell_volume   232.72036891
_cell_formula_units_Z   2
loop_
 _symmetry_equiv_pos_site_id
 _symmetry_equiv_pos_as_xyz
  1  'x, y, z'
loop_
 _atom_site_type_symbol
 _atom_site_label
 _atom_site_symmetry_multiplicity
 _atom_site_fract_x
 _atom_site_fract_y
 _atom_site_fract_z
 _atom_site_occupancy
  Sr  Sr0  1  0.00000041  0.00000041  0.25000007  1
  Sr  Sr1  1  0.99999959  0.99999959  0.75000007  1
  As  As2  1  0.66667337  0.33334014  0.00000007  1
  As  As3  1  0.33334214  0.66667537  0.00000007  1
  As  As4  1  0.66665986  0.33332663  0.50000007  1
  As  As5  1  0.33332463  0.66665986  0.50000007  1
  O  O6  1  0.61600843  0.61600843  0.09674511  1
  O  O7  1  0.38400808  0.00000838  0.09674699  1
  O  O8  1  0.00000838  0.38401008  0.09674699  1
  O  O9  1  0.61599076  0.61598976  0.40325240  1
  O  O10  1  0.38398963  0.99998832  0.40325415  1
  O  O11  1  0.99999132  0.38399263  0.40325415  1
  O  O12  1  0.61598992  0.99998962  0.59674699  1
  O  O13  1  0.38399157  0.38399157  0.59674611  1
  O  O14  1  0.99999162  0.61599292  0.59674699  1
  O  O15  1  0.38400924  0.38401024  0.90325240  1
  O  O16  1  0.61600937  0.00000868  0.90325315  1
  O  O17  1  0.00000868  0.61600937  0.90325315  1
