# generated using pymatgen
data_LaOsN3
_symmetry_space_group_name_H-M   'P 1'
_cell_length_a   3.66525739
_cell_length_b   5.70017255
_cell_length_c   6.74748926
_cell_angle_alpha   89.99965185
_cell_angle_beta   89.99975907
_cell_angle_gamma   89.99989593
_symmetry_Int_Tables_number   1
_chemical_formula_structural   LaOsN3
_chemical_formula_sum   'La2 Os2 N6'
_cell_volume   140.97259116
_cell_formula_units_Z   2
loop_
 _symmetry_equiv_pos_site_id
 _symmetry_equiv_pos_as_xyz
  1  'x, y, z'
loop_
 _atom_site_type_symbol
 _atom_site_label
 _atom_site_symmetry_multiplicity
 _atom_site_fract_x
 _atom_site_fract_y
 _atom_site_fract_z
 _atom_site_occupancy
  La  La0  1  0.00000763  0.74999322  0.79220769  1
  La  La1  1  -0.00000174  0.25000654  0.20778433  1
  Os  Os2  1  0.50000231  0.74999885  0.19475003  1
  Os  Os3  1  0.49999523  0.24999843  0.80524980  1
  N  N4  1  0.49999562  0.49264471  0.59424271  1
  N  N5  1  0.50000517  0.99999840  0.00000132  1
  N  N6  1  0.50000091  0.00736009  0.59424076  1
  N  N7  1  0.49999575  0.50735920  0.40576263  1
  N  N8  1  0.49999992  0.49999911  0.00000051  1
  N  N9  1  0.49999920  0.99264145  0.40576023  1
