# generated using pymatgen
data_Na6Cd16Au7
_symmetry_space_group_name_H-M   'P 1'
_cell_length_a   9.78623554
_cell_length_b   9.78624741
_cell_length_c   9.78623871
_cell_angle_alpha   59.99967422
_cell_angle_beta   59.99968947
_cell_angle_gamma   59.99969802
_symmetry_Int_Tables_number   1
_chemical_formula_structural   Na6Cd16Au7
_chemical_formula_sum   'Na6 Cd16 Au7'
_cell_volume   662.71924616
_cell_formula_units_Z   1
loop_
 _symmetry_equiv_pos_site_id
 _symmetry_equiv_pos_as_xyz
  1  'x, y, z'
loop_
 _atom_site_type_symbol
 _atom_site_label
 _atom_site_symmetry_multiplicity
 _atom_site_fract_x
 _atom_site_fract_y
 _atom_site_fract_z
 _atom_site_occupancy
  Na  Na0  1  0.79227674  0.20772359  0.20772399  1
  Na  Na1  1  0.20771797  0.79227546  0.79228289  1
  Na  Na2  1  0.20771931  0.79228135  0.20771716  1
  Na  Na3  1  0.20771928  0.20771906  0.79227929  1
  Na  Na4  1  0.79228491  0.20771806  0.79228238  1
  Na  Na5  1  0.79228785  0.79227984  0.20771613  1
  Cd  Cd6  1  0.85810936  0.38063046  0.38062986  1
  Cd  Cd7  1  0.38062988  0.85810981  0.38062981  1
  Cd  Cd8  1  0.38062968  0.38063005  0.38062979  1
  Cd  Cd9  1  0.38062982  0.38063002  0.85810952  1
  Cd  Cd10  1  0.61936933  0.14189013  0.61937024  1
  Cd  Cd11  1  0.14188968  0.61936989  0.61936995  1
  Cd  Cd12  1  0.61936968  0.61937020  0.61936983  1
  Cd  Cd13  1  0.61936957  0.61937023  0.14188992  1
  Cd  Cd14  1  0.16159906  0.16159923  0.51520179  1
  Cd  Cd15  1  0.16159920  0.16159944  0.16159916  1
  Cd  Cd16  1  0.16159904  0.51520215  0.16159901  1
  Cd  Cd17  1  0.51520212  0.16159906  0.16159898  1
  Cd  Cd18  1  0.83840035  0.83840061  0.48479796  1
  Cd  Cd19  1  0.83840009  0.83840103  0.83840058  1
  Cd  Cd20  1  0.48479737  0.83840075  0.83840071  1
  Cd  Cd21  1  0.83840033  0.48479783  0.83840088  1
  Au  Au22  1  0.49999973  0.49999986  0.49999993  1
  Au  Au23  1  0.99999965  0.00000009  0.49999936  1
  Au  Au24  1  0.49999966  0.49999992  0.99999978  1
  Au  Au25  1  0.49999922  0.00000032  0.99999963  1
  Au  Au26  1  0.99999983  0.49999958  -0.00000038  1
  Au  Au27  1  0.99999973  0.49999998  0.49999996  1
  Au  Au28  1  0.49999955  -0.00000001  0.49999989  1
