# generated using pymatgen
data_Y2Au
_symmetry_space_group_name_H-M   'P 1'
_cell_length_a   7.18228562
_cell_length_b   4.98281571
_cell_length_c   8.99945688
_cell_angle_alpha   90.00007168
_cell_angle_beta   89.99978925
_cell_angle_gamma   89.99992658
_symmetry_Int_Tables_number   1
_chemical_formula_structural   Y2Au
_chemical_formula_sum   'Y8 Au4'
_cell_volume   322.07261341
_cell_formula_units_Z   4
loop_
 _symmetry_equiv_pos_site_id
 _symmetry_equiv_pos_as_xyz
  1  'x, y, z'
loop_
 _atom_site_type_symbol
 _atom_site_label
 _atom_site_symmetry_multiplicity
 _atom_site_fract_x
 _atom_site_fract_y
 _atom_site_fract_z
 _atom_site_occupancy
  Y  Y0  1  0.14804729  0.25000041  0.08064273  1
  Y  Y1  1  0.48441087  0.75000043  0.17596193  1
  Y  Y2  1  0.98441214  0.74999994  0.32403775  1
  Y  Y3  1  0.64804779  0.25000083  0.41935708  1
  Y  Y4  1  0.35195182  0.75000056  0.58064232  1
  Y  Y5  1  0.01558838  0.25000056  0.67596137  1
  Y  Y6  1  0.51558819  0.25000097  0.82403808  1
  Y  Y7  1  0.85195261  0.75000067  0.91935757  1
  Au  Au8  1  0.74252411  0.25000123  0.10000362  1
  Au  Au9  1  0.24252428  0.25000015  0.39999616  1
  Au  Au10  1  0.75747618  0.75000009  0.60000375  1
  Au  Au11  1  0.25747534  0.75000015  0.89999764  1
