# generated using pymatgen
data_Tm2Co12P7
_symmetry_space_group_name_H-M   'P 1'
_cell_length_a   8.99084912
_cell_length_b   8.99017441
_cell_length_c   3.56460242
_cell_angle_alpha   90.00000000
_cell_angle_beta   90.00000000
_cell_angle_gamma   120.00322342
_symmetry_Int_Tables_number   1
_chemical_formula_structural   Tm2Co12P7
_chemical_formula_sum   'Tm2 Co12 P7'
_cell_volume   249.51487910
_cell_formula_units_Z   1
loop_
 _symmetry_equiv_pos_site_id
 _symmetry_equiv_pos_as_xyz
  1  'x, y, z'
loop_
 _atom_site_type_symbol
 _atom_site_label
 _atom_site_symmetry_multiplicity
 _atom_site_fract_x
 _atom_site_fract_y
 _atom_site_fract_z
 _atom_site_occupancy
  Tm  Tm0  1  0.33324901  0.66658706  0.00000000  1
  Tm  Tm1  1  0.66665140  0.33339564  0.49999900  1
  Co  Co2  1  0.43551710  0.06065914  0.00000000  1
  Co  Co3  1  0.93932464  0.37486643  0.00000000  1
  Co  Co4  1  0.62512550  0.56446907  0.00000000  1
  Co  Co5  1  0.38322890  0.43727799  0.49999900  1
  Co  Co6  1  0.56274779  0.94593817  0.49999900  1
  Co  Co7  1  0.05400153  0.61677621  0.49999900  1
  Co  Co8  1  0.15426398  0.27341877  0.00000000  1
  Co  Co9  1  0.72664589  0.88083768  0.00000000  1
  Co  Co10  1  0.11917593  0.84576028  0.00000000  1
  Co  Co11  1  0.23686754  0.10425996  0.49999900  1
  Co  Co12  1  0.89583253  0.13255517  0.49999900  1
  Co  Co13  1  0.86740617  0.76320747  0.49999900  1
  P  P14  1  0.00003890  0.00002804  0.00000000  1
  P  P15  1  0.11274544  0.40344078  0.49999900  1
  P  P16  1  0.59650166  0.70929661  0.49999900  1
  P  P17  1  0.29068007  0.88719247  0.49999900  1
  P  P18  1  0.40735085  0.29321784  0.00000000  1
  P  P19  1  0.70678827  0.11412746  0.00000000  1
  P  P20  1  0.88585688  0.59268376  0.00000000  1
