# generated using pymatgen
data_SmCd3
_symmetry_space_group_name_H-M   'P 1'
_cell_length_a   6.76384914
_cell_length_b   6.76384922
_cell_length_c   5.02656191
_cell_angle_alpha   90.00000000
_cell_angle_beta   90.00000000
_cell_angle_gamma   119.99999963
_symmetry_Int_Tables_number   1
_chemical_formula_structural   SmCd3
_chemical_formula_sum   'Sm2 Cd6'
_cell_volume   199.15421354
_cell_formula_units_Z   2
loop_
 _symmetry_equiv_pos_site_id
 _symmetry_equiv_pos_as_xyz
  1  'x, y, z'
loop_
 _atom_site_type_symbol
 _atom_site_label
 _atom_site_symmetry_multiplicity
 _atom_site_fract_x
 _atom_site_fract_y
 _atom_site_fract_z
 _atom_site_occupancy
  Sm  Sm0  1  0.33333400  0.66666700  0.75000100  1
  Sm  Sm1  1  0.66666600  0.33333300  0.25000000  1
  Cd  Cd2  1  0.16075259  0.32150419  0.25000000  1
  Cd  Cd3  1  0.67849381  0.83924741  0.25000000  1
  Cd  Cd4  1  0.16075359  0.83924741  0.25000000  1
  Cd  Cd5  1  0.83924741  0.67849581  0.75000100  1
  Cd  Cd6  1  0.32150619  0.16075259  0.75000100  1
  Cd  Cd7  1  0.83924841  0.16075259  0.75000100  1
