# generated using pymatgen
data_Sn2H12C4Cl2O
_symmetry_space_group_name_H-M   'P 1'
_cell_length_a   7.48525919
_cell_length_b   9.29972100
_cell_length_c   19.48795135
_cell_angle_alpha   90.00000000
_cell_angle_beta   90.00000000
_cell_angle_gamma   110.08652359
_symmetry_Int_Tables_number   1
_chemical_formula_structural   Sn2H12C4Cl2O
_chemical_formula_sum   'Sn8 H48 C16 Cl8 O4'
_cell_volume   1274.05887994
_cell_formula_units_Z   4
loop_
 _symmetry_equiv_pos_site_id
 _symmetry_equiv_pos_as_xyz
  1  'x, y, z'
loop_
 _atom_site_type_symbol
 _atom_site_label
 _atom_site_symmetry_multiplicity
 _atom_site_fract_x
 _atom_site_fract_y
 _atom_site_fract_z
 _atom_site_occupancy
  Sn  Sn0  1  0.52116506  0.34130983  0.03727340  1
  Sn  Sn1  1  0.47883494  0.15869017  0.53727340  1
  Sn  Sn2  1  0.47883494  0.65869017  0.96272660  1
  Sn  Sn3  1  0.52116506  0.84130983  0.46272660  1
  Sn  Sn4  1  0.58403422  0.65520753  0.15826907  1
  Sn  Sn5  1  0.41596578  0.84479247  0.65826907  1
  Sn  Sn6  1  0.41596578  0.34479247  0.84173093  1
  Sn  Sn7  1  0.58403422  0.15520753  0.34173093  1
  H  H8  1  0.16520183  0.14246546  0.01291681  1
  H  H9  1  0.83479817  0.35753454  0.51291681  1
  H  H10  1  0.83479817  0.85753454  0.98708319  1
  H  H11  1  0.16520183  0.64246546  0.48708319  1
  H  H12  1  0.26766661  0.07779358  0.08489273  1
  H  H13  1  0.73233339  0.42220642  0.58489273  1
  H  H14  1  0.73233339  0.92220642  0.91510727  1
  H  H15  1  0.26766661  0.57779358  0.41510727  1
  H  H16  1  0.17421241  0.23023136  0.09578069  1
  H  H17  1  0.82578759  0.26976864  0.59578069  1
  H  H18  1  0.82578759  0.76976864  0.90421931  1
  H  H19  1  0.17421241  0.73023136  0.40421931  1
  H  H20  1  0.79178004  0.29546516  0.95676491  1
  H  H21  1  0.20821996  0.20453484  0.45676491  1
  H  H22  1  0.20821996  0.70453484  0.04323509  1
  H  H23  1  0.79178004  0.79546516  0.54323509  1
  H  H24  1  0.90027185  0.41175608  0.03024740  1
  H  H25  1  0.09972815  0.08824392  0.53024740  1
  H  H26  1  0.09972815  0.58824392  0.96975260  1
  H  H27  1  0.90027185  0.91175608  0.46975260  1
  H  H28  1  0.78900573  0.20831107  0.03912036  1
  H  H29  1  0.21099427  0.29168893  0.53912036  1
  H  H30  1  0.21099427  0.79168893  0.96087964  1
  H  H31  1  0.78900573  0.70831107  0.46087964  1
  H  H32  1  0.25828074  0.65750410  0.21820921  1
  H  H33  1  0.74171926  0.84249590  0.71820921  1
  H  H34  1  0.74171926  0.34249590  0.78179079  1
  H  H35  1  0.25828074  0.15750410  0.28179079  1
  H  H36  1  0.22739812  0.47066028  0.18369869  1
  H  H37  1  0.77260188  0.02933972  0.68369869  1
  H  H38  1  0.77260188  0.52933972  0.81630131  1
  H  H39  1  0.22739812  0.97066028  0.31630131  1
  H  H40  1  0.34840158  0.52839168  0.26403992  1
  H  H41  1  0.65159842  0.97160832  0.76403992  1
  H  H42  1  0.65159842  0.47160832  0.73596008  1
  H  H43  1  0.34840158  0.02839168  0.23596008  1
  H  H44  1  0.92326159  0.87586272  0.18365347  1
  H  H45  1  0.07673841  0.62413728  0.68365347  1
  H  H46  1  0.07673841  0.12413728  0.81634653  1
  H  H47  1  0.92326159  0.37586272  0.31634653  1
  H  H48  1  0.90306834  0.70955593  0.23472443  1
  H  H49  1  0.09693166  0.79044407  0.73472443  1
  H  H50  1  0.09693166  0.29044407  0.76527557  1
  H  H51  1  0.90306834  0.20955593  0.26527557  1
  H  H52  1  0.95874214  0.71131175  0.14515546  1
  H  H53  1  0.04125786  0.78868825  0.64515546  1
  H  H54  1  0.04125786  0.28868825  0.85484454  1
  H  H55  1  0.95874214  0.21131175  0.35484454  1
  C  C56  1  0.24678705  0.17680007  0.06030799  1
  C  C57  1  0.75321295  0.32319993  0.56030799  1
  C  C58  1  0.75321295  0.82319993  0.93969201  1
  C  C59  1  0.24678705  0.67680007  0.43969201  1
  C  C60  1  0.78478202  0.31072137  0.01219244  1
  C  C61  1  0.21521798  0.18927863  0.51219244  1
  C  C62  1  0.21521798  0.68927863  0.98780756  1
  C  C63  1  0.78478202  0.81072137  0.48780756  1
  C  C64  1  0.32063341  0.56714776  0.21345236  1
  C  C65  1  0.67936659  0.93285224  0.71345236  1
  C  C66  1  0.67936659  0.43285224  0.78654764  1
  C  C67  1  0.32063341  0.06714776  0.28654764  1
  C  C68  1  0.88048692  0.75067992  0.18400384  1
  C  C69  1  0.11951308  0.74932008  0.68400384  1
  C  C70  1  0.11951308  0.24932008  0.81599616  1
  C  C71  1  0.88048692  0.25067992  0.31599616  1
  Cl  Cl72  1  0.61964677  0.36721809  0.16986420  1
  Cl  Cl73  1  0.38035323  0.13278191  0.66986420  1
  Cl  Cl74  1  0.38035323  0.63278191  0.83013580  1
  Cl  Cl75  1  0.61964677  0.86721809  0.33013580  1
  Cl  Cl76  1  0.55460555  0.89558780  0.11401702  1
  Cl  Cl77  1  0.44539445  0.60441220  0.61401702  1
  Cl  Cl78  1  0.44539445  0.10441220  0.88598298  1
  Cl  Cl79  1  0.55460555  0.39558780  0.38598298  1
  O  O80  1  0.54040115  0.56635307  0.05911804  1
  O  O81  1  0.45959885  0.93364693  0.55911804  1
  O  O82  1  0.45959885  0.43364693  0.94088196  1
  O  O83  1  0.54040115  0.06635307  0.44088196  1
