# generated using pymatgen
data_Ce2USe5
_symmetry_space_group_name_H-M   'P 1'
_cell_length_a   12.43320710
_cell_length_b   8.46952252
_cell_length_c   7.84256762
_cell_angle_alpha   90.00000000
_cell_angle_beta   90.00000000
_cell_angle_gamma   90.00000000
_symmetry_Int_Tables_number   1
_chemical_formula_structural   Ce2USe5
_chemical_formula_sum   'Ce8 U4 Se20'
_cell_volume   825.84846676
_cell_formula_units_Z   4
loop_
 _symmetry_equiv_pos_site_id
 _symmetry_equiv_pos_as_xyz
  1  'x, y, z'
loop_
 _atom_site_type_symbol
 _atom_site_label
 _atom_site_symmetry_multiplicity
 _atom_site_fract_x
 _atom_site_fract_y
 _atom_site_fract_z
 _atom_site_occupancy
  Ce  Ce0  1  0.32185611  0.00017497  0.47136317  1
  Ce  Ce1  1  0.17814289  -0.00017497  0.97136417  1
  Ce  Ce2  1  0.82185611  0.49982603  0.02863683  1
  Ce  Ce3  1  0.67814289  0.50017497  0.52863683  1
  Ce  Ce4  1  0.67814289  -0.00017497  0.52863683  1
  Ce  Ce5  1  0.82185611  0.00017497  0.02863683  1
  Ce  Ce6  1  0.17814289  0.50017497  0.97136417  1
  Ce  Ce7  1  0.32185611  0.49982603  0.47136317  1
  U  U8  1  0.49245412  0.24999900  0.92818191  1
  U  U9  1  0.00754588  0.74999900  0.42818291  1
  U  U10  1  0.99245312  0.24999900  0.57181809  1
  U  U11  1  0.50754688  0.74999900  0.07181709  1
  Se  Se12  1  0.71598167  0.24999900  0.80743303  1
  Se  Se13  1  0.78401733  0.74999900  0.30743503  1
  Se  Se14  1  0.21598167  0.24999900  0.69256597  1
  Se  Se15  1  0.28401733  0.74999900  0.19256697  1
  Se  Se16  1  0.49913349  0.24999900  0.54340373  1
  Se  Se17  1  0.00086551  0.74999900  0.04340373  1
  Se  Se18  1  0.99913349  0.24999900  0.95659627  1
  Se  Se19  1  0.50086651  0.74999900  0.45659727  1
  Se  Se20  1  0.31246417  0.24999900  0.16697141  1
  Se  Se21  1  0.18753483  0.74999900  0.66697041  1
  Se  Se22  1  0.81246417  0.24999900  0.33302859  1
  Se  Se23  1  0.68753583  0.74999900  0.83302959  1
  Se  Se24  1  0.59462258  0.45664072  0.16883036  1
  Se  Se25  1  0.90537742  0.54335928  0.66883036  1
  Se  Se26  1  0.09462258  0.04335928  0.33117064  1
  Se  Se27  1  0.40537742  0.95664072  0.83117064  1
  Se  Se28  1  0.40537742  0.54335928  0.83117064  1
  Se  Se29  1  0.09462258  0.45664072  0.33117064  1
  Se  Se30  1  0.90537742  0.95664072  0.66883036  1
  Se  Se31  1  0.59462258  0.04335928  0.16883036  1
