# generated using pymatgen
data_CuBSe2
_symmetry_space_group_name_H-M   'P 1'
_cell_length_a   5.32905076
_cell_length_b   5.32625574
_cell_length_c   6.15046061
_cell_angle_alpha   115.68825040
_cell_angle_beta   115.69415182
_cell_angle_gamma   89.93976652
_symmetry_Int_Tables_number   1
_chemical_formula_structural   CuBSe2
_chemical_formula_sum   'Cu2 B2 Se4'
_cell_volume   137.95914043
_cell_formula_units_Z   2
loop_
 _symmetry_equiv_pos_site_id
 _symmetry_equiv_pos_as_xyz
  1  'x, y, z'
loop_
 _atom_site_type_symbol
 _atom_site_label
 _atom_site_symmetry_multiplicity
 _atom_site_fract_x
 _atom_site_fract_y
 _atom_site_fract_z
 _atom_site_occupancy
  Cu  Cu0  1  0.00003720  0.00007539  0.00013129  1
  Cu  Cu1  1  0.25011154  0.75010370  0.50015974  1
  B  B2  1  0.50001498  0.50002882  0.00003507  1
  B  B3  1  0.75004154  0.25003100  0.50004759  1
  Se  Se4  1  0.82743281  0.87482566  0.24992113  1
  Se  Se5  1  0.42249448  0.37506435  0.24992380  1
  Se  Se6  1  0.62504418  0.17245066  0.74989482  1
  Se  Se7  1  0.12482728  0.57742242  0.74988656  1
