# generated using pymatgen
data_Ba(LuS2)2
_symmetry_space_group_name_H-M   'P 1'
_cell_length_a   12.22928433
_cell_length_b   3.99184245
_cell_length_c   14.38096901
_cell_angle_alpha   90.00000000
_cell_angle_beta   90.00000000
_cell_angle_gamma   90.00000000
_symmetry_Int_Tables_number   1
_chemical_formula_structural   Ba(LuS2)2
_chemical_formula_sum   'Ba4 Lu8 S16'
_cell_volume   702.04117603
_cell_formula_units_Z   4
loop_
 _symmetry_equiv_pos_site_id
 _symmetry_equiv_pos_as_xyz
  1  'x, y, z'
loop_
 _atom_site_type_symbol
 _atom_site_label
 _atom_site_symmetry_multiplicity
 _atom_site_fract_x
 _atom_site_fract_y
 _atom_site_fract_z
 _atom_site_occupancy
  Ba  Ba0  1  0.75856234  0.25000100  0.66293300  1
  Ba  Ba1  1  0.74143766  0.75000100  0.16293200  1
  Ba  Ba2  1  0.25856234  0.25000100  0.83706800  1
  Ba  Ba3  1  0.24143866  0.75000100  0.33706800  1
  Lu  Lu4  1  0.43445719  0.25000100  0.60830958  1
  Lu  Lu5  1  0.06554381  0.75000100  0.10830858  1
  Lu  Lu6  1  0.93445719  0.25000100  0.89169042  1
  Lu  Lu7  1  0.56554281  0.75000100  0.39169042  1
  Lu  Lu8  1  0.42175485  0.25000100  0.10093574  1
  Lu  Lu9  1  0.07824515  0.75000100  0.60093574  1
  Lu  Lu10  1  0.92175585  0.25000100  0.39906526  1
  Lu  Lu11  1  0.57824515  0.75000100  0.89906426  1
  S  S12  1  0.52361021  0.25000100  0.78312740  1
  S  S13  1  0.97639079  0.75000100  0.28312740  1
  S  S14  1  0.02360921  0.25000100  0.71687260  1
  S  S15  1  0.47639079  0.75000100  0.21687160  1
  S  S16  1  0.12175466  0.25000100  0.47754977  1
  S  S17  1  0.37824434  0.75000100  0.97755077  1
  S  S18  1  0.62175566  0.25000100  0.02245023  1
  S  S19  1  0.87824534  0.75000100  0.52244923  1
  S  S20  1  0.20706528  0.25000100  0.15806642  1
  S  S21  1  0.29293472  0.75000100  0.65806642  1
  S  S22  1  0.70706628  0.25000100  0.34193358  1
  S  S23  1  0.79293472  0.75000100  0.84193358  1
  S  S24  1  0.41976313  0.25000100  0.42365925  1
  S  S25  1  0.08023687  0.75000100  0.92365825  1
  S  S26  1  0.91976313  0.25000100  0.07634075  1
  S  S27  1  0.58023687  0.75000100  0.57634175  1
