# generated using pymatgen
data_UH6C2SeN3O7
_symmetry_space_group_name_H-M   'P 1'
_cell_length_a   7.17078693
_cell_length_b   8.00119316
_cell_length_c   9.31744147
_cell_angle_alpha   92.80066162
_cell_angle_beta   74.20661484
_cell_angle_gamma   83.36699444
_symmetry_Int_Tables_number   1
_chemical_formula_structural   UH6C2SeN3O7
_chemical_formula_sum   'U2 H12 C4 Se2 N6 O14'
_cell_volume   509.15624086
_cell_formula_units_Z   2
loop_
 _symmetry_equiv_pos_site_id
 _symmetry_equiv_pos_as_xyz
  1  'x, y, z'
loop_
 _atom_site_type_symbol
 _atom_site_label
 _atom_site_symmetry_multiplicity
 _atom_site_fract_x
 _atom_site_fract_y
 _atom_site_fract_z
 _atom_site_occupancy
  U  U0  1  0.84705973  0.26083345  0.80645407  1
  U  U1  1  0.15294027  0.73916655  0.19354593  1
  H  H2  1  0.55733186  0.89547890  0.71167330  1
  H  H3  1  0.44266814  0.10452110  0.28832670  1
  H  H4  1  0.34348731  0.85123784  0.84016311  1
  H  H5  1  0.65651269  0.14876216  0.15983689  1
  H  H6  1  0.19532410  0.60277740  0.57548309  1
  H  H7  1  0.80467590  0.39722260  0.42451691  1
  H  H8  1  0.14338675  0.67816405  0.76085651  1
  H  H9  1  0.85661325  0.32183595  0.23914349  1
  H  H10  1  0.48153462  0.66804647  0.40210172  1
  H  H11  1  0.51846538  0.33195353  0.59789828  1
  H  H12  1  0.64509356  0.77589699  0.46351999  1
  H  H13  1  0.35490644  0.22410301  0.53648001  1
  C  C14  1  0.10230785  0.02648891  0.48415083  1
  C  C15  1  0.89769215  0.97351109  0.51584917  1
  C  C16  1  0.39627130  0.74198709  0.62650514  1
  C  C17  1  0.60372870  0.25801291  0.37349486  1
  Se  Se18  1  0.71829574  0.66779770  0.04238562  1
  Se  Se19  1  0.28170426  0.33220230  0.95761438  1
  N  N20  1  0.44086051  0.82851505  0.73664737  1
  N  N21  1  0.55913949  0.17148495  0.26335263  1
  N  N22  1  0.22233467  0.68303280  0.65337482  1
  N  N23  1  0.77766533  0.31696720  0.34662518  1
  N  N24  1  0.52323027  0.71424053  0.49066628  1
  N  N25  1  0.47676973  0.28575947  0.50933372  1
  O  O26  1  0.85067151  0.42648162  0.67812111  1
  O  O27  1  0.14932849  0.57351838  0.32187889  1
  O  O28  1  0.83328424  0.09554719  0.93605994  1
  O  O29  1  0.16671576  0.90445281  0.06394006  1
  O  O30  1  0.13186457  0.12537311  0.58331128  1
  O  O31  1  0.86813543  0.87462689  0.41668872  1
  O  O32  1  0.22533599  0.96727124  0.36170743  1
  O  O33  1  0.77466401  0.03272876  0.63829257  1
  O  O34  1  0.74836711  0.44898807  0.01232604  1
  O  O35  1  0.25163289  0.55101193  0.98767396  1
  O  O36  1  0.48752162  0.70754102  0.16394414  1
  O  O37  1  0.51247838  0.29245898  0.83605586  1
  O  O38  1  0.85497518  0.68775619  0.16593809  1
  O  O39  1  0.14502482  0.31224381  0.83406191  1
