# generated using pymatgen
data_Ce2Zn17
_symmetry_space_group_name_H-M   'P 1'
_cell_length_a   8.98707572
_cell_length_b   8.98689258
_cell_length_c   8.80802794
_cell_angle_alpha   90.00226650
_cell_angle_beta   89.99759662
_cell_angle_gamma   119.99957947
_symmetry_Int_Tables_number   1
_chemical_formula_structural   Ce2Zn17
_chemical_formula_sum   'Ce4 Zn34'
_cell_volume   616.08283201
_cell_formula_units_Z   2
loop_
 _symmetry_equiv_pos_site_id
 _symmetry_equiv_pos_as_xyz
  1  'x, y, z'
loop_
 _atom_site_type_symbol
 _atom_site_label
 _atom_site_symmetry_multiplicity
 _atom_site_fract_x
 _atom_site_fract_y
 _atom_site_fract_z
 _atom_site_occupancy
  Ce  Ce0  1  0.33327495  0.66667064  0.74999623  1
  Ce  Ce1  1  0.66670074  0.33331647  0.25000530  1
  Ce  Ce2  1  0.99995956  -0.00002955  0.25000858  1
  Ce  Ce3  1  0.00003218  0.00002378  0.74999206  1
  Zn  Zn4  1  0.32984146  0.95966142  0.25000185  1
  Zn  Zn5  1  0.66996777  0.04019691  0.74999407  1
  Zn  Zn6  1  0.04030495  0.37013050  0.24999189  1
  Zn  Zn7  1  0.62982971  0.67012826  0.25000995  1
  Zn  Zn8  1  0.37024716  0.33006693  0.74998383  1
  Zn  Zn9  1  0.95979053  0.62977099  0.75001148  1
  Zn  Zn10  1  0.37023699  0.04018749  0.75000325  1
  Zn  Zn11  1  0.66993491  0.62978046  0.74999246  1
  Zn  Zn12  1  0.95978989  0.33001215  0.75000201  1
  Zn  Zn13  1  0.04031441  0.67016545  0.25000619  1
  Zn  Zn14  1  0.32985548  0.37017712  0.25001091  1
  Zn  Zn15  1  0.62984221  0.95968424  0.24999231  1
  Zn  Zn16  1  0.49997506  -0.00003908  -0.00008493  1
  Zn  Zn17  1  0.49995530  -0.00008208  0.50008974  1
  Zn  Zn18  1  0.00007149  0.50003599  -0.00008859  1
  Zn  Zn19  1  0.49995274  0.50004771  -0.00009281  1
  Zn  Zn20  1  0.49995783  0.50003570  0.50007695  1
  Zn  Zn21  1  0.00005522  0.50003209  0.50009398  1
  Zn  Zn22  1  0.33333774  0.66668573  0.10066327  1
  Zn  Zn23  1  0.66667126  0.33332442  0.60080975  1
  Zn  Zn24  1  0.66667611  0.33335383  0.89917805  1
  Zn  Zn25  1  0.33331530  0.66666141  0.39935383  1
  Zn  Zn26  1  0.16208665  0.32419217  0.97789648  1
  Zn  Zn27  1  0.83794694  0.67589107  0.47791387  1
  Zn  Zn28  1  0.67581060  0.83792720  0.97791897  1
  Zn  Zn29  1  0.16208063  0.83791210  0.97786816  1
  Zn  Zn30  1  0.83794603  0.16205629  0.47790983  1
  Zn  Zn31  1  0.32412502  0.16205777  0.47791295  1
  Zn  Zn32  1  0.83795755  0.67587198  0.02208197  1
  Zn  Zn33  1  0.83794954  0.16205785  0.02210379  1
  Zn  Zn34  1  0.32412082  0.16204861  0.02207322  1
  Zn  Zn35  1  0.67582125  0.83790958  0.52208589  1
  Zn  Zn36  1  0.16208502  0.83790108  0.52212398  1
  Zn  Zn37  1  0.16207400  0.32417333  0.52211122  1
