# generated using pymatgen
data_Sc6Ga16Ru7
_symmetry_space_group_name_H-M   'P 1'
_cell_length_a   8.79226924
_cell_length_b   8.79226924
_cell_length_c   8.79226924
_cell_angle_alpha   60.00000000
_cell_angle_beta   60.00000000
_cell_angle_gamma   60.00000000
_symmetry_Int_Tables_number   1
_chemical_formula_structural   Sc6Ga16Ru7
_chemical_formula_sum   'Sc6 Ga16 Ru7'
_cell_volume   480.60461638
_cell_formula_units_Z   1
loop_
 _symmetry_equiv_pos_site_id
 _symmetry_equiv_pos_as_xyz
  1  'x, y, z'
loop_
 _atom_site_type_symbol
 _atom_site_label
 _atom_site_symmetry_multiplicity
 _atom_site_fract_x
 _atom_site_fract_y
 _atom_site_fract_z
 _atom_site_occupancy
  Sc  Sc0  1  0.72017209  0.27982791  0.27982791  1
  Sc  Sc1  1  0.27982691  0.72017309  0.72017309  1
  Sc  Sc2  1  0.27982791  0.72017209  0.27982791  1
  Sc  Sc3  1  0.27982791  0.27982791  0.72017209  1
  Sc  Sc4  1  0.72017309  0.27982691  0.72017309  1
  Sc  Sc5  1  0.72017309  0.72017309  0.27982691  1
  Ga  Ga6  1  0.34424811  0.34424811  0.96725768  1
  Ga  Ga7  1  0.34424811  0.34424811  0.34424811  1
  Ga  Ga8  1  0.96725768  0.34424811  0.34424811  1
  Ga  Ga9  1  0.34424811  0.96725768  0.34424811  1
  Ga  Ga10  1  0.65575189  0.65575189  0.65575189  1
  Ga  Ga11  1  0.65575189  0.65575189  0.03274432  1
  Ga  Ga12  1  0.65575189  0.03274432  0.65575189  1
  Ga  Ga13  1  0.03274432  0.65575189  0.65575189  1
  Ga  Ga14  1  0.12354131  0.12354131  0.12354131  1
  Ga  Ga15  1  0.12354131  0.12354131  0.62937706  1
  Ga  Ga16  1  0.62937706  0.12354131  0.12354131  1
  Ga  Ga17  1  0.12354131  0.62937706  0.12354131  1
  Ga  Ga18  1  0.87645869  0.87645869  0.87645869  1
  Ga  Ga19  1  0.87645869  0.87645869  0.37062394  1
  Ga  Ga20  1  0.87645869  0.37062394  0.87645869  1
  Ga  Ga21  1  0.37062394  0.87645869  0.87645869  1
  Ru  Ru22  1  0.50000100  0.00000000  0.00000000  1
  Ru  Ru23  1  0.00000100  0.50000000  0.50000000  1
  Ru  Ru24  1  0.00000000  0.50000100  0.00000000  1
  Ru  Ru25  1  0.00000000  0.00000000  0.50000100  1
  Ru  Ru26  1  0.50000000  0.00000100  0.50000000  1
  Ru  Ru27  1  0.50000000  0.50000000  0.00000100  1
  Ru  Ru28  1  0.00000000  0.00000000  0.00000000  1
