# generated using pymatgen
data_Sm3Sb4Au3
_symmetry_space_group_name_H-M   'P 1'
_cell_length_a   8.71213711
_cell_length_b   8.71213711
_cell_length_c   8.71213711
_cell_angle_alpha   109.47119773
_cell_angle_beta   109.47119773
_cell_angle_gamma   109.47119773
_symmetry_Int_Tables_number   1
_chemical_formula_structural   Sm3Sb4Au3
_chemical_formula_sum   'Sm6 Sb8 Au6'
_cell_volume   509.04078719
_cell_formula_units_Z   2
loop_
 _symmetry_equiv_pos_site_id
 _symmetry_equiv_pos_as_xyz
  1  'x, y, z'
loop_
 _atom_site_type_symbol
 _atom_site_label
 _atom_site_symmetry_multiplicity
 _atom_site_fract_x
 _atom_site_fract_y
 _atom_site_fract_z
 _atom_site_occupancy
  Sm  Sm0  1  0.25000078  0.62500064  0.37500016  1
  Sm  Sm1  1  0.75000049  0.87499986  0.12499950  1
  Sm  Sm2  1  0.37500016  0.25000078  0.62500064  1
  Sm  Sm3  1  0.62500064  0.37500016  0.25000078  1
  Sm  Sm4  1  0.12499950  0.75000049  0.87499986  1
  Sm  Sm5  1  0.87499986  0.12499950  0.75000049  1
  Sb  Sb6  1  0.17780324  0.17780324  0.17780324  1
  Sb  Sb7  1  0.49999984  0.00000015  0.32219693  1
  Sb  Sb8  1  0.32219693  0.49999984  0.00000015  1
  Sb  Sb9  1  0.00000015  0.32219693  0.49999984  1
  Sb  Sb10  1  0.67780416  0.67780416  0.67780416  1
  Sb  Sb11  1  0.49999971  0.99999980  0.82219626  1
  Sb  Sb12  1  0.99999980  0.82219626  0.49999971  1
  Sb  Sb13  1  0.82219626  0.49999971  0.99999980  1
  Au  Au14  1  0.24999943  0.12499941  0.87500023  1
  Au  Au15  1  0.75000075  0.37500018  0.62499950  1
  Au  Au16  1  0.87500023  0.24999943  0.12499941  1
  Au  Au17  1  0.12499941  0.87500023  0.24999943  1
  Au  Au18  1  0.62499950  0.75000075  0.37500018  1
  Au  Au19  1  0.37500018  0.62499950  0.75000075  1
