# generated using pymatgen
data_Tb2Co12P7
_symmetry_space_group_name_H-M   'P 1'
_cell_length_a   9.01139631
_cell_length_b   9.01106144
_cell_length_c   3.58858507
_cell_angle_alpha   90.00000000
_cell_angle_beta   90.00000000
_cell_angle_gamma   120.00178642
_symmetry_Int_Tables_number   1
_chemical_formula_structural   Tb2Co12P7
_chemical_formula_sum   'Tb2 Co12 P7'
_cell_volume   252.35627050
_cell_formula_units_Z   1
loop_
 _symmetry_equiv_pos_site_id
 _symmetry_equiv_pos_as_xyz
  1  'x, y, z'
loop_
 _atom_site_type_symbol
 _atom_site_label
 _atom_site_symmetry_multiplicity
 _atom_site_fract_x
 _atom_site_fract_y
 _atom_site_fract_z
 _atom_site_occupancy
  Tb  Tb0  1  0.33336052  0.66672245  0.00000000  1
  Tb  Tb1  1  0.66663210  0.33328980  0.50000000  1
  Co  Co2  1  0.43421396  0.05952385  0.00000000  1
  Co  Co3  1  0.94047823  0.37466864  0.00000000  1
  Co  Co4  1  0.62533316  0.56579929  0.00000000  1
  Co  Co5  1  0.38267538  0.43513756  0.50000000  1
  Co  Co6  1  0.56488610  0.94751767  0.50000000  1
  Co  Co7  1  0.05241641  0.61733405  0.50000000  1
  Co  Co8  1  0.15281563  0.27201393  0.00000000  1
  Co  Co9  1  0.72797402  0.88078280  0.00000000  1
  Co  Co10  1  0.11923048  0.84718251  0.00000000  1
  Co  Co11  1  0.23519566  0.10377657  0.50000000  1
  Co  Co12  1  0.89618247  0.13145708  0.50000000  1
  Co  Co13  1  0.86861174  0.76486553  0.50000000  1
  P  P14  1  0.11034445  0.40141865  0.50000000  1
  P  P15  1  0.59858181  0.70889268  0.50000000  1
  P  P16  1  0.29108492  0.88969123  0.50000000  1
  P  P17  1  0.00000948  0.99997578  0.00000000  1
  P  P18  1  0.40536852  0.29360023  0.00000000  1
  P  P19  1  0.70644704  0.11175669  0.00000000  1
  P  P20  1  0.88816091  0.59459201  0.00000000  1
