# generated using pymatgen
data_CoAs3OF18
_symmetry_space_group_name_H-M   'P 1'
_cell_length_a   9.47634055
_cell_length_b   10.53678477
_cell_length_c   13.97505385
_cell_angle_alpha   90.00000000
_cell_angle_beta   90.00000000
_cell_angle_gamma   90.00000000
_symmetry_Int_Tables_number   1
_chemical_formula_structural   CoAs3OF18
_chemical_formula_sum   'Co4 As12 O4 F72'
_cell_volume   1395.41137387
_cell_formula_units_Z   4
loop_
 _symmetry_equiv_pos_site_id
 _symmetry_equiv_pos_as_xyz
  1  'x, y, z'
loop_
 _atom_site_type_symbol
 _atom_site_label
 _atom_site_symmetry_multiplicity
 _atom_site_fract_x
 _atom_site_fract_y
 _atom_site_fract_z
 _atom_site_occupancy
  Co  Co0  1  0.50000000  0.00000000  -0.00000000  1
  Co  Co1  1  -0.00000000  0.50000000  0.50000000  1
  Co  Co2  1  0.50000000  0.00000000  0.50000000  1
  Co  Co3  1  -0.00000000  0.50000000  -0.00000000  1
  As  As4  1  0.69563736  0.70418598  0.05442279  1
  As  As5  1  0.80436264  0.20418598  0.44557721  1
  As  As6  1  0.30436264  0.29581402  0.55442279  1
  As  As7  1  0.19563736  0.79581402  0.94557721  1
  As  As8  1  0.30436264  0.29581402  0.94557721  1
  As  As9  1  0.19563736  0.79581402  0.55442279  1
  As  As10  1  0.69563736  0.70418598  0.44557721  1
  As  As11  1  0.80436264  0.20418598  0.05442279  1
  As  As12  1  0.37829733  0.02343567  0.25000000  1
  As  As13  1  0.12170267  0.52343567  0.25000000  1
  As  As14  1  0.62170267  0.97656433  0.75000000  1
  As  As15  1  0.87829733  0.47656433  0.75000000  1
  O  O16  1  0.98649692  0.92268325  0.25000000  1
  O  O17  1  0.51350308  0.42268325  0.25000000  1
  O  O18  1  0.01350308  0.07731675  0.75000000  1
  O  O19  1  0.48649692  0.57731675  0.75000000  1
  F  F20  1  0.78319082  0.78742074  0.14364092  1
  F  F21  1  0.71680918  0.28742074  0.35635908  1
  F  F22  1  0.21680918  0.21257926  0.64364092  1
  F  F23  1  0.28319082  0.71257926  0.85635908  1
  F  F24  1  0.21680918  0.21257926  0.85635908  1
  F  F25  1  0.28319082  0.71257926  0.64364092  1
  F  F26  1  0.78319082  0.78742074  0.35635908  1
  F  F27  1  0.71680918  0.28742074  0.14364092  1
  F  F28  1  0.59642715  0.62726645  0.14116515  1
  F  F29  1  0.90357285  0.12726645  0.35883485  1
  F  F30  1  0.40357285  0.37273355  0.64116515  1
  F  F31  1  0.09642715  0.87273355  0.85883485  1
  F  F32  1  0.40357285  0.37273355  0.85883485  1
  F  F33  1  0.09642715  0.87273355  0.64116515  1
  F  F34  1  0.59642715  0.62726645  0.35883485  1
  F  F35  1  0.90357285  0.12726645  0.14116515  1
  F  F36  1  0.60618349  0.62114161  0.96629164  1
  F  F37  1  0.89381651  0.12114161  0.53370836  1
  F  F38  1  0.39381651  0.37885839  0.46629164  1
  F  F39  1  0.10618349  0.87885839  0.03370836  1
  F  F40  1  0.39381651  0.37885839  0.03370836  1
  F  F41  1  0.10618349  0.87885839  0.46629164  1
  F  F42  1  0.60618349  0.62114161  0.53370836  1
  F  F43  1  0.89381651  0.12114161  0.96629164  1
  F  F44  1  0.79387551  0.78219183  0.96783183  1
  F  F45  1  0.70612449  0.28219183  0.53216817  1
  F  F46  1  0.20612449  0.21780817  0.46783183  1
  F  F47  1  0.29387551  0.71780817  0.03216817  1
  F  F48  1  0.20612449  0.21780817  0.03216817  1
  F  F49  1  0.29387551  0.71780817  0.46783183  1
  F  F50  1  0.79387551  0.78219183  0.53216817  1
  F  F51  1  0.70612449  0.28219183  0.96783183  1
  F  F52  1  0.56058457  0.83391181  0.04802492  1
  F  F53  1  0.93941543  0.33391181  0.45197508  1
  F  F54  1  0.43941543  0.16608819  0.54802492  1
  F  F55  1  0.06058457  0.66608819  0.95197508  1
  F  F56  1  0.43941543  0.16608819  0.95197508  1
  F  F57  1  0.06058457  0.66608819  0.54802492  1
  F  F58  1  0.56058457  0.83391181  0.45197508  1
  F  F59  1  0.93941543  0.33391181  0.04802492  1
  F  F60  1  0.83193635  0.57691603  0.06199429  1
  F  F61  1  0.66806365  0.07691603  0.43800571  1
  F  F62  1  0.16806365  0.42308397  0.56199429  1
  F  F63  1  0.33193635  0.92308397  0.93800571  1
  F  F64  1  0.16806365  0.42308397  0.93800571  1
  F  F65  1  0.33193635  0.92308397  0.56199429  1
  F  F66  1  0.83193635  0.57691603  0.43800571  1
  F  F67  1  0.66806365  0.07691603  0.06199429  1
  F  F68  1  0.54215439  0.94984424  0.25000000  1
  F  F69  1  0.95784561  0.44984424  0.25000000  1
  F  F70  1  0.45784561  0.05015576  0.75000000  1
  F  F71  1  0.04215439  0.55015576  0.75000000  1
  F  F72  1  0.45903397  0.17207657  0.25000000  1
  F  F73  1  0.04096603  0.67207657  0.25000000  1
  F  F74  1  0.54096603  0.82792343  0.75000000  1
  F  F75  1  0.95903397  0.32792343  0.75000000  1
  F  F76  1  0.21385604  0.09643043  0.25000000  1
  F  F77  1  0.28614396  0.59643043  0.25000000  1
  F  F78  1  0.78614396  0.90356957  0.75000000  1
  F  F79  1  0.71385604  0.40356957  0.75000000  1
  F  F80  1  0.29379540  0.87743344  0.25000000  1
  F  F81  1  0.20620460  0.37743344  0.25000000  1
  F  F82  1  0.70620460  0.12256656  0.75000000  1
  F  F83  1  0.79379540  0.62256656  0.75000000  1
  F  F84  1  0.38192134  0.02326304  0.11695442  1
  F  F85  1  0.11807866  0.52326304  0.38304558  1
  F  F86  1  0.61807866  0.97673696  0.61695442  1
  F  F87  1  0.88192134  0.47673696  0.88304558  1
  F  F88  1  0.61807866  0.97673696  0.88304558  1
  F  F89  1  0.88192134  0.47673696  0.61695442  1
  F  F90  1  0.38192134  0.02326304  0.38304558  1
  F  F91  1  0.11807866  0.52326304  0.11695442  1
