# generated using pymatgen
data_PrCuGe2
_symmetry_space_group_name_H-M   'P 1'
_cell_length_a   9.00192082
_cell_length_b   9.00192082
_cell_length_c   4.23524324
_cell_angle_alpha   90.00000000
_cell_angle_beta   90.00000000
_cell_angle_gamma   27.49472054
_symmetry_Int_Tables_number   1
_chemical_formula_structural   PrCuGe2
_chemical_formula_sum   'Pr2 Cu2 Ge4'
_cell_volume   158.44460396
_cell_formula_units_Z   2
loop_
 _symmetry_equiv_pos_site_id
 _symmetry_equiv_pos_as_xyz
  1  'x, y, z'
loop_
 _atom_site_type_symbol
 _atom_site_label
 _atom_site_symmetry_multiplicity
 _atom_site_fract_x
 _atom_site_fract_y
 _atom_site_fract_z
 _atom_site_occupancy
  Pr  Pr0  1  0.10385012  0.10385012  0.25000000  1
  Pr  Pr1  1  0.89615088  0.89615088  0.75000100  1
  Cu  Cu2  1  0.32473511  0.32473511  0.25000000  1
  Cu  Cu3  1  0.67526489  0.67526489  0.75000100  1
  Ge  Ge4  1  0.75086366  0.75086366  0.25000000  1
  Ge  Ge5  1  0.24913634  0.24913634  0.75000100  1
  Ge  Ge6  1  0.46112136  0.46112136  0.25000000  1
  Ge  Ge7  1  0.53887764  0.53887764  0.75000100  1
