# generated using pymatgen
data_Zr(FeGe)6
_symmetry_space_group_name_H-M   'P 1'
_cell_length_a   5.06165985
_cell_length_b   5.06216895
_cell_length_c   8.07556113
_cell_angle_alpha   89.99919386
_cell_angle_beta   89.99321488
_cell_angle_gamma   120.00454001
_symmetry_Int_Tables_number   1
_chemical_formula_structural   Zr(FeGe)6
_chemical_formula_sum   'Zr1 Fe6 Ge6'
_cell_volume   179.18970660
_cell_formula_units_Z   1
loop_
 _symmetry_equiv_pos_site_id
 _symmetry_equiv_pos_as_xyz
  1  'x, y, z'
loop_
 _atom_site_type_symbol
 _atom_site_label
 _atom_site_symmetry_multiplicity
 _atom_site_fract_x
 _atom_site_fract_y
 _atom_site_fract_z
 _atom_site_occupancy
  Zr  Zr0  1  0.00005429  0.00007040  -0.00002060  1
  Fe  Fe1  1  0.50009501  0.00005466  0.24963579  1
  Fe  Fe2  1  0.50005947  0.50004306  0.24965053  1
  Fe  Fe3  1  0.00007210  0.50003827  0.24965650  1
  Fe  Fe4  1  0.49989090  0.49991502  0.75036902  1
  Fe  Fe5  1  0.99993318  0.49992643  0.75036403  1
  Fe  Fe6  1  0.49990907  0.99996137  0.75038158  1
  Ge  Ge7  1  0.33337392  0.66670246  0.00006151  1
  Ge  Ge8  1  0.66673419  0.33345252  0.00006570  1
  Ge  Ge9  1  0.00004312  0.00001623  0.34250005  1
  Ge  Ge10  1  0.66669777  0.33336485  0.49996505  1
  Ge  Ge11  1  0.33338264  0.66671680  0.49996764  1
  Ge  Ge12  1  0.99995533  0.99994193  0.65740118  1
