# generated using pymatgen
data_PrSi
_symmetry_space_group_name_H-M   'P 1'
_cell_length_a   3.96831952
_cell_length_b   5.97202157
_cell_length_c   8.33957178
_cell_angle_alpha   90.00000000
_cell_angle_beta   90.00000000
_cell_angle_gamma   90.00000000
_symmetry_Int_Tables_number   1
_chemical_formula_structural   PrSi
_chemical_formula_sum   'Pr4 Si4'
_cell_volume   197.63859234
_cell_formula_units_Z   4
loop_
 _symmetry_equiv_pos_site_id
 _symmetry_equiv_pos_as_xyz
  1  'x, y, z'
loop_
 _atom_site_type_symbol
 _atom_site_label
 _atom_site_symmetry_multiplicity
 _atom_site_fract_x
 _atom_site_fract_y
 _atom_site_fract_z
 _atom_site_occupancy
  Si  Si0  1  0.25000000  0.87957855  0.53476338  1
  Si  Si1  1  0.75000000  0.12042145  0.46523662  1
  Si  Si2  1  0.75000000  0.37957855  0.96523662  1
  Si  Si3  1  0.25000000  0.62042145  0.03476338  1
  Pr  Pr4  1  0.25000000  0.38622912  0.67973906  1
  Pr  Pr5  1  0.75000000  0.61377088  0.32026094  1
  Pr  Pr6  1  0.75000000  0.88622912  0.82026094  1
  Pr  Pr7  1  0.25000000  0.11377088  0.17973906  1
