# generated using pymatgen
data_Er2(SO4)3
_symmetry_space_group_name_H-M   'P 1'
_cell_length_a   9.23573258
_cell_length_b   9.32486956
_cell_length_c   12.89877618
_cell_angle_alpha   90.00000000
_cell_angle_beta   90.00000000
_cell_angle_gamma   90.00000000
_symmetry_Int_Tables_number   1
_chemical_formula_structural   Er2(SO4)3
_chemical_formula_sum   'Er8 S12 O48'
_cell_volume   1110.86842281
_cell_formula_units_Z   4
loop_
 _symmetry_equiv_pos_site_id
 _symmetry_equiv_pos_as_xyz
  1  'x, y, z'
loop_
 _atom_site_type_symbol
 _atom_site_label
 _atom_site_symmetry_multiplicity
 _atom_site_fract_x
 _atom_site_fract_y
 _atom_site_fract_z
 _atom_site_occupancy
  O  O0  1  0.12674013  0.34943706  0.55940823  1
  O  O1  1  0.12674013  0.15056294  0.44059177  1
  O  O2  1  0.37325987  0.84943706  0.94059177  1
  O  O3  1  0.37325987  0.65056294  0.05940823  1
  O  O4  1  0.87325987  0.65056294  0.44059177  1
  O  O5  1  0.87325987  0.84943706  0.55940823  1
  O  O6  1  0.62674013  0.15056294  0.05940823  1
  O  O7  1  0.62674013  0.34943706  0.94059177  1
  O  O8  1  0.94190443  0.33108217  0.42628450  1
  O  O9  1  0.94190443  0.16891783  0.57371550  1
  O  O10  1  0.55809557  0.83108217  0.07371550  1
  O  O11  1  0.55809557  0.66891783  0.92628450  1
  O  O12  1  0.05809557  0.66891783  0.57371550  1
  O  O13  1  0.05809557  0.83108217  0.42628450  1
  O  O14  1  0.44190443  0.16891783  0.92628450  1
  O  O15  1  0.44190443  0.33108217  0.07371550  1
  O  O16  1  0.33393045  0.57121242  0.45755349  1
  O  O17  1  0.66606955  0.42878758  0.54244651  1
  O  O18  1  0.83393045  0.92878758  0.95755349  1
  O  O19  1  0.83393045  0.57121242  0.04244651  1
  O  O20  1  0.35781026  0.76222988  0.33115877  1
  O  O21  1  0.35781026  0.73777012  0.66884123  1
  O  O22  1  0.14218974  0.26222988  0.16884123  1
  O  O23  1  0.14218974  0.23777012  0.83115877  1
  O  O24  1  0.64218974  0.23777012  0.66884123  1
  O  O25  1  0.64218974  0.26222988  0.33115877  1
  O  O26  1  0.85781026  0.73777012  0.83115877  1
  O  O27  1  0.85781026  0.76222988  0.16884123  1
  O  O28  1  0.94877330  0.40871278  0.85327934  1
  O  O29  1  0.94877330  0.09128722  0.14672066  1
  O  O30  1  0.55122670  0.90871278  0.64672066  1
  O  O31  1  0.55122670  0.59128722  0.35327934  1
  O  O32  1  0.05122670  0.59128722  0.14672066  1
  O  O33  1  0.05122670  0.90871278  0.85327934  1
  O  O34  1  0.44877330  0.09128722  0.35327934  1
  O  O35  1  0.44877330  0.40871278  0.64672066  1
  O  O36  1  0.17423839  0.48419246  0.77515364  1
  O  O37  1  0.17423839  0.01580754  0.22484636  1
  O  O38  1  0.32576161  0.98419246  0.72484636  1
  O  O39  1  0.32576161  0.51580754  0.27515364  1
  O  O40  1  0.82576161  0.51580754  0.22484636  1
  O  O41  1  0.82576161  0.98419246  0.77515364  1
  O  O42  1  0.67423839  0.01580754  0.27515364  1
  O  O43  1  0.67423839  0.48419246  0.72484636  1
  O  O44  1  0.16606955  0.42878758  0.95755349  1
  O  O45  1  0.16606955  0.07121242  0.04244651  1
  O  O46  1  0.33393045  0.92878758  0.54244651  1
  O  O47  1  0.66606955  0.07121242  0.45755349  1
  S  S48  1  0.60793426  0.38974008  0.64556538  1
  S  S49  1  0.60793426  0.11025992  0.35443462  1
  S  S50  1  0.89206574  0.88974008  0.85443462  1
  S  S51  1  0.89206574  0.61025992  0.14556538  1
  S  S52  1  0.39206574  0.61025992  0.35443462  1
  S  S53  1  0.39206574  0.88974008  0.64556538  1
  S  S54  1  0.10793426  0.11025992  0.14556538  1
  S  S55  1  0.10793426  0.38974008  0.85443462  1
  S  S56  1  0.03377431  0.25000000  0.50000000  1
  S  S57  1  0.46622569  0.75000000  0.00000000  1
  S  S58  1  0.96622569  0.75000000  0.50000000  1
  S  S59  1  0.53377431  0.25000000  0.00000000  1
  Er  Er60  1  0.75051253  0.46406229  0.38345818  1
  Er  Er61  1  0.75051253  0.03593771  0.61654182  1
  Er  Er62  1  0.74948747  0.96406229  0.11654182  1
  Er  Er63  1  0.74948747  0.53593771  0.88345818  1
  Er  Er64  1  0.24948747  0.53593771  0.61654182  1
  Er  Er65  1  0.24948747  0.96406229  0.38345818  1
  Er  Er66  1  0.25051253  0.03593771  0.88345818  1
  Er  Er67  1  0.25051253  0.46406229  0.11654182  1
