# generated using pymatgen
data_EuH3CSO7
_symmetry_space_group_name_H-M   'P 1'
_cell_length_a   7.08669851
_cell_length_b   7.08669851
_cell_length_c   12.04860997
_cell_angle_alpha   90.00000000
_cell_angle_beta   90.00000000
_cell_angle_gamma   90.00000000
_symmetry_Int_Tables_number   1
_chemical_formula_structural   EuH3CSO7
_chemical_formula_sum   'Eu4 H12 C4 S4 O28'
_cell_volume   605.09680494
_cell_formula_units_Z   4
loop_
 _symmetry_equiv_pos_site_id
 _symmetry_equiv_pos_as_xyz
  1  'x, y, z'
loop_
 _atom_site_type_symbol
 _atom_site_label
 _atom_site_symmetry_multiplicity
 _atom_site_fract_x
 _atom_site_fract_y
 _atom_site_fract_z
 _atom_site_occupancy
  Eu  Eu0  1  0.87122540  0.61500743  0.91608115  1
  Eu  Eu1  1  0.12877460  0.38499257  0.41608115  1
  Eu  Eu2  1  0.61500743  0.12877460  0.66608115  1
  Eu  Eu3  1  0.38499257  0.87122540  0.16608115  1
  H  H4  1  0.08762263  0.67320937  0.70043312  1
  H  H5  1  0.91237737  0.32679063  0.20043312  1
  H  H6  1  0.67320937  0.91237737  0.45043312  1
  H  H7  1  0.32679063  0.08762263  0.95043312  1
  H  H8  1  0.03189137  0.88270874  0.73163036  1
  H  H9  1  0.96810863  0.11729126  0.23163036  1
  H  H10  1  0.88270874  0.96810863  0.48163036  1
  H  H11  1  0.11729126  0.03189137  0.98163036  1
  H  H12  1  0.36865210  0.58653840  0.86424418  1
  H  H13  1  0.63134790  0.41346160  0.36424418  1
  H  H14  1  0.58653840  0.63134790  0.61424418  1
  H  H15  1  0.41346160  0.36865210  0.11424418  1
  C  C16  1  0.37119150  0.63730390  0.95051380  1
  C  C17  1  0.62880850  0.36269610  0.45051380  1
  C  C18  1  0.63730390  0.62880850  0.70051380  1
  C  C19  1  0.36269610  0.37119150  0.20051380  1
  S  S20  1  0.72507011  0.10953037  0.96854235  1
  S  S21  1  0.27492989  0.89046963  0.46854235  1
  S  S22  1  0.10953037  0.27492989  0.71854235  1
  S  S23  1  0.89046963  0.72507011  0.21854235  1
  O  O24  1  0.60109184  0.11779124  0.86960907  1
  O  O25  1  0.39890816  0.88220876  0.36960907  1
  O  O26  1  0.11779124  0.39890816  0.61960907  1
  O  O27  1  0.88220876  0.60109184  0.11960907  1
  O  O28  1  0.82012939  0.29271746  0.98597215  1
  O  O29  1  0.17987061  0.70728254  0.48597215  1
  O  O30  1  0.29271746  0.17987061  0.73597215  1
  O  O31  1  0.70728254  0.82012939  0.23597215  1
  O  O32  1  0.87019137  0.95752807  0.95495587  1
  O  O33  1  0.12980863  0.04247193  0.45495587  1
  O  O34  1  0.95752807  0.12980863  0.70495587  1
  O  O35  1  0.04247193  0.87019137  0.20495587  1
  O  O36  1  0.60940237  0.06963614  0.06802469  1
  O  O37  1  0.39059763  0.93036386  0.56802469  1
  O  O38  1  0.06963614  0.39059763  0.81802469  1
  O  O39  1  0.93036386  0.60940237  0.31802469  1
  O  O40  1  0.21629436  0.66317205  0.00094561  1
  O  O41  1  0.78370564  0.33682795  0.50094561  1
  O  O42  1  0.66317205  0.78370564  0.75094561  1
  O  O43  1  0.33682795  0.21629436  0.25094561  1
  O  O44  1  0.53047020  0.67029533  0.99680641  1
  O  O45  1  0.46952980  0.32970467  0.49680641  1
  O  O46  1  0.67029533  0.46952980  0.74680641  1
  O  O47  1  0.32970467  0.53047020  0.24680641  1
  O  O48  1  0.06364679  0.75821343  0.76289125  1
  O  O49  1  0.93635321  0.24178657  0.26289125  1
  O  O50  1  0.75821343  0.93635321  0.51289125  1
  O  O51  1  0.24178657  0.06364679  0.01289125  1
