# generated using pymatgen
data_Tm(AlC)3
_symmetry_space_group_name_H-M   'P 1'
_cell_length_a   3.41417954
_cell_length_b   3.41420845
_cell_length_c   17.21286923
_cell_angle_alpha   90.00000000
_cell_angle_beta   90.00000000
_cell_angle_gamma   119.99972957
_symmetry_Int_Tables_number   1
_chemical_formula_structural   Tm(AlC)3
_chemical_formula_sum   'Tm2 Al6 C6'
_cell_volume   173.76466722
_cell_formula_units_Z   2
loop_
 _symmetry_equiv_pos_site_id
 _symmetry_equiv_pos_as_xyz
  1  'x, y, z'
loop_
 _atom_site_type_symbol
 _atom_site_label
 _atom_site_symmetry_multiplicity
 _atom_site_fract_x
 _atom_site_fract_y
 _atom_site_fract_z
 _atom_site_occupancy
  Tm  Tm0  1  0.00000000  0.00000000  0.00000000  1
  Tm  Tm1  1  0.00000000  0.00000000  0.50000000  1
  Al  Al2  1  0.33333740  0.66667479  0.13253703  1
  Al  Al3  1  0.66666398  0.33332695  0.25000000  1
  Al  Al4  1  0.33333740  0.66667479  0.36746297  1
  Al  Al5  1  0.66666360  0.33332621  0.63253703  1
  Al  Al6  1  0.33333702  0.66667405  0.75000000  1
  Al  Al7  1  0.66666360  0.33332621  0.86746297  1
  C  C8  1  0.66666374  0.33332648  0.09112227  1
  C  C9  1  0.33333108  0.66666217  0.25000000  1
  C  C10  1  0.66666374  0.33332648  0.40887773  1
  C  C11  1  0.33333726  0.66667352  0.59112227  1
  C  C12  1  0.66666792  0.33333483  0.75000000  1
  C  C13  1  0.33333726  0.66667352  0.90887873  1
