# generated using pymatgen
data_CsPb2Cl5
_symmetry_space_group_name_H-M   'P 1'
_cell_length_a   8.27314283
_cell_length_b   8.27314283
_cell_length_c   9.64344979
_cell_angle_alpha   115.40103261
_cell_angle_beta   115.40103261
_cell_angle_gamma   90.00000000
_symmetry_Int_Tables_number   1
_chemical_formula_structural   CsPb2Cl5
_chemical_formula_sum   'Cs2 Pb4 Cl10'
_cell_volume   524.72587157
_cell_formula_units_Z   2
loop_
 _symmetry_equiv_pos_site_id
 _symmetry_equiv_pos_as_xyz
  1  'x, y, z'
loop_
 _atom_site_type_symbol
 _atom_site_label
 _atom_site_symmetry_multiplicity
 _atom_site_fract_x
 _atom_site_fract_y
 _atom_site_fract_z
 _atom_site_occupancy
  Cs  Cs0  1  0.25000000  0.25000000  0.50000000  1
  Cs  Cs1  1  0.75000000  0.75000000  0.50000000  1
  Pb  Pb2  1  0.66972737  0.16972737  0.00000000  1
  Pb  Pb3  1  0.16972737  0.33027363  0.00000000  1
  Pb  Pb4  1  0.83027363  0.66972737  0.00000000  1
  Pb  Pb5  1  0.33027363  0.83027363  0.00000000  1
  Cl  Cl6  1  0.00000000  0.00000000  0.00000000  1
  Cl  Cl7  1  0.50000000  0.50000000  0.00000000  1
  Cl  Cl8  1  0.46752579  0.27626425  0.24379004  1
  Cl  Cl9  1  0.96752579  0.46752579  0.24379004  1
  Cl  Cl10  1  0.27626425  0.77626425  0.24379004  1
  Cl  Cl11  1  0.77626425  0.96752579  0.24379004  1
  Cl  Cl12  1  0.22373575  0.03247421  0.75620996  1
  Cl  Cl13  1  0.72373575  0.22373575  0.75620996  1
  Cl  Cl14  1  0.03247421  0.53247421  0.75620996  1
  Cl  Cl15  1  0.53247421  0.72373575  0.75620996  1
