# generated using pymatgen
data_Sm2Ge5Ir3
_symmetry_space_group_name_H-M   'P 1'
_cell_length_a   8.44348998
_cell_length_b   8.44348998
_cell_length_c   8.44348998
_cell_angle_alpha   104.92792764
_cell_angle_beta   90.16323902
_cell_angle_gamma   137.69285336
_symmetry_Int_Tables_number   1
_chemical_formula_structural   Sm2Ge5Ir3
_chemical_formula_sum   'Sm4 Ge10 Ir6'
_cell_volume   373.80392773
_cell_formula_units_Z   2
loop_
 _symmetry_equiv_pos_site_id
 _symmetry_equiv_pos_as_xyz
  1  'x, y, z'
loop_
 _atom_site_type_symbol
 _atom_site_label
 _atom_site_symmetry_multiplicity
 _atom_site_fract_x
 _atom_site_fract_y
 _atom_site_fract_z
 _atom_site_occupancy
  Sm  Sm0  1  0.63335877  0.22759819  0.86095696  1
  Sm  Sm1  1  0.36664023  0.77240081  0.13904204  1
  Sm  Sm2  1  0.86664023  0.72759819  0.59423843  1
  Sm  Sm3  1  0.13335977  0.27240181  0.40576157  1
  Ge  Ge4  1  0.74999900  0.25000000  0.50000000  1
  Ge  Ge5  1  0.25000000  0.75000000  0.50000000  1
  Ge  Ge6  1  0.97388090  0.74999900  0.22388190  1
  Ge  Ge7  1  0.52611710  0.75000000  0.77611810  1
  Ge  Ge8  1  0.02611810  0.25000100  0.77611810  1
  Ge  Ge9  1  0.47388190  0.25000000  0.22388190  1
  Ge  Ge10  1  0.90077905  0.16115407  0.06193412  1
  Ge  Ge11  1  0.09922095  0.83884593  0.93806688  1
  Ge  Ge12  1  0.59922095  0.66115407  0.26037602  1
  Ge  Ge13  1  0.40077905  0.33884593  0.73962498  1
  Ir  Ir14  1  0.64172341  0.88990426  0.53162867  1
  Ir  Ir15  1  0.35827559  0.11009474  0.46837033  1
  Ir  Ir16  1  0.74999900  0.74999900  0.00000000  1
  Ir  Ir17  1  0.25000000  0.25000000  0.00000000  1
  Ir  Ir18  1  0.85827459  0.38990426  0.24818085  1
  Ir  Ir19  1  0.14172441  0.61009474  0.75181915  1
