# generated using pymatgen
data_Sb2Cl7O6
_symmetry_space_group_name_H-M   'P 1'
_cell_length_a   9.85817106
_cell_length_b   14.14392214
_cell_length_c   21.95500373
_cell_angle_alpha   90.00000000
_cell_angle_beta   90.00000000
_cell_angle_gamma   90.90100614
_symmetry_Int_Tables_number   1
_chemical_formula_structural   Sb2Cl7O6
_chemical_formula_sum   'Sb16 Cl56 O48'
_cell_volume   3060.87800686
_cell_formula_units_Z   8
loop_
 _symmetry_equiv_pos_site_id
 _symmetry_equiv_pos_as_xyz
  1  'x, y, z'
loop_
 _atom_site_type_symbol
 _atom_site_label
 _atom_site_symmetry_multiplicity
 _atom_site_fract_x
 _atom_site_fract_y
 _atom_site_fract_z
 _atom_site_occupancy
  Sb  Sb0  1  0.61504580  0.78209057  0.29848754  1
  Sb  Sb1  1  0.11504580  0.28209057  0.20151246  1
  Sb  Sb2  1  0.38495420  0.21790943  0.70151246  1
  Sb  Sb3  1  0.88495420  0.71790943  0.79848754  1
  Sb  Sb4  1  0.93987892  0.79740515  0.32019984  1
  Sb  Sb5  1  0.43987892  0.29740515  0.17980016  1
  Sb  Sb6  1  0.06012108  0.20259485  0.67980016  1
  Sb  Sb7  1  0.56012108  0.70259485  0.82019984  1
  Sb  Sb8  1  0.27655996  0.14974025  0.43828199  1
  Sb  Sb9  1  0.77655996  0.64974025  0.06171801  1
  Sb  Sb10  1  0.72344004  0.85025975  0.56171801  1
  Sb  Sb11  1  0.22344004  0.35025975  0.93828199  1
  Sb  Sb12  1  0.26676681  0.37313756  0.46355936  1
  Sb  Sb13  1  0.76676681  0.87313756  0.03644064  1
  Sb  Sb14  1  0.73323319  0.62686244  0.53644064  1
  Sb  Sb15  1  0.23323319  0.12686244  0.96355936  1
  Cl  Cl16  1  0.59433244  0.61920098  0.28032352  1
  Cl  Cl17  1  0.09433244  0.11920098  0.21967648  1
  Cl  Cl18  1  0.40566756  0.38079902  0.71967648  1
  Cl  Cl19  1  0.90566756  0.88079902  0.78032352  1
  Cl  Cl20  1  0.49169606  0.82970813  0.21298201  1
  Cl  Cl21  1  0.99169606  0.32970813  0.28701799  1
  Cl  Cl22  1  0.50830394  0.17029187  0.78701799  1
  Cl  Cl23  1  0.00830394  0.67029187  0.71298201  1
  Cl  Cl24  1  0.44148642  0.79007384  0.37058308  1
  Cl  Cl25  1  0.94148642  0.29007384  0.12941692  1
  Cl  Cl26  1  0.55851358  0.20992616  0.62941692  1
  Cl  Cl27  1  0.05851358  0.70992616  0.87058308  1
  Cl  Cl28  1  0.99714578  0.63832206  0.31035086  1
  Cl  Cl29  1  0.49714578  0.13832206  0.18964914  1
  Cl  Cl30  1  0.00285422  0.36167794  0.68964914  1
  Cl  Cl31  1  0.50285422  0.86167794  0.81035086  1
  Cl  Cl32  1  0.10465034  0.85796546  0.25375790  1
  Cl  Cl33  1  0.60465034  0.35796546  0.24624210  1
  Cl  Cl34  1  0.89534966  0.14203454  0.74624210  1
  Cl  Cl35  1  0.39534966  0.64203454  0.75375790  1
  Cl  Cl36  1  0.05688369  0.82619514  0.41106812  1
  Cl  Cl37  1  0.55688369  0.32619514  0.08893188  1
  Cl  Cl38  1  0.94311631  0.17380486  0.58893188  1
  Cl  Cl39  1  0.44311631  0.67380486  0.91106812  1
  Cl  Cl40  1  0.04520863  0.12088407  0.42039071  1
  Cl  Cl41  1  0.54520863  0.62088407  0.07960929  1
  Cl  Cl42  1  0.95479137  0.87911593  0.57960929  1
  Cl  Cl43  1  0.45479137  0.37911593  0.92039071  1
  Cl  Cl44  1  0.30622174  0.02828080  0.50887296  1
  Cl  Cl45  1  0.80622174  0.52828080  0.99112704  1
  Cl  Cl46  1  0.69377826  0.97171920  0.49112704  1
  Cl  Cl47  1  0.19377826  0.47171920  0.00887296  1
  Cl  Cl48  1  0.35388320  0.06970800  0.35202398  1
  Cl  Cl49  1  0.85388320  0.56970800  0.14797602  1
  Cl  Cl50  1  0.64611680  0.93029200  0.64797602  1
  Cl  Cl51  1  0.14611680  0.43029200  0.85202398  1
  Cl  Cl52  1  0.03224949  0.39432648  0.45128236  1
  Cl  Cl53  1  0.53224949  0.89432648  0.04871764  1
  Cl  Cl54  1  0.96775051  0.60567352  0.54871764  1
  Cl  Cl55  1  0.46775051  0.10567352  0.95128236  1
  Cl  Cl56  1  0.33503629  0.49844646  0.40076470  1
  Cl  Cl57  1  0.83503629  0.99844646  0.09923530  1
  Cl  Cl58  1  0.66496371  0.50155354  0.59923530  1
  Cl  Cl59  1  0.16496371  0.00155354  0.90076470  1
  Cl  Cl60  1  0.28512075  0.45190960  0.55701726  1
  Cl  Cl61  1  0.78512075  0.95190960  0.94298274  1
  Cl  Cl62  1  0.71487925  0.54809040  0.44298274  1
  Cl  Cl63  1  0.21487925  0.04809040  0.05701726  1
  Cl  Cl64  1  0.75783320  0.00148960  0.30832364  1
  Cl  Cl65  1  0.25783320  0.50148960  0.19167636  1
  Cl  Cl66  1  0.24216680  0.99851040  0.69167636  1
  Cl  Cl67  1  0.74216680  0.49851040  0.80832364  1
  Cl  Cl68  1  0.57739165  0.27211326  0.45115296  1
  Cl  Cl69  1  0.07739165  0.77211326  0.04884704  1
  Cl  Cl70  1  0.42260835  0.72788674  0.54884704  1
  Cl  Cl71  1  0.92260835  0.22788674  0.95115296  1
  O  O72  1  0.79523909  0.79500212  0.25489501  1
  O  O73  1  0.29523909  0.29500212  0.24510499  1
  O  O74  1  0.20476091  0.20499788  0.74510499  1
  O  O75  1  0.70476091  0.70499788  0.75489501  1
  O  O76  1  0.76187084  0.76695605  0.36267872  1
  O  O77  1  0.26187084  0.26695605  0.13732128  1
  O  O78  1  0.23812916  0.23304395  0.63732128  1
  O  O79  1  0.73812916  0.73304395  0.86267872  1
  O  O80  1  0.88039869  0.95168847  0.33433730  1
  O  O81  1  0.38039869  0.45168847  0.16566270  1
  O  O82  1  0.11960131  0.04831153  0.66566270  1
  O  O83  1  0.61960131  0.54831153  0.83433730  1
  O  O84  1  0.63441031  0.93744301  0.32090588  1
  O  O85  1  0.13441031  0.43744301  0.17909412  1
  O  O86  1  0.36558969  0.06255699  0.67909412  1
  O  O87  1  0.86558969  0.56255699  0.82090588  1
  O  O88  1  0.73969149  0.08538767  0.34293220  1
  O  O89  1  0.23969149  0.58538767  0.15706780  1
  O  O90  1  0.26030851  0.91461233  0.65706780  1
  O  O91  1  0.76030851  0.41461233  0.84293220  1
  O  O92  1  0.77309867  0.01575916  0.24448054  1
  O  O93  1  0.27309867  0.51575916  0.25551946  1
  O  O94  1  0.22690133  0.98424084  0.75551946  1
  O  O95  1  0.72690133  0.48424084  0.74448054  1
  O  O96  1  0.24154722  0.24589583  0.50486427  1
  O  O97  1  0.74154722  0.74589583  0.99513573  1
  O  O98  1  0.75845278  0.75410417  0.49513573  1
  O  O99  1  0.25845278  0.25410417  0.00486427  1
  O  O100  1  0.27896913  0.27658273  0.39624260  1
  O  O101  1  0.77896913  0.77658273  0.10375740  1
  O  O102  1  0.72103087  0.72341727  0.60375740  1
  O  O103  1  0.22103087  0.22341727  0.89624260  1
  O  O104  1  0.49067656  0.34879886  0.47973459  1
  O  O105  1  0.99067656  0.84879886  0.02026541  1
  O  O106  1  0.50932344  0.65120114  0.52026541  1
  O  O107  1  0.00932344  0.15120114  0.97973459  1
  O  O108  1  0.50003904  0.17868901  0.45877458  1
  O  O109  1  0.00003904  0.67868901  0.04122542  1
  O  O110  1  0.49996096  0.82131099  0.54122542  1
  O  O111  1  -0.00003904  0.32131099  0.95877458  1
  O  O112  1  0.59999593  0.29165583  0.38836520  1
  O  O113  1  0.09999593  0.79165583  0.11163480  1
  O  O114  1  0.40000407  0.70834417  0.61163480  1
  O  O115  1  0.90000407  0.20834417  0.88836520  1
  O  O116  1  0.69729766  0.26615430  0.48710322  1
  O  O117  1  0.19729766  0.76615430  0.01289678  1
  O  O118  1  0.30270234  0.73384570  0.51289678  1
  O  O119  1  0.80270234  0.23384570  0.98710322  1
