# generated using pymatgen
data_Ba4Er(RuO4)3
_symmetry_space_group_name_H-M   'P 1'
_cell_length_a   10.37570523
_cell_length_b   10.37570523
_cell_length_c   10.37570485
_cell_angle_alpha   33.19852470
_cell_angle_beta   33.19852470
_cell_angle_gamma   33.19852003
_symmetry_Int_Tables_number   1
_chemical_formula_structural   Ba4Er(RuO4)3
_chemical_formula_sum   'Ba4 Er1 Ru3 O12'
_cell_volume   298.10902907
_cell_formula_units_Z   1
loop_
 _symmetry_equiv_pos_site_id
 _symmetry_equiv_pos_as_xyz
  1  'x, y, z'
loop_
 _atom_site_type_symbol
 _atom_site_label
 _atom_site_symmetry_multiplicity
 _atom_site_fract_x
 _atom_site_fract_y
 _atom_site_fract_z
 _atom_site_occupancy
  Ba  Ba0  1  0.28602028  0.28602028  0.28602028  1
  Ba  Ba1  1  0.71397972  0.71397972  0.71398072  1
  Ba  Ba2  1  0.12875381  0.12875381  0.12875381  1
  Ba  Ba3  1  0.87124619  0.87124619  0.87124719  1
  Er  Er4  1  0.00000000  0.00000000  0.00000000  1
  Ru  Ru5  1  0.41334224  0.41334224  0.41334224  1
  Ru  Ru6  1  0.58665776  0.58665776  0.58665876  1
  Ru  Ru7  1  0.50000000  0.50000000  0.50000000  1
  O  O8  1  0.78253504  0.30566055  0.78253604  1
  O  O9  1  0.78253604  0.78253604  0.30566055  1
  O  O10  1  0.30566055  0.78253504  0.78253604  1
  O  O11  1  0.69433945  0.21746496  0.21746396  1
  O  O12  1  0.21746396  0.21746396  0.69434045  1
  O  O13  1  0.21746496  0.69433945  0.21746396  1
  O  O14  1  0.61264708  0.14690703  0.61264708  1
  O  O15  1  0.61264808  0.61264808  0.14690603  1
  O  O16  1  0.14690703  0.61264708  0.61264708  1
  O  O17  1  0.85309197  0.38735292  0.38735392  1
  O  O18  1  0.38735192  0.38735192  0.85309497  1
  O  O19  1  0.38735292  0.85309197  0.38735392  1
