# generated using pymatgen
data_Si2H5CNCl4
_symmetry_space_group_name_H-M   'P 1'
_cell_length_a   7.94132208
_cell_length_b   10.76333371
_cell_length_c   12.52111658
_cell_angle_alpha   90.00000000
_cell_angle_beta   90.00000000
_cell_angle_gamma   92.08956624
_symmetry_Int_Tables_number   1
_chemical_formula_structural   Si2H5CNCl4
_chemical_formula_sum   'Si8 H20 C4 N4 Cl16'
_cell_volume   1069.53202957
_cell_formula_units_Z   4
loop_
 _symmetry_equiv_pos_site_id
 _symmetry_equiv_pos_as_xyz
  1  'x, y, z'
loop_
 _atom_site_type_symbol
 _atom_site_label
 _atom_site_symmetry_multiplicity
 _atom_site_fract_x
 _atom_site_fract_y
 _atom_site_fract_z
 _atom_site_occupancy
  Si  Si0  1  0.43792127  0.29758018  0.19468552  1
  Si  Si1  1  0.56207873  0.20241982  0.69468552  1
  Si  Si2  1  0.56207873  0.70241982  0.80531448  1
  Si  Si3  1  0.43792127  0.79758018  0.30531448  1
  Si  Si4  1  0.16238851  0.19602773  0.04740777  1
  Si  Si5  1  0.83761149  0.30397227  0.54740777  1
  Si  Si6  1  0.83761149  0.80397227  0.95259223  1
  Si  Si7  1  0.16238851  0.69602773  0.45259223  1
  H  H8  1  0.15582750  0.45597796  0.22420533  1
  H  H9  1  0.84417250  0.04402204  0.72420533  1
  H  H10  1  0.84417250  0.54402204  0.77579467  1
  H  H11  1  0.15582750  0.95597796  0.27579467  1
  H  H12  1  0.21858164  0.50455749  0.09282876  1
  H  H13  1  0.78141836  0.99544251  0.59282876  1
  H  H14  1  0.78141836  0.49544251  0.90717124  1
  H  H15  1  0.21858164  0.00455749  0.40717124  1
  H  H16  1  0.02783292  0.41530427  0.11336495  1
  H  H17  1  0.97216708  0.08469573  0.61336495  1
  H  H18  1  0.97216708  0.58469573  0.88663505  1
  H  H19  1  0.02783292  0.91530427  0.38663505  1
  H  H20  1  0.51081323  0.17560068  0.17334997  1
  H  H21  1  0.48918677  0.32439932  0.67334997  1
  H  H22  1  0.48918677  0.82439932  0.82665003  1
  H  H23  1  0.51081323  0.67560068  0.32665003  1
  H  H24  1  0.27653166  0.09113920  0.03834994  1
  H  H25  1  0.72346834  0.40886080  0.53834994  1
  H  H26  1  0.72346834  0.90886080  0.96165006  1
  H  H27  1  0.27653166  0.59113920  0.46165006  1
  C  C28  1  0.15915995  0.42863069  0.13958433  1
  C  C29  1  0.84084005  0.07136931  0.63958433  1
  C  C30  1  0.84084005  0.57136931  0.86041567  1
  C  C31  1  0.15915995  0.92863069  0.36041567  1
  N  N32  1  0.25113044  0.31160289  0.12660439  1
  N  N33  1  0.74886956  0.18839711  0.62660439  1
  N  N34  1  0.74886956  0.68839711  0.87339561  1
  N  N35  1  0.25113044  0.81160289  0.37339561  1
  Cl  Cl36  1  0.40167548  0.31493929  0.35702364  1
  Cl  Cl37  1  0.59832452  0.18506071  0.85702364  1
  Cl  Cl38  1  0.59832452  0.68506071  0.64297636  1
  Cl  Cl39  1  0.40167548  0.81493929  0.14297636  1
  Cl  Cl40  1  0.60777466  0.43836006  0.15354159  1
  Cl  Cl41  1  0.39222534  0.06163994  0.65354159  1
  Cl  Cl42  1  0.39222534  0.56163994  0.84645841  1
  Cl  Cl43  1  0.60777466  0.93836006  0.34645841  1
  Cl  Cl44  1  0.93608537  0.13076484  0.11061762  1
  Cl  Cl45  1  0.06391463  0.36923516  0.61061762  1
  Cl  Cl46  1  0.06391463  0.86923516  0.88938238  1
  Cl  Cl47  1  0.93608537  0.63076484  0.38938238  1
  Cl  Cl48  1  0.10592914  0.26126758  0.89780785  1
  Cl  Cl49  1  0.89407086  0.23873242  0.39780785  1
  Cl  Cl50  1  0.89407086  0.73873242  0.10219215  1
  Cl  Cl51  1  0.10592914  0.76126758  0.60219215  1
