# generated using pymatgen
data_BiOF
_symmetry_space_group_name_H-M   'P 1'
_cell_length_a   4.01445763
_cell_length_b   4.00549026
_cell_length_c   5.83501706
_cell_angle_alpha   89.99332876
_cell_angle_beta   90.27115804
_cell_angle_gamma   90.00179726
_symmetry_Int_Tables_number   1
_chemical_formula_structural   BiOF
_chemical_formula_sum   'Bi2 O2 F2'
_cell_volume   93.82526980
_cell_formula_units_Z   2
loop_
 _symmetry_equiv_pos_site_id
 _symmetry_equiv_pos_as_xyz
  1  'x, y, z'
loop_
 _atom_site_type_symbol
 _atom_site_label
 _atom_site_symmetry_multiplicity
 _atom_site_fract_x
 _atom_site_fract_y
 _atom_site_fract_z
 _atom_site_occupancy
  Bi  Bi0  1  0.74405162  0.75039814  0.78097989  1
  Bi  Bi1  1  0.24747444  0.24620591  0.21512455  1
  O  O2  1  0.74690778  0.24705602  -0.00068625  1
  O  O3  1  0.24786340  0.74885891  0.99675811  1
  F  F4  1  0.75298018  0.24028146  0.49967779  1
  F  F5  1  0.25129158  0.75031157  0.49629391  1
