# generated using pymatgen
data_Pr(BO2)5
_symmetry_space_group_name_H-M   'P 1'
_cell_length_a   6.55935887
_cell_length_b   10.46827166
_cell_length_c   10.37084231
_cell_angle_alpha   90.00000000
_cell_angle_beta   90.00000000
_cell_angle_gamma   101.16854523
_symmetry_Int_Tables_number   1
_chemical_formula_structural   Pr(BO2)5
_chemical_formula_sum   'Pr4 B20 O40'
_cell_volume   698.62914949
_cell_formula_units_Z   4
loop_
 _symmetry_equiv_pos_site_id
 _symmetry_equiv_pos_as_xyz
  1  'x, y, z'
loop_
 _atom_site_type_symbol
 _atom_site_label
 _atom_site_symmetry_multiplicity
 _atom_site_fract_x
 _atom_site_fract_y
 _atom_site_fract_z
 _atom_site_occupancy
  Pr  Pr0  1  0.14075620  0.37192294  0.35791424  1
  Pr  Pr1  1  0.35924380  0.12807706  0.85791424  1
  Pr  Pr2  1  0.85924380  0.62807706  0.64208576  1
  Pr  Pr3  1  0.64075620  0.87192294  0.14208576  1
  B  B4  1  0.22475531  0.66836524  0.18023603  1
  B  B5  1  0.27524469  0.83163476  0.68023603  1
  B  B6  1  0.77524469  0.33163476  0.81976397  1
  B  B7  1  0.72475531  0.16836524  0.31976397  1
  B  B8  1  0.14906513  0.89802236  0.12815700  1
  B  B9  1  0.35093487  0.60197764  0.62815700  1
  B  B10  1  0.85093487  0.10197764  0.87184300  1
  B  B11  1  0.64906513  0.39802236  0.37184300  1
  B  B12  1  0.91586559  0.61867891  0.34468412  1
  B  B13  1  0.58413441  0.88132109  0.84468412  1
  B  B14  1  0.08413441  0.38132109  0.65531588  1
  B  B15  1  0.41586559  0.11867891  0.15531588  1
  B  B16  1  0.48988455  0.79901646  0.49319298  1
  B  B17  1  0.01011545  0.70098354  0.99319298  1
  B  B18  1  0.51011545  0.20098354  0.50680702  1
  B  B19  1  0.98988455  0.29901646  0.00680702  1
  B  B20  1  0.57098130  0.58182717  0.23762400  1
  B  B21  1  0.92901870  0.91817283  0.73762400  1
  B  B22  1  0.42901870  0.41817283  0.76237600  1
  B  B23  1  0.07098130  0.08182717  0.26237600  1
  O  O24  1  0.12464912  0.62654034  0.05758913  1
  O  O25  1  0.37535088  0.87345966  0.55758913  1
  O  O26  1  0.87535088  0.37345966  0.94241087  1
  O  O27  1  0.62464912  0.12654034  0.44241087  1
  O  O28  1  0.25203898  0.80955500  0.19884069  1
  O  O29  1  0.24796102  0.69044500  0.69884069  1
  O  O30  1  0.74796102  0.19044500  0.80115931  1
  O  O31  1  0.75203898  0.30955500  0.30115931  1
  O  O32  1  0.11208655  0.59344910  0.28968381  1
  O  O33  1  0.38791345  0.90655090  0.78968381  1
  O  O34  1  0.88791345  0.40655090  0.71031619  1
  O  O35  1  0.61208655  0.09344910  0.21031619  1
  O  O36  1  0.61136751  0.85051296  0.38966499  1
  O  O37  1  0.88863249  0.64948704  0.88966499  1
  O  O38  1  0.38863249  0.14948704  0.61033501  1
  O  O39  1  0.11136751  0.35051296  0.11033501  1
  O  O40  1  0.00664403  0.96079315  0.20930042  1
  O  O41  1  0.49335597  0.53920685  0.70930042  1
  O  O42  1  0.99335597  0.03920685  0.79069958  1
  O  O43  1  0.50664403  0.46079315  0.29069958  1
  O  O44  1  0.44042249  0.64636701  0.17486110  1
  O  O45  1  0.05957751  0.85363299  0.67486110  1
  O  O46  1  0.55957751  0.35363299  0.82513890  1
  O  O47  1  0.94042249  0.14636701  0.32513890  1
  O  O48  1  0.18279043  0.49900909  0.57659063  1
  O  O49  1  0.31720957  0.00099091  0.07659063  1
  O  O50  1  0.81720957  0.50099091  0.42340937  1
  O  O51  1  0.68279043  0.99900909  0.92340937  1
  O  O52  1  0.22728082  0.34970070  0.75455932  1
  O  O53  1  0.27271918  0.15029930  0.25455932  1
  O  O54  1  0.77271918  0.65029930  0.24544068  1
  O  O55  1  0.72728082  0.84970070  0.74544068  1
  O  O56  1  0.50339631  0.32912826  0.47167714  1
  O  O57  1  0.99660369  0.17087174  0.97167714  1
  O  O58  1  0.49660369  0.67087174  0.52832286  1
  O  O59  1  0.00339631  0.82912826  0.02832286  1
  O  O60  1  0.02854442  0.27428584  0.56672601  1
  O  O61  1  0.47145558  0.22571416  0.06672601  1
  O  O62  1  0.97145558  0.72571416  0.43327399  1
  O  O63  1  0.52854442  0.77428584  0.93327399  1
