# generated using pymatgen
data_MgP2H10(NO4)2
_symmetry_space_group_name_H-M   'P 1'
_cell_length_a   6.49031548
_cell_length_b   10.54131339
_cell_length_c   12.89990411
_cell_angle_alpha   90.00000000
_cell_angle_beta   104.38214086
_cell_angle_gamma   90.00000000
_symmetry_Int_Tables_number   1
_chemical_formula_structural   MgP2H10(NO4)2
_chemical_formula_sum   'Mg4 P8 H40 N8 O32'
_cell_volume   854.90658799
_cell_formula_units_Z   4
loop_
 _symmetry_equiv_pos_site_id
 _symmetry_equiv_pos_as_xyz
  1  'x, y, z'
loop_
 _atom_site_type_symbol
 _atom_site_label
 _atom_site_symmetry_multiplicity
 _atom_site_fract_x
 _atom_site_fract_y
 _atom_site_fract_z
 _atom_site_occupancy
  Mg  Mg0  1  0.60768079  0.69810754  0.65501304  1
  Mg  Mg1  1  0.89231921  0.19810754  0.84498696  1
  Mg  Mg2  1  0.39231921  0.30189246  0.34498696  1
  Mg  Mg3  1  0.10768079  0.80189246  0.15501304  1
  P  P4  1  0.33469255  0.97049739  0.60705238  1
  P  P5  1  0.16530745  0.47049739  0.89294762  1
  P  P6  1  0.66530745  0.02950261  0.39294762  1
  P  P7  1  0.83469255  0.52950261  0.10705238  1
  P  P8  1  0.88141084  0.68988858  0.91949040  1
  P  P9  1  0.61858916  0.18988858  0.58050960  1
  P  P10  1  0.11858916  0.31011142  0.08050960  1
  P  P11  1  0.38141084  0.81011142  0.41949040  1
  H  H12  1  0.62601524  0.54433252  0.93275485  1
  H  H13  1  0.87398476  0.04433252  0.56724515  1
  H  H14  1  0.37398476  0.45566748  0.06724515  1
  H  H15  1  0.12601524  0.95566748  0.43275485  1
  H  H16  1  0.28952193  0.18901233  0.61284473  1
  H  H17  1  0.21047807  0.68901233  0.88715527  1
  H  H18  1  0.71047807  0.81098767  0.38715527  1
  H  H19  1  0.78952193  0.31098767  0.11284473  1
  H  H20  1  0.86448065  0.94546677  0.89871988  1
  H  H21  1  0.63551935  0.44546677  0.60128012  1
  H  H22  1  0.13551935  0.05453323  0.10128012  1
  H  H23  1  0.36448065  0.55453323  0.39871988  1
  H  H24  1  0.70479674  0.96494971  0.78499804  1
  H  H25  1  0.79520326  0.46494971  0.71500196  1
  H  H26  1  0.29520326  0.03505029  0.21500196  1
  H  H27  1  0.20479674  0.53505029  0.28499804  1
  H  H28  1  0.98013227  0.83070053  0.63292719  1
  H  H29  1  0.51986773  0.33070053  0.86707281  1
  H  H30  1  0.01986773  0.16929947  0.36707281  1
  H  H31  1  0.48013227  0.66929947  0.13292719  1
  H  H32  1  0.90633871  0.72043784  0.54680423  1
  H  H33  1  0.59366129  0.22043784  0.95319577  1
  H  H34  1  0.09366129  0.27956216  0.45319577  1
  H  H35  1  0.40633871  0.77956216  0.04680423  1
  H  H36  1  0.34025449  0.56652606  0.74272760  1
  H  H37  1  0.15974551  0.06652606  0.75727240  1
  H  H38  1  0.65974551  0.43347394  0.25727240  1
  H  H39  1  0.84025449  0.93347394  0.24272760  1
  H  H40  1  0.18312539  0.66138261  0.66455680  1
  H  H41  1  0.31687461  0.16138261  0.83544320  1
  H  H42  1  0.81687461  0.33861739  0.33544320  1
  H  H43  1  0.68312539  0.83861739  0.16455680  1
  H  H44  1  0.32431666  0.90831813  0.88806979  1
  H  H45  1  0.17568334  0.40831813  0.61193021  1
  H  H46  1  0.67568334  0.09168187  0.11193021  1
  H  H47  1  0.82431666  0.59168187  0.38806979  1
  H  H48  1  0.49702883  0.80831219  0.87142074  1
  H  H49  1  0.00297117  0.30831219  0.62857926  1
  H  H50  1  0.50297117  0.19168781  0.12857926  1
  H  H51  1  0.99702883  0.69168781  0.37142074  1
  N  N52  1  0.76555817  0.58111208  0.98026274  1
  N  N53  1  0.73444183  0.08111208  0.51973726  1
  N  N54  1  0.23444183  0.41888792  0.01973726  1
  N  N55  1  0.26555817  0.91888792  0.48026274  1
  N  N56  1  0.40497981  0.12235043  0.60850697  1
  N  N57  1  0.09502019  0.62235043  0.89149303  1
  N  N58  1  0.59502019  0.87764957  0.39149303  1
  N  N59  1  0.90497981  0.37764957  0.10850697  1
  O  O60  1  0.52448851  0.89100505  0.66365976  1
  O  O61  1  0.97551149  0.39100505  0.83634024  1
  O  O62  1  0.47551149  0.10899495  0.33634024  1
  O  O63  1  0.02448851  0.60899495  0.16365976  1
  O  O64  1  0.13441733  0.97020659  0.64938988  1
  O  O65  1  0.36558267  0.47020659  0.85061012  1
  O  O66  1  0.86558267  0.02979341  0.35061012  1
  O  O67  1  0.63441733  0.52979341  0.14938988  1
  O  O68  1  0.96445731  0.80349881  0.99029542  1
  O  O69  1  0.53554269  0.30349881  0.50970458  1
  O  O70  1  0.03554269  0.19650119  0.00970458  1
  O  O71  1  0.46445731  0.69650119  0.49029542  1
  O  O72  1  0.71278294  0.72197776  0.81806479  1
  O  O73  1  0.78721706  0.22197776  0.68193521  1
  O  O74  1  0.28721706  0.27802224  0.18193521  1
  O  O75  1  0.21278294  0.77802224  0.31806479  1
  O  O76  1  0.79042449  0.01049867  0.84802893  1
  O  O77  1  0.70957551  0.51049867  0.65197107  1
  O  O78  1  0.20957551  0.98950133  0.15197107  1
  O  O79  1  0.29042449  0.48950133  0.34802893  1
  O  O80  1  0.91484635  0.74436060  0.62217708  1
  O  O81  1  0.58515365  0.24436060  0.87782292  1
  O  O82  1  0.08515365  0.25563940  0.37782292  1
  O  O83  1  0.41484635  0.75563940  0.12217708  1
  O  O84  1  0.32011616  0.61626214  0.67510637  1
  O  O85  1  0.17988384  0.11626214  0.82489363  1
  O  O86  1  0.67988384  0.38373786  0.32489363  1
  O  O87  1  0.82011616  0.88373786  0.17510637  1
  O  O88  1  0.38473348  0.82415294  0.90918670  1
  O  O89  1  0.11526652  0.32415294  0.59081330  1
  O  O90  1  0.61526652  0.17584706  0.09081330  1
  O  O91  1  0.88473348  0.67584706  0.40918670  1
