# generated using pymatgen
data_K2I3NO12
_symmetry_space_group_name_H-M   'P 1'
_cell_length_a   7.12645361
_cell_length_b   10.86858937
_cell_length_c   15.96590116
_cell_angle_alpha   90.00000000
_cell_angle_beta   90.00000000
_cell_angle_gamma   90.00000000
_symmetry_Int_Tables_number   1
_chemical_formula_structural   K2I3NO12
_chemical_formula_sum   'K8 I12 N4 O48'
_cell_volume   1236.63085869
_cell_formula_units_Z   4
loop_
 _symmetry_equiv_pos_site_id
 _symmetry_equiv_pos_as_xyz
  1  'x, y, z'
loop_
 _atom_site_type_symbol
 _atom_site_label
 _atom_site_symmetry_multiplicity
 _atom_site_fract_x
 _atom_site_fract_y
 _atom_site_fract_z
 _atom_site_occupancy
  K  K0  1  0.83751161  0.53351619  0.90365696  1
  K  K1  1  0.66248839  0.46648381  0.40365696  1
  K  K2  1  0.33751161  0.96648381  0.09634304  1
  K  K3  1  0.16248839  0.03351619  0.59634304  1
  K  K4  1  0.85930652  0.62587615  0.16896101  1
  K  K5  1  0.64069348  0.37412385  0.66896101  1
  K  K6  1  0.35930652  0.87412385  0.83103899  1
  K  K7  1  0.14069348  0.12587615  0.33103899  1
  I  I8  1  0.99241638  0.77130041  0.42895159  1
  I  I9  1  0.50758362  0.22869959  0.92895159  1
  I  I10  1  0.49241638  0.72869959  0.57104841  1
  I  I11  1  0.00758362  0.27130041  0.07104841  1
  I  I12  1  0.84309036  0.86999346  0.96548333  1
  I  I13  1  0.65690964  0.13000654  0.46548333  1
  I  I14  1  0.34309036  0.63000654  0.03451667  1
  I  I15  1  0.15690964  0.36999346  0.53451667  1
  I  I16  1  0.48034010  0.82436918  0.32173110  1
  I  I17  1  0.01965990  0.17563082  0.82173110  1
  I  I18  1  0.98034010  0.67563082  0.67826890  1
  I  I19  1  0.51965990  0.32436918  0.17826890  1
  N  N20  1  0.82754579  0.96362844  0.17308195  1
  N  N21  1  0.67245421  0.03637156  0.67308195  1
  N  N22  1  0.32754579  0.53637156  0.82691805  1
  N  N23  1  0.17245421  0.46362844  0.32691805  1
  O  O24  1  0.46773781  0.56583587  0.54811207  1
  O  O25  1  0.03226219  0.43416413  0.04811207  1
  O  O26  1  0.96773781  0.93416413  0.45188793  1
  O  O27  1  0.53226219  0.06583587  0.95188793  1
  O  O28  1  0.74449529  0.72185518  0.41325575  1
  O  O29  1  0.75550471  0.27814482  0.91325575  1
  O  O30  1  0.24449529  0.77814482  0.58674425  1
  O  O31  1  0.25550471  0.22185518  0.08674425  1
  O  O32  1  0.01228854  0.77475767  0.31201325  1
  O  O33  1  0.48771146  0.22524233  0.81201325  1
  O  O34  1  0.51228854  0.72524233  0.68798675  1
  O  O35  1  0.98771146  0.27475767  0.18798675  1
  O  O36  1  0.95988844  0.73578164  0.01093014  1
  O  O37  1  0.54011156  0.26421836  0.51093014  1
  O  O38  1  0.45988844  0.76421836  0.98906986  1
  O  O39  1  0.04011156  0.23578164  0.48906986  1
  O  O40  1  0.75958469  0.80483311  0.86532029  1
  O  O41  1  0.74041531  0.19516689  0.36532029  1
  O  O42  1  0.25958469  0.69516689  0.13467971  1
  O  O43  1  0.24041531  0.30483311  0.63467971  1
  O  O44  1  0.46099174  0.03486111  0.43083471  1
  O  O45  1  0.03900826  0.96513889  0.93083471  1
  O  O46  1  0.96099174  0.46513889  0.56916529  1
  O  O47  1  0.53900826  0.53486111  0.06916529  1
  O  O48  1  0.78812136  0.59479139  0.73201033  1
  O  O49  1  0.71187864  0.40520861  0.23201033  1
  O  O50  1  0.28812136  0.90520861  0.26798967  1
  O  O51  1  0.21187864  0.09479139  0.76798967  1
  O  O52  1  0.00450874  0.81627521  0.74065904  1
  O  O53  1  0.49549126  0.18372479  0.24065904  1
  O  O54  1  0.50450874  0.68372479  0.25934096  1
  O  O55  1  0.99549126  0.31627521  0.75934096  1
  O  O56  1  0.84786756  0.73583675  0.58748678  1
  O  O57  1  0.65213244  0.26416325  0.08748678  1
  O  O58  1  0.34786756  0.76416325  0.41251322  1
  O  O59  1  0.15213244  0.23583675  0.91251322  1
  O  O60  1  0.69144082  0.89060446  0.16022431  1
  O  O61  1  0.80855918  0.10939554  0.66022431  1
  O  O62  1  0.19144082  0.60939554  0.83977569  1
  O  O63  1  0.30855918  0.39060446  0.33977569  1
  O  O64  1  0.93438382  0.99114711  0.11030024  1
  O  O65  1  0.56561618  0.00885289  0.61030024  1
  O  O66  1  0.43438382  0.50885289  0.88969976  1
  O  O67  1  0.06561618  0.49114711  0.38969976  1
  O  O68  1  0.85953853  0.00735696  0.24289908  1
  O  O69  1  0.64046147  0.99264304  0.74289908  1
  O  O70  1  0.35953853  0.49264304  0.75710092  1
  O  O71  1  0.14046147  0.50735696  0.25710092  1
