# generated using pymatgen
data_Mg(CrS2)2
_symmetry_space_group_name_H-M   'P 1'
_cell_length_a   7.21443541
_cell_length_b   7.21435342
_cell_length_c   7.21453910
_cell_angle_alpha   60.00256087
_cell_angle_beta   59.99991568
_cell_angle_gamma   60.00304608
_symmetry_Int_Tables_number   1
_chemical_formula_structural   Mg(CrS2)2
_chemical_formula_sum   'Mg2 Cr4 S8'
_cell_volume   265.52870772
_cell_formula_units_Z   2
loop_
 _symmetry_equiv_pos_site_id
 _symmetry_equiv_pos_as_xyz
  1  'x, y, z'
loop_
 _atom_site_type_symbol
 _atom_site_label
 _atom_site_symmetry_multiplicity
 _atom_site_fract_x
 _atom_site_fract_y
 _atom_site_fract_z
 _atom_site_occupancy
  Mg  Mg0  1  0.87499018  0.87500035  0.87501844  1
  Mg  Mg1  1  0.12501990  0.12499032  0.12499367  1
  Cr  Cr2  1  0.49999948  0.50004494  0.49994488  1
  Cr  Cr3  1  0.49999012  0.49999881  -0.00000691  1
  Cr  Cr4  1  0.99999452  0.49999693  0.50001239  1
  Cr  Cr5  1  0.49998669  0.99999563  0.50000647  1
  S  S6  1  0.73675657  0.73671871  0.73668936  1
  S  S7  1  0.26325933  0.26328845  0.71015558  1
  S  S8  1  0.26324302  0.71016885  0.26331633  1
  S  S9  1  0.71018896  0.26325732  0.26329882  1
  S  S10  1  0.73674714  0.28982961  0.73668400  1
  S  S11  1  0.28981910  0.73672889  0.73671526  1
  S  S12  1  0.26325181  0.26326733  0.26332363  1
  S  S13  1  0.73675717  0.73670885  0.28985010  1
