# generated using pymatgen
data_CaCu2F8
_symmetry_space_group_name_H-M   'P 1'
_cell_length_a   5.45347886
_cell_length_b   5.45391263
_cell_length_c   6.44250944
_cell_angle_alpha   115.10606072
_cell_angle_beta   114.95262198
_cell_angle_gamma   89.80228398
_symmetry_Int_Tables_number   1
_chemical_formula_structural   CaCu2F8
_chemical_formula_sum   'Ca1 Cu2 F8'
_cell_volume   153.68020752
_cell_formula_units_Z   1
loop_
 _symmetry_equiv_pos_site_id
 _symmetry_equiv_pos_as_xyz
  1  'x, y, z'
loop_
 _atom_site_type_symbol
 _atom_site_label
 _atom_site_symmetry_multiplicity
 _atom_site_fract_x
 _atom_site_fract_y
 _atom_site_fract_z
 _atom_site_occupancy
  Ca  Ca0  1  0.74836005  0.74848649  0.50170291  1
  Cu  Cu1  1  0.00054025  0.49882387  0.00336996  1
  Cu  Cu2  1  0.49912024  0.99709049  0.00137373  1
  F  F3  1  0.95433855  0.46053861  0.24808929  1
  F  F4  1  0.71850140  0.20751662  0.76401602  1
  F  F5  1  0.03930979  0.54529006  0.75915142  1
  F  F6  1  0.20757815  0.03656176  0.75900943  1
  F  F7  1  0.29188564  0.78092308  0.24227224  1
  F  F8  1  0.45975367  0.29130373  0.24307286  1
  F  F9  1  0.78129491  0.94741048  0.24332460  1
  F  F10  1  0.55025335  0.71407481  0.76000553  1
