# generated using pymatgen
data_Zr6Ga2FeH10
_symmetry_space_group_name_H-M   'P 1'
_cell_length_a   7.16561010
_cell_length_b   8.06432419
_cell_length_c   8.06432419
_cell_angle_alpha   119.99999972
_cell_angle_beta   90.00000000
_cell_angle_gamma   90.00000000
_symmetry_Int_Tables_number   1
_chemical_formula_structural   Zr6Ga2FeH10
_chemical_formula_sum   'Zr12 Ga4 Fe2 H20'
_cell_volume   403.57082488
_cell_formula_units_Z   2
loop_
 _symmetry_equiv_pos_site_id
 _symmetry_equiv_pos_as_xyz
  1  'x, y, z'
loop_
 _atom_site_type_symbol
 _atom_site_label
 _atom_site_symmetry_multiplicity
 _atom_site_fract_x
 _atom_site_fract_y
 _atom_site_fract_z
 _atom_site_occupancy
  Zr  Zr0  1  0.00000000  0.25958664  0.25958664  1
  Zr  Zr1  1  -0.00000000  1.00000000  0.74041336  1
  Zr  Zr2  1  0.50000000  0.25958664  0.25958664  1
  Zr  Zr3  1  -0.00000000  0.74041336  1.00000000  1
  Zr  Zr4  1  0.50000000  1.00000000  0.74041336  1
  Zr  Zr5  1  0.50000000  0.74041336  1.00000000  1
  Zr  Zr6  1  0.75000000  0.57413610  0.62140821  1
  Zr  Zr7  1  0.75000000  0.04727211  0.42586390  1
  Zr  Zr8  1  0.25000000  0.95272789  0.37859179  1
  Zr  Zr9  1  0.75000000  0.37859179  0.95272789  1
  Zr  Zr10  1  0.25000000  0.62140821  0.57413610  1
  Zr  Zr11  1  0.25000000  0.42586390  0.04727211  1
  Ga  Ga12  1  0.94951087  0.66666700  0.33333300  1
  Ga  Ga13  1  0.55048913  0.66666700  0.33333300  1
  Ga  Ga14  1  0.05048913  0.33333300  0.66666700  1
  Ga  Ga15  1  0.44951087  0.33333300  0.66666700  1
  Fe  Fe16  1  0.75000000  -0.00000000  -0.00000000  1
  Fe  Fe17  1  0.25000000  -0.00000000  -0.00000000  1
  H  H18  1  0.00000000  0.71808359  0.71808359  1
  H  H19  1  0.00000000  1.00000000  0.28191641  1
  H  H20  1  0.50000000  0.71808359  0.71808359  1
  H  H21  1  0.00000000  0.28191641  1.00000000  1
  H  H22  1  0.50000000  1.00000000  0.28191641  1
  H  H23  1  0.50000000  0.28191641  1.00000000  1
  H  H24  1  0.75000000  0.59190977  0.88300206  1
  H  H25  1  0.75000000  0.29109229  0.40809023  1
  H  H26  1  0.25000000  0.70890771  0.11699794  1
  H  H27  1  0.75000000  0.11699794  0.70890771  1
  H  H28  1  0.25000000  0.88300206  0.59190977  1
  H  H29  1  0.25000000  0.40809023  0.29109229  1
  H  H30  1  0.75000000  0.88178216  0.12052020  1
  H  H31  1  0.75000000  0.23873805  0.11821784  1
  H  H32  1  0.25000000  0.76126195  0.87947980  1
  H  H33  1  0.75000000  0.87947980  0.76126195  1
  H  H34  1  0.25000000  0.12052020  0.88178216  1
  H  H35  1  0.25000000  0.11821784  0.23873805  1
  H  H36  1  0.00000000  -0.00000000  -0.00000000  1
  H  H37  1  0.50000000  -0.00000000  -0.00000000  1
