# generated using pymatgen
data_PrMoO5
_symmetry_space_group_name_H-M   'P 1'
_cell_length_a   5.53488005
_cell_length_b   7.23474034
_cell_length_c   12.94164091
_cell_angle_alpha   90.00000000
_cell_angle_beta   90.00000000
_cell_angle_gamma   115.87383075
_symmetry_Int_Tables_number   1
_chemical_formula_structural   PrMoO5
_chemical_formula_sum   'Pr4 Mo4 O20'
_cell_volume   466.27897480
_cell_formula_units_Z   4
loop_
 _symmetry_equiv_pos_site_id
 _symmetry_equiv_pos_as_xyz
  1  'x, y, z'
loop_
 _atom_site_type_symbol
 _atom_site_label
 _atom_site_symmetry_multiplicity
 _atom_site_fract_x
 _atom_site_fract_y
 _atom_site_fract_z
 _atom_site_occupancy
  Pr  Pr0  1  0.64734623  0.78562166  0.55756817  1
  Pr  Pr1  1  0.35265377  0.21437834  0.44243183  1
  Pr  Pr2  1  0.35265377  0.71437834  0.05756817  1
  Pr  Pr3  1  0.64734623  0.28562166  0.94243183  1
  Mo  Mo4  1  0.90687498  0.85180311  0.86429666  1
  Mo  Mo5  1  0.09312502  0.14819689  0.13570334  1
  Mo  Mo6  1  0.09312502  0.64819689  0.36429666  1
  Mo  Mo7  1  0.90687498  0.35180311  0.63570334  1
  O  O8  1  0.50573091  0.55367794  0.92255025  1
  O  O9  1  0.49426909  0.44632206  0.07744975  1
  O  O10  1  0.49426909  0.94632206  0.42255025  1
  O  O11  1  0.50573091  0.05367794  0.57744975  1
  O  O12  1  0.99399804  0.83588476  0.42850997  1
  O  O13  1  0.00600196  0.16411524  0.57149003  1
  O  O14  1  0.00600196  0.66411524  0.92850997  1
  O  O15  1  0.99399804  0.33588476  0.07149003  1
  O  O16  1  0.70811527  0.96120141  0.93374053  1
  O  O17  1  0.29188473  0.03879859  0.06625947  1
  O  O18  1  0.29188473  0.53879859  0.43374053  1
  O  O19  1  0.70811527  0.46120141  0.56625947  1
  O  O20  1  0.79226418  0.78529030  0.73501101  1
  O  O21  1  0.20773582  0.21470970  0.26498899  1
  O  O22  1  0.20773582  0.71470970  0.23501101  1
  O  O23  1  0.79226418  0.28529030  0.76498899  1
  O  O24  1  0.77681117  0.93284161  0.14932783  1
  O  O25  1  0.22318883  0.06715839  0.85067217  1
  O  O26  1  0.22318883  0.56715839  0.64932783  1
  O  O27  1  0.77681117  0.43284161  0.35067217  1
