# generated using pymatgen
data_UH10CSe2(NO2)4
_symmetry_space_group_name_H-M   'P 1'
_cell_length_a   7.29195481
_cell_length_b   9.48473836
_cell_length_c   9.92056044
_cell_angle_alpha   87.13274772
_cell_angle_beta   68.90092941
_cell_angle_gamma   75.27795240
_symmetry_Int_Tables_number   1
_chemical_formula_structural   UH10CSe2(NO2)4
_chemical_formula_sum   'U2 H20 C2 Se4 N8 O16'
_cell_volume   618.46078967
_cell_formula_units_Z   2
loop_
 _symmetry_equiv_pos_site_id
 _symmetry_equiv_pos_as_xyz
  1  'x, y, z'
loop_
 _atom_site_type_symbol
 _atom_site_label
 _atom_site_symmetry_multiplicity
 _atom_site_fract_x
 _atom_site_fract_y
 _atom_site_fract_z
 _atom_site_occupancy
  U  U0  1  0.23878847  0.52967567  0.19294164  1
  U  U1  1  0.76121153  0.47032433  0.80705836  1
  H  H2  1  0.19272145  0.24064286  0.90315284  1
  H  H3  1  0.80727855  0.75935714  0.09684716  1
  H  H4  1  0.04176665  0.09318450  0.76078293  1
  H  H5  1  0.95823335  0.90681550  0.23921707  1
  H  H6  1  0.23619372  0.15524998  0.26824953  1
  H  H7  1  0.76380628  0.84475002  0.73175047  1
  H  H8  1  0.35279401  0.07405139  0.89129810  1
  H  H9  1  0.64720599  0.92594861  0.10870190  1
  H  H10  1  0.39329762  0.18999354  0.74799382  1
  H  H11  1  0.60670238  0.81000646  0.25200618  1
  H  H12  1  0.25704845  0.01298814  0.61414202  1
  H  H13  1  0.74295155  0.98701186  0.38585798  1
  H  H14  1  0.24010437  0.00921624  0.16370263  1
  H  H15  1  0.75989563  0.99078376  0.83629737  1
  H  H16  1  0.72518496  0.20129474  0.50119817  1
  H  H17  1  0.27481504  0.79870526  0.49880183  1
  H  H18  1  0.04864911  0.74687278  0.52787335  1
  H  H19  1  0.95135089  0.25312722  0.47212665  1
  H  H20  1  0.56867473  0.77449473  0.09995332  1
  H  H21  1  0.43132527  0.22550527  0.90004668  1
  C  C22  1  0.97607254  0.08656996  0.33707888  1
  C  C23  1  0.02392746  0.91343004  0.66292112  1
  Se  Se24  1  0.73488013  0.22162562  0.06730232  1
  Se  Se25  1  0.26511987  0.77837438  0.93269768  1
  Se  Se26  1  0.30125703  0.36670929  0.51350515  1
  Se  Se27  1  0.69874297  0.63329071  0.48649485  1
  N  N28  1  0.12359221  0.81037104  0.55679987  1
  N  N29  1  0.87640779  0.18962896  0.44320013  1
  N  N30  1  0.17198465  0.07451524  0.25692227  1
  N  N31  1  0.82801535  0.92548476  0.74307773  1
  N  N32  1  0.34397476  0.18297407  0.86013407  1
  N  N33  1  0.65602524  0.81702593  0.13986593  1
  N  N34  1  0.12245899  0.00457663  0.68971669  1
  N  N35  1  0.87754101  0.99542337  0.31028331  1
  O  O36  1  0.07707439  0.75450651  0.09453366  1
  O  O37  1  0.92292561  0.24549349  0.90546634  1
  O  O38  1  0.29157253  0.33794835  0.34220623  1
  O  O39  1  0.70842747  0.66205165  0.65779377  1
  O  O40  1  0.12023948  0.42238010  0.11878985  1
  O  O41  1  0.87976052  0.57761990  0.88121015  1
  O  O42  1  0.36490416  0.62797553  0.27137720  1
  O  O43  1  0.63509584  0.37202447  0.72862280  1
  O  O44  1  0.04851071  0.36811501  0.61675021  1
  O  O45  1  0.95148929  0.63188499  0.38324979  1
  O  O46  1  0.64773847  0.08736724  0.02444447  1
  O  O47  1  0.35226153  0.91263276  0.97555553  1
  O  O48  1  0.43157800  0.20327738  0.54844487  1
  O  O49  1  0.56842200  0.79672262  0.45155513  1
  O  O50  1  0.56069709  0.38028508  0.04758325  1
  O  O51  1  0.43930291  0.61971492  0.95241675  1
