# generated using pymatgen
data_SmGaCo
_symmetry_space_group_name_H-M   'P 1'
_cell_length_a   4.15330446
_cell_length_b   8.00101710
_cell_length_c   7.75222245
_cell_angle_alpha   89.98694199
_cell_angle_beta   89.98951676
_cell_angle_gamma   90.00240317
_symmetry_Int_Tables_number   1
_chemical_formula_structural   SmGaCo
_chemical_formula_sum   'Sm4 Ga4 Co4'
_cell_volume   257.61145710
_cell_formula_units_Z   4
loop_
 _symmetry_equiv_pos_site_id
 _symmetry_equiv_pos_as_xyz
  1  'x, y, z'
loop_
 _atom_site_type_symbol
 _atom_site_label
 _atom_site_symmetry_multiplicity
 _atom_site_fract_x
 _atom_site_fract_y
 _atom_site_fract_z
 _atom_site_occupancy
  Sm  Sm0  1  0.75004446  0.28646560  0.57481748  1
  Sm  Sm1  1  0.25002698  0.21376693  0.07571998  1
  Sm  Sm2  1  0.74996859  0.78671448  0.92458965  1
  Sm  Sm3  1  0.24995874  0.71306707  0.42549287  1
  Ga  Ga4  1  0.75004930  0.00224550  0.26981702  1
  Ga  Ga5  1  0.24994853  0.99779938  0.73014218  1
  Ga  Ga6  1  0.74993670  0.50357839  0.23003024  1
  Ga  Ga7  1  0.25006630  0.49641551  0.76986676  1
  Co  Co8  1  0.74998393  0.95389179  0.57345452  1
  Co  Co9  1  0.25000996  0.04561335  0.42637982  1
  Co  Co10  1  0.75001901  0.45397677  0.92643492  1
  Co  Co11  1  0.24998649  0.54646522  0.07325356  1
