# generated using pymatgen
data_S3N
_symmetry_space_group_name_H-M   'P 1'
_cell_length_a   8.41051193
_cell_length_b   13.38011468
_cell_length_c   14.62197976
_cell_angle_alpha   90.00000000
_cell_angle_beta   90.00000000
_cell_angle_gamma   90.00000000
_symmetry_Int_Tables_number   1
_chemical_formula_structural   S3N
_chemical_formula_sum   'S48 N16'
_cell_volume   1645.46422829
_cell_formula_units_Z   16
loop_
 _symmetry_equiv_pos_site_id
 _symmetry_equiv_pos_as_xyz
  1  'x, y, z'
loop_
 _atom_site_type_symbol
 _atom_site_label
 _atom_site_symmetry_multiplicity
 _atom_site_fract_x
 _atom_site_fract_y
 _atom_site_fract_z
 _atom_site_occupancy
  S  S0  1  0.10582673  0.14586664  0.49174580  1
  S  S1  1  0.89417327  0.85413336  0.50825420  1
  S  S2  1  0.39417327  0.85413336  0.99174580  1
  S  S3  1  0.89417327  0.64586664  0.00825420  1
  S  S4  1  0.60582673  0.14586664  0.00825420  1
  S  S5  1  0.10582673  0.35413336  0.99174580  1
  S  S6  1  0.60582673  0.35413336  0.50825420  1
  S  S7  1  0.39417327  0.64586664  0.49174580  1
  S  S8  1  0.39057471  0.39779310  0.31174237  1
  S  S9  1  0.60942529  0.60220690  0.68825763  1
  S  S10  1  0.10942529  0.60220690  0.81174237  1
  S  S11  1  0.60942529  0.89779310  0.18825763  1
  S  S12  1  0.89057471  0.39779310  0.18825763  1
  S  S13  1  0.39057471  0.10220690  0.81174237  1
  S  S14  1  0.89057471  0.10220690  0.68825763  1
  S  S15  1  0.10942529  0.89779310  0.31174237  1
  S  S16  1  0.09906446  0.13056316  0.03606601  1
  S  S17  1  0.90093554  0.86943684  0.96393399  1
  S  S18  1  0.40093554  0.86943684  0.53606601  1
  S  S19  1  0.90093554  0.63056316  0.46393399  1
  S  S20  1  0.59906446  0.13056316  0.46393399  1
  S  S21  1  0.09906446  0.36943684  0.53606601  1
  S  S22  1  0.59906446  0.36943684  0.96393399  1
  S  S23  1  0.40093554  0.63056316  0.03606601  1
  S  S24  1  0.40064767  0.14296927  0.28826348  1
  S  S25  1  0.59935233  0.85703073  0.71173652  1
  S  S26  1  0.09935233  0.85703073  0.78826348  1
  S  S27  1  0.59935233  0.64296927  0.21173652  1
  S  S28  1  0.90064767  0.14296927  0.21173652  1
  S  S29  1  0.40064767  0.35703073  0.78826348  1
  S  S30  1  0.90064767  0.35703073  0.71173652  1
  S  S31  1  0.09935233  0.64296927  0.28826348  1
  S  S32  1  0.46244961  0.27869946  0.23150654  1
  S  S33  1  0.53755039  0.72130054  0.76849346  1
  S  S34  1  0.03755039  0.72130054  0.73150654  1
  S  S35  1  0.53755039  0.77869946  0.26849346  1
  S  S36  1  0.96244961  0.27869946  0.26849346  1
  S  S37  1  0.46244961  0.22130054  0.73150654  1
  S  S38  1  0.96244961  0.22130054  0.76849346  1
  S  S39  1  0.03755039  0.77869946  0.23150654  1
  S  S40  1  0.09383426  0.43011671  0.11477017  1
  S  S41  1  0.90616574  0.56988329  0.88522983  1
  S  S42  1  0.40616574  0.56988329  0.61477017  1
  S  S43  1  0.90616574  0.93011671  0.38522983  1
  S  S44  1  0.59383426  0.43011671  0.38522983  1
  S  S45  1  0.09383426  0.06988329  0.61477017  1
  S  S46  1  0.59383426  0.06988329  0.88522983  1
  S  S47  1  0.40616574  0.93011671  0.11477017  1
  N  N48  1  0.01640053  0.10337100  0.12871214  1
  N  N49  1  0.98359947  0.89662900  0.87128786  1
  N  N50  1  0.48359947  0.89662900  0.62871214  1
  N  N51  1  0.98359947  0.60337100  0.37128786  1
  N  N52  1  0.51640053  0.10337100  0.37128786  1
  N  N53  1  0.01640053  0.39662900  0.62871214  1
  N  N54  1  0.51640053  0.39662900  0.87128786  1
  N  N55  1  0.48359947  0.60337100  0.12871214  1
  N  N56  1  0.15123762  0.23457717  0.99895386  1
  N  N57  1  0.84876238  0.76542283  0.00104614  1
  N  N58  1  0.34876238  0.76542283  0.49895386  1
  N  N59  1  0.84876238  0.73457717  0.50104614  1
  N  N60  1  0.65123762  0.23457717  0.50104614  1
  N  N61  1  0.15123762  0.26542283  0.49895386  1
  N  N62  1  0.65123762  0.26542283  0.00104614  1
  N  N63  1  0.34876238  0.73457717  0.99895386  1
