# generated using pymatgen
data_NaBe3Al2Si6O19
_symmetry_space_group_name_H-M   'P 1'
_cell_length_a   9.25391978
_cell_length_b   9.32029000
_cell_length_c   9.32029000
_cell_angle_alpha   120.00000082
_cell_angle_beta   90.00000000
_cell_angle_gamma   90.00000000
_symmetry_Int_Tables_number   1
_chemical_formula_structural   NaBe3Al2Si6O19
_chemical_formula_sum   'Na2 Be6 Al4 Si12 O38'
_cell_volume   696.16984761
_cell_formula_units_Z   2
loop_
 _symmetry_equiv_pos_site_id
 _symmetry_equiv_pos_as_xyz
  1  'x, y, z'
loop_
 _atom_site_type_symbol
 _atom_site_label
 _atom_site_symmetry_multiplicity
 _atom_site_fract_x
 _atom_site_fract_y
 _atom_site_fract_z
 _atom_site_occupancy
  Na  Na0  1  0.00000000  0.00000000  0.00000000  1
  Na  Na1  1  0.50000000  0.00000000  0.00000000  1
  Be  Be2  1  0.75000000  0.50000000  0.50000000  1
  Be  Be3  1  0.25000000  0.50000000  0.50000000  1
  Be  Be4  1  0.75000000  0.00000000  0.50000000  1
  Be  Be5  1  0.25000000  0.00000000  0.50000000  1
  Be  Be6  1  0.75000000  0.50000000  0.00000000  1
  Be  Be7  1  0.25000000  0.50000000  0.00000000  1
  Al  Al8  1  0.75000000  0.66666700  0.33333300  1
  Al  Al9  1  0.25000000  0.33333300  0.66666700  1
  Al  Al10  1  0.75000000  0.33333300  0.66666700  1
  Al  Al11  1  0.25000000  0.66666700  0.33333300  1
  Si  Si12  1  0.00000000  0.88494690  0.27244485  1
  Si  Si13  1  0.00000000  0.11505310  0.72755515  1
  Si  Si14  1  0.00000000  0.38749795  0.11505310  1
  Si  Si15  1  0.50000000  0.61250205  0.72755515  1
  Si  Si16  1  0.00000000  0.61250205  0.88494690  1
  Si  Si17  1  0.50000000  0.38749795  0.27244485  1
  Si  Si18  1  0.00000000  0.72755515  0.61250205  1
  Si  Si19  1  0.50000000  0.27244485  0.88494690  1
  Si  Si20  1  0.00000000  0.27244485  0.38749795  1
  Si  Si21  1  0.50000000  0.72755515  0.11505310  1
  Si  Si22  1  0.50000000  0.11505310  0.38749795  1
  Si  Si23  1  0.50000000  0.88494690  0.61250205  1
  O  O24  1  0.00000000  0.69240109  0.76592030  1
  O  O25  1  0.00000000  0.30759891  0.23407970  1
  O  O26  1  0.00000000  0.07351921  0.30759891  1
  O  O27  1  0.50000000  0.92648079  0.23407970  1
  O  O28  1  0.00000000  0.92648079  0.69240109  1
  O  O29  1  0.50000000  0.07351921  0.76592030  1
  O  O30  1  0.00000000  0.23407970  0.92648079  1
  O  O31  1  0.50000000  0.76592030  0.69240109  1
  O  O32  1  0.00000000  0.76592030  0.07351921  1
  O  O33  1  0.50000000  0.23407970  0.30759891  1
  O  O34  1  0.50000000  0.30759891  0.07351921  1
  O  O35  1  0.50000000  0.69240109  0.92648079  1
  O  O36  1  0.85425208  0.85530848  0.35378409  1
  O  O37  1  0.14574792  0.14469152  0.64621591  1
  O  O38  1  0.85425208  0.49847561  0.14469152  1
  O  O39  1  0.85425208  0.14469152  0.64621591  1
  O  O40  1  0.64574792  0.50152439  0.64621591  1
  O  O41  1  0.14574792  0.50152439  0.85530848  1
  O  O42  1  0.14574792  0.85530848  0.35378409  1
  O  O43  1  0.35425208  0.49847561  0.35378409  1
  O  O44  1  0.85425208  0.64621591  0.50152439  1
  O  O45  1  0.85425208  0.50152439  0.85530848  1
  O  O46  1  0.64574792  0.35378409  0.85530848  1
  O  O47  1  0.14574792  0.35378409  0.49847561  1
  O  O48  1  0.14574792  0.49847561  0.14469152  1
  O  O49  1  0.35425208  0.64621591  0.14469152  1
  O  O50  1  0.64574792  0.49847561  0.35378409  1
  O  O51  1  0.35425208  0.50152439  0.64621591  1
  O  O52  1  0.85425208  0.35378409  0.49847561  1
  O  O53  1  0.64574792  0.64621591  0.14469152  1
  O  O54  1  0.14574792  0.64621591  0.50152439  1
  O  O55  1  0.35425208  0.35378409  0.85530848  1
  O  O56  1  0.64574792  0.14469152  0.49847561  1
  O  O57  1  0.35425208  0.85530848  0.50152439  1
  O  O58  1  0.64574792  0.85530848  0.50152439  1
  O  O59  1  0.35425208  0.14469152  0.49847561  1
  O  O60  1  0.75000000  0.00000000  0.00000000  1
  O  O61  1  0.25000000  0.00000000  0.00000000  1
