# generated using pymatgen
data_Zr6Ga2CoH10
_symmetry_space_group_name_H-M   'P 1'
_cell_length_a   7.19247372
_cell_length_b   8.06125933
_cell_length_c   8.06125933
_cell_angle_alpha   119.99999563
_cell_angle_beta   90.00000000
_cell_angle_gamma   90.00000000
_symmetry_Int_Tables_number   1
_chemical_formula_structural   Zr6Ga2CoH10
_chemical_formula_sum   'Zr12 Ga4 Co2 H20'
_cell_volume   404.77596744
_cell_formula_units_Z   2
loop_
 _symmetry_equiv_pos_site_id
 _symmetry_equiv_pos_as_xyz
  1  'x, y, z'
loop_
 _atom_site_type_symbol
 _atom_site_label
 _atom_site_symmetry_multiplicity
 _atom_site_fract_x
 _atom_site_fract_y
 _atom_site_fract_z
 _atom_site_occupancy
  Zr  Zr0  1  0.00000000  0.26182630  0.26182630  1
  Zr  Zr1  1  0.00000000  1.00000000  0.73817370  1
  Zr  Zr2  1  0.50000000  0.26182630  0.26182630  1
  Zr  Zr3  1  0.00000000  0.73817370  1.00000000  1
  Zr  Zr4  1  0.50000000  1.00000000  0.73817370  1
  Zr  Zr5  1  0.50000000  0.73817370  1.00000000  1
  Zr  Zr6  1  0.75000000  0.57574876  0.62220808  1
  Zr  Zr7  1  0.75000000  0.04645932  0.42425124  1
  Zr  Zr8  1  0.25000000  0.95354068  0.37779192  1
  Zr  Zr9  1  0.75000000  0.37779192  0.95354068  1
  Zr  Zr10  1  0.25000000  0.62220808  0.57574876  1
  Zr  Zr11  1  0.25000000  0.42425124  0.04645932  1
  Ga  Ga12  1  0.94868110  0.66666700  0.33333300  1
  Ga  Ga13  1  0.55131890  0.66666700  0.33333300  1
  Ga  Ga14  1  0.05131890  0.33333300  0.66666700  1
  Ga  Ga15  1  0.44868110  0.33333300  0.66666700  1
  Co  Co16  1  0.75000000  0.00000000  0.00000000  1
  Co  Co17  1  0.25000000  0.00000000  0.00000000  1
  H  H18  1  0.00000000  0.71818482  0.71818482  1
  H  H19  1  0.00000000  1.00000000  0.28181518  1
  H  H20  1  0.50000000  0.71818482  0.71818482  1
  H  H21  1  0.00000000  0.28181518  1.00000000  1
  H  H22  1  0.50000000  1.00000000  0.28181518  1
  H  H23  1  0.50000000  0.28181518  1.00000000  1
  H  H24  1  0.75000000  0.59117291  0.88204937  1
  H  H25  1  0.75000000  0.29087647  0.40882709  1
  H  H26  1  0.25000000  0.70912353  0.11795063  1
  H  H27  1  0.75000000  0.11795063  0.70912353  1
  H  H28  1  0.25000000  0.88204937  0.59117291  1
  H  H29  1  0.25000000  0.40882709  0.29087647  1
  H  H30  1  0.75000000  0.88014996  0.12263975  1
  H  H31  1  0.75000000  0.24248978  0.11985004  1
  H  H32  1  0.25000000  0.75751022  0.87736025  1
  H  H33  1  0.75000000  0.87736025  0.75751022  1
  H  H34  1  0.25000000  0.12263975  0.88014996  1
  H  H35  1  0.25000000  0.11985004  0.24248978  1
  H  H36  1  0.00000000  0.00000000  0.00000000  1
  H  H37  1  0.50000000  0.00000000  0.00000000  1
