# generated using pymatgen
data_Cu7Te4
_symmetry_space_group_name_H-M   'P 1'
_cell_length_a   7.74112264
_cell_length_b   7.74112196
_cell_length_c   7.85125273
_cell_angle_alpha   90.00000000
_cell_angle_beta   90.00000000
_cell_angle_gamma   119.99999954
_symmetry_Int_Tables_number   1
_chemical_formula_structural   Cu7Te4
_chemical_formula_sum   'Cu14 Te8'
_cell_volume   407.45293324
_cell_formula_units_Z   2
loop_
 _symmetry_equiv_pos_site_id
 _symmetry_equiv_pos_as_xyz
  1  'x, y, z'
loop_
 _atom_site_type_symbol
 _atom_site_label
 _atom_site_symmetry_multiplicity
 _atom_site_fract_x
 _atom_site_fract_y
 _atom_site_fract_z
 _atom_site_occupancy
  Cu  Cu0  1  0.33333300  0.66666700  0.20526742  1
  Cu  Cu1  1  0.66666700  0.33333300  0.97144285  1
  Cu  Cu2  1  0.79942887  0.20057113  0.47893291  1
  Cu  Cu3  1  0.79942887  0.59885674  0.47893291  1
  Cu  Cu4  1  0.40114326  0.20057113  0.47893291  1
  Cu  Cu5  1  0.20408096  0.79591904  0.44723424  1
  Cu  Cu6  1  0.20408096  0.40816193  0.44723424  1
  Cu  Cu7  1  0.59183807  0.79591904  0.44723424  1
  Cu  Cu8  1  0.85359660  0.14640340  0.84849596  1
  Cu  Cu9  1  0.85359660  0.70719420  0.84849596  1
  Cu  Cu10  1  0.29280580  0.14640340  0.84849596  1
  Cu  Cu11  1  0.20752718  0.79247282  0.96363698  1
  Cu  Cu12  1  0.20752718  0.41505435  0.96363698  1
  Cu  Cu13  1  0.58494565  0.79247282  0.96363698  1
  Te  Te14  1  0.00000000  0.00000000  0.06451972  1
  Te  Te15  1  0.00000000  0.00000000  0.54682277  1
  Te  Te16  1  0.51886309  0.48113691  0.22747497  1
  Te  Te17  1  0.51886309  0.03772618  0.22747497  1
  Te  Te18  1  0.96227382  0.48113691  0.22747497  1
  Te  Te19  1  0.49380815  0.50619185  0.71554002  1
  Te  Te20  1  0.49380815  0.98761630  0.71554002  1
  Te  Te21  1  0.01238370  0.50619185  0.71554002  1
