# generated using pymatgen
data_Na5CeO6
_symmetry_space_group_name_H-M   'P 1'
_cell_length_a   5.90725386
_cell_length_b   5.90725386
_cell_length_c   11.18312691
_cell_angle_alpha   94.85316067
_cell_angle_beta   94.85316067
_cell_angle_gamma   119.54980950
_symmetry_Int_Tables_number   1
_chemical_formula_structural   Na5CeO6
_chemical_formula_sum   'Na10 Ce2 O12'
_cell_volume   334.65388293
_cell_formula_units_Z   2
loop_
 _symmetry_equiv_pos_site_id
 _symmetry_equiv_pos_as_xyz
  1  'x, y, z'
loop_
 _atom_site_type_symbol
 _atom_site_label
 _atom_site_symmetry_multiplicity
 _atom_site_fract_x
 _atom_site_fract_y
 _atom_site_fract_z
 _atom_site_occupancy
  Na  Na0  1  0.66973869  0.82908363  0.99856606  1
  Na  Na1  1  0.33026131  0.17091637  0.00143394  1
  Na  Na2  1  0.17091637  0.33026131  0.50143394  1
  Na  Na3  1  0.82908363  0.66973869  0.49856606  1
  Na  Na4  1  0.50000000  -0.00000000  0.50000000  1
  Na  Na5  1  -0.00000000  0.50000000  -0.00000000  1
  Na  Na6  1  0.91521348  0.08478652  0.75000000  1
  Na  Na7  1  0.08478652  0.91521348  0.25000000  1
  Na  Na8  1  0.58149741  0.41850259  0.75000000  1
  Na  Na9  1  0.41850259  0.58149741  0.25000000  1
  Ce  Ce10  1  0.24783113  0.75216887  0.75000000  1
  Ce  Ce11  1  0.75216887  0.24783113  0.25000000  1
  O  O12  1  0.57773748  0.08213528  0.86000020  1
  O  O13  1  0.42226252  0.91786472  0.13999980  1
  O  O14  1  0.91786472  0.42226252  0.63999980  1
  O  O15  1  0.08213528  0.57773748  0.36000020  1
  O  O16  1  0.79062778  0.98733026  0.36671262  1
  O  O17  1  0.20937222  0.01266974  0.63328738  1
  O  O18  1  0.01266974  0.20937222  0.13328738  1
  O  O19  1  0.98733026  0.79062778  0.86671262  1
  O  O20  1  0.50711732  0.70993489  0.63363983  1
  O  O21  1  0.49288268  0.29006511  0.36636017  1
  O  O22  1  0.29006511  0.49288268  0.86636017  1
  O  O23  1  0.70993489  0.50711732  0.13363983  1
