# generated using pymatgen
data_Na2HoNb5O15
_symmetry_space_group_name_H-M   'P 1'
_cell_length_a   3.93660352
_cell_length_b   12.65070246
_cell_length_c   12.65070246
_cell_angle_alpha   90.00000000
_cell_angle_beta   90.00000000
_cell_angle_gamma   90.00000000
_symmetry_Int_Tables_number   1
_chemical_formula_structural   Na2HoNb5O15
_chemical_formula_sum   'Na4 Ho2 Nb10 O30'
_cell_volume   630.01510098
_cell_formula_units_Z   2
loop_
 _symmetry_equiv_pos_site_id
 _symmetry_equiv_pos_as_xyz
  1  'x, y, z'
loop_
 _atom_site_type_symbol
 _atom_site_label
 _atom_site_symmetry_multiplicity
 _atom_site_fract_x
 _atom_site_fract_y
 _atom_site_fract_z
 _atom_site_occupancy
  Na  Na0  1  0.50000000  0.17310591  0.67310591  1
  Na  Na1  1  0.50000000  0.82689409  0.32689409  1
  Na  Na2  1  0.50000000  0.32689409  0.17310591  1
  Na  Na3  1  0.50000000  0.67310591  0.82689409  1
  Ho  Ho4  1  0.50000000  -0.00000000  0.00000000  1
  Ho  Ho5  1  0.50000000  0.50000000  0.50000000  1
  Nb  Nb6  1  0.00000000  0.00000000  0.50000000  1
  Nb  Nb7  1  0.00000000  0.50000000  0.00000000  1
  Nb  Nb8  1  -0.00000000  0.07836326  0.21191174  1
  Nb  Nb9  1  0.00000000  0.92163674  0.78808826  1
  Nb  Nb10  1  -0.00000000  0.78808826  0.07836326  1
  Nb  Nb11  1  0.00000000  0.42163674  0.71191174  1
  Nb  Nb12  1  0.00000000  0.21191174  0.92163674  1
  Nb  Nb13  1  -0.00000000  0.57836326  0.28808826  1
  Nb  Nb14  1  -0.00000000  0.71191174  0.57836326  1
  Nb  Nb15  1  0.00000000  0.28808826  0.42163674  1
  O  O16  1  0.50000000  0.08152129  0.18670509  1
  O  O17  1  0.50000000  0.91847871  0.81329491  1
  O  O18  1  0.50000000  0.81329491  0.08152129  1
  O  O19  1  0.50000000  0.41847871  0.68670509  1
  O  O20  1  0.50000000  0.18670509  0.91847871  1
  O  O21  1  0.50000000  0.58152129  0.31329491  1
  O  O22  1  0.50000000  0.68670509  0.58152129  1
  O  O23  1  0.50000000  0.31329491  0.41847871  1
  O  O24  1  -0.00000000  0.72478777  0.22478777  1
  O  O25  1  0.00000000  0.27521223  0.77521223  1
  O  O26  1  -0.00000000  0.77521223  0.72478777  1
  O  O27  1  0.00000000  0.22478777  0.27521223  1
  O  O28  1  0.50000000  -0.00000000  0.50000000  1
  O  O29  1  0.50000000  0.50000000  0.00000000  1
  O  O30  1  -0.00000000  0.12990487  0.05591734  1
  O  O31  1  0.00000000  0.87009513  0.94408266  1
  O  O32  1  0.00000000  0.94408266  0.12990487  1
  O  O33  1  -0.00000000  0.37009513  0.55591734  1
  O  O34  1  -0.00000000  0.05591734  0.87009513  1
  O  O35  1  0.00000000  0.62990487  0.44408266  1
  O  O36  1  -0.00000000  0.55591734  0.62990487  1
  O  O37  1  0.00000000  0.44408266  0.37009513  1
  O  O38  1  0.00000000  0.99763059  0.34075077  1
  O  O39  1  -0.00000000  0.00236941  0.65924923  1
  O  O40  1  0.00000000  0.65924923  0.99763059  1
  O  O41  1  -0.00000000  0.50236941  0.84075077  1
  O  O42  1  -0.00000000  0.34075077  0.00236941  1
  O  O43  1  0.00000000  0.49763059  0.15924923  1
  O  O44  1  0.00000000  0.84075077  0.49763059  1
  O  O45  1  -0.00000000  0.15924923  0.50236941  1
