# generated using pymatgen
data_MgMnZnSiO6
_symmetry_space_group_name_H-M   'P 1'
_cell_length_a   5.15463680
_cell_length_b   5.15463680
_cell_length_c   17.99935952
_cell_angle_alpha   90.00000000
_cell_angle_beta   90.00000000
_cell_angle_gamma   109.08208231
_symmetry_Int_Tables_number   1
_chemical_formula_structural   MgMnZnSiO6
_chemical_formula_sum   'Mg4 Mn4 Zn4 Si4 O24'
_cell_volume   451.96887309
_cell_formula_units_Z   4
loop_
 _symmetry_equiv_pos_site_id
 _symmetry_equiv_pos_as_xyz
  1  'x, y, z'
loop_
 _atom_site_type_symbol
 _atom_site_label
 _atom_site_symmetry_multiplicity
 _atom_site_fract_x
 _atom_site_fract_y
 _atom_site_fract_z
 _atom_site_occupancy
  Mg  Mg0  1  0.50000000  -0.00000000  -0.00000000  1
  Mg  Mg1  1  -0.00000000  0.50000000  0.50000000  1
  Mg  Mg2  1  0.50000000  -0.00000000  0.50000000  1
  Mg  Mg3  1  -0.00000000  0.50000000  0.00000000  1
  Mn  Mn4  1  0.98268724  0.01731276  0.91591226  1
  Mn  Mn5  1  0.01731276  0.98268724  0.08408774  1
  Mn  Mn6  1  0.51731276  0.48268724  0.41591226  1
  Mn  Mn7  1  0.48268724  0.51731276  0.58408774  1
  Zn  Zn8  1  0.34975669  0.15024331  0.75000000  1
  Zn  Zn9  1  0.65024331  0.84975669  0.25000000  1
  Zn  Zn10  1  0.15024331  0.34975669  0.25000000  1
  Zn  Zn11  1  0.84975669  0.65024331  0.75000000  1
  Si  Si12  1  0.85653000  0.14347000  0.65280852  1
  Si  Si13  1  0.14347000  0.85653000  0.34719148  1
  Si  Si14  1  0.64347000  0.35653000  0.15280852  1
  Si  Si15  1  0.35653000  0.64347000  0.84719148  1
  O  O16  1  0.77149268  0.22850732  0.92524115  1
  O  O17  1  0.22850732  0.77149268  0.07475885  1
  O  O18  1  0.72850732  0.27149268  0.42524115  1
  O  O19  1  0.27149268  0.72850732  0.57475885  1
  O  O20  1  0.79387855  0.79387855  -0.00000000  1
  O  O21  1  0.20612145  0.20612145  -0.00000000  1
  O  O22  1  0.70612145  0.70612145  0.50000000  1
  O  O23  1  0.29387855  0.29387855  0.50000000  1
  O  O24  1  0.73854719  0.26145281  0.57986360  1
  O  O25  1  0.26145281  0.73854719  0.42013640  1
  O  O26  1  0.76145281  0.23854719  0.07986360  1
  O  O27  1  0.23854719  0.76145281  0.92013640  1
  O  O28  1  0.74103272  0.25896728  0.72658294  1
  O  O29  1  0.25896728  0.74103272  0.27341706  1
  O  O30  1  0.75896728  0.24103272  0.22658294  1
  O  O31  1  0.24103272  0.75896728  0.77341706  1
  O  O32  1  0.69983835  0.75705672  0.84408219  1
  O  O33  1  0.30016165  0.24294328  0.15591781  1
  O  O34  1  0.80016165  0.74294328  0.34408219  1
  O  O35  1  0.74294328  0.80016165  0.65591781  1
  O  O36  1  0.19983835  0.25705672  0.65591781  1
  O  O37  1  0.25705672  0.19983835  0.34408219  1
  O  O38  1  0.75705672  0.69983835  0.15591781  1
  O  O39  1  0.24294328  0.30016165  0.84408219  1
