# generated using pymatgen
data_Hf27(Si3P5)2
_symmetry_space_group_name_H-M   'P 1'
_cell_length_a   3.50951553
_cell_length_b   15.21754298
_cell_length_c   15.21754298
_cell_angle_alpha   78.15279169
_cell_angle_beta   83.37840759
_cell_angle_gamma   83.37840759
_symmetry_Int_Tables_number   1
_chemical_formula_structural   Hf27(Si3P5)2
_chemical_formula_sum   'Hf27 Si6 P10'
_cell_volume   786.57559487
_cell_formula_units_Z   1
loop_
 _symmetry_equiv_pos_site_id
 _symmetry_equiv_pos_as_xyz
  1  'x, y, z'
loop_
 _atom_site_type_symbol
 _atom_site_label
 _atom_site_symmetry_multiplicity
 _atom_site_fract_x
 _atom_site_fract_y
 _atom_site_fract_z
 _atom_site_occupancy
  Hf  Hf0  1  0.60845178  0.26121862  0.52187782  1
  Hf  Hf1  1  0.39154822  0.73878138  0.47812218  1
  Hf  Hf2  1  0.60845178  0.52187782  0.26121862  1
  Hf  Hf3  1  0.39154822  0.47812218  0.73878138  1
  Hf  Hf4  1  0.81742357  0.05037010  0.31478275  1
  Hf  Hf5  1  0.18257643  0.94962990  0.68521725  1
  Hf  Hf6  1  0.81742357  0.31478275  0.05037010  1
  Hf  Hf7  1  0.18257643  0.68521725  0.94962990  1
  Hf  Hf8  1  0.93085303  0.82236035  0.31593360  1
  Hf  Hf9  1  0.06914697  0.17763965  0.68406640  1
  Hf  Hf10  1  0.93085303  0.31593360  0.82236035  1
  Hf  Hf11  1  0.06914697  0.68406640  0.17763965  1
  Hf  Hf12  1  0.78387613  0.89943555  0.53281219  1
  Hf  Hf13  1  0.21612387  0.10056445  0.46718781  1
  Hf  Hf14  1  0.78387613  0.53281219  0.89943555  1
  Hf  Hf15  1  0.21612387  0.46718781  0.10056445  1
  Hf  Hf16  1  0.57943893  0.01448283  0.82663931  1
  Hf  Hf17  1  0.42056107  0.98551717  0.17336069  1
  Hf  Hf18  1  0.57943893  0.82663931  0.01448283  1
  Hf  Hf19  1  0.42056107  0.17336069  0.98551717  1
  Hf  Hf20  1  0.28070215  0.21929785  0.21929785  1
  Hf  Hf21  1  0.71929785  0.78070215  0.78070215  1
  Hf  Hf22  1  0.14820367  0.35179633  0.35179633  1
  Hf  Hf23  1  0.85179633  0.64820367  0.64820367  1
  Hf  Hf24  1  -0.00000000  0.58176648  0.41823352  1
  Hf  Hf25  1  0.00000000  0.41823352  0.58176648  1
  Hf  Hf26  1  -0.00000000  0.00000000  0.00000000  1
  Si  Si27  1  0.65765061  0.07495332  0.60974547  1
  Si  Si28  1  0.34234939  0.92504668  0.39025453  1
  Si  Si29  1  0.65765061  0.60974547  0.07495332  1
  Si  Si30  1  0.34234939  0.39025453  0.92504668  1
  Si  Si31  1  0.87379135  0.12620865  0.12620865  1
  Si  Si32  1  0.12620865  0.87379135  0.87379135  1
  P  P33  1  0.71429400  0.21050351  0.36090850  1
  P  P34  1  0.28570600  0.78949649  0.63909150  1
  P  P35  1  0.71429400  0.36090850  0.21050351  1
  P  P36  1  0.28570600  0.63909150  0.78949649  1
  P  P37  1  0.56131248  0.43868752  0.43868752  1
  P  P38  1  0.43868752  0.56131248  0.56131248  1
  P  P39  1  0.50000000  0.31191796  0.68808204  1
  P  P40  1  0.50000000  0.68808204  0.31191796  1
  P  P41  1  -0.00000000  0.86031125  0.13968875  1
  P  P42  1  0.00000000  0.13968875  0.86031125  1
