# generated using pymatgen
data_CsLu(MoO4)2
_symmetry_space_group_name_H-M   'P 1'
_cell_length_a   7.53138298
_cell_length_b   7.53138298
_cell_length_c   7.70694799
_cell_angle_alpha   62.15586199
_cell_angle_beta   62.15586199
_cell_angle_gamma   88.39153863
_symmetry_Int_Tables_number   1
_chemical_formula_structural   CsLu(MoO4)2
_chemical_formula_sum   'Cs2 Lu2 Mo4 O16'
_cell_volume   331.53084892
_cell_formula_units_Z   2
loop_
 _symmetry_equiv_pos_site_id
 _symmetry_equiv_pos_as_xyz
  1  'x, y, z'
loop_
 _atom_site_type_symbol
 _atom_site_label
 _atom_site_symmetry_multiplicity
 _atom_site_fract_x
 _atom_site_fract_y
 _atom_site_fract_z
 _atom_site_occupancy
  Cs  Cs0  1  0.80383537  0.19616463  0.75000000  1
  Cs  Cs1  1  0.19616463  0.80383537  0.25000000  1
  Lu  Lu2  1  0.22862208  0.77137792  0.75000000  1
  Lu  Lu3  1  0.77137792  0.22862208  0.25000000  1
  Mo  Mo4  1  0.30212371  0.30711467  0.73194320  1
  Mo  Mo5  1  0.69787629  0.69288533  0.26805680  1
  Mo  Mo6  1  0.69288533  0.69787629  0.76805680  1
  Mo  Mo7  1  0.30711467  0.30212371  0.23194320  1
  O  O8  1  0.38370344  0.24169463  0.93316634  1
  O  O9  1  0.61629656  0.75830537  0.06683366  1
  O  O10  1  0.75830537  0.61629656  0.56683366  1
  O  O11  1  0.24169463  0.38370344  0.43316634  1
  O  O12  1  0.62223747  0.93662307  0.61918480  1
  O  O13  1  0.37776253  0.06337693  0.38081520  1
  O  O14  1  0.06337693  0.37776253  0.88081520  1
  O  O15  1  0.93662307  0.62223747  0.11918480  1
  O  O16  1  0.41193203  0.63108658  0.53666334  1
  O  O17  1  0.58806797  0.36891342  0.46333666  1
  O  O18  1  0.36891342  0.58806797  0.96333666  1
  O  O19  1  0.63108658  0.41193203  0.03666334  1
  O  O20  1  0.21415608  0.04882900  0.79849729  1
  O  O21  1  0.78584392  0.95117100  0.20150271  1
  O  O22  1  0.95117100  0.78584392  0.70150271  1
  O  O23  1  0.04882900  0.21415608  0.29849729  1
