# generated using pymatgen
data_Ce4MgRh
_symmetry_space_group_name_H-M   'P 1'
_cell_length_a   9.77482560
_cell_length_b   9.77482560
_cell_length_c   9.77482560
_cell_angle_alpha   60.00000000
_cell_angle_beta   60.00000000
_cell_angle_gamma   60.00000000
_symmetry_Int_Tables_number   1
_chemical_formula_structural   Ce4MgRh
_chemical_formula_sum   'Ce16 Mg4 Rh4'
_cell_volume   660.40758933
_cell_formula_units_Z   4
loop_
 _symmetry_equiv_pos_site_id
 _symmetry_equiv_pos_as_xyz
  1  'x, y, z'
loop_
 _atom_site_type_symbol
 _atom_site_label
 _atom_site_symmetry_multiplicity
 _atom_site_fract_x
 _atom_site_fract_y
 _atom_site_fract_z
 _atom_site_occupancy
  Ce  Ce0  1  0.65117627  0.65117627  0.65117627  1
  Ce  Ce1  1  0.04647118  0.65117627  0.65117627  1
  Ce  Ce2  1  0.65117627  0.04647118  0.65117627  1
  Ce  Ce3  1  0.65117627  0.65117627  0.04647118  1
  Ce  Ce4  1  0.80936329  0.80936329  0.19063671  1
  Ce  Ce5  1  0.19063671  0.19063671  0.80936329  1
  Ce  Ce6  1  0.80936329  0.19063671  0.80936329  1
  Ce  Ce7  1  0.19063671  0.80936329  0.19063671  1
  Ce  Ce8  1  0.19063671  0.80936329  0.80936329  1
  Ce  Ce9  1  0.80936329  0.19063671  0.19063671  1
  Ce  Ce10  1  0.43719788  0.43719788  0.06280212  1
  Ce  Ce11  1  0.06280212  0.06280212  0.43719788  1
  Ce  Ce12  1  0.43719788  0.06280212  0.43719788  1
  Ce  Ce13  1  0.06280212  0.43719788  0.06280212  1
  Ce  Ce14  1  0.06280212  0.43719788  0.43719788  1
  Ce  Ce15  1  0.43719788  0.06280212  0.06280212  1
  Mg  Mg16  1  0.41936301  0.41936301  0.41936301  1
  Mg  Mg17  1  0.74191097  0.41936301  0.41936301  1
  Mg  Mg18  1  0.41936301  0.74191097  0.41936301  1
  Mg  Mg19  1  0.41936301  0.41936301  0.74191097  1
  Rh  Rh20  1  0.85861290  0.85861290  0.85861290  1
  Rh  Rh21  1  0.42416131  0.85861290  0.85861290  1
  Rh  Rh22  1  0.85861290  0.42416131  0.85861290  1
  Rh  Rh23  1  0.85861290  0.85861290  0.42416131  1
