# generated using pymatgen
data_AgH12C6N13O3
_symmetry_space_group_name_H-M   'P 1'
_cell_length_a   9.42272234
_cell_length_b   10.82134915
_cell_length_c   10.03400962
_cell_angle_alpha   68.37973136
_cell_angle_beta   80.33854988
_cell_angle_gamma   59.08826504
_symmetry_Int_Tables_number   1
_chemical_formula_structural   AgH12C6N13O3
_chemical_formula_sum   'Ag2 H24 C12 N26 O6'
_cell_volume   815.75497805
_cell_formula_units_Z   2
loop_
 _symmetry_equiv_pos_site_id
 _symmetry_equiv_pos_as_xyz
  1  'x, y, z'
loop_
 _atom_site_type_symbol
 _atom_site_label
 _atom_site_symmetry_multiplicity
 _atom_site_fract_x
 _atom_site_fract_y
 _atom_site_fract_z
 _atom_site_occupancy
  Ag  Ag0  1  0.36466802  0.86325681  0.04444815  1
  Ag  Ag1  1  0.63533198  0.13674319  0.95555185  1
  H  H2  1  0.42517322  0.71890840  0.32973905  1
  H  H3  1  0.57482678  0.28109160  0.67026095  1
  H  H4  1  0.70811336  0.99634437  0.24227473  1
  H  H5  1  0.29188664  0.00365563  0.75772527  1
  H  H6  1  0.69858326  0.03991365  0.39642483  1
  H  H7  1  0.30141674  0.96008635  0.60357517  1
  H  H8  1  0.57200725  0.24238533  0.51480640  1
  H  H9  1  0.42799275  0.75761467  0.48519360  1
  H  H10  1  0.06585023  0.10050715  0.94785692  1
  H  H11  1  0.93414977  0.89949285  0.05214308  1
  H  H12  1  0.13375705  0.61898705  0.30944363  1
  H  H13  1  0.86624295  0.38101295  0.69055637  1
  H  H14  1  0.05988904  0.61279432  0.64145405  1
  H  H15  1  0.94011096  0.38720568  0.35854595  1
  H  H16  1  0.08897943  0.72514556  0.03214904  1
  H  H17  1  0.91102057  0.27485444  0.96785096  1
  H  H18  1  0.79661694  0.43404932  0.12982609  1
  H  H19  1  0.20338306  0.56595068  0.87017391  1
  H  H20  1  0.66026830  0.61246750  0.14800446  1
  H  H21  1  0.33973170  0.38753250  0.85199554  1
  H  H22  1  0.08460571  0.24886300  0.49679516  1
  H  H23  1  0.91539429  0.75113700  0.50320484  1
  H  H24  1  0.26666697  0.47774899  0.45069822  1
  H  H25  1  0.73333303  0.52225101  0.54930178  1
  C  C26  1  0.33215767  0.44266499  0.25873105  1
  C  C27  1  0.66784233  0.55733501  0.74126895  1
  C  C28  1  0.73926010  0.06283822  0.67467717  1
  C  C29  1  0.26073990  0.93716178  0.32532283  1
  C  C30  1  0.53615310  0.21686267  0.23456399  1
  C  C31  1  0.46384690  0.78313733  0.76543601  1
  C  C32  1  0.07259082  0.12224054  0.13967562  1
  C  C33  1  0.92740918  0.87775946  0.86032438  1
  C  C34  1  0.35781004  0.40777327  0.04369816  1
  C  C35  1  0.64218996  0.59222673  0.95630184  1
  C  C36  1  0.07843869  0.17396765  0.33839808  1
  C  C37  1  0.92156131  0.82603235  0.66160192  1
  N  N38  1  0.20189198  0.03127573  0.40258776  1
  N  N39  1  0.79810802  0.96872427  0.59741224  1
  N  N40  1  0.02389852  0.27541375  0.40701584  1
  N  N41  1  0.97610148  0.72458625  0.59298416  1
  N  N42  1  0.23815165  0.26628628  0.73982563  1
  N  N43  1  0.76184835  0.73371372  0.26017437  1
  N  N44  1  0.66279556  0.07621852  0.29143335  1
  N  N45  1  0.33720444  0.92378148  0.70856665  1
  N  N46  1  0.69262949  0.53938029  0.09304320  1
  N  N47  1  0.30737051  0.46061971  0.90695680  1
  N  N48  1  0.00338279  0.22223490  0.21114237  1
  N  N49  1  0.99661721  0.77776510  0.78885763  1
  N  N50  1  0.00187089  0.16360385  0.01315116  1
  N  N51  1  0.99812911  0.83639615  0.98684884  1
  N  N52  1  0.20833562  0.98081248  0.18798662  1
  N  N53  1  0.79166438  0.01918752  0.81201338  1
  N  N54  1  0.62244547  0.20792564  0.61382390  1
  N  N55  1  0.37755453  0.79207436  0.38617610  1
  N  N56  1  0.46240962  0.30404744  0.31940367  1
  N  N57  1  0.53759038  0.69595256  0.68059633  1
  N  N58  1  0.48957545  0.26408538  0.09491605  1
  N  N59  1  0.51042455  0.73591462  0.90508395  1
  N  N60  1  0.27597408  0.50104875  0.12221597  1
  N  N61  1  0.72402592  0.49895125  0.87778403  1
  N  N62  1  0.25041270  0.53156006  0.34261790  1
  N  N63  1  0.74958730  0.46843994  0.65738210  1
  O  O64  1  0.24008215  0.39158324  0.67682234  1
  O  O65  1  0.75991785  0.60841676  0.32317766  1
  O  O66  1  0.33666480  0.16591155  0.84438762  1
  O  O67  1  0.66333520  0.83408845  0.15561238  1
  O  O68  1  0.13753005  0.24243951  0.69728043  1
  O  O69  1  0.86246995  0.75756049  0.30271957  1
