# generated using pymatgen
data_Bi2SeO7
_symmetry_space_group_name_H-M   'P 1'
_cell_length_a   6.01366910
_cell_length_b   8.40771888
_cell_length_c   13.08243555
_cell_angle_alpha   90.00000000
_cell_angle_beta   90.00000000
_cell_angle_gamma   112.02793987
_symmetry_Int_Tables_number   1
_chemical_formula_structural   Bi2SeO7
_chemical_formula_sum   'Bi8 Se4 O28'
_cell_volume   613.17797871
_cell_formula_units_Z   4
loop_
 _symmetry_equiv_pos_site_id
 _symmetry_equiv_pos_as_xyz
  1  'x, y, z'
loop_
 _atom_site_type_symbol
 _atom_site_label
 _atom_site_symmetry_multiplicity
 _atom_site_fract_x
 _atom_site_fract_y
 _atom_site_fract_z
 _atom_site_occupancy
  Bi  Bi0  1  0.44480483  0.04459959  0.13395358  1
  Bi  Bi1  1  0.55519517  0.95540041  0.86604642  1
  Bi  Bi2  1  0.05519517  0.95540041  0.63395358  1
  Bi  Bi3  1  0.94480483  0.04459959  0.36604642  1
  Bi  Bi4  1  0.20556488  0.71412814  0.37740172  1
  Bi  Bi5  1  0.79443512  0.28587186  0.62259828  1
  Bi  Bi6  1  0.29443512  0.28587186  0.87740172  1
  Bi  Bi7  1  0.70556488  0.71412814  0.12259828  1
  Se  Se8  1  0.08145521  0.37182266  0.13924947  1
  Se  Se9  1  0.91854479  0.62817734  0.86075053  1
  Se  Se10  1  0.41854479  0.62817734  0.63924947  1
  Se  Se11  1  0.58145521  0.37182266  0.36075053  1
  O  O12  1  0.93021424  0.12215780  0.53509910  1
  O  O13  1  0.06978576  0.87784220  0.46490090  1
  O  O14  1  0.56978576  0.87784220  0.03509910  1
  O  O15  1  0.43021424  0.12215780  0.96490090  1
  O  O16  1  0.42882339  0.11442742  0.59764437  1
  O  O17  1  0.57117661  0.88557258  0.40235563  1
  O  O18  1  0.07117661  0.88557258  0.09764437  1
  O  O19  1  0.92882339  0.11442742  0.90235563  1
  O  O20  1  0.31369089  0.29072656  0.41757518  1
  O  O21  1  0.68630911  0.70927344  0.58242482  1
  O  O22  1  0.18630911  0.70927344  0.91757518  1
  O  O23  1  0.81369089  0.29072656  0.08242482  1
  O  O24  1  0.13505256  0.22477532  0.21202837  1
  O  O25  1  0.86494744  0.77522468  0.78797163  1
  O  O26  1  0.36494744  0.77522468  0.71202837  1
  O  O27  1  0.63505256  0.22477532  0.28797163  1
  O  O28  1  0.11618521  0.55275047  0.20198319  1
  O  O29  1  0.88381479  0.44724953  0.79801681  1
  O  O30  1  0.38381479  0.44724953  0.70198319  1
  O  O31  1  0.61618521  0.55275047  0.29801681  1
  O  O32  1  0.29919366  0.42343208  0.04944327  1
  O  O33  1  0.70080634  0.57656792  0.95055673  1
  O  O34  1  0.20080634  0.57656792  0.54944327  1
  O  O35  1  0.79919366  0.42343208  0.45055673  1
  O  O36  1  0.36822160  0.09702718  0.76959513  1
  O  O37  1  0.63177840  0.90297282  0.23040487  1
  O  O38  1  0.13177840  0.90297282  0.26959513  1
  O  O39  1  0.86822160  0.09702718  0.73040487  1
