# generated using pymatgen
data_Y3HoC8
_symmetry_space_group_name_H-M   'P 1'
_cell_length_a   3.69040719
_cell_length_b   3.69040719
_cell_length_c   12.39079040
_cell_angle_alpha   90.00000000
_cell_angle_beta   90.00000000
_cell_angle_gamma   90.00000000
_symmetry_Int_Tables_number   1
_chemical_formula_structural   Y3HoC8
_chemical_formula_sum   'Y3 Ho1 C8'
_cell_volume   168.75147832
_cell_formula_units_Z   1
loop_
 _symmetry_equiv_pos_site_id
 _symmetry_equiv_pos_as_xyz
  1  'x, y, z'
loop_
 _atom_site_type_symbol
 _atom_site_label
 _atom_site_symmetry_multiplicity
 _atom_site_fract_x
 _atom_site_fract_y
 _atom_site_fract_z
 _atom_site_occupancy
  Y  Y0  1  0.50000000  0.50000000  0.25000227  1
  Y  Y1  1  0.00000000  0.00000000  0.50000000  1
  Y  Y2  1  0.50000000  0.50000000  0.74999773  1
  Ho  Ho3  1  0.00000000  0.00000000  -0.00000000  1
  C  C4  1  -0.00000000  0.00000000  0.19686898  1
  C  C5  1  0.50000000  0.50000000  0.44737793  1
  C  C6  1  -0.00000000  0.00000000  0.69773877  1
  C  C7  1  0.50000000  0.50000000  0.94729737  1
  C  C8  1  0.50000000  0.50000000  0.05270263  1
  C  C9  1  0.00000000  0.00000000  0.30226123  1
  C  C10  1  0.50000000  0.50000000  0.55262207  1
  C  C11  1  0.00000000  0.00000000  0.80313102  1
