# generated using pymatgen
data_Zr5S8
_symmetry_space_group_name_H-M   'P 1'
_cell_length_a   7.48965101
_cell_length_b   7.48965101
_cell_length_c   7.48965101
_cell_angle_alpha   90.00000000
_cell_angle_beta   60.00000000
_cell_angle_gamma   120.00000000
_symmetry_Int_Tables_number   1
_chemical_formula_structural   Zr5S8
_chemical_formula_sum   'Zr5 S8'
_cell_volume   297.07749119
_cell_formula_units_Z   1
loop_
 _symmetry_equiv_pos_site_id
 _symmetry_equiv_pos_as_xyz
  1  'x, y, z'
loop_
 _atom_site_type_symbol
 _atom_site_label
 _atom_site_symmetry_multiplicity
 _atom_site_fract_x
 _atom_site_fract_y
 _atom_site_fract_z
 _atom_site_occupancy
  Zr  Zr0  1  0.53158946  0.54738420  0.98420527  1
  Zr  Zr1  1  0.53158946  0.98420527  0.98420527  1
  Zr  Zr2  1  0.96841054  0.98420527  0.54738420  1
  Zr  Zr3  1  0.96841054  0.98420527  0.98420527  1
  Zr  Zr4  1  0.75000000  0.37500000  0.37500000  1
  S  S5  1  0.01834755  0.77752132  0.24082623  1
  S  S6  1  0.01834755  0.24082623  0.24082623  1
  S  S7  1  0.48165245  0.24082623  0.77752132  1
  S  S8  1  0.48165245  0.24082623  0.24082623  1
  S  S9  1  0.00842475  0.26263713  0.74578762  1
  S  S10  1  0.00842475  0.74578762  0.74578762  1
  S  S11  1  0.49157525  0.74578762  0.26263713  1
  S  S12  1  0.49157525  0.74578762  0.74578762  1
