# generated using pymatgen
data_Zr3Mn8Si
_symmetry_space_group_name_H-M   'P 1'
_cell_length_a   4.85276843
_cell_length_b   4.85225710
_cell_length_c   8.04993500
_cell_angle_alpha   90.00000000
_cell_angle_beta   89.99547526
_cell_angle_gamma   60.00348549
_symmetry_Int_Tables_number   1
_chemical_formula_structural   Zr3Mn8Si
_chemical_formula_sum   'Zr3 Mn8 Si1'
_cell_volume   164.16161929
_cell_formula_units_Z   1
loop_
 _symmetry_equiv_pos_site_id
 _symmetry_equiv_pos_as_xyz
  1  'x, y, z'
loop_
 _atom_site_type_symbol
 _atom_site_label
 _atom_site_symmetry_multiplicity
 _atom_site_fract_x
 _atom_site_fract_y
 _atom_site_fract_z
 _atom_site_occupancy
  Zr  Zr0  1  0.66662758  0.66668621  0.44395659  1
  Zr  Zr1  1  0.66664895  0.66667552  0.06482473  1
  Zr  Zr2  1  0.33337806  0.33331097  0.92076028  1
  Mn  Mn3  1  0.99991291  0.00004354  0.50369603  1
  Mn  Mn4  1  0.00003181  0.99998410  0.00714352  1
  Mn  Mn5  1  0.82903759  0.34197848  0.74351706  1
  Mn  Mn6  1  0.34210149  0.82894925  0.74358294  1
  Mn  Mn7  1  0.82903759  0.82898392  0.74351706  1
  Mn  Mn8  1  0.17427480  0.65130024  0.25502134  1
  Mn  Mn9  1  0.65133652  0.17433174  0.25501417  1
  Mn  Mn10  1  0.17427480  0.17442496  0.25502134  1
  Si  Si11  1  0.33333789  0.33333105  0.56394494  1
