# generated using pymatgen
data_YAlNi
_symmetry_space_group_name_H-M   'P 1'
_cell_length_a   5.36916124
_cell_length_b   5.37014516
_cell_length_c   8.55166164
_cell_angle_alpha   90.00000000
_cell_angle_beta   90.00000000
_cell_angle_gamma   60.64222575
_symmetry_Int_Tables_number   1
_chemical_formula_structural   YAlNi
_chemical_formula_sum   'Y4 Al4 Ni4'
_cell_volume   214.90569503
_cell_formula_units_Z   4
loop_
 _symmetry_equiv_pos_site_id
 _symmetry_equiv_pos_as_xyz
  1  'x, y, z'
loop_
 _atom_site_type_symbol
 _atom_site_label
 _atom_site_symmetry_multiplicity
 _atom_site_fract_x
 _atom_site_fract_y
 _atom_site_fract_z
 _atom_site_occupancy
  Y  Y0  1  0.33278246  0.33272793  0.54378790  1
  Y  Y1  1  0.66942724  0.66945675  0.42724263  1
  Y  Y2  1  0.66942724  0.66945675  0.07275737  1
  Y  Y3  1  0.33278246  0.33272793  0.95621210  1
  Al  Al4  1  0.99594073  0.99601741  0.48844998  1
  Al  Al5  1  0.99594073  0.99601741  0.01155002  1
  Al  Al6  1  0.83265864  0.34032672  0.75000000  1
  Al  Al7  1  0.34031620  0.83265318  0.75000000  1
  Ni  Ni8  1  0.83255988  0.83255658  0.75000000  1
  Ni  Ni9  1  0.16839398  0.66381592  0.25000000  1
  Ni  Ni10  1  0.66391043  0.16838761  0.25000000  1
  Ni  Ni11  1  0.16586001  0.16585583  0.25000000  1
