# generated using pymatgen
data_Zr3Fe8Si
_symmetry_space_group_name_H-M   'P 1'
_cell_length_a   4.92151303
_cell_length_b   4.92151303
_cell_length_c   8.48695040
_cell_angle_alpha   106.85472219
_cell_angle_beta   73.14527781
_cell_angle_gamma   119.99999990
_symmetry_Int_Tables_number   1
_chemical_formula_structural   Zr3Fe8Si
_chemical_formula_sum   'Zr3 Fe8 Si1'
_cell_volume   167.75043888
_cell_formula_units_Z   1
loop_
 _symmetry_equiv_pos_site_id
 _symmetry_equiv_pos_as_xyz
  1  'x, y, z'
loop_
 _atom_site_type_symbol
 _atom_site_label
 _atom_site_symmetry_multiplicity
 _atom_site_fract_x
 _atom_site_fract_y
 _atom_site_fract_z
 _atom_site_occupancy
  Zr  Zr0  1  0.37535410  0.62464590  0.87393771  1
  Zr  Zr1  1  0.99586178  0.00413822  0.01241466  1
  Zr  Zr2  1  0.50320914  0.49679086  0.49037259  1
  Fe  Fe3  1  0.43648368  0.56351632  0.19023784  1
  Fe  Fe4  1  0.93790164  0.06209836  0.68340164  1
  Fe  Fe5  1  0.43648368  0.06320520  0.19023784  1
  Fe  Fe6  1  0.93790164  0.55920491  0.68340164  1
  Fe  Fe7  1  0.18800358  0.81199642  0.43598927  1
  Fe  Fe8  1  0.68772924  0.31227076  0.93681228  1
  Fe  Fe9  1  0.93679480  0.56351632  0.19023784  1
  Fe  Fe10  1  0.44079509  0.06209836  0.68340164  1
  Si  Si11  1  0.87348165  0.12651835  0.37955506  1
