# generated using pymatgen
data_Y7ReO14
_symmetry_space_group_name_H-M   'P 1'
_cell_length_a   7.54451800
_cell_length_b   7.54451800
_cell_length_c   7.71015206
_cell_angle_alpha   90.00000000
_cell_angle_beta   60.70813010
_cell_angle_gamma   120.00000000
_symmetry_Int_Tables_number   1
_chemical_formula_structural   Y7ReO14
_chemical_formula_sum   'Y7 Re1 O14'
_cell_volume   313.60095053
_cell_formula_units_Z   1
loop_
 _symmetry_equiv_pos_site_id
 _symmetry_equiv_pos_as_xyz
  1  'x, y, z'
loop_
 _atom_site_type_symbol
 _atom_site_label
 _atom_site_symmetry_multiplicity
 _atom_site_fract_x
 _atom_site_fract_y
 _atom_site_fract_z
 _atom_site_occupancy
  Y  Y0  1  0.00000000  0.00000000  0.50000000  1
  Y  Y1  1  0.50000000  0.50000000  0.50000000  1
  Y  Y2  1  0.50000000  0.00000000  0.50000000  1
  Y  Y3  1  0.00000000  0.50000000  0.00000000  1
  Y  Y4  1  0.50000000  0.00000000  0.00000000  1
  Y  Y5  1  0.50000000  0.50000000  0.00000000  1
  Y  Y6  1  0.00000000  0.00000000  0.00000000  1
  Re  Re7  1  0.00000000  0.50000000  0.50000000  1
  O  O8  1  0.27066095  0.13533047  0.59400858  1
  O  O9  1  0.73179867  0.13565764  0.13254369  1
  O  O10  1  0.73179867  0.59614104  0.13254369  1
  O  O11  1  0.27131527  0.13565764  0.13254369  1
  O  O12  1  0.72933905  0.86466953  0.40599142  1
  O  O13  1  0.26820133  0.86434236  0.86745631  1
  O  O14  1  0.26820133  0.40385896  0.86745631  1
  O  O15  1  0.72868473  0.86434236  0.86745631  1
  O  O16  1  0.77263421  0.57008397  0.65728182  1
  O  O17  1  0.77263421  0.20255024  0.65728182  1
  O  O18  1  0.14016794  0.57008397  0.65728182  1
  O  O19  1  0.22736579  0.42991603  0.34271818  1
  O  O20  1  0.22736579  0.79744976  0.34271818  1
  O  O21  1  0.85983206  0.42991603  0.34271818  1
