# generated using pymatgen
data_VCrCo
_symmetry_space_group_name_H-M   'P 1'
_cell_length_a   4.61972473
_cell_length_b   4.67826495
_cell_length_c   7.74419654
_cell_angle_alpha   90.00000000
_cell_angle_beta   90.00000000
_cell_angle_gamma   120.41795017
_symmetry_Int_Tables_number   1
_chemical_formula_structural   VCrCo
_chemical_formula_sum   'V4 Cr4 Co4'
_cell_volume   144.33225962
_cell_formula_units_Z   4
loop_
 _symmetry_equiv_pos_site_id
 _symmetry_equiv_pos_as_xyz
  1  'x, y, z'
loop_
 _atom_site_type_symbol
 _atom_site_label
 _atom_site_symmetry_multiplicity
 _atom_site_fract_x
 _atom_site_fract_y
 _atom_site_fract_z
 _atom_site_occupancy
  V  V0  1  0.66176529  0.33086629  0.56598229  1
  V  V1  1  0.32318991  0.66160839  0.44061804  1
  V  V2  1  0.32318991  0.66160839  0.05938196  1
  V  V3  1  0.66176529  0.33086629  0.93401771  1
  Cr  Cr4  1  0.66223986  0.83108843  0.75000000  1
  Cr  Cr5  1  0.82694562  0.65680687  0.25000000  1
  Cr  Cr6  1  0.82693288  0.17017130  0.25000000  1
  Cr  Cr7  1  0.34420855  0.17211976  0.25000000  1
  Co  Co8  1  0.00046740  0.00023284  0.50586283  1
  Co  Co9  1  0.00046740  0.00023284  0.99413717  1
  Co  Co10  1  0.18441972  0.34661652  0.75000000  1
  Co  Co11  1  0.18440815  0.83778207  0.75000000  1
