# generated using pymatgen
data_V2O5
_symmetry_space_group_name_H-M   'P 1'
_cell_length_a   2.88430869
_cell_length_b   5.77299586
_cell_length_c   11.36025747
_cell_angle_alpha   90.01206523
_cell_angle_beta   90.00030124
_cell_angle_gamma   89.99261267
_symmetry_Int_Tables_number   1
_chemical_formula_structural   V2O5
_chemical_formula_sum   'V4 O10'
_cell_volume   189.16080148
_cell_formula_units_Z   2
loop_
 _symmetry_equiv_pos_site_id
 _symmetry_equiv_pos_as_xyz
  1  'x, y, z'
loop_
 _atom_site_type_symbol
 _atom_site_label
 _atom_site_symmetry_multiplicity
 _atom_site_fract_x
 _atom_site_fract_y
 _atom_site_fract_z
 _atom_site_occupancy
  V  V0  1  0.74998415  0.85298146  0.40701640  1
  V  V1  1  0.74970216  0.85290406  0.09301096  1
  V  V2  1  0.25030893  0.14713413  0.59304997  1
  V  V3  1  0.25005691  0.14701653  0.90689102  1
  O  O4  1  0.74999889  0.34111098  0.90999799  1
  O  O5  1  0.24999931  0.65894206  0.41003669  1
  O  O6  1  0.25005540  0.65887092  0.08990415  1
  O  O7  1  0.74994159  0.34128248  0.59011130  1
  O  O8  1  0.75004732  0.90286737  0.92540926  1
  O  O9  1  0.24992962  0.09701582  0.42547848  1
  O  O10  1  0.25009484  0.09699316  0.07454935  1
  O  O11  1  0.74989093  0.90304605  0.57454336  1
  O  O12  1  0.75000511  0.90634432  0.24995700  1
  O  O13  1  0.24998486  0.09349065  0.75004406  1
