# generated using pymatgen
data_Tc3Pd
_symmetry_space_group_name_H-M   'P 1'
_cell_length_a   2.75195891
_cell_length_b   2.75195695
_cell_length_c   8.96451472
_cell_angle_alpha   90.00000000
_cell_angle_beta   90.00000000
_cell_angle_gamma   60.00003644
_symmetry_Int_Tables_number   1
_chemical_formula_structural   Tc3Pd
_chemical_formula_sum   'Tc3 Pd1'
_cell_volume   58.79510325
_cell_formula_units_Z   1
loop_
 _symmetry_equiv_pos_site_id
 _symmetry_equiv_pos_as_xyz
  1  'x, y, z'
loop_
 _atom_site_type_symbol
 _atom_site_label
 _atom_site_symmetry_multiplicity
 _atom_site_fract_x
 _atom_site_fract_y
 _atom_site_fract_z
 _atom_site_occupancy
  Tc  Tc0  1  0.33338471  0.33330764  0.87500000  1
  Tc  Tc1  1  0.66663524  0.66668238  0.11925571  1
  Tc  Tc2  1  0.66663524  0.66668238  0.63074429  1
  Pd  Pd3  1  0.33334481  0.33332759  0.37500000  1
