# generated using pymatgen
data_Tm(AlCr)6
_symmetry_space_group_name_H-M   'P 1'
_cell_length_a   5.05021637
_cell_length_b   6.68008103
_cell_length_c   6.68008103
_cell_angle_alpha   97.54004542
_cell_angle_beta   112.21020085
_cell_angle_gamma   67.78979915
_symmetry_Int_Tables_number   1
_chemical_formula_structural   Tm(AlCr)6
_chemical_formula_sum   'Tm1 Al6 Cr6'
_cell_volume   193.13929517
_cell_formula_units_Z   1
loop_
 _symmetry_equiv_pos_site_id
 _symmetry_equiv_pos_as_xyz
  1  'x, y, z'
loop_
 _atom_site_type_symbol
 _atom_site_label
 _atom_site_symmetry_multiplicity
 _atom_site_fract_x
 _atom_site_fract_y
 _atom_site_fract_z
 _atom_site_occupancy
  Tm  Tm0  1  0.00000000  0.00000000  0.00000000  1
  Al  Al1  1  0.65424290  0.34575710  0.65424290  1
  Al  Al2  1  0.34575710  0.65424290  0.34575710  1
  Al  Al3  1  -0.00000000  0.33225797  0.33225797  1
  Al  Al4  1  0.00000000  0.66774203  0.66774203  1
  Al  Al5  1  0.69293801  0.80706199  0.19293801  1
  Al  Al6  1  0.30706199  0.19293801  0.80706199  1
  Cr  Cr7  1  0.50000000  0.00000000  0.50000000  1
  Cr  Cr8  1  0.00000000  0.00000000  0.50000000  1
  Cr  Cr9  1  0.50000000  0.50000000  0.00000000  1
  Cr  Cr10  1  0.00000000  0.50000000  0.00000000  1
  Cr  Cr11  1  0.50000000  0.76083335  0.76083335  1
  Cr  Cr12  1  0.50000000  0.23916665  0.23916665  1
