# generated using pymatgen
data_V4N3
_symmetry_space_group_name_H-M   'P 1'
_cell_length_a   4.08781469
_cell_length_b   4.08781469
_cell_length_c   4.94675983
_cell_angle_alpha   65.59518900
_cell_angle_beta   65.59518900
_cell_angle_gamma   90.00000000
_symmetry_Int_Tables_number   1
_chemical_formula_structural   V4N3
_chemical_formula_sum   'V4 N3'
_cell_volume   67.08136944
_cell_formula_units_Z   1
loop_
 _symmetry_equiv_pos_site_id
 _symmetry_equiv_pos_as_xyz
  1  'x, y, z'
loop_
 _atom_site_type_symbol
 _atom_site_label
 _atom_site_symmetry_multiplicity
 _atom_site_fract_x
 _atom_site_fract_y
 _atom_site_fract_z
 _atom_site_occupancy
  V  V0  1  0.25000000  0.75000000  0.50000000  1
  V  V1  1  0.49768824  0.49768824  0.00462351  1
  V  V2  1  0.75000000  0.25000000  0.50000000  1
  V  V3  1  0.00231176  0.00231176  0.99537649  1
  N  N4  1  0.50000000  -0.00000000  0.00000000  1
  N  N5  1  0.75000000  0.75000000  0.50000000  1
  N  N6  1  -0.00000000  0.50000000  0.00000000  1
