# generated using pymatgen
data_Ti5S8
_symmetry_space_group_name_H-M   'P 1'
_cell_length_a   3.42977736
_cell_length_b   3.42977805
_cell_length_c   23.75135116
_cell_angle_alpha   85.85954341
_cell_angle_beta   89.99999934
_cell_angle_gamma   119.99999602
_symmetry_Int_Tables_number   1
_chemical_formula_structural   Ti5S8
_chemical_formula_sum   'Ti5 S8'
_cell_volume   241.12170260
_cell_formula_units_Z   1
loop_
 _symmetry_equiv_pos_site_id
 _symmetry_equiv_pos_as_xyz
  1  'x, y, z'
loop_
 _atom_site_type_symbol
 _atom_site_label
 _atom_site_symmetry_multiplicity
 _atom_site_fract_x
 _atom_site_fract_y
 _atom_site_fract_z
 _atom_site_occupancy
  Ti  Ti0  1  0.00001296  0.00002592  0.99996112  1
  Ti  Ti1  1  0.49833335  0.99666671  0.50499994  1
  Ti  Ti2  1  0.25013589  0.50027178  0.24959233  1
  Ti  Ti3  1  0.74995261  0.49990522  0.75014218  1
  Ti  Ti4  1  0.54418671  0.08837342  0.36743987  1
  S  S5  1  0.18751316  0.37502632  0.43746052  1
  S  S6  1  0.68640762  0.37281524  0.94077714  1
  S  S7  1  0.31352923  0.62705847  0.05941230  1
  S  S8  1  0.81232872  0.62465744  0.56301384  1
  S  S9  1  0.60317879  0.20635758  0.19046362  1
  S  S10  1  0.10310260  0.20620520  0.69069221  1
  S  S11  1  0.89607309  0.79214617  0.31178074  1
  S  S12  1  0.39689527  0.79379054  0.80931419  1
