# generated using pymatgen
data_TiVN2
_symmetry_space_group_name_H-M   'P 1'
_cell_length_a   2.96563691
_cell_length_b   2.96563691
_cell_length_c   5.11346572
_cell_angle_alpha   73.14304760
_cell_angle_beta   90.00000000
_cell_angle_gamma   120.00000000
_symmetry_Int_Tables_number   1
_chemical_formula_structural   TiVN2
_chemical_formula_sum   'Ti1 V1 N2'
_cell_volume   36.69940168
_cell_formula_units_Z   1
loop_
 _symmetry_equiv_pos_site_id
 _symmetry_equiv_pos_as_xyz
  1  'x, y, z'
loop_
 _atom_site_type_symbol
 _atom_site_label
 _atom_site_symmetry_multiplicity
 _atom_site_fract_x
 _atom_site_fract_y
 _atom_site_fract_z
 _atom_site_occupancy
  Ti  Ti0  1  0.00000000  -0.00000000  0.00000000  1
  V  V1  1  0.50000000  -0.00000000  0.50000000  1
  N  N2  1  0.24889605  0.49779210  0.25331185  1
  N  N3  1  0.75110395  0.50220790  0.74668815  1
