# generated using pymatgen
data_U2(SnPb)3
_symmetry_space_group_name_H-M   'P 1'
_cell_length_a   4.70932058
_cell_length_b   4.67451366
_cell_length_c   9.48439043
_cell_angle_alpha   90.00000000
_cell_angle_beta   90.00000000
_cell_angle_gamma   90.00000000
_symmetry_Int_Tables_number   1
_chemical_formula_structural   U2(SnPb)3
_chemical_formula_sum   'U2 Sn3 Pb3'
_cell_volume   208.78731642
_cell_formula_units_Z   1
loop_
 _symmetry_equiv_pos_site_id
 _symmetry_equiv_pos_as_xyz
  1  'x, y, z'
loop_
 _atom_site_type_symbol
 _atom_site_label
 _atom_site_symmetry_multiplicity
 _atom_site_fract_x
 _atom_site_fract_y
 _atom_site_fract_z
 _atom_site_occupancy
  U  U0  1  0.00000000  0.00000000  0.99524071  1
  U  U1  1  0.00000000  0.00000000  0.50475929  1
  Sn  Sn2  1  0.50000000  0.00000000  0.75000000  1
  Sn  Sn3  1  0.00000000  0.50000000  0.25000000  1
  Sn  Sn4  1  0.00000000  0.50000000  0.75000000  1
  Pb  Pb5  1  0.50000000  0.50000000  0.99763487  1
  Pb  Pb6  1  0.50000000  0.50000000  0.50236513  1
  Pb  Pb7  1  0.50000000  0.00000000  0.25000000  1
