# generated using pymatgen
data_Sm(Fe5Si)2
_symmetry_space_group_name_H-M   'P 1'
_cell_length_a   4.79439193
_cell_length_b   6.37654633
_cell_length_c   6.30372478
_cell_angle_alpha   98.21934792
_cell_angle_beta   112.35117500
_cell_angle_gamma   67.91761017
_symmetry_Int_Tables_number   1
_chemical_formula_structural   Sm(Fe5Si)2
_chemical_formula_sum   'Sm1 Fe10 Si2'
_cell_volume   165.16203033
_cell_formula_units_Z   1
loop_
 _symmetry_equiv_pos_site_id
 _symmetry_equiv_pos_as_xyz
  1  'x, y, z'
loop_
 _atom_site_type_symbol
 _atom_site_label
 _atom_site_symmetry_multiplicity
 _atom_site_fract_x
 _atom_site_fract_y
 _atom_site_fract_z
 _atom_site_occupancy
  Sm  Sm0  1  -0.00000000  0.00000000  0.00000000  1
  Fe  Fe1  1  0.64006469  0.35573319  0.63586258  1
  Fe  Fe2  1  0.35993531  0.64426681  0.36413742  1
  Fe  Fe3  1  0.00420211  0.35573319  0.36413742  1
  Fe  Fe4  1  0.99579789  0.64426681  0.63586258  1
  Fe  Fe5  1  0.50000000  0.50000000  0.00000000  1
  Fe  Fe6  1  -0.00000000  0.50000000  0.00000000  1
  Fe  Fe7  1  0.72621586  0.77475663  0.22718836  1
  Fe  Fe8  1  0.27378414  0.22524337  0.77281164  1
  Fe  Fe9  1  0.49902751  0.77475663  0.77281164  1
  Fe  Fe10  1  0.50097249  0.22524337  0.22718836  1
  Si  Si11  1  0.50000000  0.00000000  0.50000000  1
  Si  Si12  1  -0.00000000  0.00000000  0.50000000  1
