# generated using pymatgen
data_Ta3Fe8Si
_symmetry_space_group_name_H-M   'P 1'
_cell_length_a   4.76298504
_cell_length_b   4.76135547
_cell_length_c   7.76990872
_cell_angle_alpha   90.00000000
_cell_angle_beta   90.00414336
_cell_angle_gamma   60.01131695
_symmetry_Int_Tables_number   1
_chemical_formula_structural   Ta3Fe8Si
_chemical_formula_sum   'Ta3 Fe8 Si1'
_cell_volume   152.61804462
_cell_formula_units_Z   1
loop_
 _symmetry_equiv_pos_site_id
 _symmetry_equiv_pos_as_xyz
  1  'x, y, z'
loop_
 _atom_site_type_symbol
 _atom_site_label
 _atom_site_symmetry_multiplicity
 _atom_site_fract_x
 _atom_site_fract_y
 _atom_site_fract_z
 _atom_site_occupancy
  Ta  Ta0  1  0.66672398  0.66663801  0.44226188  1
  Ta  Ta1  1  0.66671173  0.66664413  0.06631438  1
  Ta  Ta2  1  0.33326316  0.33336842  0.91740057  1
  Fe  Fe3  1  0.00003351  0.99998324  0.50206305  1
  Fe  Fe4  1  0.99992601  0.00003700  0.00791204  1
  Fe  Fe5  1  0.83135666  0.33728971  0.74932603  1
  Fe  Fe6  1  0.33726458  0.83136771  0.74928574  1
  Fe  Fe7  1  0.83135666  0.83135363  0.74932603  1
  Fe  Fe8  1  0.16999598  0.66004558  0.25317015  1
  Fe  Fe9  1  0.66005777  0.16997111  0.25318885  1
  Fe  Fe10  1  0.16999598  0.16995844  0.25317015  1
  Si  Si11  1  0.33331399  0.33334301  0.55658114  1
