# generated using pymatgen
data_TaCo3
_symmetry_space_group_name_H-M   'P 1'
_cell_length_a   4.71013811
_cell_length_b   4.70858446
_cell_length_c   15.40815451
_cell_angle_alpha   90.00000000
_cell_angle_beta   89.99691453
_cell_angle_gamma   60.01091084
_symmetry_Int_Tables_number   1
_chemical_formula_structural   TaCo3
_chemical_formula_sum   'Ta6 Co18'
_cell_volume   295.97361727
_cell_formula_units_Z   6
loop_
 _symmetry_equiv_pos_site_id
 _symmetry_equiv_pos_as_xyz
  1  'x, y, z'
loop_
 _atom_site_type_symbol
 _atom_site_label
 _atom_site_symmetry_multiplicity
 _atom_site_fract_x
 _atom_site_fract_y
 _atom_site_fract_z
 _atom_site_occupancy
  Ta  Ta0  1  0.99989165  0.00005417  0.09127888  1
  Ta  Ta1  1  0.00010835  0.99994583  0.90872112  1
  Ta  Ta2  1  0.33335489  0.33332256  0.35248092  1
  Ta  Ta3  1  0.66664511  0.66667744  0.64751908  1
  Ta  Ta4  1  0.66669058  0.66665471  0.84055239  1
  Ta  Ta5  1  0.33330942  0.33334529  0.15944761  1
  Co  Co6  1  0.16236508  0.67528349  0.74775186  1
  Co  Co7  1  0.67525930  0.16237035  0.74777350  1
  Co  Co8  1  0.16236508  0.16235142  0.74775186  1
  Co  Co9  1  0.83763492  0.32471651  0.25224814  1
  Co  Co10  1  0.32474070  0.83762965  0.25222650  1
  Co  Co11  1  0.83763492  0.83764858  0.25224814  1
  Co  Co12  1  0.50000000  0.00000000  0.50000000  1
  Co  Co13  1  0.00000000  0.50000000  0.50000000  1
  Co  Co14  1  0.50000000  0.50000000  0.50000000  1
  Co  Co15  1  0.50000000  0.00000000  0.00000000  1
  Co  Co16  1  0.00000000  0.50000000  0.00000000  1
  Co  Co17  1  0.50000000  0.50000000  0.00000000  1
  Co  Co18  1  0.33328256  0.33335872  0.62556257  1
  Co  Co19  1  0.66671744  0.66664128  0.37443743  1
  Co  Co20  1  0.66675797  0.66662102  0.12833011  1
  Co  Co21  1  0.33324203  0.33337898  0.87166989  1
  Co  Co22  1  0.00004997  0.99997501  0.58633951  1
  Co  Co23  1  0.99995003  0.00002499  0.41366049  1
