# generated using pymatgen
data_Re3Mo2
_symmetry_space_group_name_H-M   'P 1'
_cell_length_a   5.05760994
_cell_length_b   9.61900706
_cell_length_c   9.61900706
_cell_angle_alpha   89.96890710
_cell_angle_beta   90.00000000
_cell_angle_gamma   90.00000000
_symmetry_Int_Tables_number   1
_chemical_formula_structural   Re3Mo2
_chemical_formula_sum   'Re18 Mo12'
_cell_volume   467.95679239
_cell_formula_units_Z   6
loop_
 _symmetry_equiv_pos_site_id
 _symmetry_equiv_pos_as_xyz
  1  'x, y, z'
loop_
 _atom_site_type_symbol
 _atom_site_label
 _atom_site_symmetry_multiplicity
 _atom_site_fract_x
 _atom_site_fract_y
 _atom_site_fract_z
 _atom_site_occupancy
  Re  Re0  1  0.49942628  0.09991046  0.90008954  1
  Re  Re1  1  0.49942628  0.90008954  0.09991046  1
  Re  Re2  1  0.00161421  0.40036409  0.40036409  1
  Re  Re3  1  0.00161421  0.59963591  0.59963591  1
  Re  Re4  1  0.50085943  0.43244860  0.23756326  1
  Re  Re5  1  0.50085943  0.56755140  0.76243674  1
  Re  Re6  1  0.99860263  0.06655053  0.73813132  1
  Re  Re7  1  0.99860263  0.93344947  0.26186868  1
  Re  Re8  1  0.50085943  0.23756326  0.43244860  1
  Re  Re9  1  0.50085943  0.76243674  0.56755140  1
  Re  Re10  1  0.99860263  0.73813132  0.06655053  1
  Re  Re11  1  0.99860263  0.26186868  0.93344947  1
  Re  Re12  1  0.74891063  0.18280901  0.18280901  1
  Re  Re13  1  0.74891063  0.81719099  0.81719099  1
  Re  Re14  1  0.74983396  0.68338856  0.31661144  1
  Re  Re15  1  0.74983396  0.31661144  0.68338856  1
  Re  Re16  1  0.25113679  0.81745151  0.81745151  1
  Re  Re17  1  0.25113679  0.18254849  0.18254849  1
  Mo  Mo18  1  0.49960148  0.36675509  0.96363970  1
  Mo  Mo19  1  0.49960148  0.63324491  0.03636030  1
  Mo  Mo20  1  0.00000433  0.13269219  0.46225102  1
  Mo  Mo21  1  0.00000433  0.86730781  0.53774898  1
  Mo  Mo22  1  0.49960148  0.96363970  0.36675509  1
  Mo  Mo23  1  0.49960148  0.03636030  0.63324491  1
  Mo  Mo24  1  0.00000433  0.46225102  0.13269219  1
  Mo  Mo25  1  0.00000433  0.53774898  0.86730781  1
  Mo  Mo26  1  0.50508201  0.50000000  0.50000000  1
  Mo  Mo27  1  0.00049170  0.00000000  0.00000000  1
  Mo  Mo28  1  0.24815554  0.31697416  0.68302584  1
  Mo  Mo29  1  0.24815554  0.68302584  0.31697416  1
