# generated using pymatgen
data_Ta2H4O7
_symmetry_space_group_name_H-M   'P 1'
_cell_length_a   7.46237713
_cell_length_b   7.72945337
_cell_length_c   7.49804708
_cell_angle_alpha   58.66540502
_cell_angle_beta   62.21641831
_cell_angle_gamma   59.11817667
_symmetry_Int_Tables_number   1
_chemical_formula_structural   Ta2H4O7
_chemical_formula_sum   'Ta4 H8 O14'
_cell_volume   305.10400412
_cell_formula_units_Z   2
loop_
 _symmetry_equiv_pos_site_id
 _symmetry_equiv_pos_as_xyz
  1  'x, y, z'
loop_
 _atom_site_type_symbol
 _atom_site_label
 _atom_site_symmetry_multiplicity
 _atom_site_fract_x
 _atom_site_fract_y
 _atom_site_fract_z
 _atom_site_occupancy
  Ta  Ta0  1  0.50000000  0.00000000  0.50000000  1
  Ta  Ta1  1  0.50000000  0.50000000  0.00000000  1
  Ta  Ta2  1  0.00000000  0.50000000  0.50000000  1
  Ta  Ta3  1  0.50000000  0.50000000  0.50000000  1
  H  H4  1  0.07128965  0.67871035  0.07128965  1
  H  H5  1  0.67871035  0.07128965  0.67871035  1
  H  H6  1  0.92871035  0.32128965  0.92871035  1
  H  H7  1  0.32128965  0.92871035  0.32128965  1
  H  H8  1  0.78688665  0.78688665  0.96311335  1
  H  H9  1  0.96311335  0.96311335  0.78688665  1
  H  H10  1  0.03688665  0.03688665  0.21311335  1
  H  H11  1  0.21311335  0.21311335  0.03688665  1
  O  O12  1  0.54821866  0.20178134  0.20178134  1
  O  O13  1  0.20178134  0.54821866  0.54821866  1
  O  O14  1  0.19554790  0.19554790  0.55445210  1
  O  O15  1  0.55445210  0.55445210  0.19554790  1
  O  O16  1  0.16834636  0.58165364  0.16834636  1
  O  O17  1  0.58165364  0.16834636  0.58165364  1
  O  O18  1  0.45178134  0.79821866  0.79821866  1
  O  O19  1  0.79821866  0.45178134  0.45178134  1
  O  O20  1  0.80445210  0.80445210  0.44554790  1
  O  O21  1  0.44554790  0.44554790  0.80445210  1
  O  O22  1  0.83165364  0.41834636  0.83165364  1
  O  O23  1  0.41834636  0.83165364  0.41834636  1
  O  O24  1  0.87500000  0.87500000  0.87500000  1
  O  O25  1  0.12500000  0.12500000  0.12500000  1
