# generated using pymatgen
data_Ta5CrNiS10
_symmetry_space_group_name_H-M   'P 1'
_cell_length_a   3.33161029
_cell_length_b   3.33209018
_cell_length_c   62.63054549
_cell_angle_alpha   90.00356145
_cell_angle_beta   89.99855960
_cell_angle_gamma   119.99620613
_symmetry_Int_Tables_number   1
_chemical_formula_structural   Ta5CrNiS10
_chemical_formula_sum   'Ta10 Cr2 Ni2 S20'
_cell_volume   602.14955289
_cell_formula_units_Z   2
loop_
 _symmetry_equiv_pos_site_id
 _symmetry_equiv_pos_as_xyz
  1  'x, y, z'
loop_
 _atom_site_type_symbol
 _atom_site_label
 _atom_site_symmetry_multiplicity
 _atom_site_fract_x
 _atom_site_fract_y
 _atom_site_fract_z
 _atom_site_occupancy
  Ta  Ta0  1  -0.00000512  0.00007754  0.14963163  1
  Ta  Ta1  1  0.00001066  0.00002566  0.34984654  1
  Ta  Ta2  1  0.00000047  0.00003665  0.54742771  1
  Ta  Ta3  1  0.00001665  0.00002488  0.74760252  1
  Ta  Ta4  1  0.00000642  0.00001944  0.94978286  1
  Ta  Ta5  1  0.99988071  0.99985207  0.05020384  1
  Ta  Ta6  1  0.00004556  0.99998126  0.25030548  1
  Ta  Ta7  1  0.00001092  -0.00000197  0.45260576  1
  Ta  Ta8  1  0.00000713  -0.00000432  0.65248952  1
  Ta  Ta9  1  0.00001471  0.99998938  0.85008297  1
  Cr  Cr10  1  0.99994288  0.99994453  0.09991290  1
  Cr  Cr11  1  0.00009881  0.00005835  0.30006299  1
  Ni  Ni12  1  0.00000525  0.00000411  0.50011871  1
  Ni  Ni13  1  0.00000695  -0.00000047  0.69995635  1
  S  S14  1  0.66669778  0.33337905  0.02530931  1
  S  S15  1  0.66670168  0.33329683  0.22539013  1
  S  S16  1  0.66668026  0.33332114  0.42751421  1
  S  S17  1  0.66667980  0.33332446  0.62740513  1
  S  S18  1  0.66668366  0.33331674  0.82514712  1
  S  S19  1  0.33320245  0.66657421  0.17453774  1
  S  S20  1  0.33333768  0.66670000  0.37477845  1
  S  S21  1  0.33332974  0.66671062  0.57253292  1
  S  S22  1  0.33334125  0.66669477  0.77264518  1
  S  S23  1  0.33333319  0.66669382  0.97476645  1
  S  S24  1  0.33325395  0.66662770  0.12371112  1
  S  S25  1  0.33335039  0.66666492  0.32393806  1
  S  S26  1  0.33333496  0.66667062  0.52238077  1
  S  S27  1  0.33334467  0.66666015  0.72242478  1
  S  S28  1  0.33333751  0.66665293  0.92485763  1
  S  S29  1  0.66659685  0.33327490  0.07616205  1
  S  S30  1  0.66671699  0.33335076  0.27620858  1
  S  S31  1  0.66667982  0.33336122  0.47769337  1
  S  S32  1  0.66667652  0.33335998  0.67763620  1
  S  S33  1  0.66667883  0.33335808  0.87493102  1
