# generated using pymatgen
data_Sr4Mn2Ga2O11
_symmetry_space_group_name_H-M   'P 1'
_cell_length_a   5.62797378
_cell_length_b   5.62797378
_cell_length_c   8.56373159
_cell_angle_alpha   70.48286870
_cell_angle_beta   70.48286870
_cell_angle_gamma   89.04178400
_symmetry_Int_Tables_number   1
_chemical_formula_structural   Sr4Mn2Ga2O11
_chemical_formula_sum   'Sr4 Mn2 Ga2 O11'
_cell_volume   239.59433334
_cell_formula_units_Z   1
loop_
 _symmetry_equiv_pos_site_id
 _symmetry_equiv_pos_as_xyz
  1  'x, y, z'
loop_
 _atom_site_type_symbol
 _atom_site_label
 _atom_site_symmetry_multiplicity
 _atom_site_fract_x
 _atom_site_fract_y
 _atom_site_fract_z
 _atom_site_occupancy
  Sr  Sr0  1  0.12628178  0.62628178  0.74563923  1
  Sr  Sr1  1  0.62807900  0.12807900  0.74563923  1
  Sr  Sr2  1  0.37371822  0.87371822  0.25436077  1
  Sr  Sr3  1  0.87192100  0.37192100  0.25436077  1
  Mn  Mn4  1  0.25000000  0.25000000  0.50000000  1
  Mn  Mn5  1  0.75000000  0.75000000  0.50000000  1
  Ga  Ga6  1  0.51856240  0.48143760  0.00000000  1
  Ga  Ga7  1  0.98143760  0.01856240  0.00000000  1
  O  O8  1  0.17194822  0.07410948  0.75394230  1
  O  O9  1  0.57410948  0.67194822  0.75394230  1
  O  O10  1  0.32805178  0.42589052  0.24605770  1
  O  O11  1  0.92589052  0.82805178  0.24605770  1
  O  O12  1  0.52300542  0.02300542  0.45398916  1
  O  O13  1  0.97699458  0.47699458  0.54601084  1
  O  O14  1  0.00000000  0.00000000  0.50000000  1
  O  O15  1  0.50000000  0.50000000  0.50000000  1
  O  O16  1  0.75000000  0.25000000  0.00000000  1
  O  O17  1  0.75000000  0.75000000  0.00000000  1
  O  O18  1  0.25000000  0.25000000  0.00000000  1
