# generated using pymatgen
data_SrYCoO4
_symmetry_space_group_name_H-M   'P 1'
_cell_length_a   3.78146020
_cell_length_b   3.78146020
_cell_length_c   6.70474841
_cell_angle_alpha   73.62046791
_cell_angle_beta   73.62046791
_cell_angle_gamma   90.00000000
_symmetry_Int_Tables_number   1
_chemical_formula_structural   SrYCoO4
_chemical_formula_sum   'Sr1 Y1 Co1 O4'
_cell_volume   87.91996864
_cell_formula_units_Z   1
loop_
 _symmetry_equiv_pos_site_id
 _symmetry_equiv_pos_as_xyz
  1  'x, y, z'
loop_
 _atom_site_type_symbol
 _atom_site_label
 _atom_site_symmetry_multiplicity
 _atom_site_fract_x
 _atom_site_fract_y
 _atom_site_fract_z
 _atom_site_occupancy
  Sr  Sr0  1  0.35514726  0.35514726  0.28970547  1
  Y  Y1  1  0.63868175  0.63868175  0.72263650  1
  Co  Co2  1  0.99917631  0.99917631  0.00164738  1
  O  O3  1  0.16256868  0.16256868  0.67486264  1
  O  O4  1  0.81987307  0.81987307  0.36025386  1
  O  O5  1  0.51227646  0.01227646  0.97544707  1
  O  O6  1  0.01227646  0.51227646  0.97544707  1
