# generated using pymatgen
data_Sr10Ca4Cu10Bi11O40
_symmetry_space_group_name_H-M   'P 1'
_cell_length_a   8.38932217
_cell_length_b   16.94271502
_cell_length_c   8.38868189
_cell_angle_alpha   75.66853225
_cell_angle_beta   89.99329201
_cell_angle_gamma   104.33258214
_symmetry_Int_Tables_number   1
_chemical_formula_structural   Sr10Ca4Cu10Bi11O40
_chemical_formula_sum   'Sr10 Ca4 Cu10 Bi11 O40'
_cell_volume   1116.89043667
_cell_formula_units_Z   1
loop_
 _symmetry_equiv_pos_site_id
 _symmetry_equiv_pos_as_xyz
  1  'x, y, z'
loop_
 _atom_site_type_symbol
 _atom_site_label
 _atom_site_symmetry_multiplicity
 _atom_site_fract_x
 _atom_site_fract_y
 _atom_site_fract_z
 _atom_site_occupancy
  Sr  Sr0  1  0.40938940  0.21877880  0.79061060  1
  Sr  Sr1  1  0.60902792  0.21645356  0.39104168  1
  Sr  Sr2  1  0.80896801  0.21644066  0.99252464  1
  Sr  Sr3  1  0.00747265  0.21644066  0.59103470  1
  Sr  Sr4  1  0.20742564  0.21645356  0.19250476  1
  Sr  Sr5  1  0.39257436  0.78354644  0.60749524  1
  Sr  Sr6  1  0.59252735  0.78355934  0.20896530  1
  Sr  Sr7  1  0.79103199  0.78355934  0.80747536  1
  Sr  Sr8  1  0.99097208  0.78354644  0.40895832  1
  Sr  Sr9  1  0.19061060  0.78122120  0.00938940  1
  Ca  Ca10  1  0.50159886  0.00000000  0.49780334  1
  Ca  Ca11  1  0.70221325  0.00000000  0.10151875  1
  Ca  Ca12  1  0.89778675  1.00000000  0.69848125  1
  Ca  Ca13  1  0.09840114  1.00000000  0.30219666  1
  Cu  Cu14  1  0.04931785  0.10229134  0.94966598  1
  Cu  Cu15  1  0.25032811  0.10229286  0.54706698  1
  Cu  Cu16  1  0.45196474  0.10229286  0.15064017  1
  Cu  Cu17  1  0.65297349  0.10229134  0.74804268  1
  Cu  Cu18  1  0.85057696  0.10115392  0.34942304  1
  Cu  Cu19  1  0.74942304  0.89884608  0.45057696  1
  Cu  Cu20  1  0.94702651  0.89770866  0.05195732  1
  Cu  Cu21  1  0.14803526  0.89770714  0.64935983  1
  Cu  Cu22  1  0.34967189  0.89770714  0.25293302  1
  Cu  Cu23  1  0.55068215  0.89770866  0.85033402  1
  Bi  Bi24  1  0.19755405  0.39512391  0.80284848  1
  Bi  Bi25  1  0.39720428  0.39512665  0.40245767  1
  Bi  Bi26  1  0.59792237  0.39512665  0.00241568  1
  Bi  Bi27  1  0.79756986  0.39512391  0.60202761  1
  Bi  Bi28  1  0.99756101  0.39512202  0.20243899  1
  Bi  Bi29  1  0.60243899  0.60487798  0.59756101  1
  Bi  Bi30  1  0.80243014  0.60487609  0.19797239  1
  Bi  Bi31  1  0.00207763  0.60487335  0.79758432  1
  Bi  Bi32  1  0.20279572  0.60487335  0.39754233  1
  Bi  Bi33  1  0.40244595  0.60487609  0.99715152  1
  Bi  Bi34  1  0.30000000  0.00000000  0.90000000  1
  O  O35  1  0.13270691  0.26429230  0.86769618  1
  O  O36  1  0.33233230  0.26429493  0.46839369  1
  O  O37  1  0.53196263  0.26429493  0.06731137  1
  O  O38  1  0.73158538  0.26429230  0.66801152  1
  O  O39  1  0.93219247  0.26438493  0.26780753  1
  O  O40  1  0.66780753  0.73561507  0.53219247  1
  O  O41  1  0.86841462  0.73570770  0.13198848  1
  O  O42  1  0.06803737  0.73570507  0.73268863  1
  O  O43  1  0.26766770  0.73570507  0.33160631  1
  O  O44  1  0.46729309  0.73570770  0.93230382  1
  O  O45  1  0.49681536  0.39363072  0.70318464  1
  O  O46  1  0.69743176  0.39366644  0.30349066  1
  O  O47  1  0.89653750  0.39368124  0.90383112  1
  O  O48  1  0.09714374  0.39368124  0.50248763  1
  O  O49  1  0.29623468  0.39366644  0.10284290  1
  O  O50  1  0.30376532  0.60633356  0.69715710  1
  O  O51  1  0.50285626  0.60631876  0.29751237  1
  O  O52  1  0.70346250  0.60631876  0.89616888  1
  O  O53  1  0.90256824  0.60633356  0.49650934  1
  O  O54  1  0.10318464  0.60636928  0.09681536  1
  O  O55  1  0.25138850  0.10162583  0.04899308  1
  O  O56  1  0.45023733  0.10162583  0.64938109  1
  O  O57  1  0.65108403  0.10138870  0.24915787  1
  O  O58  1  0.85072094  0.10144188  0.84927906  1
  O  O59  1  0.05030467  0.10138870  0.44945343  1
  O  O60  1  0.64924463  0.89858434  0.65017784  1
  O  O61  1  0.84933970  0.89858434  0.25123782  1
  O  O62  1  0.04946752  0.89836181  0.85120708  1
  O  O63  1  0.24926711  0.89853422  0.45073289  1
  O  O64  1  0.44889429  0.89836181  0.05043111  1
  O  O65  1  0.54969533  0.89861130  0.35054657  1
  O  O66  1  0.74927906  0.89855812  0.95072094  1
  O  O67  1  0.94891597  0.89861130  0.55084213  1
  O  O68  1  0.14976267  0.89837417  0.15061891  1
  O  O69  1  0.34861150  0.89837417  0.75100692  1
  O  O70  1  0.15110571  0.10163819  0.74956889  1
  O  O71  1  0.35073289  0.10146578  0.34926711  1
  O  O72  1  0.55053248  0.10163819  0.94879292  1
  O  O73  1  0.75066030  0.10141566  0.54876218  1
  O  O74  1  0.95075537  0.10141566  0.14982216  1
