# generated using pymatgen
data_Sr2Si3
_symmetry_space_group_name_H-M   'P 1'
_cell_length_a   3.92778129
_cell_length_b   4.69722782
_cell_length_c   8.08446531
_cell_angle_alpha   73.11153898
_cell_angle_beta   75.94096442
_cell_angle_gamma   90.00000000
_symmetry_Int_Tables_number   1
_chemical_formula_structural   Sr2Si3
_chemical_formula_sum   'Sr2 Si3'
_cell_volume   138.04719189
_cell_formula_units_Z   1
loop_
 _symmetry_equiv_pos_site_id
 _symmetry_equiv_pos_as_xyz
  1  'x, y, z'
loop_
 _atom_site_type_symbol
 _atom_site_label
 _atom_site_symmetry_multiplicity
 _atom_site_fract_x
 _atom_site_fract_y
 _atom_site_fract_z
 _atom_site_occupancy
  Sr  Sr0  1  0.75324215  0.25324215  0.49351570  1
  Sr  Sr1  1  0.99516550  0.99516550  0.00966901  1
  Si  Si2  1  0.42212573  0.42212573  0.15574853  1
  Si  Si3  1  0.16810099  0.66810099  0.66379803  1
  Si  Si4  1  0.57636564  0.57636564  0.84726873  1
