# generated using pymatgen
data_Sr4U3ZnO12
_symmetry_space_group_name_H-M   'P 1'
_cell_length_a   5.92023544
_cell_length_b   6.03878479
_cell_length_c   8.54992800
_cell_angle_alpha   90.35176754
_cell_angle_beta   90.70499217
_cell_angle_gamma   90.02889218
_symmetry_Int_Tables_number   1
_chemical_formula_structural   Sr4U3ZnO12
_chemical_formula_sum   'Sr4 U3 Zn1 O12'
_cell_volume   305.63976235
_cell_formula_units_Z   1
loop_
 _symmetry_equiv_pos_site_id
 _symmetry_equiv_pos_as_xyz
  1  'x, y, z'
loop_
 _atom_site_type_symbol
 _atom_site_label
 _atom_site_symmetry_multiplicity
 _atom_site_fract_x
 _atom_site_fract_y
 _atom_site_fract_z
 _atom_site_occupancy
  Sr  Sr0  1  0.48658677  0.46498540  0.22959360  1
  Sr  Sr1  1  0.01320483  0.94732388  0.22685965  1
  Sr  Sr2  1  0.51341323  0.53501460  0.77040640  1
  Sr  Sr3  1  0.98679517  0.05267612  0.77314035  1
  U  U4  1  0.50000000  -0.00000000  0.50000000  1
  U  U5  1  0.00000000  0.50000000  0.50000000  1
  U  U6  1  0.50000000  -0.00000000  0.00000000  1
  Zn  Zn7  1  0.00000000  0.50000000  0.00000000  1
  O  O8  1  0.28530974  0.71919470  0.04230961  1
  O  O9  1  0.20865779  0.20229968  0.43708721  1
  O  O10  1  0.70156373  0.29266954  0.56118079  1
  O  O11  1  0.78096577  0.78581828  0.96294278  1
  O  O12  1  0.71469026  0.28080530  0.95769039  1
  O  O13  1  0.79134221  0.79770032  0.56291279  1
  O  O14  1  0.29843627  0.70733046  0.43881921  1
  O  O15  1  0.21903423  0.21418172  0.03705722  1
  O  O16  1  0.90807951  0.53094191  0.26418295  1
  O  O17  1  0.59894167  0.03350538  0.25186321  1
  O  O18  1  0.09192049  0.46905809  0.73581705  1
  O  O19  1  0.40105833  0.96649462  0.74813679  1
