# generated using pymatgen
data_Mo2Rh
_symmetry_space_group_name_H-M   'P 1'
_cell_length_a   2.72260337
_cell_length_b   2.72260337
_cell_length_c   6.48583919
_cell_angle_alpha   78.51205605
_cell_angle_beta   78.51205605
_cell_angle_gamma   92.92943444
_symmetry_Int_Tables_number   1
_chemical_formula_structural   Mo2Rh
_chemical_formula_sum   'Mo2 Rh1'
_cell_volume   45.96304224
_cell_formula_units_Z   1
loop_
 _symmetry_equiv_pos_site_id
 _symmetry_equiv_pos_as_xyz
  1  'x, y, z'
loop_
 _atom_site_type_symbol
 _atom_site_label
 _atom_site_symmetry_multiplicity
 _atom_site_fract_x
 _atom_site_fract_y
 _atom_site_fract_z
 _atom_site_occupancy
  Mo  Mo0  1  0.34057896  0.34057896  0.31884108  1
  Mo  Mo1  1  0.65942104  0.65942104  0.68115892  1
  Rh  Rh2  1  -0.00000000  -0.00000000  0.00000000  1
