# generated using pymatgen
data_Sm2Ga2Fe15C2
_symmetry_space_group_name_H-M   'P 1'
_cell_length_a   6.51570487
_cell_length_b   6.51570546
_cell_length_c   6.57866786
_cell_angle_alpha   82.83415110
_cell_angle_beta   82.83414959
_cell_angle_gamma   83.00070235
_symmetry_Int_Tables_number   1
_chemical_formula_structural   Sm2Ga2Fe15C2
_chemical_formula_sum   'Sm2 Ga2 Fe15 C2'
_cell_volume   273.34002606
_cell_formula_units_Z   1
loop_
 _symmetry_equiv_pos_site_id
 _symmetry_equiv_pos_as_xyz
  1  'x, y, z'
loop_
 _atom_site_type_symbol
 _atom_site_label
 _atom_site_symmetry_multiplicity
 _atom_site_fract_x
 _atom_site_fract_y
 _atom_site_fract_z
 _atom_site_occupancy
  Sm  Sm0  1  0.65695774  0.65695774  0.66875949  1
  Sm  Sm1  1  0.34498254  0.34498254  0.33179336  1
  Ga  Ga2  1  0.66321324  0.15678740  0.66318982  1
  Ga  Ga3  1  0.15678740  0.66321324  0.66318982  1
  Fe  Fe4  1  0.90463154  0.90463154  0.91064412  1
  Fe  Fe5  1  0.09686972  0.09686972  0.09434703  1
  Fe  Fe6  1  0.71380310  0.99927083  0.28868125  1
  Fe  Fe7  1  0.00763595  0.28840287  0.71272129  1
  Fe  Fe8  1  0.28186378  0.71709494  0.00373955  1
  Fe  Fe9  1  0.99927083  0.71380310  0.28868125  1
  Fe  Fe10  1  0.71709494  0.28186378  0.00373955  1
  Fe  Fe11  1  0.28840287  0.00763595  0.71272129  1
  Fe  Fe12  1  0.99799796  0.49994222  0.00190453  1
  Fe  Fe13  1  0.49994222  0.99799796  0.00190453  1
  Fe  Fe14  1  0.00281860  0.00281860  0.49237270  1
  Fe  Fe15  1  0.33726514  0.33726514  0.86390087  1
  Fe  Fe16  1  0.34286686  0.85206921  0.33474237  1
  Fe  Fe17  1  0.85206921  0.34286686  0.33474237  1
  Fe  Fe18  1  0.65679651  0.65679651  0.14595024  1
  C  C19  1  0.48989238  0.98883746  0.49113728  1
  C  C20  1  0.98883746  0.48989238  0.49113728  1
