# generated using pymatgen
data_NaV4Cd3O12
_symmetry_space_group_name_H-M   'P 1'
_cell_length_a   5.34815707
_cell_length_b   5.38745332
_cell_length_c   7.64675566
_cell_angle_alpha   90.00000000
_cell_angle_beta   90.00000000
_cell_angle_gamma   90.45828242
_symmetry_Int_Tables_number   1
_chemical_formula_structural   NaV4Cd3O12
_chemical_formula_sum   'Na1 V4 Cd3 O12'
_cell_volume   220.31851456
_cell_formula_units_Z   1
loop_
 _symmetry_equiv_pos_site_id
 _symmetry_equiv_pos_as_xyz
  1  'x, y, z'
loop_
 _atom_site_type_symbol
 _atom_site_label
 _atom_site_symmetry_multiplicity
 _atom_site_fract_x
 _atom_site_fract_y
 _atom_site_fract_z
 _atom_site_occupancy
  Na  Na0  1  0.50643233  0.53401064  0.25000000  1
  V  V1  1  0.99914174  0.50247918  0.00533671  1
  V  V2  1  0.50149135  0.00348178  0.49677555  1
  V  V3  1  0.99914174  0.50247918  0.49466329  1
  V  V4  1  0.50149135  0.00348178  0.00322445  1
  Cd  Cd5  1  0.99423715  0.03325895  0.25000000  1
  Cd  Cd6  1  0.49433245  0.46887071  0.75000000  1
  Cd  Cd7  1  0.00702913  0.96582448  0.75000000  1
  O  O8  1  0.80605581  0.78711946  0.04369069  1
  O  O9  1  0.70623523  0.28506304  0.46215764  1
  O  O10  1  0.19691889  0.21227499  0.54157444  1
  O  O11  1  0.29858975  0.70701258  0.95807130  1
  O  O12  1  0.19691889  0.21227499  0.95842556  1
  O  O13  1  0.29858975  0.70701258  0.54192870  1
  O  O14  1  0.80605581  0.78711946  0.45630931  1
  O  O15  1  0.70623523  0.28506304  0.03784236  1
  O  O16  1  0.41151171  0.97838264  0.25000000  1
  O  O17  1  0.06915488  0.47867909  0.25000000  1
  O  O18  1  0.58517877  0.02301951  0.75000000  1
  O  O19  1  0.91525806  0.52309193  0.75000000  1
