# generated using pymatgen
data_Nb5Ir7
_symmetry_space_group_name_H-M   'P 1'
_cell_length_a   2.85367342
_cell_length_b   4.86285541
_cell_length_c   13.77393520
_cell_angle_alpha   90.00000000
_cell_angle_beta   90.00000000
_cell_angle_gamma   90.00000000
_symmetry_Int_Tables_number   1
_chemical_formula_structural   Nb5Ir7
_chemical_formula_sum   'Nb5 Ir7'
_cell_volume   191.14091570
_cell_formula_units_Z   1
loop_
 _symmetry_equiv_pos_site_id
 _symmetry_equiv_pos_as_xyz
  1  'x, y, z'
loop_
 _atom_site_type_symbol
 _atom_site_label
 _atom_site_symmetry_multiplicity
 _atom_site_fract_x
 _atom_site_fract_y
 _atom_site_fract_z
 _atom_site_occupancy
  Nb  Nb0  1  0.00000000  0.30824365  0.59046196  1
  Nb  Nb1  1  -0.00000000  0.67000522  0.41612442  1
  Nb  Nb2  1  0.00000000  0.30824365  0.90953804  1
  Nb  Nb3  1  -0.00000000  0.67000522  0.08387558  1
  Nb  Nb4  1  0.00000000  0.04668156  0.25000000  1
  Ir  Ir5  1  0.50000000  0.53711136  0.25000000  1
  Ir  Ir6  1  0.50000000  0.49036079  0.75000000  1
  Ir  Ir7  1  0.50000000  0.82195041  0.58595693  1
  Ir  Ir8  1  0.50000000  0.17370368  0.42013707  1
  Ir  Ir9  1  0.50000000  0.82195041  0.91404307  1
  Ir  Ir10  1  0.50000000  0.17370368  0.07986293  1
  Ir  Ir11  1  0.00000000  0.97804038  0.75000000  1
