# generated using pymatgen
data_Nb8P5
_symmetry_space_group_name_H-M   'P 1'
_cell_length_a   3.44918354
_cell_length_b   9.43412409
_cell_length_c   26.68277162
_cell_angle_alpha   90.00000000
_cell_angle_beta   90.00000000
_cell_angle_gamma   90.00000000
_symmetry_Int_Tables_number   1
_chemical_formula_structural   Nb8P5
_chemical_formula_sum   'Nb32 P20'
_cell_volume   868.25806961
_cell_formula_units_Z   4
loop_
 _symmetry_equiv_pos_site_id
 _symmetry_equiv_pos_as_xyz
  1  'x, y, z'
loop_
 _atom_site_type_symbol
 _atom_site_label
 _atom_site_symmetry_multiplicity
 _atom_site_fract_x
 _atom_site_fract_y
 _atom_site_fract_z
 _atom_site_occupancy
  Nb  Nb0  1  0.50000000  0.83327457  0.37916876  1
  Nb  Nb1  1  0.50000000  0.17008654  0.62308501  1
  Nb  Nb2  1  0.50000000  0.66672543  0.87916876  1
  Nb  Nb3  1  0.50000000  0.32991346  0.12308501  1
  Nb  Nb4  1  0.00000000  0.91268342  0.17496609  1
  Nb  Nb5  1  -0.00000000  0.08769948  0.82589635  1
  Nb  Nb6  1  -0.00000000  0.58731658  0.67496609  1
  Nb  Nb7  1  0.00000000  0.41230052  0.32589635  1
  Nb  Nb8  1  0.50000000  0.67503312  0.12666508  1
  Nb  Nb9  1  0.50000000  0.33115868  0.87541221  1
  Nb  Nb10  1  0.50000000  0.82496688  0.62666508  1
  Nb  Nb11  1  0.50000000  0.16884132  0.37541221  1
  Nb  Nb12  1  0.50000000  0.72843523  0.00131815  1
  Nb  Nb13  1  0.50000000  0.26781679  0.99519466  1
  Nb  Nb14  1  0.50000000  0.77156477  0.50131815  1
  Nb  Nb15  1  0.50000000  0.23218321  0.49519466  1
  Nb  Nb16  1  0.00000000  0.50002682  0.50117319  1
  Nb  Nb17  1  -0.00000000  0.99997318  0.00117319  1
  Nb  Nb18  1  0.50000000  0.50257336  0.23605329  1
  Nb  Nb19  1  0.50000000  0.49835300  0.76527742  1
  Nb  Nb20  1  0.50000000  0.99742664  0.73605329  1
  Nb  Nb21  1  0.50000000  0.00164700  0.26527742  1
  Nb  Nb22  1  0.50000000  0.50416911  0.41667039  1
  Nb  Nb23  1  0.50000000  0.49839586  0.58400267  1
  Nb  Nb24  1  0.50000000  0.99583089  0.91667039  1
  Nb  Nb25  1  0.50000000  0.00160414  0.08400267  1
  Nb  Nb26  1  -0.00000000  0.74987557  0.28349404  1
  Nb  Nb27  1  -0.00000000  0.25072082  0.71641023  1
  Nb  Nb28  1  0.00000000  0.75012443  0.78349404  1
  Nb  Nb29  1  0.00000000  0.24927918  0.21641023  1
  Nb  Nb30  1  0.00000000  0.00261418  0.44781427  1
  Nb  Nb31  1  -0.00000000  0.49738582  0.94781427  1
  P  P32  1  -0.00000000  0.79598362  0.07254027  1
  P  P33  1  -0.00000000  0.19860622  0.92726580  1
  P  P34  1  -0.00000000  0.70401638  0.57254027  1
  P  P35  1  0.00000000  0.30139378  0.42726580  1
  P  P36  1  0.50000000  0.75639611  0.21396324  1
  P  P37  1  0.50000000  0.24341952  0.78594077  1
  P  P38  1  0.50000000  0.74360389  0.71396324  1
  P  P39  1  0.50000000  0.25658048  0.28594077  1
  P  P40  1  0.00000000  0.70920281  0.43520581  1
  P  P41  1  -0.00000000  0.28568763  0.56488077  1
  P  P42  1  -0.00000000  0.79079719  0.93520581  1
  P  P43  1  0.00000000  0.21431237  0.06488077  1
  P  P44  1  0.00000000  0.49409880  0.16143852  1
  P  P45  1  -0.00000000  0.50612728  0.83778440  1
  P  P46  1  -0.00000000  0.00590120  0.66143852  1
  P  P47  1  -0.00000000  0.99387272  0.33778440  1
  P  P48  1  0.50000000  0.60651317  0.33015791  1
  P  P49  1  0.50000000  0.39210437  0.66972073  1
  P  P50  1  0.50000000  0.89348683  0.83015791  1
  P  P51  1  0.50000000  0.10789563  0.16972073  1
