# generated using pymatgen
data_Ti3H2O7
_symmetry_space_group_name_H-M   'P 1'
_cell_length_a   19.35155395
_cell_length_b   19.35155395
_cell_length_c   9.54669566
_cell_angle_alpha   81.38333910
_cell_angle_beta   98.61666090
_cell_angle_gamma   168.81674522
_symmetry_Int_Tables_number   1
_chemical_formula_structural   Ti3H2O7
_chemical_formula_sum   'Ti6 H4 O14'
_cell_volume   685.47508161
_cell_formula_units_Z   2
loop_
 _symmetry_equiv_pos_site_id
 _symmetry_equiv_pos_as_xyz
  1  'x, y, z'
loop_
 _atom_site_type_symbol
 _atom_site_label
 _atom_site_symmetry_multiplicity
 _atom_site_fract_x
 _atom_site_fract_y
 _atom_site_fract_z
 _atom_site_occupancy
  Ti  Ti0  1  0.76780583  0.23804626  0.76852257  1
  Ti  Ti1  1  0.23804626  0.76780583  0.23147743  1
  Ti  Ti2  1  0.78722007  0.22478128  0.46642430  1
  Ti  Ti3  1  0.22478128  0.78722007  0.53357570  1
  Ti  Ti4  1  0.81716487  0.19207599  0.14129117  1
  Ti  Ti5  1  0.19207599  0.81716487  0.85870883  1
  H  H6  1  0.99706409  0.31180220  0.40160776  1
  H  H7  1  0.31180220  0.99706409  0.59839224  1
  H  H8  1  0.72656269  0.28692978  0.95680232  1
  H  H9  1  0.28692978  0.72656269  0.04319768  1
  O  O10  1  0.79043618  0.21753233  0.94500698  1
  O  O11  1  0.21753233  0.79043618  0.05499302  1
  O  O12  1  0.80500755  0.20514951  0.64990170  1
  O  O13  1  0.20514951  0.80500755  0.35009830  1
  O  O14  1  0.86193157  0.22081566  0.36289906  1
  O  O15  1  0.22081566  0.86193157  0.63710094  1
  O  O16  1  0.86113176  0.15252360  0.12648561  1
  O  O17  1  0.15252360  0.86113176  0.87351439  1
  O  O18  1  0.71425963  0.29604872  0.85604039  1
  O  O19  1  0.29604872  0.71425963  0.14395961  1
  O  O20  1  0.74010352  0.27612871  0.55271340  1
  O  O21  1  0.27612871  0.74010352  0.44728660  1
  O  O22  1  0.75304524  0.25449396  0.26013213  1
  O  O23  1  0.25449396  0.75304524  0.73986787  1
