# generated using pymatgen
data_Np(Al2Cr)4
_symmetry_space_group_name_H-M   'P 1'
_cell_length_a   4.96800102
_cell_length_b   6.69102211
_cell_length_c   6.69102211
_cell_angle_alpha   97.92182964
_cell_angle_beta   111.79234280
_cell_angle_gamma   68.20765720
_symmetry_Int_Tables_number   1
_chemical_formula_structural   Np(Al2Cr)4
_chemical_formula_sum   'Np1 Al8 Cr4'
_cell_volume   191.76245629
_cell_formula_units_Z   1
loop_
 _symmetry_equiv_pos_site_id
 _symmetry_equiv_pos_as_xyz
  1  'x, y, z'
loop_
 _atom_site_type_symbol
 _atom_site_label
 _atom_site_symmetry_multiplicity
 _atom_site_fract_x
 _atom_site_fract_y
 _atom_site_fract_z
 _atom_site_occupancy
  Np  Np0  1  -0.00000000  0.00000000  0.00000000  1
  Al  Al1  1  0.66017274  0.33982726  0.66017274  1
  Al  Al2  1  0.33982726  0.66017274  0.33982726  1
  Al  Al3  1  -0.00000000  0.33982726  0.33982726  1
  Al  Al4  1  0.00000000  0.66017274  0.66017274  1
  Al  Al5  1  0.71702037  0.78297963  0.21702037  1
  Al  Al6  1  0.28297963  0.21702037  0.78297963  1
  Al  Al7  1  0.50000000  0.78297963  0.78297963  1
  Al  Al8  1  0.50000000  0.21702037  0.21702037  1
  Cr  Cr9  1  0.50000000  0.00000000  0.50000000  1
  Cr  Cr10  1  -0.00000000  0.00000000  0.50000000  1
  Cr  Cr11  1  0.50000000  0.50000000  0.00000000  1
  Cr  Cr12  1  -0.00000000  0.50000000  0.00000000  1
