# generated using pymatgen
data_NdUCo10
_symmetry_space_group_name_H-M   'P 1'
_cell_length_a   3.92807483
_cell_length_b   4.80344089
_cell_length_c   8.31230323
_cell_angle_alpha   89.99999605
_cell_angle_beta   90.00000000
_cell_angle_gamma   90.00000000
_symmetry_Int_Tables_number   1
_chemical_formula_structural   NdUCo10
_chemical_formula_sum   'Nd1 U1 Co10'
_cell_volume   156.83882525
_cell_formula_units_Z   1
loop_
 _symmetry_equiv_pos_site_id
 _symmetry_equiv_pos_as_xyz
  1  'x, y, z'
loop_
 _atom_site_type_symbol
 _atom_site_label
 _atom_site_symmetry_multiplicity
 _atom_site_fract_x
 _atom_site_fract_y
 _atom_site_fract_z
 _atom_site_occupancy
  Nd  Nd0  1  0.00000000  0.00017740  1.00000000  1
  U  U1  1  -0.00000000  0.49976989  0.50000000  1
  Co  Co2  1  -0.00000000  0.00011855  0.34988050  1
  Co  Co3  1  0.00000000  0.49991364  0.80650317  1
  Co  Co4  1  -0.00000000  0.49991364  0.19349683  1
  Co  Co5  1  0.00000000  0.00011855  0.65011950  1
  Co  Co6  1  0.50000000  0.00004166  0.50000000  1
  Co  Co7  1  0.50000000  0.49993203  0.00000000  1
  Co  Co8  1  0.50000000  0.25362856  0.25836284  1
  Co  Co9  1  0.50000000  0.74627877  0.74163376  1
  Co  Co10  1  0.50000000  0.74627877  0.25836624  1
  Co  Co11  1  0.50000000  0.25362856  0.74163716  1
