# generated using pymatgen
data_Pr4AlCo25
_symmetry_space_group_name_H-M   'P 1'
_cell_length_a   3.99363502
_cell_length_b   4.89382343
_cell_length_c   21.54116102
_cell_angle_alpha   83.47755208
_cell_angle_beta   90.00000000
_cell_angle_gamma   90.00000000
_symmetry_Int_Tables_number   1
_chemical_formula_structural   Pr4AlCo25
_chemical_formula_sum   'Pr4 Al1 Co25'
_cell_volume   418.27859021
_cell_formula_units_Z   1
loop_
 _symmetry_equiv_pos_site_id
 _symmetry_equiv_pos_as_xyz
  1  'x, y, z'
loop_
 _atom_site_type_symbol
 _atom_site_label
 _atom_site_symmetry_multiplicity
 _atom_site_fract_x
 _atom_site_fract_y
 _atom_site_fract_z
 _atom_site_occupancy
  Pr  Pr0  1  -0.00000000  0.40374319  0.19231791  1
  Pr  Pr1  1  -0.00000000  0.80093746  0.39833226  1
  Pr  Pr2  1  0.00000000  0.19926971  0.60166774  1
  Pr  Pr3  1  0.00000000  0.59606110  0.80768209  1
  Al  Al4  1  0.00000000  0.99965204  1.00000000  1
  Co  Co5  1  -0.00000000  0.94362841  0.11281955  1
  Co  Co6  1  0.00000000  0.33595556  0.32837777  1
  Co  Co7  1  0.00000000  0.73348565  0.53317930  1
  Co  Co8  1  -0.00000000  0.13342416  0.73283059  1
  Co  Co9  1  0.00000000  0.52862405  0.94222596  1
  Co  Co10  1  0.00000000  0.47085000  0.05777404  1
  Co  Co11  1  0.00000000  0.86625475  0.26716941  1
  Co  Co12  1  0.00000000  0.26666494  0.46682070  1
  Co  Co13  1  0.00000000  0.66433333  0.67162223  1
  Co  Co14  1  -0.00000000  0.05644796  0.88718045  1
  Co  Co15  1  0.50000000  0.90223132  0.19538965  1
  Co  Co16  1  0.50000000  0.30114099  0.39780079  1
  Co  Co17  1  0.50000000  0.69894178  0.60219921  1
  Co  Co18  1  0.50000000  0.09762096  0.80461035  1
  Co  Co19  1  0.50000000  0.50035411  0.00000000  1
  Co  Co20  1  0.50000000  0.19678734  0.09309575  1
  Co  Co21  1  0.50000000  0.60009292  0.29530278  1
  Co  Co22  1  0.50000000  0.00005453  0.49999984  1
  Co  Co23  1  0.50000000  0.39983492  0.70469605  1
  Co  Co24  1  0.50000000  0.80318917  0.90686633  1
  Co  Co25  1  0.50000000  0.71005550  0.09313367  1
  Co  Co26  1  0.50000000  0.10453097  0.29530395  1
  Co  Co27  1  0.50000000  0.50005438  0.50000016  1
  Co  Co28  1  0.50000000  0.89539570  0.70469722  1
  Co  Co29  1  0.50000000  0.28988310  0.90690425  1
