# generated using pymatgen
data_NaV6O14
_symmetry_space_group_name_H-M   'P 1'
_cell_length_a   3.63770318
_cell_length_b   8.26906412
_cell_length_c   10.36423188
_cell_angle_alpha   104.90004053
_cell_angle_beta   90.00000000
_cell_angle_gamma   77.29339988
_symmetry_Int_Tables_number   1
_chemical_formula_structural   NaV6O14
_chemical_formula_sum   'Na1 V6 O14'
_cell_volume   293.36964145
_cell_formula_units_Z   1
loop_
 _symmetry_equiv_pos_site_id
 _symmetry_equiv_pos_as_xyz
  1  'x, y, z'
loop_
 _atom_site_type_symbol
 _atom_site_label
 _atom_site_symmetry_multiplicity
 _atom_site_fract_x
 _atom_site_fract_y
 _atom_site_fract_z
 _atom_site_occupancy
  Na  Na0  1  0.99579506  0.00840987  0.41431105  1
  V  V1  1  0.85664108  0.28671784  0.13627228  1
  V  V2  1  0.14591247  0.70817505  0.86281773  1
  V  V3  1  0.70912377  0.58175246  0.41726399  1
  V  V4  1  0.29498598  0.41002804  0.57805857  1
  V  V5  1  0.65877315  0.68245370  0.10349725  1
  V  V6  1  0.34109797  0.31780406  0.89611541  1
  O  O7  1  0.89849423  0.20301153  0.26503515  1
  O  O8  1  0.10663768  0.78672464  0.73422214  1
  O  O9  1  0.24324101  0.51351798  0.41994284  1
  O  O10  1  0.75203842  0.49592316  0.57504987  1
  O  O11  1  0.60471678  0.79056644  0.46257682  1
  O  O12  1  0.40044828  0.19910345  0.52229325  1
  O  O13  1  0.56832897  0.86334207  0.21957220  1
  O  O14  1  0.43227779  0.13544441  0.78743897  1
  O  O15  1  0.37636945  0.24726111  0.06472743  1
  O  O16  1  0.62144234  0.75711532  0.93740526  1
  O  O17  1  0.73474935  0.53050131  0.22668725  1
  O  O18  1  0.26669049  0.46661902  0.78038244  1
  O  O19  1  0.18298028  0.63403944  0.05869357  1
  O  O20  1  0.81425545  0.37148910  0.95163651  1
