# generated using pymatgen
data_Mg8Al4Cu2Si7
_symmetry_space_group_name_H-M   'P 1'
_cell_length_a   3.97973025
_cell_length_b   10.46858241
_cell_length_c   10.52550427
_cell_angle_alpha   120.52531753
_cell_angle_beta   90.00000000
_cell_angle_gamma   90.00000000
_symmetry_Int_Tables_number   1
_chemical_formula_structural   Mg8Al4Cu2Si7
_chemical_formula_sum   'Mg8 Al4 Cu2 Si7'
_cell_volume   377.73890381
_cell_formula_units_Z   1
loop_
 _symmetry_equiv_pos_site_id
 _symmetry_equiv_pos_as_xyz
  1  'x, y, z'
loop_
 _atom_site_type_symbol
 _atom_site_label
 _atom_site_symmetry_multiplicity
 _atom_site_fract_x
 _atom_site_fract_y
 _atom_site_fract_z
 _atom_site_occupancy
  Mg  Mg0  1  -0.00000000  0.00257848  0.25340360  1
  Mg  Mg1  1  0.00000000  0.74915467  0.75019196  1
  Mg  Mg2  1  0.50000000  0.51898208  0.14095383  1
  Mg  Mg3  1  0.50000000  0.86130877  0.38022069  1
  Mg  Mg4  1  0.50000000  0.61723663  0.47630144  1
  Mg  Mg5  1  0.50000000  0.79794300  0.00066155  1
  Mg  Mg6  1  0.50000000  0.99577975  0.79583802  1
  Mg  Mg7  1  0.50000000  0.20635167  0.20206806  1
  Al  Al8  1  -0.00000000  0.50598612  0.84922944  1
  Al  Al9  1  -0.00000000  0.14218244  0.63058970  1
  Al  Al10  1  -0.00000000  0.35910499  0.49538402  1
  Al  Al11  1  -0.00000000  0.24791730  0.00183588  1
  Cu  Cu12  1  0.50000000  0.33184164  0.68619248  1
  Cu  Cu13  1  0.00000000  0.66784224  0.33195945  1
  Si  Si14  1  0.50000000  0.28121088  0.87488837  1
  Si  Si15  1  0.50000000  0.14875172  0.43706591  1
  Si  Si16  1  0.50000000  0.56311190  0.70407000  1
  Si  Si17  1  -0.00000000  0.00741011  0.00442637  1
  Si  Si18  1  -0.00000000  0.70353770  0.12478541  1
  Si  Si19  1  -0.00000000  0.87159411  0.57695568  1
  Si  Si20  1  -0.00000000  0.42017379  0.28297814  1
