# generated using pymatgen
data_Mg3FeO4
_symmetry_space_group_name_H-M   'P 1'
_cell_length_a   3.01503635
_cell_length_b   3.01503635
_cell_length_c   10.09451206
_cell_angle_alpha   81.41129796
_cell_angle_beta   98.58870204
_cell_angle_gamma   120.00000000
_symmetry_Int_Tables_number   1
_chemical_formula_structural   Mg3FeO4
_chemical_formula_sum   'Mg3 Fe1 O4'
_cell_volume   78.27910729
_cell_formula_units_Z   1
loop_
 _symmetry_equiv_pos_site_id
 _symmetry_equiv_pos_as_xyz
  1  'x, y, z'
loop_
 _atom_site_type_symbol
 _atom_site_label
 _atom_site_symmetry_multiplicity
 _atom_site_fract_x
 _atom_site_fract_y
 _atom_site_fract_z
 _atom_site_occupancy
  Mg  Mg0  1  0.75075403  0.24924597  0.25226208  1
  Mg  Mg1  1  0.50000000  0.50000000  0.50000000  1
  Mg  Mg2  1  0.24924597  0.75075403  0.74773792  1
  Fe  Fe3  1  -0.00000000  -0.00000000  0.00000000  1
  O  O4  1  0.62260215  0.37739785  0.86780644  1
  O  O5  1  0.87465580  0.12534420  0.62396741  1
  O  O6  1  0.37739785  0.62260215  0.13219356  1
  O  O7  1  0.12534420  0.87465580  0.37603259  1
