# generated using pymatgen
data_YbFeGe
_symmetry_space_group_name_H-M   'P 1'
_cell_length_a   3.94143607
_cell_length_b   5.69080153
_cell_length_c   6.07069998
_cell_angle_alpha   74.73659482
_cell_angle_beta   71.05697434
_cell_angle_gamma   69.73889394
_symmetry_Int_Tables_number   1
_chemical_formula_structural   YbFeGe
_chemical_formula_sum   'Yb2 Fe2 Ge2'
_cell_volume   119.06332307
_cell_formula_units_Z   2
loop_
 _symmetry_equiv_pos_site_id
 _symmetry_equiv_pos_as_xyz
  1  'x, y, z'
loop_
 _atom_site_type_symbol
 _atom_site_label
 _atom_site_symmetry_multiplicity
 _atom_site_fract_x
 _atom_site_fract_y
 _atom_site_fract_z
 _atom_site_occupancy
  Yb  Yb0  1  0.55522128  0.68148980  0.20806763  1
  Yb  Yb1  1  0.44477872  0.31851020  0.79193237  1
  Fe  Fe2  1  0.22135171  0.13260025  0.42469634  1
  Fe  Fe3  1  0.77864829  0.86739975  0.57530366  1
  Ge  Ge4  1  0.15731249  0.87264544  0.81272959  1
  Ge  Ge5  1  0.84268751  0.12735456  0.18727041  1
