# generated using pymatgen
data_MoHO3
_symmetry_space_group_name_H-M   'P 1'
_cell_length_a   3.96588825
_cell_length_b   3.95630173
_cell_length_c   7.74931947
_cell_angle_alpha   88.74939665
_cell_angle_beta   75.17389540
_cell_angle_gamma   90.00000000
_symmetry_Int_Tables_number   1
_chemical_formula_structural   MoHO3
_chemical_formula_sum   'Mo2 H2 O6'
_cell_volume   117.51073703
_cell_formula_units_Z   2
loop_
 _symmetry_equiv_pos_site_id
 _symmetry_equiv_pos_as_xyz
  1  'x, y, z'
loop_
 _atom_site_type_symbol
 _atom_site_label
 _atom_site_symmetry_multiplicity
 _atom_site_fract_x
 _atom_site_fract_y
 _atom_site_fract_z
 _atom_site_occupancy
  Mo  Mo0  1  0.04685474  0.75953067  0.82843995  1
  Mo  Mo1  1  0.87529469  0.24046933  0.17156005  1
  H  H2  1  0.60716655  0.02973680  0.48709422  1
  H  H3  1  0.09426077  0.97026320  0.51290578  1
  O  O4  1  0.96644292  0.74894759  0.11402547  1
  O  O5  1  0.08046839  0.25105241  0.88597453  1
  O  O6  1  0.60185672  0.73537259  0.82625593  1
  O  O7  1  0.42811265  0.26462741  0.17374407  1
  O  O8  1  0.24429597  0.82213237  0.57095063  1
  O  O9  1  0.81524660  0.17786763  0.42904937  1
