# generated using pymatgen
data_LuGaCuO4
_symmetry_space_group_name_H-M   'P 1'
_cell_length_a   3.48883695
_cell_length_b   3.48883695
_cell_length_c   8.27633549
_cell_angle_alpha   90.00000073
_cell_angle_beta   102.16759063
_cell_angle_gamma   60.00000513
_symmetry_Int_Tables_number   1
_chemical_formula_structural   LuGaCuO4
_chemical_formula_sum   'Lu1 Ga1 Cu1 O4'
_cell_volume   84.61962871
_cell_formula_units_Z   1
loop_
 _symmetry_equiv_pos_site_id
 _symmetry_equiv_pos_as_xyz
  1  'x, y, z'
loop_
 _atom_site_type_symbol
 _atom_site_label
 _atom_site_symmetry_multiplicity
 _atom_site_fract_x
 _atom_site_fract_y
 _atom_site_fract_z
 _atom_site_occupancy
  Lu  Lu0  1  0.00597551  0.99701224  0.00896327  1
  Ga  Ga1  1  0.42560016  0.78719992  0.63840025  1
  Cu  Cu2  1  0.57596356  0.21201822  0.36394534  1
  O  O3  1  0.41338680  0.29330660  0.12008020  1
  O  O4  1  0.58221729  0.70889135  0.87332594  1
  O  O5  1  0.75059077  0.12470462  0.62588615  1
  O  O6  1  0.26506591  0.86746705  0.39759886  1
