# generated using pymatgen
data_Na2CaV12O32
_symmetry_space_group_name_H-M   'P 1'
_cell_length_a   7.20636473
_cell_length_b   13.76448957
_cell_length_c   8.60899313
_cell_angle_alpha   102.11349122
_cell_angle_beta   114.74226077
_cell_angle_gamma   74.82466058
_symmetry_Int_Tables_number   1
_chemical_formula_structural   Na2CaV12O32
_chemical_formula_sum   'Na2 Ca1 V12 O32'
_cell_volume   743.59118978
_cell_formula_units_Z   1
loop_
 _symmetry_equiv_pos_site_id
 _symmetry_equiv_pos_as_xyz
  1  'x, y, z'
loop_
 _atom_site_type_symbol
 _atom_site_label
 _atom_site_symmetry_multiplicity
 _atom_site_fract_x
 _atom_site_fract_y
 _atom_site_fract_z
 _atom_site_occupancy
  Na  Na0  1  0.58507186  0.65544891  0.57925668  1
  Na  Na1  1  0.08873590  0.65544891  0.57925668  1
  Ca  Ca2  1  0.91154902  0.34561500  0.41871305  1
  V  V3  1  0.01395274  0.84324592  0.12115141  1
  V  V4  1  0.51415351  0.84363415  0.12194117  1
  V  V5  1  0.48493000  0.15952311  0.88114695  1
  V  V6  1  0.98669384  0.15952311  0.88114695  1
  V  V7  1  0.53213167  0.52497319  0.83923653  1
  V  V8  1  0.03348888  0.52487064  0.84184840  1
  V  V9  1  0.96428738  0.47703357  0.15475989  1
  V  V10  1  0.46343894  0.47703357  0.15475989  1
  V  V11  1  0.42278947  0.08676589  0.18234482  1
  V  V12  1  0.92204659  0.08431977  0.17841294  1
  V  V13  1  0.07779522  0.91694895  0.82245157  1
  V  V14  1  0.57770739  0.91694895  0.82245157  1
  O  O15  1  0.43285514  0.63886344  0.75457373  1
  O  O16  1  0.93487965  0.63758073  0.75734003  1
  O  O17  1  0.03130001  0.35921446  0.22258978  1
  O  O18  1  0.58207530  0.35921446  0.22258978  1
  O  O19  1  0.46852033  0.16523002  0.35227067  1
  O  O20  1  0.96941155  0.16363536  0.35245846  1
  O  O21  1  0.03028316  0.83729397  0.65147180  1
  O  O22  1  0.53389468  0.83729397  0.65147180  1
  O  O23  1  0.17984859  0.46911110  0.07880829  1
  O  O24  1  0.67154261  0.48741146  0.08049669  1
  O  O25  1  0.31640113  0.52857279  0.91904304  1
  O  O26  1  0.82406912  0.52857279  0.91904304  1
  O  O27  1  0.12120083  0.75734958  0.24975124  1
  O  O28  1  0.62116145  0.75718167  0.24950457  1
  O  O29  1  0.37202202  0.24415639  0.75062316  1
  O  O30  1  0.88444476  0.24415639  0.75062316  1
  O  O31  1  0.02546914  0.95921711  0.26015539  1
  O  O32  1  0.52556087  0.95924771  0.26036945  1
  O  O33  1  0.47495027  0.04283578  0.74335566  1
  O  O34  1  0.97556961  0.04283578  0.74335566  1
  O  O35  1  0.77750046  0.16599936  0.97100029  1
  O  O36  1  0.27848518  0.16585725  0.97282760  1
  O  O37  1  0.72198460  0.83653859  0.03004190  1
  O  O38  1  0.22151871  0.83653859  0.03004190  1
  O  O39  1  0.50075000  0.43164662  0.68314661  1
  O  O40  1  0.99777456  0.43166410  0.67721322  1
  O  O41  1  0.00510049  0.56396548  0.32433652  1
  O  O42  1  0.50527055  0.56396548  0.32433652  1
  O  O43  1  0.35934590  0.92590508  0.89459689  1
  O  O44  1  0.85944910  0.92742726  0.89632545  1
  O  O45  1  0.14017970  0.07509179  0.10767962  1
  O  O46  1  0.64240813  0.07509179  0.10767962  1
