# generated using pymatgen
data_Mn4Si3Ni5
_symmetry_space_group_name_H-M   'P 1'
_cell_length_a   4.73795149
_cell_length_b   4.71326879
_cell_length_c   7.50547043
_cell_angle_alpha   90.00000000
_cell_angle_beta   90.00000000
_cell_angle_gamma   120.17444658
_symmetry_Int_Tables_number   1
_chemical_formula_structural   Mn4Si3Ni5
_chemical_formula_sum   'Mn4 Si3 Ni5'
_cell_volume   144.89562084
_cell_formula_units_Z   1
loop_
 _symmetry_equiv_pos_site_id
 _symmetry_equiv_pos_as_xyz
  1  'x, y, z'
loop_
 _atom_site_type_symbol
 _atom_site_label
 _atom_site_symmetry_multiplicity
 _atom_site_fract_x
 _atom_site_fract_y
 _atom_site_fract_z
 _atom_site_occupancy
  Mn  Mn0  1  0.66725256  0.33453209  0.06573020  1
  Mn  Mn1  1  0.33356115  0.66714202  0.93973839  1
  Mn  Mn2  1  0.33356115  0.66714202  0.56026161  1
  Mn  Mn3  1  0.66725256  0.33453209  0.43426980  1
  Si  Si4  1  0.01037534  0.02074409  0.49298251  1
  Si  Si5  1  0.01037534  0.02074409  0.00701749  1
  Si  Si6  1  0.81635423  0.63266642  0.75000000  1
  Ni  Ni7  1  0.82519790  0.15272626  0.75000000  1
  Ni  Ni8  1  0.32754893  0.15274763  0.75000000  1
  Ni  Ni9  1  0.17412704  0.34829218  0.25000000  1
  Ni  Ni10  1  0.17105091  0.83439105  0.25000000  1
  Ni  Ni11  1  0.66334288  0.83434006  0.25000000  1
