# generated using pymatgen
data_MnRe(PbO3)2
_symmetry_space_group_name_H-M   'P 1'
_cell_length_a   7.39888062
_cell_length_b   7.21724286
_cell_length_c   7.48342603
_cell_angle_alpha   90.00000000
_cell_angle_beta   59.62127966
_cell_angle_gamma   119.19118291
_symmetry_Int_Tables_number   1
_chemical_formula_structural   MnRe(PbO3)2
_chemical_formula_sum   'Mn2 Re2 Pb4 O12'
_cell_volume   284.36439267
_cell_formula_units_Z   2
loop_
 _symmetry_equiv_pos_site_id
 _symmetry_equiv_pos_as_xyz
  1  'x, y, z'
loop_
 _atom_site_type_symbol
 _atom_site_label
 _atom_site_symmetry_multiplicity
 _atom_site_fract_x
 _atom_site_fract_y
 _atom_site_fract_z
 _atom_site_occupancy
  Mn  Mn0  1  0.50000000  0.50000000  0.00000000  1
  Mn  Mn1  1  0.50000000  -0.00000000  0.00000000  1
  Re  Re2  1  -0.00000000  -0.00000000  0.50000000  1
  Re  Re3  1  -0.00000000  -0.00000000  0.00000000  1
  Pb  Pb4  1  0.50000000  -0.00000000  0.50000000  1
  Pb  Pb5  1  0.50000000  0.50000000  0.50000000  1
  Pb  Pb6  1  -0.00000000  0.50000000  0.00000000  1
  Pb  Pb7  1  -0.00000000  0.50000000  0.50000000  1
  O  O8  1  0.89257314  0.94628657  0.30371343  1
  O  O9  1  0.64546246  0.32273123  0.92726877  1
  O  O10  1  0.24681897  0.93460735  0.91790472  1
  O  O11  1  0.24681897  0.31221161  0.33527631  1
  O  O12  1  0.24681897  0.31221161  0.91790472  1
  O  O13  1  0.24681897  0.93460735  0.33527631  1
  O  O14  1  0.10742686  0.05371343  0.69628657  1
  O  O15  1  0.35453754  0.67726877  0.07273123  1
  O  O16  1  0.75318103  0.06539265  0.08209528  1
  O  O17  1  0.75318103  0.68778839  0.66472369  1
  O  O18  1  0.75318103  0.68778839  0.08209528  1
  O  O19  1  0.75318103  0.06539265  0.66472369  1
