# generated using pymatgen
data_LuAlNi
_symmetry_space_group_name_H-M   'P 1'
_cell_length_a   5.32799544
_cell_length_b   5.21203674
_cell_length_c   8.52270487
_cell_angle_alpha   90.00000000
_cell_angle_beta   90.00000000
_cell_angle_gamma   120.73715951
_symmetry_Int_Tables_number   1
_chemical_formula_structural   LuAlNi
_chemical_formula_sum   'Lu4 Al4 Ni4'
_cell_volume   203.42542985
_cell_formula_units_Z   4
loop_
 _symmetry_equiv_pos_site_id
 _symmetry_equiv_pos_as_xyz
  1  'x, y, z'
loop_
 _atom_site_type_symbol
 _atom_site_label
 _atom_site_symmetry_multiplicity
 _atom_site_fract_x
 _atom_site_fract_y
 _atom_site_fract_z
 _atom_site_occupancy
  Lu  Lu0  1  0.66239073  0.32481612  0.54520849  1
  Lu  Lu1  1  0.33003513  0.66005017  0.43043328  1
  Lu  Lu2  1  0.33003513  0.66005017  0.06956672  1
  Lu  Lu3  1  0.66239073  0.32481612  0.95479151  1
  Al  Al4  1  0.16492268  0.32985976  0.75000000  1
  Al  Al5  1  0.16385929  0.83171906  0.75000000  1
  Al  Al6  1  0.66784596  0.83170216  0.75000000  1
  Al  Al7  1  0.84775908  0.69551529  0.25000000  1
  Ni  Ni8  1  0.84305202  0.17928447  0.25000000  1
  Ni  Ni9  1  0.33622842  0.17917262  0.25000000  1
  Ni  Ni10  1  0.99574041  0.99150703  0.50712699  1
  Ni  Ni11  1  0.99574041  0.99150703  0.99287301  1
