# generated using pymatgen
data_KHgC3(SN)3
_symmetry_space_group_name_H-M   'P 1'
_cell_length_a   4.17010016
_cell_length_b   11.39881623
_cell_length_c   11.45731668
_cell_angle_alpha   115.60754856
_cell_angle_beta   90.00000000
_cell_angle_gamma   90.00000000
_symmetry_Int_Tables_number   1
_chemical_formula_structural   KHgC3(SN)3
_chemical_formula_sum   'K2 Hg2 C6 S6 N6'
_cell_volume   491.12001286
_cell_formula_units_Z   2
loop_
 _symmetry_equiv_pos_site_id
 _symmetry_equiv_pos_as_xyz
  1  'x, y, z'
loop_
 _atom_site_type_symbol
 _atom_site_label
 _atom_site_symmetry_multiplicity
 _atom_site_fract_x
 _atom_site_fract_y
 _atom_site_fract_z
 _atom_site_occupancy
  K  K0  1  0.25000000  0.28052533  0.40052939  1
  K  K1  1  0.75000000  0.71947467  0.59947061  1
  Hg  Hg2  1  0.75000000  0.26460068  0.85044758  1
  Hg  Hg3  1  0.25000000  0.73539932  0.14955242  1
  C  C4  1  0.75000000  0.45779050  0.71696968  1
  C  C5  1  0.25000000  0.02718083  0.63802743  1
  C  C6  1  0.75000000  0.97281917  0.36197257  1
  C  C7  1  0.25000000  0.79715934  0.90625976  1
  C  C8  1  0.25000000  0.54220950  0.28303032  1
  C  C9  1  0.75000000  0.20284066  0.09374024  1
  S  S10  1  0.25000000  0.18300450  0.66883458  1
  S  S11  1  0.75000000  0.09997165  0.93773234  1
  S  S12  1  0.75000000  0.49635106  0.87459474  1
  S  S13  1  0.25000000  0.90002835  0.06226766  1
  S  S14  1  0.75000000  0.81699550  0.33116542  1
  S  S15  1  0.25000000  0.50364894  0.12540526  1
  N  N16  1  0.75000000  0.08408575  0.38371225  1
  N  N17  1  0.75000000  0.27089962  0.20573266  1
  N  N18  1  0.75000000  0.43169618  0.60534992  1
  N  N19  1  0.25000000  0.72910038  0.79426734  1
  N  N20  1  0.25000000  0.91591425  0.61628775  1
  N  N21  1  0.25000000  0.56830382  0.39465008  1
