# generated using pymatgen
data_Mn31Si11P
_symmetry_space_group_name_H-M   'P 1'
_cell_length_a   6.84479249
_cell_length_b   6.84396916
_cell_length_c   12.36921257
_cell_angle_alpha   89.99658296
_cell_angle_beta   89.99741770
_cell_angle_gamma   60.03267459
_symmetry_Int_Tables_number   1
_chemical_formula_structural   Mn31Si11P
_chemical_formula_sum   'Mn31 Si11 P1'
_cell_volume   501.97710739
_cell_formula_units_Z   1
loop_
 _symmetry_equiv_pos_site_id
 _symmetry_equiv_pos_as_xyz
  1  'x, y, z'
loop_
 _atom_site_type_symbol
 _atom_site_label
 _atom_site_symmetry_multiplicity
 _atom_site_fract_x
 _atom_site_fract_y
 _atom_site_fract_z
 _atom_site_occupancy
  Mn  Mn0  1  0.00006278  0.00000516  0.09014406  1
  Mn  Mn1  1  0.99997030  -0.00007987  0.91415024  1
  Mn  Mn2  1  0.02034444  0.64808335  0.30679577  1
  Mn  Mn3  1  0.33132614  0.02086076  0.30690142  1
  Mn  Mn4  1  0.64778243  0.33141287  0.30689369  1
  Mn  Mn5  1  0.35010529  0.97352259  0.69164079  1
  Mn  Mn6  1  0.67659672  0.35041299  0.69158308  1
  Mn  Mn7  1  0.97330949  0.67638713  0.69157991  1
  Mn  Mn8  1  0.05647627  0.60404471  0.10155592  1
  Mn  Mn9  1  0.33946075  0.05697280  0.10155781  1
  Mn  Mn10  1  0.60382554  0.33941930  0.10153600  1
  Mn  Mn11  1  0.39634879  0.94647154  0.89774201  1
  Mn  Mn12  1  0.65715543  0.39682632  0.89785326  1
  Mn  Mn13  1  0.94598347  0.65717933  0.89781213  1
  Mn  Mn14  1  0.96053070  0.33343700  0.19573656  1
  Mn  Mn15  1  0.70593642  0.96054865  0.19559718  1
  Mn  Mn16  1  0.33344782  0.70618416  0.19570291  1
  Mn  Mn17  1  0.66846824  0.03858288  0.80480392  1
  Mn  Mn18  1  0.29285257  0.66843373  0.80490437  1
  Mn  Mn19  1  0.03849250  0.29315227  0.80494872  1
  Mn  Mn20  1  0.00017941  -0.00026432  0.50145990  1
  Mn  Mn21  1  0.66651925  0.66671548  0.07569689  1
  Mn  Mn22  1  0.33336188  0.33335144  0.92689127  1
  Mn  Mn23  1  0.66708879  0.66625903  0.57230171  1
  Mn  Mn24  1  0.33368577  0.33283086  0.42812735  1
  Mn  Mn25  1  0.96196212  0.35350119  0.39821381  1
  Mn  Mn26  1  0.68471936  0.96191547  0.39819516  1
  Mn  Mn27  1  0.35315227  0.68425315  0.39811904  1
  Mn  Mn28  1  0.64758830  0.03626674  0.60218516  1
  Mn  Mn29  1  0.31633501  0.64788368  0.60227297  1
  Mn  Mn30  1  0.03652522  0.31580495  0.60211547  1
  Si  Si31  1  0.00141353  0.64733352  0.50002451  1
  Si  Si32  1  0.35179142  0.00020334  0.49997369  1
  Si  Si33  1  0.64779109  0.35133535  0.49999818  1
  Si  Si34  1  0.66645259  0.66692346  0.76819557  1
  Si  Si35  1  0.33321408  0.33356551  0.23230264  1
  Si  Si36  1  0.99605856  0.32241491  0.00077524  1
  Si  Si37  1  0.68155564  0.99609021  0.00064273  1
  Si  Si38  1  0.32226067  0.68160525  0.00072963  1
  Si  Si39  1  -0.00007001  0.00014283  0.29212853  1
  Si  Si40  1  -0.00001985  0.00006421  0.70897162  1
  Si  Si41  1  0.33335666  0.33333921  0.72251940  1
  P  P42  1  0.66660212  0.66660686  0.26871977  1
