# generated using pymatgen
data_FeP2W
_symmetry_space_group_name_H-M   'P 1'
_cell_length_a   3.25953044
_cell_length_b   5.41055833
_cell_length_c   5.99141581
_cell_angle_alpha   90.00000000
_cell_angle_beta   90.00000000
_cell_angle_gamma   90.00000000
_symmetry_Int_Tables_number   1
_chemical_formula_structural   FeP2W
_chemical_formula_sum   'Fe2 P4 W2'
_cell_volume   105.66388770
_cell_formula_units_Z   2
loop_
 _symmetry_equiv_pos_site_id
 _symmetry_equiv_pos_as_xyz
  1  'x, y, z'
loop_
 _atom_site_type_symbol
 _atom_site_label
 _atom_site_symmetry_multiplicity
 _atom_site_fract_x
 _atom_site_fract_y
 _atom_site_fract_z
 _atom_site_occupancy
  Fe  Fe0  1  0.75000000  0.49625591  0.69322403  1
  Fe  Fe1  1  0.75000000  0.99625591  0.80677597  1
  P  P2  1  0.75000000  0.31951565  0.04212768  1
  P  P3  1  0.75000000  0.81951565  0.45787232  1
  P  P4  1  0.25000000  0.68633854  0.90241881  1
  P  P5  1  0.25000000  0.18633854  0.59758119  1
  W  W6  1  0.25000000  0.49788989  0.29894699  1
  W  W7  1  0.25000000  0.99788989  0.20105301  1
