# generated using pymatgen
data_Ge3Te3Ir2
_symmetry_space_group_name_H-M   'P 1'
_cell_length_a   7.91297627
_cell_length_b   7.91297627
_cell_length_c   7.87825246
_cell_angle_alpha   71.57545822
_cell_angle_beta   70.34244299
_cell_angle_gamma   110.51238874
_symmetry_Int_Tables_number   1
_chemical_formula_structural   Ge3Te3Ir2
_chemical_formula_sum   'Ge6 Te6 Ir4'
_cell_volume   378.79624850
_cell_formula_units_Z   2
loop_
 _symmetry_equiv_pos_site_id
 _symmetry_equiv_pos_as_xyz
  1  'x, y, z'
loop_
 _atom_site_type_symbol
 _atom_site_label
 _atom_site_symmetry_multiplicity
 _atom_site_fract_x
 _atom_site_fract_y
 _atom_site_fract_z
 _atom_site_occupancy
  Ge  Ge0  1  0.14206051  0.49406573  0.64878860  1
  Ge  Ge1  1  0.85793949  0.50593427  0.35121140  1
  Ge  Ge2  1  0.14285433  0.79084911  0.35121140  1
  Ge  Ge3  1  0.85714567  0.20915089  0.64878860  1
  Ge  Ge4  1  0.32792203  0.83835040  0.83372757  1
  Ge  Ge5  1  0.67207797  0.16164960  0.16627243  1
  Te  Te6  1  0.64501908  0.85770942  0.49727150  1
  Te  Te7  1  0.35498092  0.14229058  0.50272850  1
  Te  Te8  1  0.51340954  0.67507202  0.15832120  1
  Te  Te9  1  0.48659046  0.32492798  0.84167880  1
  Te  Te10  1  0.16660677  0.32826926  0.15832120  1
  Te  Te11  1  0.83339323  0.67173074  0.84167880  1
  Ir  Ir12  1  0.00000000  0.50000000  -0.00000000  1
  Ir  Ir13  1  0.50000000  0.50000000  0.50000000  1
  Ir  Ir14  1  0.50000000  0.00000000  -0.00000000  1
  Ir  Ir15  1  0.00000000  0.00000000  0.50000000  1
