# generated using pymatgen
data_Ho2AlGe4
_symmetry_space_group_name_H-M   'P 1'
_cell_length_a   4.12109299
_cell_length_b   4.22938594
_cell_length_c   8.61722290
_cell_angle_alpha   75.79434473
_cell_angle_beta   90.00000000
_cell_angle_gamma   90.00000000
_symmetry_Int_Tables_number   1
_chemical_formula_structural   Ho2AlGe4
_chemical_formula_sum   'Ho2 Al1 Ge4'
_cell_volume   145.60273771
_cell_formula_units_Z   1
loop_
 _symmetry_equiv_pos_site_id
 _symmetry_equiv_pos_as_xyz
  1  'x, y, z'
loop_
 _atom_site_type_symbol
 _atom_site_label
 _atom_site_symmetry_multiplicity
 _atom_site_fract_x
 _atom_site_fract_y
 _atom_site_fract_z
 _atom_site_occupancy
  Ho  Ho0  1  0.25000000  0.90269073  0.19461853  1
  Ho  Ho1  1  0.75000000  0.10388674  0.79222653  1
  Al  Al2  1  0.25000000  0.68137511  0.63724978  1
  Ge  Ge3  1  0.25000000  0.53722711  0.92554579  1
  Ge  Ge4  1  0.75000000  0.44499275  0.11001450  1
  Ge  Ge5  1  0.25000000  0.26625662  0.46748676  1
  Ge  Ge6  1  0.75000000  0.76767094  0.46465812  1
