# generated using pymatgen
data_Li24(I2N)5
_symmetry_space_group_name_H-M   'P 1'
_cell_length_a   9.40781187
_cell_length_b   9.40781187
_cell_length_c   11.57727931
_cell_angle_alpha   66.02707184
_cell_angle_beta   66.02707184
_cell_angle_gamma   90.00000000
_symmetry_Int_Tables_number   1
_chemical_formula_structural   Li24(I2N)5
_chemical_formula_sum   'Li24 I10 N5'
_cell_volume   838.62323221
_cell_formula_units_Z   1
loop_
 _symmetry_equiv_pos_site_id
 _symmetry_equiv_pos_as_xyz
  1  'x, y, z'
loop_
 _atom_site_type_symbol
 _atom_site_label
 _atom_site_symmetry_multiplicity
 _atom_site_fract_x
 _atom_site_fract_y
 _atom_site_fract_z
 _atom_site_occupancy
  Li  Li0  1  0.64667600  0.92958764  0.04256203  1
  Li  Li1  1  0.98070347  0.70882893  0.51330931  1
  Li  Li2  1  0.24401278  0.54117107  0.98669069  1
  Li  Li3  1  0.43923802  0.32041236  0.45743797  1
  Li  Li4  1  0.57720872  0.07720872  0.80753367  1
  Li  Li5  1  0.95126944  0.75984102  0.28888954  1
  Li  Li6  1  0.11525760  0.61525760  0.80753367  1
  Li  Li7  1  0.25984102  0.45126944  0.28888954  1
  Li  Li8  1  0.42958764  0.14667600  0.04256203  1
  Li  Li9  1  0.82041236  0.93923802  0.45743797  1
  Li  Li10  1  0.04117107  0.74401278  0.98669069  1
  Li  Li11  1  0.20882893  0.48070347  0.51330931  1
  Li  Li12  1  0.26929653  0.97213824  0.98669069  1
  Li  Li13  1  0.60332400  0.72214967  0.45743797  1
  Li  Li14  1  0.81076198  0.52785033  0.04256203  1
  Li  Li15  1  0.00598722  0.27786176  0.51330931  1
  Li  Li16  1  0.29873056  0.79873056  0.21111046  1
  Li  Li17  1  0.67279128  0.63474240  0.69246633  1
  Li  Li18  1  0.99015898  0.49015898  0.21111046  1
  Li  Li19  1  0.13474240  0.17279128  0.69246633  1
  Li  Li20  1  0.47213824  0.76929653  0.98669069  1
  Li  Li21  1  0.77786176  0.50598722  0.51330931  1
  Li  Li22  1  0.02785033  0.31076198  0.04256203  1
  Li  Li23  1  0.22214967  0.10332400  0.45743797  1
  I  I24  1  0.62500000  0.62500000  0.25000000  1
  I  I25  1  0.88545478  0.38545478  0.72909044  1
  I  I26  1  0.12500000  0.12500000  0.25000000  1
  I  I27  1  0.36454522  0.86454522  0.77090956  1
  I  I28  1  0.37500000  0.37500000  0.75000000  1
  I  I29  1  0.87500000  0.87500000  0.75000000  1
  I  I30  1  0.95980279  0.02231107  0.01788614  1
  I  I31  1  0.29019721  0.79019721  0.48211386  1
  I  I32  1  0.52231107  0.45980279  0.01788614  1
  I  I33  1  0.72768893  0.22768893  0.48211386  1
  N  N34  1  0.45949977  0.95949977  0.01442122  1
  N  N35  1  0.79050023  0.72392099  0.48557878  1
  N  N36  1  0.02607901  0.52607901  0.01442122  1
  N  N37  1  0.22392099  0.29050023  0.48557878  1
  N  N38  1  0.12500000  0.62500000  0.25000000  1
