# generated using pymatgen
data_Hf3N2
_symmetry_space_group_name_H-M   'P 1'
_cell_length_a   3.18806003
_cell_length_b   3.18806003
_cell_length_c   8.17518342
_cell_angle_alpha   89.99999895
_cell_angle_beta   101.24378986
_cell_angle_gamma   60.00000474
_symmetry_Int_Tables_number   1
_chemical_formula_structural   Hf3N2
_chemical_formula_sum   'Hf3 N2'
_cell_volume   70.11077703
_cell_formula_units_Z   1
loop_
 _symmetry_equiv_pos_site_id
 _symmetry_equiv_pos_as_xyz
  1  'x, y, z'
loop_
 _atom_site_type_symbol
 _atom_site_label
 _atom_site_symmetry_multiplicity
 _atom_site_fract_x
 _atom_site_fract_y
 _atom_site_fract_z
 _atom_site_occupancy
  Hf  Hf0  1  0.99814792  0.00092604  0.99722188  1
  Hf  Hf1  1  0.55383002  0.22308499  0.33074503  1
  Hf  Hf2  1  0.44578760  0.77710620  0.66868141  1
  N  N3  1  0.77503149  0.61248425  0.16254724  1
  N  N4  1  0.00500297  0.49749852  0.50750445  1
