# generated using pymatgen
data_HfO2
_symmetry_space_group_name_H-M   'P 1'
_cell_length_a   4.93704171
_cell_length_b   5.13372418
_cell_length_c   5.21084776
_cell_angle_alpha   90.00000000
_cell_angle_beta   90.00000000
_cell_angle_gamma   90.00000000
_symmetry_Int_Tables_number   1
_chemical_formula_structural   HfO2
_chemical_formula_sum   'Hf4 O8'
_cell_volume   132.07107503
_cell_formula_units_Z   4
loop_
 _symmetry_equiv_pos_site_id
 _symmetry_equiv_pos_as_xyz
  1  'x, y, z'
loop_
 _atom_site_type_symbol
 _atom_site_label
 _atom_site_symmetry_multiplicity
 _atom_site_fract_x
 _atom_site_fract_y
 _atom_site_fract_z
 _atom_site_occupancy
  Hf  Hf0  1  0.72807421  0.27750158  0.53235561  1
  Hf  Hf1  1  0.27192579  0.77750158  0.46764439  1
  Hf  Hf2  1  0.72807421  0.72249842  0.96764439  1
  Hf  Hf3  1  0.27192579  0.22249842  0.03235561  1
  O  O4  1  0.42591609  0.50000000  0.75000000  1
  O  O5  1  0.57408391  0.00000000  0.25000000  1
  O  O6  1  0.51063043  0.50000000  0.25000000  1
  O  O7  1  0.48936957  0.00000000  0.75000000  1
  O  O8  1  0.89682614  0.31386980  0.91298380  1
  O  O9  1  0.10317386  0.81386980  0.08701620  1
  O  O10  1  0.89682614  0.68613020  0.58701620  1
  O  O11  1  0.10317386  0.18613020  0.41298380  1
