# generated using pymatgen
data_Nd4Ti3Fe25B2
_symmetry_space_group_name_H-M   'P 1'
_cell_length_a   8.82636598
_cell_length_b   8.82636598
_cell_length_c   12.29588327
_cell_angle_alpha   90.00000000
_cell_angle_beta   90.00000000
_cell_angle_gamma   89.80799976
_symmetry_Int_Tables_number   1
_chemical_formula_structural   Nd4Ti3Fe25B2
_chemical_formula_sum   'Nd8 Ti6 Fe50 B4'
_cell_volume   957.90216660
_cell_formula_units_Z   2
loop_
 _symmetry_equiv_pos_site_id
 _symmetry_equiv_pos_as_xyz
  1  'x, y, z'
loop_
 _atom_site_type_symbol
 _atom_site_label
 _atom_site_symmetry_multiplicity
 _atom_site_fract_x
 _atom_site_fract_y
 _atom_site_fract_z
 _atom_site_occupancy
  Nd  Nd0  1  0.23914022  0.76085978  0.50114052  1
  Nd  Nd1  1  0.76085978  0.23914022  0.50114052  1
  Nd  Nd2  1  0.26025841  0.26025841  0.99409928  1
  Nd  Nd3  1  0.73974159  0.73974159  0.99409928  1
  Nd  Nd4  1  0.64074520  0.64074520  0.50646993  1
  Nd  Nd5  1  0.35925480  0.35925480  0.50646993  1
  Nd  Nd6  1  0.85966785  0.14033215  0.99932549  1
  Nd  Nd7  1  0.14033215  0.85966785  0.99932549  1
  Ti  Ti8  1  0.68982510  0.68982510  0.24994933  1
  Ti  Ti9  1  0.31017490  0.31017490  0.24994933  1
  Ti  Ti10  1  0.50000000  0.50000000  0.11879644  1
  Ti  Ti11  1  0.00000000  0.00000000  0.62597907  1
  Ti  Ti12  1  0.50000000  0.50000000  0.87355646  1
  Ti  Ti13  1  0.00000000  0.00000000  0.37522398  1
  Fe  Fe14  1  0.39799397  0.60200603  0.29434299  1
  Fe  Fe15  1  0.60200603  0.39799397  0.29434299  1
  Fe  Fe16  1  0.10559263  0.10559263  0.79647019  1
  Fe  Fe17  1  0.89440737  0.89440737  0.79647019  1
  Fe  Fe18  1  0.60240416  0.39759584  0.70064807  1
  Fe  Fe19  1  0.39759584  0.60240416  0.70064807  1
  Fe  Fe20  1  0.90033362  0.90033362  0.20161905  1
  Fe  Fe21  1  0.09966638  0.09966638  0.20161905  1
  Fe  Fe22  1  0.13812876  0.53862895  0.32413510  1
  Fe  Fe23  1  0.86187124  0.46137105  0.32413510  1
  Fe  Fe24  1  0.36381149  0.03661991  0.82017209  1
  Fe  Fe25  1  0.63618851  0.96338009  0.82017209  1
  Fe  Fe26  1  0.86367693  0.46533048  0.68122821  1
  Fe  Fe27  1  0.13632307  0.53466952  0.68122821  1
  Fe  Fe28  1  0.63893733  0.96538189  0.17609620  1
  Fe  Fe29  1  0.36106267  0.03461811  0.17609620  1
  Fe  Fe30  1  0.53862895  0.13812876  0.32413510  1
  Fe  Fe31  1  0.46137105  0.86187124  0.32413510  1
  Fe  Fe32  1  0.03661991  0.36381149  0.82017209  1
  Fe  Fe33  1  0.96338009  0.63618851  0.82017209  1
  Fe  Fe34  1  0.46533048  0.86367693  0.68122821  1
  Fe  Fe35  1  0.53466952  0.13632307  0.68122821  1
  Fe  Fe36  1  0.96538189  0.63893733  0.17609620  1
  Fe  Fe37  1  0.03461811  0.36106267  0.17609620  1
  Fe  Fe38  1  0.93422626  0.72028904  0.37632092  1
  Fe  Fe39  1  0.06577374  0.27971096  0.37632092  1
  Fe  Fe40  1  0.56914514  0.21990648  0.87237638  1
  Fe  Fe41  1  0.43085486  0.78009352  0.87237638  1
  Fe  Fe42  1  0.06516115  0.27981187  0.62674558  1
  Fe  Fe43  1  0.93483885  0.72018813  0.62674558  1
  Fe  Fe44  1  0.43278183  0.77860342  0.12612217  1
  Fe  Fe45  1  0.56721817  0.22139658  0.12612217  1
  Fe  Fe46  1  0.72028904  0.93422626  0.37632092  1
  Fe  Fe47  1  0.27971096  0.06577374  0.37632092  1
  Fe  Fe48  1  0.21990648  0.56914514  0.87237638  1
  Fe  Fe49  1  0.78009352  0.43085486  0.87237638  1
  Fe  Fe50  1  0.27981187  0.06516115  0.62674558  1
  Fe  Fe51  1  0.72018813  0.93483885  0.62674558  1
  Fe  Fe52  1  0.77860342  0.43278183  0.12612217  1
  Fe  Fe53  1  0.22139658  0.56721817  0.12612217  1
  Fe  Fe54  1  0.00000000  0.50000000  0.50263216  1
  Fe  Fe55  1  0.50000000  0.00000000  0.99735874  1
  Fe  Fe56  1  0.50000000  0.00000000  0.50263216  1
  Fe  Fe57  1  0.00000000  0.50000000  0.99735874  1
  Fe  Fe58  1  0.18518858  0.81481142  0.25236822  1
  Fe  Fe59  1  0.81481142  0.18518858  0.25236822  1
  Fe  Fe60  1  0.31811720  0.31811720  0.75401520  1
  Fe  Fe61  1  0.68188280  0.68188280  0.75401520  1
  Fe  Fe62  1  0.81269541  0.18730459  0.74799627  1
  Fe  Fe63  1  0.18730459  0.81269541  0.74799627  1
  B  B64  1  0.86180216  0.86180216  0.50121541  1
  B  B65  1  0.13819784  0.13819784  0.50121541  1
  B  B66  1  0.64076999  0.35923001  0.99717787  1
  B  B67  1  0.35923001  0.64076999  0.99717787  1
