# generated using pymatgen
data_Hf2NiS4
_symmetry_space_group_name_H-M   'P 1'
_cell_length_a   3.55132063
_cell_length_b   6.75201645
_cell_length_c   6.10366005
_cell_angle_alpha   63.77087130
_cell_angle_beta   89.95970370
_cell_angle_gamma   105.27007624
_symmetry_Int_Tables_number   1
_chemical_formula_structural   Hf2NiS4
_chemical_formula_sum   'Hf2 Ni1 S4'
_cell_volume   125.48717545
_cell_formula_units_Z   1
loop_
 _symmetry_equiv_pos_site_id
 _symmetry_equiv_pos_as_xyz
  1  'x, y, z'
loop_
 _atom_site_type_symbol
 _atom_site_label
 _atom_site_symmetry_multiplicity
 _atom_site_fract_x
 _atom_site_fract_y
 _atom_site_fract_z
 _atom_site_occupancy
  Hf  Hf0  1  0.50510137  0.01021155  0.49606136  1
  Hf  Hf1  1  0.99489863  0.98978845  0.00393864  1
  Ni  Ni2  1  0.25000000  0.50000000  0.75000000  1
  S  S3  1  0.13305802  0.26606462  0.54226324  1
  S  S4  1  0.63270170  0.26518267  0.03096984  1
  S  S5  1  0.86729830  0.73481733  0.46903016  1
  S  S6  1  0.36694198  0.73393538  0.95773676  1
