# generated using pymatgen
data_Mn3V2Si3
_symmetry_space_group_name_H-M   'P 1'
_cell_length_a   7.06752830
_cell_length_b   7.06752870
_cell_length_c   4.79580025
_cell_angle_alpha   90.00000000
_cell_angle_beta   90.00000000
_cell_angle_gamma   120.11086402
_symmetry_Int_Tables_number   1
_chemical_formula_structural   Mn3V2Si3
_chemical_formula_sum   'Mn6 V4 Si6'
_cell_volume   207.22426216
_cell_formula_units_Z   2
loop_
 _symmetry_equiv_pos_site_id
 _symmetry_equiv_pos_as_xyz
  1  'x, y, z'
loop_
 _atom_site_type_symbol
 _atom_site_label
 _atom_site_symmetry_multiplicity
 _atom_site_fract_x
 _atom_site_fract_y
 _atom_site_fract_z
 _atom_site_occupancy
  Mn  Mn0  1  0.73948530  0.73948530  0.25002637  1
  Mn  Mn1  1  0.26238628  0.99971006  0.24999008  1
  Mn  Mn2  1  0.99971006  0.26238628  0.24999008  1
  Mn  Mn3  1  0.26051470  0.26051470  0.75002637  1
  Mn  Mn4  1  0.73761372  0.00028994  0.74999008  1
  Mn  Mn5  1  0.00028994  0.73761372  0.74999008  1
  V  V6  1  0.66651735  0.33348581  0.49999839  1
  V  V7  1  0.33348581  0.66651735  0.49999839  1
  V  V8  1  0.33348265  0.66651419  0.99999839  1
  V  V9  1  0.66651419  0.33348265  0.99999839  1
  Si  Si10  1  0.38110858  0.38110858  0.25000983  1
  Si  Si11  1  0.61835437  0.00028740  0.24999344  1
  Si  Si12  1  0.00028740  0.61835437  0.24999344  1
  Si  Si13  1  0.61889142  0.61889142  0.75000983  1
  Si  Si14  1  0.38164563  0.99971260  0.74999344  1
  Si  Si15  1  0.99971260  0.38164563  0.74999344  1
