# generated using pymatgen
data_Er4CrSe7
_symmetry_space_group_name_H-M   'P 1'
_cell_length_a   3.94167553
_cell_length_b   6.78704016
_cell_length_c   11.92890299
_cell_angle_alpha   104.23716313
_cell_angle_beta   90.00000005
_cell_angle_gamma   73.11914626
_symmetry_Int_Tables_number   1
_chemical_formula_structural   Er4CrSe7
_chemical_formula_sum   'Er4 Cr1 Se7'
_cell_volume   295.11683253
_cell_formula_units_Z   1
loop_
 _symmetry_equiv_pos_site_id
 _symmetry_equiv_pos_as_xyz
  1  'x, y, z'
loop_
 _atom_site_type_symbol
 _atom_site_label
 _atom_site_symmetry_multiplicity
 _atom_site_fract_x
 _atom_site_fract_y
 _atom_site_fract_z
 _atom_site_occupancy
  Er  Er0  1  0.69526420  0.60947161  0.20414454  1
  Er  Er1  1  0.30499337  0.39001327  0.80348190  1
  Er  Er2  1  0.99930302  0.00139395  0.00648629  1
  Er  Er3  1  0.11334651  0.77330698  0.56495359  1
  Cr  Cr4  1  0.88458662  0.23082677  0.42357741  1
  Se  Se5  1  0.74700012  0.50599975  0.63663831  1
  Se  Se6  1  0.27018059  0.45963881  0.35337513  1
  Se  Se7  1  0.33702746  0.32594508  0.05100893  1
  Se  Se8  1  0.66004888  0.67990224  0.94864774  1
  Se  Se9  1  0.03140120  0.93719761  0.22885373  1
  Se  Se10  1  0.96491515  0.07016970  0.78418504  1
  Se  Se11  1  0.49193289  0.01613423  0.49464739  1
