# generated using pymatgen
data_Fe3(PO5)2
_symmetry_space_group_name_H-M   'P 1'
_cell_length_a   5.16457989
_cell_length_b   5.46721141
_cell_length_c   7.42322841
_cell_angle_alpha   68.39225844
_cell_angle_beta   68.19726859
_cell_angle_gamma   90.00000022
_symmetry_Int_Tables_number   1
_chemical_formula_structural   Fe3(PO5)2
_chemical_formula_sum   'Fe3 P2 O10'
_cell_volume   178.64670874
_cell_formula_units_Z   1
loop_
 _symmetry_equiv_pos_site_id
 _symmetry_equiv_pos_as_xyz
  1  'x, y, z'
loop_
 _atom_site_type_symbol
 _atom_site_label
 _atom_site_symmetry_multiplicity
 _atom_site_fract_x
 _atom_site_fract_y
 _atom_site_fract_z
 _atom_site_occupancy
  Fe  Fe0  1  0.50000000  0.00000000  -0.00000000  1
  Fe  Fe1  1  0.50000000  0.50000000  -0.00000000  1
  Fe  Fe2  1  0.00000000  0.00000000  0.50000000  1
  P  P3  1  0.86261104  0.61306650  0.27386699  1
  P  P4  1  0.13738896  0.38693350  0.72613301  1
  O  O5  1  0.34302908  0.32818775  0.84362450  1
  O  O6  1  0.81371877  0.78697643  0.39906865  1
  O  O7  1  0.81371877  0.31395492  0.39906865  1
  O  O8  1  0.82290514  0.29937817  0.90124367  1
  O  O9  1  0.65697092  0.67181225  0.15637550  1
  O  O10  1  0.18628123  0.21302357  0.60093135  1
  O  O11  1  0.18628123  0.68604508  0.60093135  1
  O  O12  1  0.17709486  0.70062183  0.09875633  1
  O  O13  1  0.66245452  0.85791280  0.78417440  1
  O  O14  1  0.33754548  0.14208720  0.21582560  1
