# generated using pymatgen
data_Fe15O16
_symmetry_space_group_name_H-M   'P 1'
_cell_length_a   6.15797244
_cell_length_b   6.15797244
_cell_length_c   10.95688573
_cell_angle_alpha   73.67955243
_cell_angle_beta   90.00000000
_cell_angle_gamma   120.00000000
_symmetry_Int_Tables_number   1
_chemical_formula_structural   Fe15O16
_chemical_formula_sum   'Fe15 O16'
_cell_volume   340.35710212
_cell_formula_units_Z   1
loop_
 _symmetry_equiv_pos_site_id
 _symmetry_equiv_pos_as_xyz
  1  'x, y, z'
loop_
 _atom_site_type_symbol
 _atom_site_label
 _atom_site_symmetry_multiplicity
 _atom_site_fract_x
 _atom_site_fract_y
 _atom_site_fract_z
 _atom_site_occupancy
  Fe  Fe0  1  0.50000000  0.50000000  0.50000000  1
  Fe  Fe1  1  0.00000000  0.50000000  -0.00000000  1
  Fe  Fe2  1  0.74808972  0.99617943  0.25427966  1
  Fe  Fe3  1  0.25191028  0.00382057  0.74572034  1
  Fe  Fe4  1  0.74808972  0.49763063  0.25427966  1
  Fe  Fe5  1  0.25191028  0.50236937  0.74572034  1
  Fe  Fe6  1  0.24954091  0.49763063  0.25427966  1
  Fe  Fe7  1  0.75045909  0.50236937  0.74572034  1
  Fe  Fe8  1  0.82119063  0.14238125  0.53642812  1
  Fe  Fe9  1  0.17880937  0.85761875  0.46357188  1
  Fe  Fe10  1  0.25666916  0.01333832  0.22999252  1
  Fe  Fe11  1  0.74333084  0.98666168  0.77000748  1
  Fe  Fe12  1  0.50000000  0.50000000  -0.00000000  1
  Fe  Fe13  1  0.50000000  0.00000000  -0.00000000  1
  Fe  Fe14  1  0.00000000  0.00000000  -0.00000000  1
  O  O15  1  0.88220374  0.26440748  0.35338879  1
  O  O16  1  0.37863173  0.25726346  0.86410482  1
  O  O17  1  0.12824669  0.75649338  0.11879868  1
  O  O18  1  0.62946632  0.75893264  0.62527467  1
  O  O19  1  0.12824669  0.25295463  0.11879868  1
  O  O20  1  0.62946632  0.24525901  0.62527467  1
  O  O21  1  0.62470794  0.25295463  0.11879868  1
  O  O22  1  0.11579269  0.24525901  0.62527467  1
  O  O23  1  0.62136827  0.74273654  0.13589518  1
  O  O24  1  0.11779626  0.73559252  0.64661121  1
  O  O25  1  0.37053368  0.24106736  0.37472533  1
  O  O26  1  0.87175331  0.24350662  0.88120132  1
  O  O27  1  0.37053368  0.75474099  0.37472533  1
  O  O28  1  0.87175331  0.74704537  0.88120132  1
  O  O29  1  0.88420731  0.75474099  0.37472533  1
  O  O30  1  0.37529206  0.74704537  0.88120132  1
