# generated using pymatgen
data_Yb2S3
_symmetry_space_group_name_H-M   'P 1'
_cell_length_a   9.90887207
_cell_length_b   5.72676675
_cell_length_c   7.42245928
_cell_angle_alpha   117.81027091
_cell_angle_beta   131.87402908
_cell_angle_gamma   45.65820651
_symmetry_Int_Tables_number   1
_chemical_formula_structural   Yb2S3
_chemical_formula_sum   'Yb4 S6'
_cell_volume   224.30041903
_cell_formula_units_Z   2
loop_
 _symmetry_equiv_pos_site_id
 _symmetry_equiv_pos_as_xyz
  1  'x, y, z'
loop_
 _atom_site_type_symbol
 _atom_site_label
 _atom_site_symmetry_multiplicity
 _atom_site_fract_x
 _atom_site_fract_y
 _atom_site_fract_z
 _atom_site_occupancy
  Yb  Yb0  1  0.16527938  0.19564192  0.73372206  1
  Yb  Yb1  1  0.83472062  0.80435808  0.26627794  1
  Yb  Yb2  1  0.43155422  0.69564492  0.26627820  1
  Yb  Yb3  1  0.56844578  0.30435508  0.73372180  1
  S  S4  1  0.56914417  0.82440494  0.75683533  1
  S  S5  1  0.88322382  0.24996394  0.76641917  1
  S  S6  1  0.18767382  0.67562832  0.75683482  1
  S  S7  1  0.43085583  0.17559506  0.24316467  1
  S  S8  1  0.11677618  0.75003606  0.23358083  1
  S  S9  1  0.81232618  0.32437168  0.24316518  1
