# generated using pymatgen
data_ErAlNi
_symmetry_space_group_name_H-M   'P 1'
_cell_length_a   5.25363979
_cell_length_b   5.25390285
_cell_length_c   8.54509001
_cell_angle_alpha   90.00000000
_cell_angle_beta   90.00000000
_cell_angle_gamma   61.34080026
_symmetry_Int_Tables_number   1
_chemical_formula_structural   ErAlNi
_chemical_formula_sum   'Er4 Al4 Ni4'
_cell_volume   206.96652746
_cell_formula_units_Z   4
loop_
 _symmetry_equiv_pos_site_id
 _symmetry_equiv_pos_as_xyz
  1  'x, y, z'
loop_
 _atom_site_type_symbol
 _atom_site_label
 _atom_site_symmetry_multiplicity
 _atom_site_fract_x
 _atom_site_fract_y
 _atom_site_fract_z
 _atom_site_occupancy
  Er  Er0  1  0.32874549  0.32854729  0.56841341  1
  Er  Er1  1  0.65966660  0.65945497  0.45789359  1
  Er  Er2  1  0.65966660  0.65945497  0.04210641  1
  Er  Er3  1  0.32874549  0.32854729  0.93158659  1
  Al  Al4  1  0.85681507  0.85653309  0.75000000  1
  Al  Al5  1  0.16127488  0.66661333  0.25000000  1
  Al  Al6  1  0.66682380  0.16100780  0.25000000  1
  Al  Al7  1  0.16311657  0.16283700  0.25000000  1
  Ni  Ni8  1  0.99529975  0.99616392  0.49074846  1
  Ni  Ni9  1  0.99529975  0.99616392  0.00925154  1
  Ni  Ni10  1  0.84655503  0.33819407  0.75000000  1
  Ni  Ni11  1  0.33799097  0.84648236  0.75000000  1
