# generated using pymatgen
data_FeCuBi2(AsO6)2
_symmetry_space_group_name_H-M   'P 1'
_cell_length_a   6.28550218
_cell_length_b   9.18445222
_cell_length_c   9.14207588
_cell_angle_alpha   72.60780480
_cell_angle_beta   81.69628973
_cell_angle_gamma   83.89208447
_symmetry_Int_Tables_number   1
_chemical_formula_structural   FeCuBi2(AsO6)2
_chemical_formula_sum   'Fe2 Cu2 Bi4 As4 O24'
_cell_volume   497.23473340
_cell_formula_units_Z   2
loop_
 _symmetry_equiv_pos_site_id
 _symmetry_equiv_pos_as_xyz
  1  'x, y, z'
loop_
 _atom_site_type_symbol
 _atom_site_label
 _atom_site_symmetry_multiplicity
 _atom_site_fract_x
 _atom_site_fract_y
 _atom_site_fract_z
 _atom_site_occupancy
  Fe  Fe0  1  -0.00000000  0.00000000  -0.00000000  1
  Fe  Fe1  1  -0.00000000  0.50000000  -0.00000000  1
  Cu  Cu2  1  0.50000000  0.50000000  -0.00000000  1
  Cu  Cu3  1  0.50000000  0.00000000  -0.00000000  1
  Bi  Bi4  1  0.31760979  0.09997656  0.60589670  1
  Bi  Bi5  1  0.68239021  0.90002344  0.39410330  1
  Bi  Bi6  1  0.31558176  0.59866708  0.60709280  1
  Bi  Bi7  1  0.68441824  0.40133292  0.39290720  1
  As  As8  1  0.18949454  0.15371642  0.21751246  1
  As  As9  1  0.81050546  0.84628358  0.78248754  1
  As  As10  1  0.18953148  0.65384906  0.21810628  1
  As  As11  1  0.81046852  0.34615094  0.78189372  1
  O  O12  1  0.43608804  0.05088791  0.19026627  1
  O  O13  1  0.56391196  0.94911209  0.80973373  1
  O  O14  1  0.21056468  0.32916080  0.08675167  1
  O  O15  1  0.78943532  0.67083920  0.91324833  1
  O  O16  1  0.21121749  0.82934869  0.08744157  1
  O  O17  1  0.78878251  0.17065131  0.91255843  1
  O  O18  1  0.13524545  0.17685138  0.39822900  1
  O  O19  1  0.86475455  0.82314862  0.60177100  1
  O  O20  1  0.25461316  0.60469931  0.91982420  1
  O  O21  1  0.74538684  0.39530069  0.08017580  1
  O  O22  1  0.43599417  0.55093323  0.19044613  1
  O  O23  1  0.56400583  0.44906677  0.80955387  1
  O  O24  1  0.61450898  0.62835698  0.44963733  1
  O  O25  1  0.38549102  0.37164302  0.55036267  1
  O  O26  1  0.97651011  0.05992176  0.19592600  1
  O  O27  1  0.02348989  0.94007824  0.80407400  1
  O  O28  1  0.61616199  0.12804877  0.44909166  1
  O  O29  1  0.38383801  0.87195123  0.55090834  1
  O  O30  1  0.13299948  0.67584911  0.39910074  1
  O  O31  1  0.86700052  0.32415089  0.60089926  1
  O  O32  1  0.97699683  0.56026599  0.19548926  1
  O  O33  1  0.02300317  0.43973401  0.80451074  1
  O  O34  1  0.25460504  0.10487875  0.92043884  1
  O  O35  1  0.74539496  0.89512125  0.07956116  1
