# generated using pymatgen
data_CoNiSe2
_symmetry_space_group_name_H-M   'P 1'
_cell_length_a   3.65482348
_cell_length_b   3.65451180
_cell_length_c   5.17163110
_cell_angle_alpha   90.00000000
_cell_angle_beta   89.96601888
_cell_angle_gamma   60.00282096
_symmetry_Int_Tables_number   1
_chemical_formula_structural   CoNiSe2
_chemical_formula_sum   'Co1 Ni1 Se2'
_cell_volume   59.82272440
_cell_formula_units_Z   1
loop_
 _symmetry_equiv_pos_site_id
 _symmetry_equiv_pos_as_xyz
  1  'x, y, z'
loop_
 _atom_site_type_symbol
 _atom_site_label
 _atom_site_symmetry_multiplicity
 _atom_site_fract_x
 _atom_site_fract_y
 _atom_site_fract_z
 _atom_site_occupancy
  Co  Co0  1  0.00000000  -0.00000000  0.50000000  1
  Ni  Ni1  1  0.00000000  -0.00000000  -0.00000000  1
  Se  Se2  1  0.33330933  0.33334534  0.73670622  1
  Se  Se3  1  0.66669067  0.66665466  0.26329378  1
