# generated using pymatgen
data_CrNiSb2
_symmetry_space_group_name_H-M   'P 1'
_cell_length_a   4.02957830
_cell_length_b   4.02474681
_cell_length_c   5.44407762
_cell_angle_alpha   90.00000000
_cell_angle_beta   90.03291087
_cell_angle_gamma   60.03966304
_symmetry_Int_Tables_number   1
_chemical_formula_structural   CrNiSb2
_chemical_formula_sum   'Cr1 Ni1 Sb2'
_cell_volume   76.49383683
_cell_formula_units_Z   1
loop_
 _symmetry_equiv_pos_site_id
 _symmetry_equiv_pos_as_xyz
  1  'x, y, z'
loop_
 _atom_site_type_symbol
 _atom_site_label
 _atom_site_symmetry_multiplicity
 _atom_site_fract_x
 _atom_site_fract_y
 _atom_site_fract_z
 _atom_site_occupancy
  Cr  Cr0  1  0.00000000  -0.00000000  -0.00000000  1
  Ni  Ni1  1  0.00000000  -0.00000000  0.50000000  1
  Sb  Sb2  1  0.33412490  0.33293755  0.73015166  1
  Sb  Sb3  1  0.66587510  0.66706245  0.26984834  1
