# generated using pymatgen
data_ScMo3O8
_symmetry_space_group_name_H-M   'P 1'
_cell_length_a   6.08429554
_cell_length_b   6.06773650
_cell_length_c   4.63847030
_cell_angle_alpha   89.76435748
_cell_angle_beta   89.58754856
_cell_angle_gamma   119.45469047
_symmetry_Int_Tables_number   1
_chemical_formula_structural   ScMo3O8
_chemical_formula_sum   'Sc1 Mo3 O8'
_cell_volume   149.09898078
_cell_formula_units_Z   1
loop_
 _symmetry_equiv_pos_site_id
 _symmetry_equiv_pos_as_xyz
  1  'x, y, z'
loop_
 _atom_site_type_symbol
 _atom_site_label
 _atom_site_symmetry_multiplicity
 _atom_site_fract_x
 _atom_site_fract_y
 _atom_site_fract_z
 _atom_site_occupancy
  O  O0  1  0.50441723  0.00178145  0.48638841  1
  O  O1  1  0.67669777  0.34855118  0.02179185  1
  O  O2  1  0.68001828  0.83048829  0.02080055  1
  O  O3  1  0.16506105  0.83547298  0.02017297  1
  O  O4  1  0.98904269  0.50456026  0.48374600  1
  O  O5  1  0.99347512  0.98220451  0.49311695  1
  O  O6  1  0.16380562  0.32924863  0.01724954  1
  O  O7  1  0.50085504  0.49664417  0.48568304  1
  Sc  Sc8  1  0.32741165  0.66489380  0.74878327  1
  Mo  Mo9  1  0.82920511  0.67081927  0.24731451  1
  Mo  Mo10  1  0.83900807  0.17210381  0.26053790  1
  Mo  Mo11  1  0.33308236  0.16531165  0.25352501  1
