# generated using pymatgen
data_Cr2SbAs
_symmetry_space_group_name_H-M   'P 1'
_cell_length_a   3.81247529
_cell_length_b   3.81247529
_cell_length_c   5.87213632
_cell_angle_alpha   90.00000000
_cell_angle_beta   90.00000000
_cell_angle_gamma   119.98628606
_symmetry_Int_Tables_number   1
_chemical_formula_structural   Cr2SbAs
_chemical_formula_sum   'Cr2 Sb1 As1'
_cell_volume   73.92661751
_cell_formula_units_Z   1
loop_
 _symmetry_equiv_pos_site_id
 _symmetry_equiv_pos_as_xyz
  1  'x, y, z'
loop_
 _atom_site_type_symbol
 _atom_site_label
 _atom_site_symmetry_multiplicity
 _atom_site_fract_x
 _atom_site_fract_y
 _atom_site_fract_z
 _atom_site_occupancy
  Cr  Cr0  1  0.99998542  0.00001458  0.51609986  1
  Cr  Cr1  1  0.99998542  0.00001458  0.98390014  1
  Sb  Sb2  1  0.33337591  0.66662409  0.25000000  1
  As  As3  1  0.66665324  0.33334676  0.75000000  1
