# generated using pymatgen
data_Ce(MnCo2)4
_symmetry_space_group_name_H-M   'P 1'
_cell_length_a   4.69685977
_cell_length_b   6.42326334
_cell_length_c   6.42326334
_cell_angle_alpha   97.68189012
_cell_angle_beta   111.44531986
_cell_angle_gamma   68.55468014
_symmetry_Int_Tables_number   1
_chemical_formula_structural   Ce(MnCo2)4
_chemical_formula_sum   'Ce1 Mn4 Co8'
_cell_volume   167.88075844
_cell_formula_units_Z   1
loop_
 _symmetry_equiv_pos_site_id
 _symmetry_equiv_pos_as_xyz
  1  'x, y, z'
loop_
 _atom_site_type_symbol
 _atom_site_label
 _atom_site_symmetry_multiplicity
 _atom_site_fract_x
 _atom_site_fract_y
 _atom_site_fract_z
 _atom_site_occupancy
  Ce  Ce0  1  0.00000000  -0.00000000  -0.00000000  1
  Mn  Mn1  1  0.73269280  0.76730720  0.23269280  1
  Mn  Mn2  1  0.26730720  0.23269280  0.76730720  1
  Mn  Mn3  1  0.50000000  0.76730720  0.76730720  1
  Mn  Mn4  1  0.50000000  0.23269280  0.23269280  1
  Co  Co5  1  0.50000000  -0.00000000  0.50000000  1
  Co  Co6  1  0.00000000  -0.00000000  0.50000000  1
  Co  Co7  1  0.50000000  0.50000000  -0.00000000  1
  Co  Co8  1  0.00000000  0.50000000  -0.00000000  1
  Co  Co9  1  0.63688961  0.36311039  0.63688961  1
  Co  Co10  1  0.36311039  0.63688961  0.36311039  1
  Co  Co11  1  0.00000000  0.36311039  0.36311039  1
  Co  Co12  1  -0.00000000  0.63688961  0.63688961  1
