# generated using pymatgen
data_Ce3SiN3O2
_symmetry_space_group_name_H-M   'P 1'
_cell_length_a   6.65396125
_cell_length_b   6.65396125
_cell_length_c   7.26456708
_cell_angle_alpha   62.30067989
_cell_angle_beta   62.30067989
_cell_angle_gamma   89.14200258
_symmetry_Int_Tables_number   1
_chemical_formula_structural   Ce3SiN3O2
_chemical_formula_sum   'Ce6 Si2 N6 O4'
_cell_volume   243.70690222
_cell_formula_units_Z   2
loop_
 _symmetry_equiv_pos_site_id
 _symmetry_equiv_pos_as_xyz
  1  'x, y, z'
loop_
 _atom_site_type_symbol
 _atom_site_label
 _atom_site_symmetry_multiplicity
 _atom_site_fract_x
 _atom_site_fract_y
 _atom_site_fract_z
 _atom_site_occupancy
  Ce  Ce0  1  0.24412796  0.25587204  0.50000000  1
  Ce  Ce1  1  0.74412796  0.75587204  0.50000000  1
  Ce  Ce2  1  0.32565533  0.17434467  0.00000000  1
  Ce  Ce3  1  0.66744162  0.83255838  0.00000000  1
  Ce  Ce4  1  0.17910242  0.67463697  0.00000000  1
  Ce  Ce5  1  0.82536303  0.32089758  0.00000000  1
  Si  Si6  1  0.75116786  0.24414637  0.50468577  1
  Si  Si7  1  0.25585363  0.74883214  0.49531423  1
  N  N8  1  0.99478602  0.20723346  0.29798052  1
  N  N9  1  0.49312243  0.99492809  0.29850170  1
  N  N10  1  0.20657020  0.70837586  0.29850170  1
  N  N11  1  0.29276654  0.50521398  0.70201948  1
  N  N12  1  0.50507191  0.00687757  0.70149830  1
  N  N13  1  0.79162414  0.29342980  0.70149830  1
  O  O14  1  0.50742686  0.50620964  0.00000000  1
  O  O15  1  0.99379036  0.99257314  0.00000000  1
  O  O16  1  0.70887257  0.48687085  0.30425658  1
  O  O17  1  0.01312915  0.79112743  0.69574342  1
