# generated using pymatgen
data_B2RuW
_symmetry_space_group_name_H-M   'P 1'
_cell_length_a   2.99468104
_cell_length_b   4.55937302
_cell_length_c   6.02511818
_cell_angle_alpha   90.00000000
_cell_angle_beta   90.00000000
_cell_angle_gamma   90.00000000
_symmetry_Int_Tables_number   1
_chemical_formula_structural   B2RuW
_chemical_formula_sum   'B4 Ru2 W2'
_cell_volume   82.26616794
_cell_formula_units_Z   2
loop_
 _symmetry_equiv_pos_site_id
 _symmetry_equiv_pos_as_xyz
  1  'x, y, z'
loop_
 _atom_site_type_symbol
 _atom_site_label
 _atom_site_symmetry_multiplicity
 _atom_site_fract_x
 _atom_site_fract_y
 _atom_site_fract_z
 _atom_site_occupancy
  B  B0  1  0.25000000  0.91539586  0.52719206  1
  B  B1  1  0.25000000  0.58460414  0.02719206  1
  B  B2  1  0.75000000  0.11713351  0.47050644  1
  B  B3  1  0.75000000  0.38286649  0.97050644  1
  Ru  Ru4  1  0.25000000  0.37774291  0.68063021  1
  Ru  Ru5  1  0.25000000  0.12225709  0.18063021  1
  W  W6  1  0.75000000  0.62868549  0.32167130  1
  W  W7  1  0.75000000  0.87131451  0.82167130  1
