# generated using pymatgen
data_Ag3Ge
_symmetry_space_group_name_H-M   'P 1'
_cell_length_a   2.98996897
_cell_length_b   2.98795556
_cell_length_c   9.48754057
_cell_angle_alpha   90.00000000
_cell_angle_beta   90.00000000
_cell_angle_gamma   60.02228654
_symmetry_Int_Tables_number   1
_chemical_formula_structural   Ag3Ge
_chemical_formula_sum   'Ag3 Ge1'
_cell_volume   73.42138620
_cell_formula_units_Z   1
loop_
 _symmetry_equiv_pos_site_id
 _symmetry_equiv_pos_as_xyz
  1  'x, y, z'
loop_
 _atom_site_type_symbol
 _atom_site_label
 _atom_site_symmetry_multiplicity
 _atom_site_fract_x
 _atom_site_fract_y
 _atom_site_fract_z
 _atom_site_occupancy
  Ag  Ag0  1  0.33334930  0.33332535  0.87500000  1
  Ag  Ag1  1  0.66659074  0.66670463  0.12617601  1
  Ag  Ag2  1  0.66659074  0.66670463  0.62382399  1
  Ge  Ge3  1  0.33346922  0.33326539  0.37500000  1
