# generated using pymatgen
data_Be8Ru
_symmetry_space_group_name_H-M   'P 1'
_cell_length_a   4.16247233
_cell_length_b   4.16252145
_cell_length_c   10.97872964
_cell_angle_alpha   90.00000000
_cell_angle_beta   90.00000000
_cell_angle_gamma   59.99960283
_symmetry_Int_Tables_number   1
_chemical_formula_structural   Be8Ru
_chemical_formula_sum   'Be16 Ru2'
_cell_volume   164.73611821
_cell_formula_units_Z   2
loop_
 _symmetry_equiv_pos_site_id
 _symmetry_equiv_pos_as_xyz
  1  'x, y, z'
loop_
 _atom_site_type_symbol
 _atom_site_label
 _atom_site_symmetry_multiplicity
 _atom_site_fract_x
 _atom_site_fract_y
 _atom_site_fract_z
 _atom_site_occupancy
  Be  Be0  1  0.33337290  0.33331355  0.34387731  1
  Be  Be1  1  0.33337290  0.33331355  0.65612269  1
  Be  Be2  1  0.66713413  0.16643293  0.18321229  1
  Be  Be3  1  0.16641518  0.16643133  0.18323152  1
  Be  Be4  1  0.16641518  0.66715349  0.18323152  1
  Be  Be5  1  0.66713413  0.16643293  0.81678771  1
  Be  Be6  1  0.16641518  0.16643133  0.81676848  1
  Be  Be7  1  0.16641518  0.66715349  0.81676848  1
  Be  Be8  1  0.66662261  0.66668869  0.09703130  1
  Be  Be9  1  0.66662261  0.66668869  0.90296870  1
  Be  Be10  1  0.99110774  0.50444613  0.50000000  1
  Be  Be11  1  0.50446725  0.50443976  0.50000000  1
  Be  Be12  1  0.50446725  0.99109299  0.50000000  1
  Be  Be13  1  0.33342156  0.33328922  0.00000000  1
  Be  Be14  1  0.99993829  0.00003085  0.37360007  1
  Be  Be15  1  0.99993829  0.00003085  0.62639993  1
  Ru  Ru16  1  0.66666981  0.66666509  0.30707309  1
  Ru  Ru17  1  0.66666981  0.66666509  0.69292691  1
