# generated using pymatgen
data_CaMg2Al4SiO12
_symmetry_space_group_name_H-M   'P 1'
_cell_length_a   5.28551342
_cell_length_b   5.29428217
_cell_length_c   9.74066345
_cell_angle_alpha   84.81105593
_cell_angle_beta   80.28991487
_cell_angle_gamma   60.19114680
_symmetry_Int_Tables_number   1
_chemical_formula_structural   CaMg2Al4SiO12
_chemical_formula_sum   'Ca1 Mg2 Al4 Si1 O12'
_cell_volume   233.11327819
_cell_formula_units_Z   1
loop_
 _symmetry_equiv_pos_site_id
 _symmetry_equiv_pos_as_xyz
  1  'x, y, z'
loop_
 _atom_site_type_symbol
 _atom_site_label
 _atom_site_symmetry_multiplicity
 _atom_site_fract_x
 _atom_site_fract_y
 _atom_site_fract_z
 _atom_site_occupancy
  Ca  Ca0  1  0.00243275  0.99983069  0.98675933  1
  Mg  Mg1  1  0.82509952  0.34588277  0.50200376  1
  Mg  Mg2  1  0.17128696  0.65333039  0.50152972  1
  Al  Al3  1  0.49931327  0.00559672  0.50293635  1
  Al  Al4  1  0.27242275  0.32748005  0.20873418  1
  Al  Al5  1  0.39935357  0.32940163  0.79534812  1
  Al  Al6  1  0.72561926  0.67276086  0.79559180  1
  Si  Si7  1  0.60257392  0.67018968  0.20740291  1
  O  O8  1  0.54517170  0.68384803  0.37961253  1
  O  O9  1  0.22765753  0.30718803  0.39226114  1
  O  O10  1  0.46229376  0.31276047  0.60925814  1
  O  O11  1  0.76399409  0.69242289  0.60825034  1
  O  O12  1  0.35525645  0.61236696  0.15326720  1
  O  O13  1  0.93672910  0.40453239  0.15222603  1
  O  O14  1  0.67635258  0.37106942  0.85238158  1
  O  O15  1  0.04802839  0.63012875  0.84975053  1
  O  O16  1  0.84469092  0.99888396  0.40930276  1
  O  O17  1  0.15987459  0.99715081  0.58924716  1
  O  O18  1  0.56909573  0.98486029  0.14470284  1
  O  O19  1  0.41275316  0.00031521  0.85943357  1
