# generated using pymatgen
data_Al3(MoS2)8
_symmetry_space_group_name_H-M   'P 1'
_cell_length_a   7.04262731
_cell_length_b   9.94816404
_cell_length_c   7.04262731
_cell_angle_alpha   90.00000000
_cell_angle_beta   90.00000000
_cell_angle_gamma   90.00000000
_symmetry_Int_Tables_number   1
_chemical_formula_structural   Al3(MoS2)8
_chemical_formula_sum   'Al3 Mo8 S16'
_cell_volume   493.41500360
_cell_formula_units_Z   1
loop_
 _symmetry_equiv_pos_site_id
 _symmetry_equiv_pos_as_xyz
  1  'x, y, z'
loop_
 _atom_site_type_symbol
 _atom_site_label
 _atom_site_symmetry_multiplicity
 _atom_site_fract_x
 _atom_site_fract_y
 _atom_site_fract_z
 _atom_site_occupancy
  Al  Al0  1  0.50000000  0.75000000  -0.00000000  1
  Al  Al1  1  0.00000000  0.00309092  -0.00000000  1
  Al  Al2  1  0.50000000  0.49690908  0.50000000  1
  Mo  Mo3  1  0.20011127  0.39313791  0.00000000  1
  Mo  Mo4  1  0.70985006  0.90183849  0.50000000  1
  Mo  Mo5  1  -0.00000000  0.59816151  0.79014994  1
  Mo  Mo6  1  0.50000000  0.10686209  0.29988873  1
  Mo  Mo7  1  0.00000000  0.59816151  0.20985006  1
  Mo  Mo8  1  0.50000000  0.10686209  0.70011127  1
  Mo  Mo9  1  0.79988873  0.39313791  0.00000000  1
  Mo  Mo10  1  0.29014994  0.90183849  0.50000000  1
  S  S11  1  0.74957181  0.62233436  0.00000000  1
  S  S12  1  0.23403681  0.13529594  0.50000000  1
  S  S13  1  -0.00000000  0.36470406  0.26596319  1
  S  S14  1  0.50000000  0.87766564  0.75042819  1
  S  S15  1  0.00000000  0.36470406  0.73403681  1
  S  S16  1  0.50000000  0.87766564  0.24957181  1
  S  S17  1  0.25042819  0.62233436  0.00000000  1
  S  S18  1  0.76596319  0.13529594  0.50000000  1
  S  S19  1  0.73061200  0.13488130  -0.00000000  1
  S  S20  1  0.23162337  0.63379269  0.50000000  1
  S  S21  1  0.50000000  0.36511870  0.76938800  1
  S  S22  1  -0.00000000  0.86620731  0.26837663  1
  S  S23  1  0.50000000  0.36511870  0.23061200  1
  S  S24  1  0.00000000  0.86620731  0.73162337  1
  S  S25  1  0.26938800  0.13488130  0.00000000  1
  S  S26  1  0.76837663  0.63379269  0.50000000  1
