# generated using pymatgen
data_AlSi3O8
_symmetry_space_group_name_H-M   'P 1'
_cell_length_a   5.04292734
_cell_length_b   8.87831726
_cell_length_c   8.97720111
_cell_angle_alpha   92.22603008
_cell_angle_beta   90.00000000
_cell_angle_gamma   90.00000000
_symmetry_Int_Tables_number   1
_chemical_formula_structural   AlSi3O8
_chemical_formula_sum   'Al2 Si6 O16'
_cell_volume   401.63030161
_cell_formula_units_Z   2
loop_
 _symmetry_equiv_pos_site_id
 _symmetry_equiv_pos_as_xyz
  1  'x, y, z'
loop_
 _atom_site_type_symbol
 _atom_site_label
 _atom_site_symmetry_multiplicity
 _atom_site_fract_x
 _atom_site_fract_y
 _atom_site_fract_z
 _atom_site_occupancy
  Al  Al0  1  0.60142719  0.68184361  0.33414951  1
  Al  Al1  1  0.89857281  0.18184361  0.83414951  1
  Si  Si2  1  0.38942516  0.68158723  0.67186894  1
  Si  Si3  1  0.09878689  0.82339518  0.16223205  1
  Si  Si4  1  0.88229146  0.81489875  0.83123993  1
  Si  Si5  1  0.40121311  0.32339518  0.66223205  1
  Si  Si6  1  0.61770854  0.31489875  0.33123993  1
  Si  Si7  1  0.11057484  0.18158723  0.17186894  1
  O  O8  1  0.87291319  0.79165155  0.28470741  1
  O  O9  1  0.11030014  0.76653622  0.70962329  1
  O  O10  1  0.35247254  0.72266391  0.20490684  1
  O  O11  1  0.61189906  0.71691808  0.80144331  1
  O  O12  1  0.14752746  0.22266391  0.70490684  1
  O  O13  1  0.88810094  0.21691808  0.30144331  1
  O  O14  1  0.62708681  0.29165155  0.78470741  1
  O  O15  1  0.38969986  0.26653622  0.20962329  1
  O  O16  1  0.49886094  0.73346383  0.51376493  1
  O  O17  1  0.99533065  0.77397119  0.99541508  1
  O  O18  1  0.50466935  0.27397119  0.49541508  1
  O  O19  1  0.00113906  0.23346383  0.01376493  1
  O  O20  1  0.68234710  0.49172362  0.32374491  1
  O  O21  1  0.32251409  0.50134683  0.66690380  1
  O  O22  1  0.17748591  0.00134683  0.16690380  1
  O  O23  1  0.81765290  0.99172362  0.82374491  1
