# generated using pymatgen
data_U(OF)2
_symmetry_space_group_name_H-M   'P 1'
_cell_length_a   11.85618710
_cell_length_b   4.29407963
_cell_length_c   6.16864934
_cell_angle_alpha   122.95374427
_cell_angle_beta   163.94640626
_cell_angle_gamma   55.52579704
_symmetry_Int_Tables_number   1
_chemical_formula_structural   U(OF)2
_chemical_formula_sum   'U1 O2 F2'
_cell_volume   71.59547017
_cell_formula_units_Z   1
loop_
 _symmetry_equiv_pos_site_id
 _symmetry_equiv_pos_as_xyz
  1  'x, y, z'
loop_
 _atom_site_type_symbol
 _atom_site_label
 _atom_site_symmetry_multiplicity
 _atom_site_fract_x
 _atom_site_fract_y
 _atom_site_fract_z
 _atom_site_occupancy
  U  U0  1  -0.00000000  -0.00000000  -0.00000000  1
  O  O1  1  0.38661310  0.28050816  1.00000000  1
  O  O2  1  0.61338690  0.71949184  0.00000000  1
  F  F3  1  0.12048097  0.21440402  0.00000000  1
  F  F4  1  0.87951903  0.78559598  1.00000000  1
