# generated using pymatgen
data_Al2O3
_symmetry_space_group_name_H-M   'P 1'
_cell_length_a   4.84693288
_cell_length_b   4.98540426
_cell_length_c   7.08994123
_cell_angle_alpha   90.00000000
_cell_angle_beta   90.00000000
_cell_angle_gamma   90.00000000
_symmetry_Int_Tables_number   1
_chemical_formula_structural   Al2O3
_chemical_formula_sum   'Al8 O12'
_cell_volume   171.32077147
_cell_formula_units_Z   4
loop_
 _symmetry_equiv_pos_site_id
 _symmetry_equiv_pos_as_xyz
  1  'x, y, z'
loop_
 _atom_site_type_symbol
 _atom_site_label
 _atom_site_symmetry_multiplicity
 _atom_site_fract_x
 _atom_site_fract_y
 _atom_site_fract_z
 _atom_site_occupancy
  O  O0  1  0.10702126  0.10197637  0.65400163  1
  O  O1  1  0.10702126  0.39802363  0.34599837  1
  O  O2  1  0.39297874  0.60197637  0.84599837  1
  O  O3  1  0.39297874  0.89802363  0.15400163  1
  O  O4  1  0.89297874  0.89802363  0.34599837  1
  O  O5  1  0.89297874  0.60197637  0.65400163  1
  O  O6  1  0.60702126  0.39802363  0.15400163  1
  O  O7  1  0.60702126  0.10197637  0.84599837  1
  O  O8  1  0.04940443  0.25000000  0.00000000  1
  O  O9  1  0.45059557  0.75000000  0.50000000  1
  O  O10  1  0.95059557  0.75000000  0.00000000  1
  O  O11  1  0.54940443  0.25000000  0.50000000  1
  Al  Al12  1  0.25215239  0.03051399  0.39039471  1
  Al  Al13  1  0.25215239  0.46948601  0.60960529  1
  Al  Al14  1  0.24784761  0.53051399  0.10960529  1
  Al  Al15  1  0.24784761  0.96948601  0.89039471  1
  Al  Al16  1  0.74784761  0.96948601  0.60960529  1
  Al  Al17  1  0.74784761  0.53051399  0.39039471  1
  Al  Al18  1  0.75215239  0.46948601  0.89039471  1
  Al  Al19  1  0.75215239  0.03051399  0.10960529  1
