# generated using pymatgen
data_BaNaCuClO2
_symmetry_space_group_name_H-M   'P 1'
_cell_length_a   5.61275786
_cell_length_b   5.61275786
_cell_length_c   7.09879025
_cell_angle_alpha   90.00000000
_cell_angle_beta   90.00000000
_cell_angle_gamma   90.00000000
_symmetry_Int_Tables_number   1
_chemical_formula_structural   BaNaCuClO2
_chemical_formula_sum   'Ba2 Na2 Cu2 Cl2 O4'
_cell_volume   223.63354983
_cell_formula_units_Z   2
loop_
 _symmetry_equiv_pos_site_id
 _symmetry_equiv_pos_as_xyz
  1  'x, y, z'
loop_
 _atom_site_type_symbol
 _atom_site_label
 _atom_site_symmetry_multiplicity
 _atom_site_fract_x
 _atom_site_fract_y
 _atom_site_fract_z
 _atom_site_occupancy
  Ba  Ba0  1  0.50000000  0.50000000  0.52002983  1
  Ba  Ba1  1  0.00000000  0.00000000  0.52002983  1
  Na  Na2  1  0.50000000  0.50000000  0.97072785  1
  Na  Na3  1  0.00000000  0.00000000  0.97072785  1
  Cu  Cu4  1  0.00000000  0.50000000  0.78513888  1
  Cu  Cu5  1  0.50000000  0.00000000  0.78513888  1
  Cl  Cl6  1  0.00000000  0.50000000  0.25761753  1
  Cl  Cl7  1  0.50000000  0.00000000  0.25761753  1
  O  O8  1  0.24988858  0.74988858  0.76520296  1
  O  O9  1  0.25011142  0.24988858  0.76520296  1
  O  O10  1  0.74988858  0.75011142  0.76520296  1
  O  O11  1  0.75011142  0.25011142  0.76520296  1
