# generated using pymatgen
data_B
_symmetry_space_group_name_H-M   'P 1'
_cell_length_a   4.92557177
_cell_length_b   8.86624987
_cell_length_c   8.86624987
_cell_angle_alpha   90.00000000
_cell_angle_beta   90.00000000
_cell_angle_gamma   90.00000000
_symmetry_Int_Tables_number   1
_chemical_formula_structural   B
_chemical_formula_sum   B50
_cell_volume   387.20110184
_cell_formula_units_Z   50
loop_
 _symmetry_equiv_pos_site_id
 _symmetry_equiv_pos_as_xyz
  1  'x, y, z'
loop_
 _atom_site_type_symbol
 _atom_site_label
 _atom_site_symmetry_multiplicity
 _atom_site_fract_x
 _atom_site_fract_y
 _atom_site_fract_z
 _atom_site_occupancy
  B  B0  1  0.75000000  0.25000000  0.75000000  1
  B  B1  1  0.25000000  0.75000000  0.25000000  1
  B  B2  1  0.64252483  0.37852743  0.87852743  1
  B  B3  1  0.14252483  0.62147257  0.37852743  1
  B  B4  1  0.14252483  0.87852743  0.12147257  1
  B  B5  1  0.64252483  0.12147257  0.62147257  1
  B  B6  1  0.85747517  0.37852743  0.62147257  1
  B  B7  1  0.85747517  0.12147257  0.87852743  1
  B  B8  1  0.35747517  0.87852743  0.37852743  1
  B  B9  1  0.35747517  0.62147257  0.12147257  1
  B  B10  1  0.82398887  0.49563023  0.99563023  1
  B  B11  1  0.32398887  0.50436977  0.49563023  1
  B  B12  1  0.32398887  0.99563023  0.00436977  1
  B  B13  1  0.82398887  0.00436977  0.50436977  1
  B  B14  1  0.67601113  0.49563023  0.50436977  1
  B  B15  1  0.67601113  0.00436977  0.99563023  1
  B  B16  1  0.17601113  0.99563023  0.49563023  1
  B  B17  1  0.17601113  0.50436977  0.00436977  1
  B  B18  1  0.65575145  0.57976249  0.83576983  1
  B  B19  1  0.15575145  0.66423017  0.57976249  1
  B  B20  1  0.15575145  0.83576983  0.92023751  1
  B  B21  1  0.65575145  0.92023751  0.66423017  1
  B  B22  1  0.84424855  0.57976249  0.66423017  1
  B  B23  1  0.84424855  0.92023751  0.83576983  1
  B  B24  1  0.34424855  0.83576983  0.57976249  1
  B  B25  1  0.34424855  0.66423017  0.92023751  1
  B  B26  1  0.34424855  0.42023751  0.16423017  1
  B  B27  1  0.84424855  0.33576983  0.42023751  1
  B  B28  1  0.84424855  0.16423017  0.07976249  1
  B  B29  1  0.34424855  0.07976249  0.33576983  1
  B  B30  1  0.15575145  0.42023751  0.33576983  1
  B  B31  1  0.15575145  0.07976249  0.16423017  1
  B  B32  1  0.65575145  0.16423017  0.42023751  1
  B  B33  1  0.65575145  0.33576983  0.07976249  1
  B  B34  1  0.33770333  0.47850461  0.83295741  1
  B  B35  1  0.83770333  0.66704259  0.47850461  1
  B  B36  1  0.83770333  0.83295741  0.02149539  1
  B  B37  1  0.33770333  0.02149539  0.66704259  1
  B  B38  1  0.16229667  0.47850461  0.66704259  1
  B  B39  1  0.16229667  0.02149539  0.83295741  1
  B  B40  1  0.66229667  0.83295741  0.47850461  1
  B  B41  1  0.66229667  0.66704259  0.02149539  1
  B  B42  1  0.66229667  0.52149539  0.16704259  1
  B  B43  1  0.16229667  0.33295741  0.52149539  1
  B  B44  1  0.16229667  0.16704259  0.97850461  1
  B  B45  1  0.66229667  0.97850461  0.33295741  1
  B  B46  1  0.83770333  0.52149539  0.33295741  1
  B  B47  1  0.83770333  0.97850461  0.16704259  1
  B  B48  1  0.33770333  0.16704259  0.52149539  1
  B  B49  1  0.33770333  0.33295741  0.97850461  1
