# generated using pymatgen
data_KFeBP2HO9
_symmetry_space_group_name_H-M   'P 1'
_cell_length_a   5.16969176
_cell_length_b   8.10998625
_cell_length_c   8.35030372
_cell_angle_alpha   85.88997031
_cell_angle_beta   80.83606136
_cell_angle_gamma   86.19636528
_symmetry_Int_Tables_number   1
_chemical_formula_structural   KFeBP2HO9
_chemical_formula_sum   'K2 Fe2 B2 P4 H2 O18'
_cell_volume   344.20200812
_cell_formula_units_Z   2
loop_
 _symmetry_equiv_pos_site_id
 _symmetry_equiv_pos_as_xyz
  1  'x, y, z'
loop_
 _atom_site_type_symbol
 _atom_site_label
 _atom_site_symmetry_multiplicity
 _atom_site_fract_x
 _atom_site_fract_y
 _atom_site_fract_z
 _atom_site_occupancy
  K  K0  1  0.72121474  0.32781566  0.11191565  1
  K  K1  1  0.27878526  0.67218434  0.88808435  1
  Fe  Fe2  1  0.26375504  0.19598193  0.80731598  1
  Fe  Fe3  1  0.73624496  0.80401807  0.19268402  1
  B  B4  1  0.12643490  0.26396300  0.44716353  1
  B  B5  1  0.87356510  0.73603700  0.55283647  1
  P  P6  1  0.20158281  0.58708402  0.30400727  1
  P  P7  1  0.79841719  0.41291598  0.69599273  1
  P  P8  1  0.22036104  0.06127553  0.18156383  1
  P  P9  1  0.77963896  0.93872447  0.81843617  1
  O  O10  1  0.03046915  0.40303032  0.79252742  1
  O  O11  1  0.96953085  0.59696968  0.20747258  1
  O  O12  1  0.06962194  0.14316548  0.33810504  1
  O  O13  1  0.93037806  0.85683452  0.66189496  1
  O  O14  1  0.06104657  0.91881561  0.15133571  1
  O  O15  1  0.93895343  0.08118439  0.84866429  1
  O  O16  1  0.13050246  0.68120675  0.46444096  1
  O  O17  1  0.86949754  0.31879325  0.53555904  1
  O  O18  1  0.23568867  0.20228554  0.04474556  1
  O  O19  1  0.76431133  0.79771446  0.95525444  1
  O  O20  1  0.27107688  0.40074265  0.35135274  1
  O  O21  1  0.72892312  0.59925735  0.64864726  1
  O  O22  1  0.29380928  0.18941983  0.56569290  1
  O  O23  1  0.70619072  0.81058017  0.43430710  1
  O  O24  1  0.45209533  0.64915989  0.20344474  1
  O  O25  1  0.54790467  0.35084011  0.79655526  1
  O  O26  1  0.50165099  0.00364529  0.21010097  1
  O  O27  1  0.49834901  0.99635471  0.78989903  1
  H  H28  1  0.47868280  0.17293269  0.51966004  1
  H  H29  1  0.52131720  0.82706731  0.48033996  1
