# generated using pymatgen
data_Zn2Mo3O8
_symmetry_space_group_name_H-M   'P 1'
_cell_length_a   6.28171037
_cell_length_b   6.28171037
_cell_length_c   9.55305269
_cell_angle_alpha   90.00000000
_cell_angle_beta   90.00000000
_cell_angle_gamma   120.00000004
_symmetry_Int_Tables_number   1
_chemical_formula_structural   Zn2Mo3O8
_chemical_formula_sum   'Zn4 Mo6 O16'
_cell_volume   326.45898195
_cell_formula_units_Z   2
loop_
 _symmetry_equiv_pos_site_id
 _symmetry_equiv_pos_as_xyz
  1  'x, y, z'
loop_
 _atom_site_type_symbol
 _atom_site_label
 _atom_site_symmetry_multiplicity
 _atom_site_fract_x
 _atom_site_fract_y
 _atom_site_fract_z
 _atom_site_occupancy
  O  O0  1  0.00000000  0.00000000  0.46596588  1
  O  O1  1  0.00000000  0.00000000  0.96596647  1
  O  O2  1  0.66666661  0.33333288  0.69522046  1
  O  O3  1  0.33333288  0.66666576  0.19522086  1
  O  O4  1  0.51743067  0.03486100  0.45406750  1
  O  O5  1  0.48256931  0.51743180  0.95406710  1
  O  O6  1  0.03486248  0.51743180  0.95406710  1
  O  O7  1  0.96513799  0.48256882  0.45406750  1
  O  O8  1  0.51743116  0.48256882  0.45406750  1
  O  O9  1  0.48256882  0.96513764  0.95406710  1
  O  O10  1  0.83364576  0.16635423  0.17640928  1
  O  O11  1  0.66729068  0.83364440  0.67640888  1
  O  O12  1  0.16635522  0.33271045  0.67640888  1
  O  O13  1  0.16635373  0.83364440  0.67640888  1
  O  O14  1  0.33270881  0.16635423  0.17640928  1
  O  O15  1  0.83364526  0.66729017  0.17640928  1
  Zn  Zn16  1  0.33333288  0.66666576  0.78610547  1
  Zn  Zn17  1  0.66666661  0.33333288  0.28610587  1
  Zn  Zn18  1  0.66666661  0.33333288  0.90345330  1
  Zn  Zn19  1  0.33333288  0.66666576  0.40345271  1
  Mo  Mo20  1  0.16388547  0.32777093  0.07843302  1
  Mo  Mo21  1  0.32777068  0.16388547  0.57843361  1
  Mo  Mo22  1  0.16388535  0.83611515  0.07843302  1
  Mo  Mo23  1  0.83611513  0.16388547  0.57843361  1
  Mo  Mo24  1  0.83611501  0.67222968  0.57843361  1
  Mo  Mo25  1  0.67222980  0.83611515  0.07843302  1
