# generated using pymatgen
data_NaLi5Sn4
_symmetry_space_group_name_H-M   'P 1'
_cell_length_a   10.94443773
_cell_length_b   10.94443773
_cell_length_c   10.94443772
_cell_angle_alpha   26.22942148
_cell_angle_beta   26.22942145
_cell_angle_gamma   26.22942147
_symmetry_Int_Tables_number   1
_chemical_formula_structural   NaLi5Sn4
_chemical_formula_sum   'Na1 Li5 Sn4'
_cell_volume   225.63304004
_cell_formula_units_Z   1
loop_
 _symmetry_equiv_pos_site_id
 _symmetry_equiv_pos_as_xyz
  1  'x, y, z'
loop_
 _atom_site_type_symbol
 _atom_site_label
 _atom_site_symmetry_multiplicity
 _atom_site_fract_x
 _atom_site_fract_y
 _atom_site_fract_z
 _atom_site_occupancy
  Li  Li0  1  0.86136848  0.86136848  0.86136848  1
  Li  Li1  1  0.94734907  0.94734907  0.94734907  1
  Li  Li2  1  0.58403294  0.58403294  0.58403294  1
  Li  Li3  1  0.13681222  0.13681222  0.13681222  1
  Li  Li4  1  0.05386218  0.05386218  0.05386218  1
  Na  Na5  1  0.48392700  0.48392700  0.48392700  1
  Sn  Sn6  1  0.77130150  0.77130150  0.77130150  1
  Sn  Sn7  1  0.68170066  0.68170066  0.68170066  1
  Sn  Sn8  1  0.31745313  0.31745313  0.31745313  1
  Sn  Sn9  1  0.22499283  0.22499283  0.22499283  1
