# generated using pymatgen
data_NiAsO4
_symmetry_space_group_name_H-M   'P 1'
_cell_length_a   10.22486193
_cell_length_b   5.81342420
_cell_length_c   4.94183894
_cell_angle_alpha   90.00000000
_cell_angle_beta   90.00000000
_cell_angle_gamma   90.00000000
_symmetry_Int_Tables_number   1
_chemical_formula_structural   NiAsO4
_chemical_formula_sum   'Ni4 As4 O16'
_cell_volume   293.75012062
_cell_formula_units_Z   4
loop_
 _symmetry_equiv_pos_site_id
 _symmetry_equiv_pos_as_xyz
  1  'x, y, z'
loop_
 _atom_site_type_symbol
 _atom_site_label
 _atom_site_symmetry_multiplicity
 _atom_site_fract_x
 _atom_site_fract_y
 _atom_site_fract_z
 _atom_site_occupancy
  As  As0  1  0.09268352  0.25000000  0.42119240  1
  As  As1  1  0.40731648  0.75000000  0.92119240  1
  As  As2  1  0.59268352  0.25000000  0.07880760  1
  As  As3  1  0.90731648  0.75000000  0.57880760  1
  Ni  Ni4  1  0.23133936  0.75000000  0.46024154  1
  Ni  Ni5  1  0.26866064  0.25000000  0.96024154  1
  Ni  Ni6  1  0.73133936  0.75000000  0.03975846  1
  Ni  Ni7  1  0.76866064  0.25000000  0.53975846  1
  O  O8  1  0.06969056  0.75000000  0.66610963  1
  O  O9  1  0.10469627  0.25000000  0.76617545  1
  O  O10  1  0.17391489  0.02871765  0.25018005  1
  O  O11  1  0.17391489  0.47128235  0.25018005  1
  O  O12  1  0.32608511  0.52871765  0.75018005  1
  O  O13  1  0.32608511  0.97128235  0.75018005  1
  O  O14  1  0.39530373  0.75000000  0.26617545  1
  O  O15  1  0.43030944  0.25000000  0.16610963  1
  O  O16  1  0.56969056  0.75000000  0.83389037  1
  O  O17  1  0.60469627  0.25000000  0.73382455  1
  O  O18  1  0.67391489  0.02871765  0.24981995  1
  O  O19  1  0.67391489  0.47128235  0.24981995  1
  O  O20  1  0.82608511  0.52871765  0.74981995  1
  O  O21  1  0.82608511  0.97128235  0.74981995  1
  O  O22  1  0.89530373  0.75000000  0.23382455  1
  O  O23  1  0.93030944  0.25000000  0.33389037  1
