# generated using pymatgen
data_NiH6(CO3)2
_symmetry_space_group_name_H-M   'P 1'
_cell_length_a   7.11174271
_cell_length_b   8.70719504
_cell_length_c   9.30980757
_cell_angle_alpha   97.48484988
_cell_angle_beta   90.00000000
_cell_angle_gamma   90.00000000
_symmetry_Int_Tables_number   1
_chemical_formula_structural   NiH6(CO3)2
_chemical_formula_sum   'Ni4 H24 C8 O24'
_cell_volume   571.58218248
_cell_formula_units_Z   4
loop_
 _symmetry_equiv_pos_site_id
 _symmetry_equiv_pos_as_xyz
  1  'x, y, z'
loop_
 _atom_site_type_symbol
 _atom_site_label
 _atom_site_symmetry_multiplicity
 _atom_site_fract_x
 _atom_site_fract_y
 _atom_site_fract_z
 _atom_site_occupancy
  H  H0  1  0.97126369  0.82429416  0.39484734  1
  H  H1  1  0.47126355  0.17570565  0.10515263  1
  H  H2  1  0.02873658  0.17570647  0.60515357  1
  H  H3  1  0.52873672  0.82429381  0.89484706  1
  H  H4  1  0.79151913  0.42920574  0.22428732  1
  H  H5  1  0.29151899  0.57079407  0.27571265  1
  H  H6  1  0.20848114  0.57079373  0.77571345  1
  H  H7  1  0.70848128  0.42920655  0.72428718  1
  H  H8  1  0.61928374  0.71678067  0.50845735  1
  H  H9  1  0.11928360  0.28321961  0.99154329  1
  H  H10  1  0.38071512  0.28321996  0.49154356  1
  H  H11  1  0.88071525  0.71677985  0.00845641  1
  H  H12  1  0.09930344  0.73556749  0.04765342  1
  H  H13  1  0.59930358  0.26443232  0.45234655  1
  H  H14  1  0.90069683  0.26443197  0.95234628  1
  H  H15  1  0.90632065  0.80259610  0.76201870  1
  H  H16  1  0.64626678  0.97025148  0.22035124  1
  H  H17  1  0.14626665  0.02974833  0.27964873  1
  H  H18  1  0.35373349  0.02974798  0.77964846  1
  H  H19  1  0.85373362  0.97025113  0.72035096  1
  H  H20  1  0.59367976  0.80259645  0.26201897  1
  H  H21  1  0.09367962  0.19740453  0.23798114  1
  H  H22  1  0.40632051  0.19740418  0.73798086  1
  H  H23  1  0.40069669  0.73556830  0.54765328  1
  C  C24  1  0.11556788  0.82233083  0.43857088  1
  C  C25  1  0.61556801  0.17767014  0.06142923  1
  C  C26  1  0.88443098  0.17766979  0.56142895  1
  C  C27  1  0.38443226  0.82233048  0.93857060  1
  C  C28  1  0.77527890  0.53751239  0.77360999  1
  C  C29  1  0.27527877  0.46248788  0.72638957  1
  C  C30  1  0.72472009  0.53751274  0.27361027  1
  C  C31  1  0.22471995  0.46248707  0.22638970  1
  O  O32  1  0.97277110  0.78265495  0.06881891  1
  O  O33  1  0.47277097  0.21734486  0.43118106  1
  O  O34  1  0.02722916  0.21734452  0.93118187  1
  O  O35  1  0.52722930  0.78265576  0.56881877  1
  O  O36  1  0.60891996  0.91292313  0.30145660  1
  O  O37  1  0.10891983  0.08707669  0.19854337  1
  O  O38  1  0.39108031  0.08707634  0.69854310  1
  O  O39  1  0.89108044  0.91292394  0.80145646  1
  O  O40  1  0.22066425  0.93704073  0.42381880  1
  O  O41  1  0.72066297  0.06295909  0.07618117  1
  O  O42  1  0.77933602  0.06295990  0.57618211  1
  O  O43  1  0.27933589  0.93704038  0.92381853  1
  O  O44  1  0.33528607  0.70450586  0.99866953  1
  O  O45  1  0.83528620  0.29549395  0.50133044  1
  O  O46  1  0.72503637  0.59325011  0.90100430  1
  O  O47  1  0.16471407  0.70450552  0.49867034  1
  O  O48  1  0.60228568  0.60023124  0.20076645  1
  O  O49  1  0.10228554  0.39976857  0.29923352  1
  O  O50  1  0.39771459  0.39976939  0.79923446  1
  O  O51  1  0.89771473  0.60023089  0.70076618  1
  O  O52  1  0.77496403  0.59325045  0.40100350  1
  O  O53  1  0.27496389  0.40675052  0.09899661  1
  O  O54  1  0.22503624  0.40675017  0.59899633  1
  O  O55  1  0.66471279  0.29549360  0.00133016  1
  Ni  Ni56  1  0.50000013  0.99999965  0.49999973  1
  Ni  Ni57  1  0.00000000  0.00000000  0.00000000  1
  Ni  Ni58  1  0.50000013  0.50000008  0.99999958  1
  Ni  Ni59  1  0.00000000  0.49999973  0.50000039  1
