# generated using pymatgen
data_CoPO4F
_symmetry_space_group_name_H-M   'P 1'
_cell_length_a   5.29538080
_cell_length_b   5.26624142
_cell_length_c   7.49885181
_cell_angle_alpha   109.38700822
_cell_angle_beta   108.89080534
_cell_angle_gamma   95.60092899
_symmetry_Int_Tables_number   1
_chemical_formula_structural   CoPO4F
_chemical_formula_sum   'Co2 P2 O8 F2'
_cell_volume   181.64246669
_cell_formula_units_Z   2
loop_
 _symmetry_equiv_pos_site_id
 _symmetry_equiv_pos_as_xyz
  1  'x, y, z'
loop_
 _atom_site_type_symbol
 _atom_site_label
 _atom_site_symmetry_multiplicity
 _atom_site_fract_x
 _atom_site_fract_y
 _atom_site_fract_z
 _atom_site_occupancy
  O  O0  1  0.24848176  0.80995248  0.11423681  1
  O  O1  1  0.71521816  0.85203731  0.08865459  1
  O  O2  1  0.66024134  0.18469118  0.39553916  1
  O  O3  1  0.64448833  0.69902371  0.35462909  1
  O  O4  1  0.28478293  0.14796226  0.91134516  1
  O  O5  1  0.33975768  0.81530839  0.60446015  1
  O  O6  1  0.35551276  0.30097586  0.64537066  1
  O  O7  1  0.75151724  0.19004706  0.88576389  1
  F  F8  1  0.16724536  0.33108651  0.27272403  1
  F  F9  1  0.83275414  0.66891518  0.72727588  1
  P  P10  1  0.43789050  0.11687477  0.76718652  1
  P  P11  1  0.56210850  0.88312477  0.23281418  1
  Co  Co12  1  0.00000000  0.00000000  0.00000000  1
  Co  Co13  1  0.50000054  0.49999979  0.49999987  1
