# generated using pymatgen
data_NaSbO3
_symmetry_space_group_name_H-M   'P 1'
_cell_length_a   5.47647354
_cell_length_b   5.53594835
_cell_length_c   7.79696934
_cell_angle_alpha   90.00000000
_cell_angle_beta   90.00000000
_cell_angle_gamma   90.00000000
_symmetry_Int_Tables_number   1
_chemical_formula_structural   NaSbO3
_chemical_formula_sum   'Na4 Sb4 O12'
_cell_volume   236.38442037
_cell_formula_units_Z   4
loop_
 _symmetry_equiv_pos_site_id
 _symmetry_equiv_pos_as_xyz
  1  'x, y, z'
loop_
 _atom_site_type_symbol
 _atom_site_label
 _atom_site_symmetry_multiplicity
 _atom_site_fract_x
 _atom_site_fract_y
 _atom_site_fract_z
 _atom_site_occupancy
  O  O0  1  0.70212580  0.29537286  0.45436773  1
  O  O1  1  0.20212580  0.20462714  0.54563227  1
  O  O2  1  0.79787420  0.79537286  0.04563227  1
  O  O3  1  0.29787420  0.70462714  0.95436773  1
  O  O4  1  0.29787420  0.70462714  0.54563227  1
  O  O5  1  0.79787420  0.79537286  0.45436773  1
  O  O6  1  0.20212580  0.20462714  0.95436773  1
  O  O7  1  0.70212580  0.29537286  0.04563227  1
  O  O8  1  0.41123996  0.97522381  0.25000000  1
  O  O9  1  0.91123996  0.52477619  0.75000000  1
  O  O10  1  0.08876004  0.47522381  0.25000000  1
  O  O11  1  0.58876004  0.02477619  0.75000000  1
  Na  Na12  1  0.50725510  0.53752632  0.25000000  1
  Na  Na13  1  0.00725510  0.96247368  0.75000000  1
  Na  Na14  1  0.99274490  0.03752632  0.25000000  1
  Na  Na15  1  0.49274490  0.46247368  0.75000000  1
  Sb  Sb16  1  0.00000000  0.50000000  0.00000000  1
  Sb  Sb17  1  0.50000000  0.00000000  0.00000000  1
  Sb  Sb18  1  0.50000000  0.00000000  0.50000000  1
  Sb  Sb19  1  0.00000000  0.50000000  0.50000000  1
