# generated using pymatgen
data_CaSi2O5
_symmetry_space_group_name_H-M   'P 1'
_cell_length_a   6.62684199
_cell_length_b   7.31331129
_cell_length_c   7.62781461
_cell_angle_alpha   69.50773545
_cell_angle_beta   81.40642784
_cell_angle_gamma   84.86474178
_symmetry_Int_Tables_number   1
_chemical_formula_structural   CaSi2O5
_chemical_formula_sum   'Ca4 Si8 O20'
_cell_volume   342.11845670
_cell_formula_units_Z   4
loop_
 _symmetry_equiv_pos_site_id
 _symmetry_equiv_pos_as_xyz
  1  'x, y, z'
loop_
 _atom_site_type_symbol
 _atom_site_label
 _atom_site_symmetry_multiplicity
 _atom_site_fract_x
 _atom_site_fract_y
 _atom_site_fract_z
 _atom_site_occupancy
  O  O0  1  0.75198372  0.60106804  0.98644878  1
  O  O1  1  0.24801628  0.39893196  0.01355122  1
  O  O2  1  0.47610607  0.65239047  0.75829442  1
  O  O3  1  0.52389393  0.34760953  0.24170558  1
  O  O4  1  0.62076416  0.30474891  0.93462956  1
  O  O5  1  0.37923584  0.69525109  0.06537044  1
  O  O6  1  0.24878557  0.10025772  0.46015523  1
  O  O7  1  0.75121443  0.89974228  0.53984477  1
  O  O8  1  0.02163695  0.22662322  0.87753260  1
  O  O9  1  0.97836305  0.77337678  0.12246740  1
  O  O10  1  0.88449060  0.18997637  0.58146962  1
  O  O11  1  0.11550940  0.81002363  0.41853038  1
  O  O12  1  0.28132246  0.00378830  0.09764068  1
  O  O13  1  0.71867754  0.99621170  0.90235932  1
  O  O14  1  0.17258352  0.50183865  0.36546870  1
  O  O15  1  0.82741648  0.49816135  0.63453130  1
  O  O16  1  0.05015474  0.84241211  0.74427365  1
  O  O17  1  0.94984526  0.15758789  0.25572635  1
  O  O18  1  0.42617465  0.30062118  0.61238746  1
  O  O19  1  0.57382535  0.69937882  0.38761254  1
  Si  Si20  1  0.66066542  0.68374124  0.57936192  1
  Si  Si21  1  0.33933458  0.31625876  0.42063808  1
  Si  Si22  1  0.12593606  0.19859832  0.07019294  1
  Si  Si23  1  0.87406394  0.80140168  0.92980706  1
  Si  Si24  1  0.80202624  0.24712551  0.77942827  1
  Si  Si25  1  0.19797376  0.75287449  0.22057173  1
  Si  Si26  1  0.00000000  0.00000000  0.50000000  1
  Si  Si27  1  0.50000000  0.50000000  0.00000000  1
  Ca  Ca28  1  0.61019547  0.02875657  0.21369846  1
  Ca  Ca29  1  0.38980453  0.97124343  0.78630154  1
  Ca  Ca30  1  0.81624453  0.45811042  0.32096927  1
  Ca  Ca31  1  0.18375547  0.54188958  0.67903073  1
