# generated using pymatgen
data_CeBi
_symmetry_space_group_name_H-M   'P 1'
_cell_length_a   3.52500004
_cell_length_b   4.23045014
_cell_length_c   4.22965769
_cell_angle_alpha   89.99751462
_cell_angle_beta   90.00151275
_cell_angle_gamma   90.00269738
_symmetry_Int_Tables_number   1
_chemical_formula_structural   CeBi
_chemical_formula_sum   'Ce1 Bi1'
_cell_volume   63.07408042
_cell_formula_units_Z   1
loop_
 _symmetry_equiv_pos_site_id
 _symmetry_equiv_pos_as_xyz
  1  'x, y, z'
loop_
 _atom_site_type_symbol
 _atom_site_label
 _atom_site_symmetry_multiplicity
 _atom_site_fract_x
 _atom_site_fract_y
 _atom_site_fract_z
 _atom_site_occupancy
  Ce  Ce0  1  0.49999955  0.49999931  0.50000080  1
  Bi  Bi1  1  0.00000045  0.00000069  -0.00000080  1
