# generated using pymatgen
data_Co3(PO4)4
_symmetry_space_group_name_H-M   'P 1'
_cell_length_a   14.77158499
_cell_length_b   5.07008921
_cell_length_c   8.37435808
_cell_angle_alpha   90.00000000
_cell_angle_beta   98.57943612
_cell_angle_gamma   90.00000000
_symmetry_Int_Tables_number   1
_chemical_formula_structural   Co3(PO4)4
_chemical_formula_sum   'Co6 P8 O32'
_cell_volume   620.16473868
_cell_formula_units_Z   2
loop_
 _symmetry_equiv_pos_site_id
 _symmetry_equiv_pos_as_xyz
  1  'x, y, z'
loop_
 _atom_site_type_symbol
 _atom_site_label
 _atom_site_symmetry_multiplicity
 _atom_site_fract_x
 _atom_site_fract_y
 _atom_site_fract_z
 _atom_site_occupancy
  O  O0  1  0.60876833  0.87621138  0.56598637  1
  O  O1  1  0.96320533  0.58023320  0.71205289  1
  O  O2  1  0.94017968  0.82866338  0.41471396  1
  O  O3  1  0.88555981  0.29654763  0.43170352  1
  O  O4  1  0.83002162  0.00844257  0.18815773  1
  O  O5  1  0.89123165  0.37621231  0.93401398  1
  O  O6  1  0.03679512  0.41976694  0.28794625  1
  O  O7  1  0.05982006  0.17133676  0.58528622  1
  O  O8  1  0.11443994  0.70345251  0.56829544  1
  O  O9  1  0.16997813  0.99155757  0.81184245  1
  O  O10  1  0.10876881  0.62378783  0.06598637  1
  O  O11  1  0.11789051  0.14437024  0.10278244  1
  O  O12  1  0.22485243  0.07211674  0.54609814  1
  O  O13  1  0.27514774  0.57211581  0.95390192  1
  O  O14  1  0.21024401  0.45468348  0.31070852  1
  O  O15  1  0.33002204  0.49155664  0.68815761  1
  O  O16  1  0.28975622  0.95468255  0.18929166  1
  O  O17  1  0.38556023  0.20345144  0.93170461  1
  O  O18  1  0.38210902  0.64437131  0.39721756  1
  O  O19  1  0.77514803  0.92788340  0.45390222  1
  O  O20  1  0.39123142  0.12378876  0.43401381  1
  O  O21  1  0.46320511  0.91976601  0.21205271  1
  O  O22  1  0.53679464  0.08023413  0.78794625  1
  O  O23  1  0.88210924  0.85562990  0.89721774  1
  O  O24  1  0.55982035  0.32866431  0.08528652  1
  O  O25  1  0.61789073  0.35562883  0.60278140  1
  O  O26  1  0.61444022  0.79654870  0.06829575  1
  O  O27  1  0.71024353  0.04531759  0.81070851  1
  O  O28  1  0.66997842  0.50844350  0.31184275  1
  O  O29  1  0.78975644  0.54531666  0.68929184  1
  O  O30  1  0.72485201  0.42788433  0.04609826  1
  O  O31  1  0.44018010  0.67133583  0.91471384  1
  P  P32  1  0.11937082  0.40351533  0.19719324  1
  P  P33  1  0.35703141  0.48358855  0.87431914  1
  P  P34  1  0.38062940  0.90351440  0.30280694  1
  P  P35  1  0.61937105  0.09648574  0.69719341  1
  P  P36  1  0.64296834  0.51641159  0.12568103  1
  P  P37  1  0.88062893  0.59648481  0.80280694  1
  P  P38  1  0.14296876  0.98358762  0.62568091  1
  P  P39  1  0.85703169  0.01641252  0.37431945  1
  Co  Co40  1  0.79886689  0.13413514  0.98089913  1
  Co  Co41  1  0.70113309  0.63413421  0.51910002  1
  Co  Co42  1  0.49999990  0.00000000  0.99999955  1
  Co  Co43  1  0.29886666  0.36586593  0.48089895  1
  Co  Co44  1  0.20113357  0.86586500  0.01910123  1
  Co  Co45  1  0.00000032  0.49999907  0.50000063  1
