# generated using pymatgen
data_Mg10(Fe3O8)3
_symmetry_space_group_name_H-M   'P 1'
_cell_length_a   6.15294341
_cell_length_b   5.96831307
_cell_length_c   17.91219230
_cell_angle_alpha   60.21769953
_cell_angle_beta   60.64468015
_cell_angle_gamma   60.51264277
_symmetry_Int_Tables_number   1
_chemical_formula_structural   Mg10(Fe3O8)3
_chemical_formula_sum   'Mg10 Fe9 O24'
_cell_volume   469.92927263
_cell_formula_units_Z   1
loop_
 _symmetry_equiv_pos_site_id
 _symmetry_equiv_pos_as_xyz
  1  'x, y, z'
loop_
 _atom_site_type_symbol
 _atom_site_label
 _atom_site_symmetry_multiplicity
 _atom_site_fract_x
 _atom_site_fract_y
 _atom_site_fract_z
 _atom_site_occupancy
  Mg  Mg0  1  0.62599170  0.12360337  0.20799127  1
  Mg  Mg1  1  0.62217033  0.62786631  0.04214207  1
  Mg  Mg2  1  0.02257728  0.98853869  0.32749108  1
  Mg  Mg3  1  0.65056839  0.11945082  0.53541919  1
  Mg  Mg4  1  0.62945650  0.62500364  0.37288787  1
  Mg  Mg5  1  0.63241492  0.11564852  0.70913775  1
  Mg  Mg6  1  0.10091930  0.95713419  0.65709484  1
  Mg  Mg7  1  0.62633810  0.62559140  0.70722242  1
  Mg  Mg8  1  0.59962318  0.12650288  0.88257568  1
  Mg  Mg9  1  0.60008663  0.62537148  0.88341264  1
  Fe  Fe10  1  0.01228899  0.99795656  0.99641006  1
  Fe  Fe11  1  0.22938399  0.26352659  0.08638331  1
  Fe  Fe12  1  0.11653185  0.62792704  0.20956755  1
  Fe  Fe13  1  0.24684035  0.25642039  0.41939010  1
  Fe  Fe14  1  0.12810661  0.62235307  0.54505802  1
  Fe  Fe15  1  0.62411354  0.62757338  0.20986299  1
  Fe  Fe16  1  0.15181571  0.28704271  0.76044980  1
  Fe  Fe17  1  0.65704035  0.62601113  0.53504015  1
  Fe  Fe18  1  0.10500026  0.63591163  0.87413935  1
  O  O19  1  0.36834886  0.38885511  0.12953952  1
  O  O20  1  0.37108565  0.85801470  0.13101854  1
  O  O21  1  0.37765852  0.38299961  0.28623111  1
  O  O22  1  0.84514627  0.39278305  0.12968743  1
  O  O23  1  0.38076249  0.37863587  0.46434509  1
  O  O24  1  0.41583823  0.85417913  0.28462705  1
  O  O25  1  0.38322053  0.85144377  0.46389046  1
  O  O26  1  0.87470446  0.40103065  0.28380722  1
  O  O27  1  0.37994934  0.37121151  0.62689356  1
  O  O28  1  0.87366185  0.86711051  0.12924556  1
  O  O29  1  0.86227983  0.38288401  0.45999555  1
  O  O30  1  0.87947427  0.85715502  0.28444131  1
  O  O31  1  0.36194247  0.38251090  0.78897412  1
  O  O32  1  0.46412219  0.84492947  0.61133553  1
  O  O33  1  0.36052899  0.89248807  0.78796407  1
  O  O34  1  0.87952454  0.36715268  0.62561571  1
  O  O35  1  0.34850561  0.39602517  0.95493015  1
  O  O36  1  0.89889347  0.84729407  0.46457214  1
  O  O37  1  0.88427512  0.86391604  0.62683493  1
  O  O38  1  0.79564778  0.39825655  0.80212421  1
  O  O39  1  0.38476892  0.87087511  0.95935997  1
  O  O40  1  0.87088673  0.39651183  0.95422188  1
  O  O41  1  0.86236984  0.87538372  0.79387233  1
  O  O42  1  0.87013605  0.87391963  0.95312943  1
