# generated using pymatgen
data_C2S7Cl6
_symmetry_space_group_name_H-M   'P 1'
_cell_length_a   6.20228611
_cell_length_b   11.66074917
_cell_length_c   13.42646573
_cell_angle_alpha   101.16038042
_cell_angle_beta   94.94722354
_cell_angle_gamma   94.12312012
_symmetry_Int_Tables_number   1
_chemical_formula_structural   C2S7Cl6
_chemical_formula_sum   'C4 S14 Cl12'
_cell_volume   945.22729686
_cell_formula_units_Z   2
loop_
 _symmetry_equiv_pos_site_id
 _symmetry_equiv_pos_as_xyz
  1  'x, y, z'
loop_
 _atom_site_type_symbol
 _atom_site_label
 _atom_site_symmetry_multiplicity
 _atom_site_fract_x
 _atom_site_fract_y
 _atom_site_fract_z
 _atom_site_occupancy
  C  C0  1  0.99741672  0.46026428  0.18504658  1
  C  C1  1  0.56161321  0.04738765  0.82114437  1
  C  C2  1  0.43838679  0.95261235  0.17885563  1
  C  C3  1  0.00258328  0.53973572  0.81495342  1
  S  S4  1  0.77502307  0.77262661  0.37130599  1
  S  S5  1  0.15486614  0.23707740  0.37903399  1
  S  S6  1  0.63876846  0.71271002  0.48846225  1
  S  S7  1  0.36123154  0.28728998  0.51153775  1
  S  S8  1  0.92950051  0.50185830  0.67545990  1
  S  S9  1  0.22497693  0.22737339  0.62869401  1
  S  S10  1  0.70760953  0.94665215  0.38155116  1
  S  S11  1  0.29239047  0.05334785  0.61844884  1
  S  S12  1  0.40251166  0.94916291  0.31353599  1
  S  S13  1  0.59748834  0.05083709  0.68646401  1
  S  S14  1  0.93153180  0.36208177  0.37828717  1
  S  S15  1  0.06846820  0.63791823  0.62171283  1
  S  S16  1  0.07049949  0.49814170  0.32454010  1
  S  S17  1  0.84513386  0.76292260  0.62096601  1
  Cl  Cl18  1  0.10417594  0.32864796  0.12704851  1
  Cl  Cl19  1  0.12240584  0.58293825  0.14376842  1
  Cl  Cl20  1  0.28816443  0.55302859  0.84813655  1
  Cl  Cl21  1  0.71183557  0.44697141  0.15186345  1
  Cl  Cl22  1  0.87759416  0.41706175  0.85623158  1
  Cl  Cl23  1  0.89582406  0.67135204  0.87295149  1
  Cl  Cl24  1  0.55003276  0.82521389  0.11574806  1
  Cl  Cl25  1  0.44996724  0.17478611  0.88425194  1
  Cl  Cl26  1  0.60182013  0.07933341  0.16590401  1
  Cl  Cl27  1  0.39817987  0.92066659  0.83409599  1
  Cl  Cl28  1  0.16623997  0.95705641  0.12552145  1
  Cl  Cl29  1  0.83376003  0.04294359  0.87447855  1
