# generated using pymatgen
data_H8C3(NO)3
_symmetry_space_group_name_H-M   'P 1'
_cell_length_a   3.99916216
_cell_length_b   9.22597854
_cell_length_c   17.75523986
_cell_angle_alpha   90.00000000
_cell_angle_beta   90.00000000
_cell_angle_gamma   102.19310832
_symmetry_Int_Tables_number   1
_chemical_formula_structural   H8C3(NO)3
_chemical_formula_sum   'H32 C12 N12 O12'
_cell_volume   640.32238799
_cell_formula_units_Z   4
loop_
 _symmetry_equiv_pos_site_id
 _symmetry_equiv_pos_as_xyz
  1  'x, y, z'
loop_
 _atom_site_type_symbol
 _atom_site_label
 _atom_site_symmetry_multiplicity
 _atom_site_fract_x
 _atom_site_fract_y
 _atom_site_fract_z
 _atom_site_occupancy
  O  O0  1  0.80227670  0.23940514  0.47899919  1
  O  O1  1  0.19772330  0.26059486  0.97899919  1
  O  O2  1  0.19772330  0.76059486  0.52100081  1
  O  O3  1  0.80227670  0.73940514  0.02100081  1
  O  O4  1  0.64661167  0.02160763  0.62577493  1
  O  O5  1  0.35338833  0.47839237  0.12577493  1
  O  O6  1  0.35338833  0.97839237  0.37422507  1
  O  O7  1  0.64661167  0.52160763  0.87422507  1
  C  C8  1  0.63478523  0.10873022  0.49075700  1
  C  C9  1  0.36521477  0.39126978  0.99075700  1
  C  C10  1  0.36521477  0.89126978  0.50924300  1
  C  C11  1  0.63478523  0.60873022  0.00924300  1
  C  C12  1  0.56370107  0.01024163  0.55687674  1
  C  C13  1  0.43629893  0.48975837  0.05687674  1
  C  C14  1  0.43629893  0.98975837  0.44312326  1
  C  C15  1  0.56370107  0.51024163  0.94312326  1
  N  N16  1  0.37307171  0.51799171  0.70935819  1
  N  N17  1  0.62692829  0.98200829  0.20935819  1
  N  N18  1  0.62692829  0.48200829  0.29064181  1
  N  N19  1  0.37307171  0.01799171  0.79064181  1
  N  N20  1  0.21807780  0.44067882  0.58749133  1
  N  N21  1  0.78192220  0.05932118  0.08749133  1
  N  N22  1  0.78192220  0.55932118  0.41250867  1
  N  N23  1  0.21807780  0.94067882  0.91250867  1
  N  N24  1  0.05908576  0.28031426  0.68850405  1
  N  N25  1  0.94091424  0.21968574  0.18850405  1
  N  N26  1  0.94091424  0.71968574  0.31149595  1
  N  N27  1  0.05908576  0.78031426  0.81149595  1
  C  C28  1  0.21466331  0.41241106  0.66188445  1
  C  C29  1  0.78533669  0.08758894  0.16188445  1
  C  C30  1  0.78533669  0.58758894  0.33811555  1
  C  C31  1  0.21466331  0.91241106  0.83811555  1
  O  O32  1  0.86275534  0.76531839  0.65682215  1
  O  O33  1  0.13724466  0.73468161  0.15682215  1
  O  O34  1  0.13724466  0.23468161  0.34317785  1
  O  O35  1  0.86275534  0.26531839  0.84317785  1
  H  H36  1  0.53830578  0.61048104  0.68833575  1
  H  H37  1  0.46169422  0.88951896  0.18833575  1
  H  H38  1  0.46169422  0.38951896  0.31166425  1
  H  H39  1  0.53830578  0.11048104  0.81166425  1
  H  H40  1  0.39327391  0.49418220  0.76498361  1
  H  H41  1  0.60672609  0.00581780  0.26498361  1
  H  H42  1  0.60672609  0.50581780  0.23501639  1
  H  H43  1  0.39327391  0.99418220  0.73501639  1
  H  H44  1  0.06968591  0.36589425  0.55165961  1
  H  H45  1  0.93031409  0.13410575  0.05165961  1
  H  H46  1  0.93031409  0.63410575  0.44834039  1
  H  H47  1  0.06968591  0.86589425  0.94834039  1
  H  H48  1  0.29606573  0.54716803  0.56942061  1
  H  H49  1  0.70393427  0.95283197  0.06942061  1
  H  H50  1  0.70393427  0.45283197  0.43057939  1
  H  H51  1  0.29606573  0.04716803  0.93057939  1
  H  H52  1  0.91657137  0.19853820  0.65515531  1
  H  H53  1  0.08342863  0.30146180  0.15515531  1
  H  H54  1  0.08342863  0.80146180  0.34484469  1
  H  H55  1  0.91657137  0.69853820  0.84484469  1
  H  H56  1  0.03301243  0.26692095  0.74585751  1
  H  H57  1  0.96698757  0.23307905  0.24585751  1
  H  H58  1  0.96698757  0.73307905  0.25414249  1
  H  H59  1  0.03301243  0.76692095  0.75414249  1
  H  H60  1  0.77156083  0.85661286  0.64895963  1
  H  H61  1  0.22843917  0.64338714  0.14895963  1
  H  H62  1  0.22843917  0.14338714  0.35104037  1
  H  H63  1  0.77156083  0.35661286  0.85104037  1
  H  H64  1  0.99528670  0.75570199  0.61030732  1
  H  H65  1  0.00471330  0.74429801  0.11030732  1
  H  H66  1  0.00471330  0.24429801  0.38969268  1
  H  H67  1  0.99528670  0.25570199  0.88969268  1
