# generated using pymatgen
data_Ce2(WO4)3
_symmetry_space_group_name_H-M   'P 1'
_cell_length_a   7.14006166
_cell_length_b   7.14006166
_cell_length_c   11.75649847
_cell_angle_alpha   101.02738224
_cell_angle_beta   101.02738227
_cell_angle_gamma   111.94770621
_symmetry_Int_Tables_number   1
_chemical_formula_structural   Ce2(WO4)3
_chemical_formula_sum   'Ce4 W6 O24'
_cell_volume   522.42690840
_cell_formula_units_Z   2
loop_
 _symmetry_equiv_pos_site_id
 _symmetry_equiv_pos_as_xyz
  1  'x, y, z'
loop_
 _atom_site_type_symbol
 _atom_site_label
 _atom_site_symmetry_multiplicity
 _atom_site_fract_x
 _atom_site_fract_y
 _atom_site_fract_z
 _atom_site_occupancy
  O  O0  1  0.90091091  0.32540707  0.42903569  1
  O  O1  1  0.67459293  0.09908909  0.07096431  1
  O  O2  1  0.09908909  0.67459293  0.57096431  1
  O  O3  1  0.32540707  0.90091091  0.92903569  1
  O  O4  1  0.39992070  0.32846476  0.05963938  1
  O  O5  1  0.67153524  0.60007930  0.44036062  1
  O  O6  1  0.60007930  0.67153524  0.94036062  1
  O  O7  1  0.32846476  0.39992070  0.55963938  1
  O  O8  1  0.19362708  0.34983125  0.30439495  1
  O  O9  1  0.65016875  0.80637292  0.19560505  1
  O  O10  1  0.94711433  0.02747000  0.60939148  1
  O  O11  1  0.97253000  0.05288567  0.89060852  1
  O  O12  1  0.05288567  0.97253000  0.39060852  1
  O  O13  1  0.02747000  0.94711433  0.10939148  1
  O  O14  1  0.60265608  0.01197045  0.71887358  1
  O  O15  1  0.98802955  0.39734392  0.78112642  1
  O  O16  1  0.39734392  0.98802955  0.28112642  1
  O  O17  1  0.01197045  0.60265608  0.21887358  1
  O  O18  1  0.62398642  0.22816549  0.53963021  1
  O  O19  1  0.77183451  0.37601358  0.96036979  1
  O  O20  1  0.37601358  0.77183451  0.46036979  1
  O  O21  1  0.22816549  0.62398642  0.03963021  1
  O  O22  1  0.34983125  0.19362708  0.80439495  1
  O  O23  1  0.80637292  0.65016875  0.69560505  1
  Ce  Ce24  1  0.30697332  0.05232251  0.59487340  1
  Ce  Ce25  1  0.94767749  0.69302668  0.90512660  1
  Ce  Ce26  1  0.69302668  0.94767749  0.40512660  1
  Ce  Ce27  1  0.05232251  0.30697332  0.09487340  1
  W  W28  1  0.11564179  0.88435821  0.25000000  1
  W  W29  1  0.88435821  0.11564179  0.75000000  1
  W  W30  1  0.49390163  0.20077818  0.95352299  1
  W  W31  1  0.79922182  0.50609837  0.54647701  1
  W  W32  1  0.50609837  0.79922182  0.04647701  1
  W  W33  1  0.20077818  0.49390163  0.45352299  1
