# generated using pymatgen
data_La2CdSe4
_symmetry_space_group_name_H-M   'P 1'
_cell_length_a   7.87427844
_cell_length_b   7.87427823
_cell_length_c   7.87427911
_cell_angle_alpha   110.88918979
_cell_angle_beta   110.88919231
_cell_angle_gamma   106.67105077
_symmetry_Int_Tables_number   1
_chemical_formula_structural   La2CdSe4
_chemical_formula_sum   'La4 Cd2 Se8'
_cell_volume   375.17730725
_cell_formula_units_Z   2
loop_
 _symmetry_equiv_pos_site_id
 _symmetry_equiv_pos_as_xyz
  1  'x, y, z'
loop_
 _atom_site_type_symbol
 _atom_site_label
 _atom_site_symmetry_multiplicity
 _atom_site_fract_x
 _atom_site_fract_y
 _atom_site_fract_z
 _atom_site_occupancy
  Cd  Cd0  1  0.62500000  0.37500000  0.25000000  1
  Cd  Cd1  1  0.87500000  0.12500000  0.75000000  1
  La  La2  1  0.11195687  0.75000000  0.86195687  1
  La  La3  1  0.25000000  0.61195687  0.36195687  1
  La  La4  1  0.38804313  0.25000000  0.63804313  1
  La  La5  1  0.75000000  0.88804313  0.13804313  1
  Se  Se6  1  0.49504297  0.00930638  0.87547571  1
  Se  Se7  1  0.11956726  0.13383067  0.12452429  1
  Se  Se8  1  0.38043274  0.50495703  0.01426341  1
  Se  Se9  1  0.63383067  0.61956726  0.62452429  1
  Se  Se10  1  0.50930638  0.99504297  0.37547571  1
  Se  Se11  1  0.00495703  0.88043274  0.51426341  1
  Se  Se12  1  0.86616933  0.49069362  0.98573659  1
  Se  Se13  1  0.99069362  0.36616933  0.48573659  1
