# generated using pymatgen
data_FeTeS2N2Cl5
_symmetry_space_group_name_H-M   'P 1'
_cell_length_a   7.64162526
_cell_length_b   12.56750337
_cell_length_c   12.82016971
_cell_angle_alpha   90.00000000
_cell_angle_beta   97.39351343
_cell_angle_gamma   90.00000000
_symmetry_Int_Tables_number   1
_chemical_formula_structural   FeTeS2N2Cl5
_chemical_formula_sum   'Fe4 Te4 S8 N8 Cl20'
_cell_volume   1220.96323924
_cell_formula_units_Z   4
loop_
 _symmetry_equiv_pos_site_id
 _symmetry_equiv_pos_as_xyz
  1  'x, y, z'
loop_
 _atom_site_type_symbol
 _atom_site_label
 _atom_site_symmetry_multiplicity
 _atom_site_fract_x
 _atom_site_fract_y
 _atom_site_fract_z
 _atom_site_occupancy
  Fe  Fe0  1  0.72696413  0.85684951  0.46231617  1
  Fe  Fe1  1  0.27303587  0.35684951  0.03768383  1
  Fe  Fe2  1  0.27303587  0.14315049  0.53768383  1
  Fe  Fe3  1  0.72696413  0.64315049  0.96231617  1
  Te  Te4  1  0.13862915  0.93807697  0.26013548  1
  Te  Te5  1  0.86137085  0.43807697  0.23986452  1
  Te  Te6  1  0.86137085  0.06192303  0.73986452  1
  Te  Te7  1  0.13862915  0.56192303  0.76013548  1
  S  S8  1  0.62693527  0.98506726  0.83945734  1
  S  S9  1  0.29124063  0.69211816  0.58915703  1
  S  S10  1  0.37306473  0.48506726  0.66054266  1
  S  S11  1  0.29124063  0.80788184  0.08915703  1
  S  S12  1  0.62693527  0.51493274  0.33945734  1
  S  S13  1  0.70875937  0.30788184  0.41084297  1
  S  S14  1  0.70875937  0.19211816  0.91084297  1
  S  S15  1  0.37306473  0.01493274  0.16054266  1
  N  N16  1  0.39485443  0.91503059  0.08297149  1
  N  N17  1  0.39485443  0.58496941  0.58297149  1
  N  N18  1  0.83667660  0.30926170  0.32482271  1
  N  N19  1  0.60514557  0.41503059  0.41702851  1
  N  N20  1  0.16332340  0.80926170  0.17517729  1
  N  N21  1  0.83667660  0.19073830  0.82482271  1
  N  N22  1  0.60514557  0.08496941  0.91702851  1
  N  N23  1  0.16332340  0.69073830  0.67517729  1
  Cl  Cl24  1  0.12282872  0.99812976  0.84547991  1
  Cl  Cl25  1  0.05751615  0.23181526  0.60082582  1
  Cl  Cl26  1  0.05751615  0.26818474  0.10082582  1
  Cl  Cl27  1  0.26401411  0.16689137  0.36462079  1
  Cl  Cl28  1  0.87717128  0.00187024  0.15452009  1
  Cl  Cl29  1  0.12282872  0.50187024  0.34547991  1
  Cl  Cl30  1  0.73598589  0.66689137  0.13537921  1
  Cl  Cl31  1  0.75829741  0.02654446  0.43061808  1
  Cl  Cl32  1  0.47340080  0.70330319  0.87780590  1
  Cl  Cl33  1  0.24170259  0.52654446  0.06938192  1
  Cl  Cl34  1  0.94248385  0.73181526  0.89917418  1
  Cl  Cl35  1  0.75829741  0.47345554  0.93061808  1
  Cl  Cl36  1  0.24170259  0.97345554  0.56938192  1
  Cl  Cl37  1  0.73598589  0.83310863  0.63537921  1
  Cl  Cl38  1  0.94248385  0.76818474  0.39917418  1
  Cl  Cl39  1  0.47340080  0.79669681  0.37780590  1
  Cl  Cl40  1  0.87717128  0.49812976  0.65452009  1
  Cl  Cl41  1  0.26401411  0.33310863  0.86462079  1
  Cl  Cl42  1  0.52659920  0.20330319  0.62219410  1
  Cl  Cl43  1  0.52659920  0.29669681  0.12219410  1
