# generated using pymatgen
data_FeP2O7
_symmetry_space_group_name_H-M   'P 1'
_cell_length_a   6.56477326
_cell_length_b   6.41081001
_cell_length_c   6.98061844
_cell_angle_alpha   114.06492510
_cell_angle_beta   91.57214612
_cell_angle_gamma   84.64503059
_symmetry_Int_Tables_number   1
_chemical_formula_structural   FeP2O7
_chemical_formula_sum   'Fe2 P4 O14'
_cell_volume   267.05951024
_cell_formula_units_Z   2
loop_
 _symmetry_equiv_pos_site_id
 _symmetry_equiv_pos_as_xyz
  1  'x, y, z'
loop_
 _atom_site_type_symbol
 _atom_site_label
 _atom_site_symmetry_multiplicity
 _atom_site_fract_x
 _atom_site_fract_y
 _atom_site_fract_z
 _atom_site_occupancy
  O  O0  1  0.61588191  0.40553916  0.21073568  1
  O  O1  1  0.91194522  0.58724768  0.82405744  1
  O  O2  1  0.08805478  0.41275132  0.17594256  1
  O  O3  1  0.04645982  0.91072551  0.77271101  1
  O  O4  1  0.19793576  0.31559051  0.48840606  1
  O  O5  1  0.33964058  0.20752611  0.77922465  1
  O  O6  1  0.33288416  0.06371015  0.12254383  1
  O  O7  1  0.38411809  0.59446184  0.78926532  1
  O  O8  1  0.80206424  0.68441049  0.51159494  1
  O  O9  1  0.58007206  0.24000472  0.51586432  1
  O  O10  1  0.95353918  0.08927549  0.22728999  1
  O  O11  1  0.66711584  0.93629085  0.87745517  1
  O  O12  1  0.66035942  0.79247289  0.22077535  1
  O  O13  1  0.41992794  0.75999428  0.48413468  1
  P  P14  1  0.38481085  0.33961715  0.65010033  1
  P  P15  1  0.61518815  0.66038385  0.34990067  1
  P  P16  1  0.14205624  0.21797158  0.24644421  1
  P  P17  1  0.85794376  0.78202942  0.75355579  1
  Fe  Fe18  1  0.65074864  0.09751935  0.21563397  1
  Fe  Fe19  1  0.34925136  0.90248065  0.78436603  1
