# generated using pymatgen
data_Ho10Ti6O27
_symmetry_space_group_name_H-M   'P 1'
_cell_length_a   7.39899505
_cell_length_b   7.25256220
_cell_length_c   14.45108086
_cell_angle_alpha   59.87621471
_cell_angle_beta   59.25615032
_cell_angle_gamma   60.65254787
_symmetry_Int_Tables_number   1
_chemical_formula_structural   Ho10Ti6O27
_chemical_formula_sum   'Ho10 Ti6 O27'
_cell_volume   547.28386897
_cell_formula_units_Z   1
loop_
 _symmetry_equiv_pos_site_id
 _symmetry_equiv_pos_as_xyz
  1  'x, y, z'
loop_
 _atom_site_type_symbol
 _atom_site_label
 _atom_site_symmetry_multiplicity
 _atom_site_fract_x
 _atom_site_fract_y
 _atom_site_fract_z
 _atom_site_occupancy
  Ho  Ho0  1  0.53801375  0.98504132  0.99595180  1
  Ho  Ho1  1  0.99004763  0.51966798  0.23530821  1
  Ho  Ho2  1  0.50841211  0.49809892  0.25252750  1
  Ho  Ho3  1  0.99931998  0.48216793  0.76817208  1
  Ho  Ho4  1  0.53139542  0.48093634  0.50336595  1
  Ho  Ho5  1  0.50841211  0.98843397  0.25252750  1
  Ho  Ho6  1  0.55076980  0.48952004  0.73162409  1
  Ho  Ho7  1  0.01550008  0.96821873  0.27403123  1
  Ho  Ho8  1  0.55076980  0.99646199  0.73162409  1
  Ho  Ho9  1  0.46395943  0.52752033  0.99049996  1
  O  O10  1  0.13650772  0.15641335  0.31628749  1
  O  O11  1  0.08083645  0.66658628  0.04299549  1
  O  O12  1  0.61363029  0.15726694  0.06407423  1
  O  O13  1  0.13650772  0.57450394  0.31628749  1
  O  O14  1  0.32273631  0.34372670  0.47752097  1
  O  O15  1  0.37198234  0.87830313  0.18570571  1
  O  O16  1  0.03439222  0.77742219  0.45538170  1
  O  O17  1  0.97717674  0.08024700  0.86318078  1
  O  O18  1  0.61363029  0.60095430  0.06407423  1
  O  O19  1  0.61729895  0.10036553  0.34098499  1
  O  O20  1  0.91923244  0.33748006  0.16562613  1
  O  O21  1  0.63862057  0.61516063  0.31552909  1
  O  O22  1  0.66347653  0.08207147  0.53811233  1
  O  O23  1  0.32273631  0.87849506  0.47752097  1
  O  O24  1  0.97717674  0.71621469  0.86318078  1
  O  O25  1  0.36296813  0.37887833  0.68963760  1
  O  O26  1  0.32593816  0.35902259  0.94301581  1
  O  O27  1  0.31334867  0.91853998  0.67478568  1
  O  O28  1  0.89269923  0.30660676  0.49704362  1
  O  O29  1  0.91923244  0.91203524  0.16562613  1
  O  O30  1  0.66347653  0.67822734  0.53811233  1
  O  O31  1  0.67219131  0.11797716  0.79592719  1
  O  O32  1  0.62971791  0.62430223  0.81083882  1
  O  O33  1  0.93915202  0.37314000  0.66050046  1
  O  O34  1  0.32593816  0.92900764  0.94301581  1
  O  O35  1  0.93915202  0.86670707  0.66050046  1
  O  O36  1  0.97678903  0.30978999  0.95181549  1
  Ti  Ti37  1  0.01528323  0.99978511  0.00506807  1
  Ti  Ti38  1  0.01528323  0.47479551  0.00506807  1
  Ti  Ti39  1  0.02647941  0.48727299  0.49363126  1
  Ti  Ti40  1  0.02647941  -0.00101493  0.49363126  1
  Ti  Ti41  1  0.99573778  0.99596128  0.75616983  1
  Ti  Ti42  1  0.50259161  0.99268688  0.50601732  1
