# generated using pymatgen
data_Sr2CaCu2(BiO4)2
_symmetry_space_group_name_H-M   'P 1'
_cell_length_a   3.75245639
_cell_length_b   3.75245621
_cell_length_c   16.12815341
_cell_angle_alpha   96.68048930
_cell_angle_beta   96.68048896
_cell_angle_gamma   90.00000507
_symmetry_Int_Tables_number   1
_chemical_formula_structural   Sr2CaCu2(BiO4)2
_chemical_formula_sum   'Sr2 Ca1 Cu2 Bi2 O8'
_cell_volume   224.00489422
_cell_formula_units_Z   1
loop_
 _symmetry_equiv_pos_site_id
 _symmetry_equiv_pos_as_xyz
  1  'x, y, z'
loop_
 _atom_site_type_symbol
 _atom_site_label
 _atom_site_symmetry_multiplicity
 _atom_site_fract_x
 _atom_site_fract_y
 _atom_site_fract_z
 _atom_site_occupancy
  Sr  Sr0  1  0.89212309  0.89212309  0.78424618  1
  Sr  Sr1  1  0.10787691  0.10787691  0.21575382  1
  Ca  Ca2  1  0.00000000  0.00000000  0.00000000  1
  Cu  Cu3  1  0.54804187  0.54804187  0.09608374  1
  Cu  Cu4  1  0.45195813  0.45195813  0.90391626  1
  Bi  Bi5  1  0.30193421  0.30193421  0.60386841  1
  Bi  Bi6  1  0.69806579  0.69806579  0.39613159  1
  O  O7  1  0.19704665  0.19704665  0.39409329  1
  O  O8  1  0.94966350  0.44966350  0.89932700  1
  O  O9  1  0.05033650  0.55033650  0.10067300  1
  O  O10  1  0.80295335  0.80295335  0.60590671  1
  O  O11  1  0.36692798  0.36692798  0.73385597  1
  O  O12  1  0.63307202  0.63307202  0.26614403  1
  O  O13  1  0.44966350  0.94966350  0.89932700  1
  O  O14  1  0.55033650  0.05033650  0.10067300  1
