# generated using pymatgen
data_FeP2O7
_symmetry_space_group_name_H-M   'P 1'
_cell_length_a   9.05344528
_cell_length_b   8.43723085
_cell_length_c   6.98355702
_cell_angle_alpha   90.00000000
_cell_angle_beta   103.45329583
_cell_angle_gamma   90.00000000
_symmetry_Int_Tables_number   1
_chemical_formula_structural   FeP2O7
_chemical_formula_sum   'Fe4 P8 O28'
_cell_volume   518.80822178
_cell_formula_units_Z   4
loop_
 _symmetry_equiv_pos_site_id
 _symmetry_equiv_pos_as_xyz
  1  'x, y, z'
loop_
 _atom_site_type_symbol
 _atom_site_label
 _atom_site_symmetry_multiplicity
 _atom_site_fract_x
 _atom_site_fract_y
 _atom_site_fract_z
 _atom_site_occupancy
  Fe  Fe0  1  0.25011092  0.55609433  0.74973606  1
  Fe  Fe1  1  0.25011092  0.94390567  0.74973606  1
  Fe  Fe2  1  0.74988908  0.05609433  0.25026394  1
  Fe  Fe3  1  0.74988908  0.44390567  0.25026394  1
  O  O4  1  0.13453279  0.59692770  0.95954029  1
  O  O5  1  0.13453279  0.90307230  0.95954029  1
  O  O6  1  0.11185943  0.75000000  0.60167244  1
  O  O7  1  0.10952993  0.09980214  0.60901941  1
  O  O8  1  0.10952993  0.40019786  0.60901941  1
  O  O9  1  0.08099932  0.75000000  0.24194526  1
  O  O10  1  0.10947852  0.25000000  0.09691384  1
  O  O11  1  0.39060036  0.09979833  0.89081059  1
  O  O12  1  0.39060036  0.40020167  0.89081059  1
  O  O13  1  0.38840198  0.75000000  0.89746849  1
  O  O14  1  0.36538536  0.59690540  0.53970674  1
  O  O15  1  0.36538536  0.90309460  0.53970674  1
  O  O16  1  0.39062896  0.25000000  0.40516412  1
  O  O17  1  0.41803685  0.75000000  0.25680880  1
  O  O18  1  0.58196315  0.25000000  0.74319120  1
  O  O19  1  0.60937104  0.75000000  0.59483588  1
  O  O20  1  0.63461464  0.09690540  0.46029326  1
  O  O21  1  0.63461464  0.40309460  0.46029326  1
  O  O22  1  0.61159802  0.25000000  0.10253151  1
  O  O23  1  0.60939964  0.59979833  0.10918941  1
  O  O24  1  0.60939964  0.90020167  0.10918941  1
  O  O25  1  0.89052248  0.75000000  0.90308616  1
  O  O26  1  0.91900068  0.25000000  0.75805474  1
  O  O27  1  0.89047007  0.59980214  0.39098059  1
  O  O28  1  0.89047007  0.90019786  0.39098059  1
  O  O29  1  0.88814057  0.25000000  0.39832756  1
  O  O30  1  0.86546721  0.09692770  0.04045971  1
  O  O31  1  0.86546721  0.40307230  0.04045971  1
  P  P32  1  0.01580596  0.25000000  0.59088001  1
  P  P33  1  0.05957072  0.75000000  0.00785603  1
  P  P34  1  0.48436937  0.25000000  0.90954032  1
  P  P35  1  0.44011473  0.75000000  0.49103352  1
  P  P36  1  0.55988527  0.25000000  0.50896648  1
  P  P37  1  0.51563063  0.75000000  0.09045968  1
  P  P38  1  0.94042928  0.25000000  0.99214397  1
  P  P39  1  0.98419404  0.75000000  0.40911999  1
