# generated using pymatgen
data_SrTa2Bi2O9
_symmetry_space_group_name_H-M   'P 1'
_cell_length_a   5.70105650
_cell_length_b   5.59769863
_cell_length_c   15.18643973
_cell_angle_alpha   100.62028096
_cell_angle_beta   90.00000000
_cell_angle_gamma   90.00000000
_symmetry_Int_Tables_number   1
_chemical_formula_structural   SrTa2Bi2O9
_chemical_formula_sum   'Sr2 Ta4 Bi4 O18'
_cell_volume   476.33992720
_cell_formula_units_Z   2
loop_
 _symmetry_equiv_pos_site_id
 _symmetry_equiv_pos_as_xyz
  1  'x, y, z'
loop_
 _atom_site_type_symbol
 _atom_site_label
 _atom_site_symmetry_multiplicity
 _atom_site_fract_x
 _atom_site_fract_y
 _atom_site_fract_z
 _atom_site_occupancy
  Sr  Sr0  1  0.02214123  0.74723620  0.00000000  1
  Sr  Sr1  1  0.52214123  0.25276380  1.00000000  1
  Ta  Ta2  1  0.52226049  0.68204422  0.86075276  1
  Ta  Ta3  1  0.52226049  0.82129247  0.13924724  1
  Ta  Ta4  1  0.02226049  0.17870753  0.86075276  1
  Ta  Ta5  1  0.02226049  0.31795578  0.13924724  1
  Bi  Bi6  1  0.49405251  0.54301670  0.59436080  1
  Bi  Bi7  1  0.99405251  0.45698330  0.40563920  1
  Bi  Bi8  1  0.49405251  0.94865590  0.40563920  1
  Bi  Bi9  1  0.99405251  0.05134410  0.59436080  1
  O  O10  1  0.26942060  0.43349112  0.86652805  1
  O  O11  1  0.51874883  0.92832236  0.26615241  1
  O  O12  1  0.23578193  0.76699250  0.54797132  1
  O  O13  1  0.73578193  0.23300750  0.45202868  1
  O  O14  1  0.01874883  0.07167764  0.73384759  1
  O  O15  1  0.77015052  0.05877180  0.11836096  1
  O  O16  1  0.27015052  0.94122820  0.88163904  1
  O  O17  1  0.73578193  0.78097882  0.54797132  1
  O  O18  1  0.01893002  0.27526020  0.00000000  1
  O  O19  1  0.26942060  0.56696307  0.13347195  1
  O  O20  1  0.01874883  0.33783005  0.26615241  1
  O  O21  1  0.76942060  0.56650888  0.13347195  1
  O  O22  1  0.76942060  0.43303693  0.86652805  1
  O  O23  1  0.23578193  0.21902118  0.45202868  1
  O  O24  1  0.51893002  0.72473980  1.00000000  1
  O  O25  1  0.77015052  0.94041085  0.88163904  1
  O  O26  1  0.51874883  0.66216995  0.73384759  1
  O  O27  1  0.27015052  0.05958915  0.11836096  1
