# generated using pymatgen
data_Sb4RuC6(O3F11)2
_symmetry_space_group_name_H-M   'P 1'
_cell_length_a   9.99189137
_cell_length_b   10.77875276
_cell_length_c   12.78376824
_cell_angle_alpha   90.00000000
_cell_angle_beta   90.00000000
_cell_angle_gamma   110.79486203
_symmetry_Int_Tables_number   1
_chemical_formula_structural   Sb4RuC6(O3F11)2
_chemical_formula_sum   'Sb8 Ru2 C12 O12 F44'
_cell_volume   1287.12441135
_cell_formula_units_Z   2
loop_
 _symmetry_equiv_pos_site_id
 _symmetry_equiv_pos_as_xyz
  1  'x, y, z'
loop_
 _atom_site_type_symbol
 _atom_site_label
 _atom_site_symmetry_multiplicity
 _atom_site_fract_x
 _atom_site_fract_y
 _atom_site_fract_z
 _atom_site_occupancy
  Sb  Sb0  1  0.40334429  0.00351126  0.70021539  1
  Sb  Sb1  1  0.09665571  0.49648874  0.20021539  1
  Sb  Sb2  1  0.48527589  0.72652623  0.86837828  1
  Sb  Sb3  1  0.01472411  0.77347377  0.36837828  1
  Sb  Sb4  1  0.90334429  0.50351126  0.79978461  1
  Sb  Sb5  1  0.98527589  0.22652623  0.63162172  1
  Sb  Sb6  1  0.51472411  0.27347377  0.13162172  1
  Sb  Sb7  1  0.59665571  0.99648874  0.29978461  1
  Ru  Ru8  1  0.00000000  0.00000000  0.00000000  1
  Ru  Ru9  1  0.50000000  0.50000000  0.50000000  1
  C  C10  1  0.65665367  0.42621084  0.47691441  1
  C  C11  1  0.35739886  0.32754518  0.44668508  1
  C  C12  1  0.97641708  0.92645189  0.85331296  1
  C  C13  1  0.34334633  0.57378916  0.52308559  1
  C  C14  1  0.52358292  0.57354811  0.35331296  1
  C  C15  1  0.64260114  0.67245482  0.55331492  1
  C  C16  1  0.47641708  0.42645189  0.64668704  1
  C  C17  1  0.84334633  0.07378916  0.97691441  1
  C  C18  1  0.14260114  0.17245482  0.94668508  1
  C  C19  1  0.15665367  0.92621084  0.02308559  1
  C  C20  1  0.85739886  0.82754518  0.05331492  1
  C  C21  1  0.02358292  0.07354811  0.14668704  1
  O  O22  1  0.03404968  0.11611393  0.22883595  1
  O  O23  1  0.46595032  0.38388607  0.72883595  1
  O  O24  1  0.53404968  0.61611393  0.27116405  1
  O  O25  1  0.75707558  0.11862310  0.96651368  1
  O  O26  1  0.25707558  0.61862310  0.53348632  1
  O  O27  1  0.72212358  0.77000705  0.58319589  1
  O  O28  1  0.96595032  0.88388607  0.77116405  1
  O  O29  1  0.27787642  0.22999295  0.41680411  1
  O  O30  1  0.74292442  0.38137690  0.46651368  1
  O  O31  1  0.77787642  0.72999295  0.08319589  1
  O  O32  1  0.24292442  0.88137690  0.03348632  1
  O  O33  1  0.22212358  0.27000705  0.91680411  1
  F  F34  1  0.92482205  0.38995926  0.26620835  1
  F  F35  1  0.47328462  0.17568755  0.00443595  1
  F  F36  1  0.49705773  0.07933038  0.38480329  1
  F  F37  1  0.10107043  0.63705952  0.31579710  1
  F  F38  1  0.55317186  0.34743845  0.27008213  1
  F  F39  1  0.56424594  0.59875450  0.91079981  1
  F  F40  1  0.44682814  0.65256155  0.72991787  1
  F  F41  1  0.77232772  0.12060154  0.34750836  1
  F  F42  1  0.60107043  0.13705952  0.18420290  1
  F  F43  1  0.06424594  0.09875450  0.58920019  1
  F  F44  1  0.83349144  0.65518099  0.31821765  1
  F  F45  1  0.40940786  0.14062033  0.60392970  1
  F  F46  1  0.94682814  0.15256155  0.77008213  1
  F  F47  1  0.70354108  0.37190238  0.08896551  1
  F  F48  1  0.79500255  0.55879599  0.69740095  1
  F  F49  1  0.33349144  0.15518099  0.18178235  1
  F  F50  1  0.90940786  0.64062033  0.89607030  1
  F  F51  1  0.43575406  0.40124550  0.08920019  1
  F  F52  1  0.00294227  0.42066962  0.88480329  1
  F  F53  1  0.99705773  0.57933038  0.11519671  1
  F  F54  1  0.39892957  0.86294048  0.81579710  1
  F  F55  1  0.70499745  0.94120401  0.19740095  1
  F  F56  1  0.97328462  0.67568755  0.49556405  1
  F  F57  1  0.02671538  0.32431245  0.50443595  1
  F  F58  1  0.16650856  0.34481901  0.68178235  1
  F  F59  1  0.42482205  0.88995926  0.23379165  1
  F  F60  1  0.79645892  0.12809762  0.58896551  1
  F  F61  1  0.05317186  0.84743845  0.22991787  1
  F  F62  1  0.29500255  0.05879599  0.80259905  1
  F  F63  1  0.20354108  0.87190238  0.41103449  1
  F  F64  1  0.72767228  0.37939846  0.84750836  1
  F  F65  1  0.57517795  0.11004074  0.76620835  1
  F  F66  1  0.52671538  0.82431245  0.99556405  1
  F  F67  1  0.93575406  0.90124550  0.41079981  1
  F  F68  1  0.20499745  0.44120401  0.30259905  1
  F  F69  1  0.89892957  0.36294048  0.68420290  1
  F  F70  1  0.29645892  0.62809762  0.91103449  1
  F  F71  1  0.59059214  0.85937967  0.39607030  1
  F  F72  1  0.07517795  0.61004074  0.73379165  1
  F  F73  1  0.66650856  0.84481901  0.81821765  1
  F  F74  1  0.09059214  0.35937967  0.10392970  1
  F  F75  1  0.22767228  0.87939846  0.65249164  1
  F  F76  1  0.50294227  0.92066962  0.61519671  1
  F  F77  1  0.27232772  0.62060154  0.15249164  1
