# generated using pymatgen
data_Na2LaPS2O7
_symmetry_space_group_name_H-M   'P 1'
_cell_length_a   5.42719578
_cell_length_b   9.82527896
_cell_length_c   14.92277900
_cell_angle_alpha   87.94884116
_cell_angle_beta   90.00000000
_cell_angle_gamma   90.00000000
_symmetry_Int_Tables_number   1
_chemical_formula_structural   Na2LaPS2O7
_chemical_formula_sum   'Na8 La4 P4 S8 O28'
_cell_volume   795.22812207
_cell_formula_units_Z   4
loop_
 _symmetry_equiv_pos_site_id
 _symmetry_equiv_pos_as_xyz
  1  'x, y, z'
loop_
 _atom_site_type_symbol
 _atom_site_label
 _atom_site_symmetry_multiplicity
 _atom_site_fract_x
 _atom_site_fract_y
 _atom_site_fract_z
 _atom_site_occupancy
  Na  Na0  1  0.00000000  0.50000000  0.00000000  1
  Na  Na1  1  0.00117942  0.18015638  0.40243390  1
  Na  Na2  1  0.50000000  0.00000000  0.50000000  1
  Na  Na3  1  0.99882058  0.81984362  0.59756610  1
  Na  Na4  1  0.50117942  0.31984362  0.59756610  1
  Na  Na5  1  0.50000000  0.00000000  0.00000000  1
  Na  Na6  1  0.49882058  0.68015638  0.40243390  1
  Na  Na7  1  0.00000000  0.50000000  0.50000000  1
  La  La8  1  0.46787036  0.02859446  0.22118706  1
  La  La9  1  0.96787036  0.47140554  0.77881294  1
  La  La10  1  0.03212964  0.52859446  0.22118706  1
  La  La11  1  0.53212964  0.97140554  0.77881294  1
  P  P12  1  0.52437066  0.68460761  0.15044353  1
  P  P13  1  0.47562934  0.31539239  0.84955647  1
  P  P14  1  0.97562934  0.18460761  0.15044353  1
  P  P15  1  0.02437066  0.81539239  0.84955647  1
  S  S16  1  0.98490768  0.15955523  0.76059450  1
  S  S17  1  0.48596855  0.64916486  0.62940246  1
  S  S18  1  0.48490768  0.34044477  0.23940550  1
  S  S19  1  0.51403145  0.35083514  0.37059754  1
  S  S20  1  0.51509232  0.65955523  0.76059450  1
  S  S21  1  0.01403145  0.14916486  0.62940246  1
  S  S22  1  0.98596855  0.85083514  0.37059754  1
  S  S23  1  0.01509232  0.84044477  0.23940550  1
  O  O24  1  0.23140892  0.37524227  0.88645872  1
  O  O25  1  0.98833710  0.34099407  0.12967369  1
  O  O26  1  0.48833710  0.15900593  0.87032631  1
  O  O27  1  0.01772931  0.84588309  0.74554891  1
  O  O28  1  0.73190875  0.89907229  0.39379340  1
  O  O29  1  0.76859108  0.62475773  0.11354128  1
  O  O30  1  0.98227069  0.15411691  0.25445109  1
  O  O31  1  0.29738562  0.61189673  0.11001098  1
  O  O32  1  0.47371521  0.21275333  0.41549634  1
  O  O33  1  0.23190875  0.60092771  0.60620660  1
  O  O34  1  0.01166290  0.65900593  0.87032631  1
  O  O35  1  0.73140892  0.12475773  0.11354128  1
  O  O36  1  0.51166290  0.84099407  0.12967369  1
  O  O37  1  0.17242453  0.94784187  0.40645560  1
  O  O38  1  0.20261438  0.11189673  0.11001098  1
  O  O39  1  0.97371521  0.28724667  0.58450366  1
  O  O40  1  0.26859108  0.87524227  0.88645872  1
  O  O41  1  0.82757547  0.05215813  0.59354440  1
  O  O42  1  0.70261438  0.38810327  0.88998902  1
  O  O43  1  0.48227069  0.34588309  0.74554891  1
  O  O44  1  0.51772931  0.65411691  0.25445109  1
  O  O45  1  0.79738562  0.88810327  0.88998902  1
  O  O46  1  0.26809125  0.10092771  0.60620660  1
  O  O47  1  0.32757547  0.44784187  0.40645560  1
  O  O48  1  0.02628479  0.71275333  0.41549634  1
  O  O49  1  0.67242453  0.55215813  0.59354440  1
  O  O50  1  0.76809125  0.39907229  0.39379340  1
  O  O51  1  0.52628479  0.78724667  0.58450366  1
