# generated using pymatgen
data_BaMn2O8
_symmetry_space_group_name_H-M   'P 1'
_cell_length_a   9.08515702
_cell_length_b   9.08515753
_cell_length_c   7.23143455
_cell_angle_alpha   106.14109161
_cell_angle_beta   106.14109022
_cell_angle_gamma   123.87891989
_symmetry_Int_Tables_number   1
_chemical_formula_structural   BaMn2O8
_chemical_formula_sum   'Ba2 Mn4 O16'
_cell_volume   399.74439339
_cell_formula_units_Z   2
loop_
 _symmetry_equiv_pos_site_id
 _symmetry_equiv_pos_as_xyz
  1  'x, y, z'
loop_
 _atom_site_type_symbol
 _atom_site_label
 _atom_site_symmetry_multiplicity
 _atom_site_fract_x
 _atom_site_fract_y
 _atom_site_fract_z
 _atom_site_occupancy
  Ba  Ba0  1  0.12500000  0.87500000  0.75000000  1
  Ba  Ba1  1  0.87500000  0.12500000  0.25000000  1
  Mn  Mn2  1  0.64734366  0.35265634  0.25000000  1
  Mn  Mn3  1  0.10265634  0.89734366  0.25000000  1
  Mn  Mn4  1  0.35265634  0.64734366  0.75000000  1
  Mn  Mn5  1  0.89734366  0.10265634  0.75000000  1
  O  O6  1  0.82301019  0.90936158  0.78639873  1
  O  O7  1  0.17698981  0.09063842  0.21360127  1
  O  O8  1  0.87703715  0.46338854  0.28639873  1
  O  O9  1  0.02947814  0.70963758  0.02403837  1
  O  O10  1  0.46338854  0.87703715  0.78639873  1
  O  O11  1  0.12296285  0.53661146  0.71360127  1
  O  O12  1  0.68559921  0.50543977  0.47596163  1
  O  O13  1  0.49456023  0.31440079  0.02403837  1
  O  O14  1  0.90936158  0.82301019  0.28639873  1
  O  O15  1  0.70963758  0.02947814  0.52403837  1
  O  O16  1  0.29036242  0.97052186  0.47596163  1
  O  O17  1  0.97052186  0.29036242  0.97596163  1
  O  O18  1  0.31440079  0.49456023  0.52403837  1
  O  O19  1  0.09063842  0.17698981  0.71360127  1
  O  O20  1  0.50543977  0.68559921  0.97596163  1
  O  O21  1  0.53661146  0.12296285  0.21360127  1
