# generated using pymatgen
data_SnH58C16S4(N11O9)2
_symmetry_space_group_name_H-M   'P 1'
_cell_length_a   7.45973895
_cell_length_b   10.77129204
_cell_length_c   16.27149817
_cell_angle_alpha   104.81355639
_cell_angle_beta   91.76679923
_cell_angle_gamma   104.79809996
_symmetry_Int_Tables_number   1
_chemical_formula_structural   SnH58C16S4(N11O9)2
_chemical_formula_sum   'Sn1 H58 C16 S4 N22 O18'
_cell_volume   1215.57183742
_cell_formula_units_Z   1
loop_
 _symmetry_equiv_pos_site_id
 _symmetry_equiv_pos_as_xyz
  1  'x, y, z'
loop_
 _atom_site_type_symbol
 _atom_site_label
 _atom_site_symmetry_multiplicity
 _atom_site_fract_x
 _atom_site_fract_y
 _atom_site_fract_z
 _atom_site_occupancy
  Sn  Sn0  1  0.00000000  0.50000000  0.00000000  1
  H  H1  1  0.29263626  0.27616647  0.48320214  1
  H  H2  1  0.20058543  0.75470089  0.02657566  1
  H  H3  1  1.00773121  0.25235784  0.33762488  1
  H  H4  1  0.70736374  0.72383353  0.51679786  1
  H  H5  1  0.15493091  0.89677061  0.53138678  1
  H  H6  1  0.67577629  0.48811051  0.74896609  1
  H  H7  1  0.38425136  0.95584298  0.83174832  1
  H  H8  1  0.13645712  0.39204491  0.71455041  1
  H  H9  1  0.40349190  0.74313499  0.50972000  1
  H  H10  1  0.88786511  0.94646485  0.41738399  1
  H  H11  1  0.22466102  0.38911382  0.56647987  1
  H  H12  1  0.64588351  0.41002524  0.33096370  1
  H  H13  1  0.35411649  0.58997476  0.66903630  1
  H  H14  1  0.86354288  0.60795509  0.28544959  1
  H  H15  1  0.51934653  0.99145136  0.92836836  1
  H  H16  1  0.81074239  0.59990008  0.64205542  1
  H  H17  1  0.25939368  0.84571731  0.22780358  1
  H  H18  1  0.59650810  0.25686501  0.49028000  1
  H  H19  1  0.96373267  0.97517172  0.92232347  1
  H  H20  1  0.79941457  0.24529911  0.97342434  1
  H  H21  1  0.69031597  0.69003361  0.27536470  1
  H  H22  1  0.39227733  0.30814347  0.19454780  1
  H  H23  1  0.18925761  0.40009992  0.35794458  1
  H  H24  1  0.67873947  0.78049737  0.91107031  1
  H  H25  1  0.74060632  0.15428269  0.77219642  1
  H  H26  1  0.25173031  0.30539314  0.93806286  1
  H  H27  1  0.48065347  0.00854864  0.07163164  1
  H  H28  1  0.32422371  0.51188949  0.25103391  1
  H  H29  1  0.32126053  0.21950263  0.08892969  1
  H  H30  1  0.37207881  0.25802945  0.84883105  1
  H  H31  1  0.30381391  0.64851254  0.95028523  1
  H  H32  1  0.29660005  0.74268668  0.69155739  1
  H  H33  1  0.31301626  0.05015907  0.52332669  1
  H  H34  1  0.68698374  0.94984093  0.47667331  1
  H  H35  1  0.70339995  0.25731332  0.30844261  1
  H  H36  1  0.60772267  0.69185653  0.80545220  1
  H  H37  1  -0.00773121  0.74764216  0.66237512  1
  H  H38  1  0.11213489  0.05353515  0.58261601  1
  H  H39  1  0.03626733  0.02482828  0.07767653  1
  H  H40  1  0.84506909  0.10322939  0.46861322  1
  H  H41  1  0.69618609  0.35148746  0.04971477  1
  H  H42  1  0.83334541  0.44419922  0.81192568  1
  H  H43  1  0.61574864  0.04415702  0.16825168  1
  H  H44  1  0.65859217  0.33853660  0.93794535  1
  H  H45  1  0.77533898  0.61088618  0.43352013  1
  H  H46  1  0.14874611  0.84647945  0.32425869  1
  H  H47  1  0.16665459  0.55580078  0.18807432  1
  H  H48  1  0.85125389  0.15352055  0.67574131  1
  H  H49  1  0.94516918  0.09415908  0.75710629  1
  H  H50  1  0.76585663  0.36908649  0.57245653  1
  H  H51  1  0.07418355  0.94403851  0.82751648  1
  H  H52  1  0.30968403  0.30996639  0.72463530  1
  H  H53  1  0.34140783  0.66146340  0.06205465  1
  H  H54  1  0.92581645  0.05596149  0.17248352  1
  H  H55  1  0.23414337  0.63091351  0.42754347  1
  H  H56  1  0.05483082  0.90584092  0.24289371  1
  H  H57  1  0.74826969  0.69460686  0.06193714  1
  H  H58  1  0.62792119  0.74197055  0.15116895  1
  C  C59  1  0.82101764  0.64276648  0.16811694  1
  C  C60  1  0.75229678  0.99937558  0.06100800  1
  C  C61  1  0.50240488  0.39488000  0.57913342  1
  C  C62  1  0.24229519  0.66166037  0.01112276  1
  C  C63  1  0.92663901  0.42535631  0.34764785  1
  C  C64  1  0.78029141  0.99771294  0.43635042  1
  C  C65  1  0.81817781  0.10224343  0.72570853  1
  C  C66  1  0.49759512  0.60512000  0.42086658  1
  C  C67  1  0.75770481  0.33833963  0.98887724  1
  C  C68  1  0.74547330  0.60275280  0.87430134  1
  C  C69  1  0.21970859  0.00228706  0.56364958  1
  C  C70  1  0.17898236  0.35723352  0.83188306  1
  C  C71  1  0.24770322  0.00062442  0.93899200  1
  C  C72  1  0.25452670  0.39724720  0.12569866  1
  C  C73  1  0.18182219  0.89775657  0.27429147  1
  C  C74  1  0.07336099  0.57464369  0.65235215  1
  S  S75  1  0.64863183  0.98759576  0.34105666  1
  S  S76  1  0.67810564  0.93645728  0.67799202  1
  S  S77  1  0.35136817  0.01240424  0.65894334  1
  S  S78  1  0.32189436  0.06354272  0.32200798  1
  N  N79  1  0.26191914  0.50372774  0.19184967  1
  N  N80  1  0.91721129  0.02458414  0.10781931  1
  N  N81  1  0.34739872  0.30874778  0.13511494  1
  N  N82  1  0.25470487  0.64142215  0.67662602  1
  N  N83  1  0.36896556  0.66576123  0.45569726  1
  N  N84  1  0.50859759  0.94525554  0.61843142  1
  N  N85  1  0.71636265  0.69117652  0.12200019  1
  N  N86  1  0.08278871  0.97541586  0.89218069  1
  N  N87  1  0.95026322  0.64655437  0.64918718  1
  N  N88  1  0.04973678  0.35344563  0.35081282  1
  N  N89  1  0.65260128  0.69125222  0.86488506  1
  N  N90  1  0.32635640  0.34862696  0.54000608  1
  N  N91  1  0.74529513  0.35857785  0.32337398  1
  N  N92  1  0.67364360  0.65137304  0.45999392  1
  N  N93  1  0.28363735  0.30882348  0.87799981  1
  N  N94  1  0.39955329  0.99331869  0.89635475  1
  N  N95  1  0.78692199  0.64487007  0.24850841  1
  N  N96  1  0.63103444  0.33423877  0.54430274  1
  N  N97  1  0.73808086  0.49627226  0.80815033  1
  N  N98  1  0.60044671  0.00668131  0.10364525  1
  N  N99  1  0.21307801  0.35512993  0.75149159  1
  N  N100  1  0.49140241  0.05474446  0.38156858  1
  O  O101  1  0.73947924  0.96624284  0.97954326  1
  O  O102  1  0.02029170  0.44713241  0.63324896  1
  O  O103  1  0.95330125  0.59539794  0.13585646  1
  O  O104  1  0.22934612  0.93223132  0.70714790  1
  O  O105  1  0.16608641  0.37937607  0.05241634  1
  O  O106  1  0.04669875  0.40460206  0.86414354  1
  O  O107  1  0.38263298  0.12217855  0.25246678  1
  O  O108  1  0.42542093  0.15346756  0.70637207  1
  O  O109  1  0.20961590  0.13035944  0.38066768  1
  O  O110  1  0.83391359  0.62062393  0.94758366  1
  O  O111  1  0.77065388  0.06776868  0.29285210  1
  O  O112  1  0.57457907  0.84653244  0.29362793  1
  O  O113  1  0.54597583  0.49184063  0.64699454  1
  O  O114  1  0.97970830  0.55286759  0.36675104  1
  O  O115  1  0.79038410  0.86964056  0.61933232  1
  O  O116  1  0.45402417  0.50815937  0.35300546  1
  O  O117  1  0.26052076  0.03375716  0.02045674  1
  O  O118  1  0.61736702  0.87782145  0.74753322  1
