# generated using pymatgen
data_FeSe2NCl6
_symmetry_space_group_name_H-M   'P 1'
_cell_length_a   10.21905988
_cell_length_b   10.93136589
_cell_length_c   11.82470965
_cell_angle_alpha   90.00000000
_cell_angle_beta   90.00000000
_cell_angle_gamma   114.39162665
_symmetry_Int_Tables_number   1
_chemical_formula_structural   FeSe2NCl6
_chemical_formula_sum   'Fe4 Se8 N4 Cl24'
_cell_volume   1203.01818011
_cell_formula_units_Z   4
loop_
 _symmetry_equiv_pos_site_id
 _symmetry_equiv_pos_as_xyz
  1  'x, y, z'
loop_
 _atom_site_type_symbol
 _atom_site_label
 _atom_site_symmetry_multiplicity
 _atom_site_fract_x
 _atom_site_fract_y
 _atom_site_fract_z
 _atom_site_occupancy
  Fe  Fe0  1  0.32668062  0.01218926  0.80666153  1
  Fe  Fe1  1  0.32668062  0.51218926  0.69333847  1
  Fe  Fe2  1  0.67331938  0.48781074  0.30666153  1
  Fe  Fe3  1  0.67331938  0.98781074  0.19333847  1
  Se  Se4  1  0.71188768  0.37717554  0.68308865  1
  Se  Se5  1  0.28811232  0.62282446  0.31691135  1
  Se  Se6  1  0.77305328  0.45194818  0.95493520  1
  Se  Se7  1  0.71188768  0.87717554  0.81691135  1
  Se  Se8  1  0.77305328  0.95194818  0.54506480  1
  Se  Se9  1  0.22694672  0.04805182  0.45493520  1
  Se  Se10  1  0.28811232  0.12282446  0.18308865  1
  Se  Se11  1  0.22694672  0.54805182  0.04506480  1
  N  N12  1  0.28673983  0.12975417  0.32888892  1
  N  N13  1  0.28673983  0.62975417  0.17111108  1
  N  N14  1  0.71326017  0.37024583  0.82888892  1
  N  N15  1  0.71326017  0.87024583  0.67111108  1
  Cl  Cl16  1  0.33399546  0.17736062  0.91701466  1
  Cl  Cl17  1  0.33399546  0.67736062  0.58298534  1
  Cl  Cl18  1  0.64770161  0.64720242  0.40472316  1
  Cl  Cl19  1  0.64770161  0.14720242  0.09527684  1
  Cl  Cl20  1  0.07634190  0.83988575  0.42183583  1
  Cl  Cl21  1  0.87802808  0.06622358  0.28788762  1
  Cl  Cl22  1  0.35229839  0.85279758  0.90472316  1
  Cl  Cl23  1  0.87802808  0.56622358  0.21211238  1
  Cl  Cl24  1  0.07634190  0.33988575  0.07816417  1
  Cl  Cl25  1  0.13312916  0.42143268  0.36605073  1
  Cl  Cl26  1  0.66600454  0.82263938  0.08298534  1
  Cl  Cl27  1  0.92365810  0.66011425  0.92183583  1
  Cl  Cl28  1  0.13312916  0.92143268  0.13394927  1
  Cl  Cl29  1  0.92365810  0.16011425  0.57816417  1
  Cl  Cl30  1  0.49530414  0.91281812  0.32101579  1
  Cl  Cl31  1  0.12197192  0.43377642  0.78788762  1
  Cl  Cl32  1  0.49530414  0.41281812  0.17898421  1
  Cl  Cl33  1  0.50469586  0.08718188  0.67898421  1
  Cl  Cl34  1  0.66600454  0.32263938  0.41701466  1
  Cl  Cl35  1  0.50469586  0.58718188  0.82101579  1
  Cl  Cl36  1  0.35229839  0.35279758  0.59527684  1
  Cl  Cl37  1  0.86687084  0.07856732  0.86605073  1
  Cl  Cl38  1  0.86687084  0.57856732  0.63394927  1
  Cl  Cl39  1  0.12197192  0.93377642  0.71211238  1
