# generated using pymatgen
data_H8C3N2O
_symmetry_space_group_name_H-M   'P 1'
_cell_length_a   6.11167794
_cell_length_b   8.81598273
_cell_length_c   9.44885404
_cell_angle_alpha   109.54615998
_cell_angle_beta   90.00000000
_cell_angle_gamma   90.00000000
_symmetry_Int_Tables_number   1
_chemical_formula_structural   H8C3N2O
_chemical_formula_sum   'H32 C12 N8 O4'
_cell_volume   479.76970809
_cell_formula_units_Z   4
loop_
 _symmetry_equiv_pos_site_id
 _symmetry_equiv_pos_as_xyz
  1  'x, y, z'
loop_
 _atom_site_type_symbol
 _atom_site_label
 _atom_site_symmetry_multiplicity
 _atom_site_fract_x
 _atom_site_fract_y
 _atom_site_fract_z
 _atom_site_occupancy
  H  H0  1  0.75125738  0.73831092  0.95745993  1
  H  H1  1  0.05384691  0.45394233  0.62978749  1
  H  H2  1  0.95327801  0.09163356  0.62107801  1
  H  H3  1  1.00053309  0.83646630  0.03569996  1
  H  H4  1  0.04672199  0.90836644  0.37892199  1
  H  H5  1  0.65595688  0.10001371  0.16090636  1
  H  H6  1  0.55384691  0.04605767  0.87021251  1
  H  H7  1  0.18103749  0.55860816  0.26208158  1
  H  H8  1  0.60133170  0.35102131  0.36301477  1
  H  H9  1  0.10133170  0.14897869  0.13698523  1
  H  H10  1  0.94615309  0.54605767  0.37021251  1
  H  H11  1  0.81896251  0.44139184  0.73791842  1
  H  H12  1  0.54672199  0.59163356  0.12107801  1
  H  H13  1  0.39866830  0.64897869  0.63698523  1
  H  H14  1  -0.00053309  0.16353370  0.96430004  1
  H  H15  1  0.74156958  0.63811362  0.26514739  1
  H  H16  1  0.74874262  0.23831092  0.45745993  1
  H  H17  1  0.25843042  0.36188638  0.73485261  1
  H  H18  1  0.44615309  0.95394233  0.12978749  1
  H  H19  1  0.25125738  0.76168908  0.54254007  1
  H  H20  1  0.31896251  0.05860816  0.76208158  1
  H  H21  1  0.45327801  0.40836644  0.87892199  1
  H  H22  1  0.15595688  0.39998629  0.33909364  1
  H  H23  1  0.68103749  0.94139184  0.23791842  1
  H  H24  1  0.49946691  0.33646630  0.53569996  1
  H  H25  1  0.34404312  0.89998629  0.83909364  1
  H  H26  1  0.75843042  0.13811362  0.76514739  1
  H  H27  1  0.24156958  0.86188638  0.23485261  1
  H  H28  1  0.24874262  0.26168908  0.04254007  1
  H  H29  1  0.84404312  0.60001371  0.66090636  1
  H  H30  1  0.89866830  0.85102131  0.86301477  1
  H  H31  1  0.50053309  0.66353370  0.46430004  1
  C  C32  1  0.58382022  0.27167270  0.43096748  1
  C  C33  1  0.06506909  0.47548185  0.28751782  1
  C  C34  1  0.72178614  0.91591981  0.59026510  1
  C  C35  1  0.43493091  0.97548185  0.78751782  1
  C  C36  1  0.93493091  0.52451815  0.71248218  1
  C  C37  1  0.77821386  0.41591981  0.09026510  1
  C  C38  1  0.91617978  0.77167270  0.93096748  1
  C  C39  1  0.22178614  0.58408019  0.90973490  1
  C  C40  1  0.56506909  0.02451815  0.21248218  1
  C  C41  1  0.08382022  0.22832730  0.06903252  1
  C  C42  1  0.27821386  0.08408019  0.40973490  1
  C  C43  1  0.41617978  0.72832730  0.56903252  1
  N  N44  1  0.04044172  0.62909595  0.84807165  1
  N  N45  1  0.54044172  0.87090405  0.65192835  1
  N  N46  1  0.82111819  0.05682469  0.66996726  1
  N  N47  1  0.32111819  0.44317531  0.83003274  1
  N  N48  1  0.45955828  0.12909595  0.34807165  1
  N  N49  1  0.17888181  0.94317531  0.33003274  1
  N  N50  1  0.67888181  0.55682469  0.16996726  1
  N  N51  1  0.95955828  0.37090405  0.15192835  1
  O  O52  1  0.19954092  0.17208359  0.53441237  1
  O  O53  1  0.69954092  0.32791641  0.96558763  1
  O  O54  1  0.30045908  0.67208359  0.03441237  1
  O  O55  1  0.80045908  0.82791641  0.46558763  1
