# generated using pymatgen
data_K4Ni(NO2)6
_symmetry_space_group_name_H-M   'P 1'
_cell_length_a   8.85706025
_cell_length_b   8.85706040
_cell_length_c   8.85705992
_cell_angle_alpha   50.97332859
_cell_angle_beta   50.97332788
_cell_angle_gamma   50.97333083
_symmetry_Int_Tables_number   1
_chemical_formula_structural   K4Ni(NO2)6
_chemical_formula_sum   'K4 Ni1 N6 O12'
_cell_volume   386.75562057
_cell_formula_units_Z   1
loop_
 _symmetry_equiv_pos_site_id
 _symmetry_equiv_pos_as_xyz
  1  'x, y, z'
loop_
 _atom_site_type_symbol
 _atom_site_label
 _atom_site_symmetry_multiplicity
 _atom_site_fract_x
 _atom_site_fract_y
 _atom_site_fract_z
 _atom_site_occupancy
  K  K0  1  0.19122088  0.19122088  0.19122088  1
  K  K1  1  0.62211498  0.62211498  0.62211498  1
  K  K2  1  0.80877912  0.80877912  0.80877912  1
  K  K3  1  0.37788502  0.37788502  0.37788502  1
  Ni  Ni4  1  0.00000000  0.00000000  0.00000000  1
  N  N5  1  0.68603857  0.07817531  0.07054861  1
  N  N6  1  0.92182469  0.92945139  0.31396144  1
  N  N7  1  0.07054861  0.68603857  0.07817531  1
  N  N8  1  0.92945139  0.31396143  0.92182469  1
  N  N9  1  0.07817531  0.07054861  0.68603856  1
  N  N10  1  0.31396143  0.92182469  0.92945139  1
  O  O11  1  0.62886409  0.14322087  0.93313642  1
  O  O12  1  0.95196175  0.74187757  0.44756834  1
  O  O13  1  0.25812243  0.55243166  0.04803826  1
  O  O14  1  0.06686358  0.37113591  0.85677913  1
  O  O15  1  0.85677913  0.06686358  0.37113591  1
  O  O16  1  0.55243166  0.04803826  0.25812243  1
  O  O17  1  0.04803825  0.25812243  0.55243166  1
  O  O18  1  0.37113591  0.85677913  0.06686358  1
  O  O19  1  0.93313642  0.62886409  0.14322087  1
  O  O20  1  0.14322087  0.93313642  0.62886409  1
  O  O21  1  0.44756834  0.95196174  0.74187757  1
  O  O22  1  0.74187757  0.44756834  0.95196174  1
