# generated using pymatgen
data_SiO2
_symmetry_space_group_name_H-M   'P 1'
_cell_length_a   5.13595712
_cell_length_b   9.51577240
_cell_length_c   18.32549987
_cell_angle_alpha   90.00000000
_cell_angle_beta   90.00000000
_cell_angle_gamma   105.65626275
_symmetry_Int_Tables_number   1
_chemical_formula_structural   SiO2
_chemical_formula_sum   'Si16 O32'
_cell_volume   862.38573425
_cell_formula_units_Z   16
loop_
 _symmetry_equiv_pos_site_id
 _symmetry_equiv_pos_as_xyz
  1  'x, y, z'
loop_
 _atom_site_type_symbol
 _atom_site_label
 _atom_site_symmetry_multiplicity
 _atom_site_fract_x
 _atom_site_fract_y
 _atom_site_fract_z
 _atom_site_occupancy
  Si  Si0  1  0.35475554  0.39962364  0.00000000  1
  Si  Si1  1  0.19712136  0.00000000  0.30019154  1
  Si  Si2  1  0.00333198  0.15438671  0.07719998  1
  Si  Si3  1  0.95513190  0.60037636  0.00000000  1
  Si  Si4  1  0.34894526  0.84561329  0.57719998  1
  Si  Si5  1  0.50333198  0.15438671  0.42280002  1
  Si  Si6  1  0.00333198  0.15438671  0.92280002  1
  Si  Si7  1  0.34894526  0.84561329  0.42280002  1
  Si  Si8  1  0.50333198  0.15438671  0.57719998  1
  Si  Si9  1  0.84894526  0.84561329  0.92280002  1
  Si  Si10  1  0.19712136  0.00000000  0.69980846  1
  Si  Si11  1  0.69712136  0.00000000  0.19980846  1
  Si  Si12  1  0.69712136  0.00000000  0.80019154  1
  Si  Si13  1  0.85475554  0.39962364  0.50000000  1
  Si  Si14  1  0.45513190  0.60037636  0.50000000  1
  Si  Si15  1  0.84894526  0.84561329  0.07719998  1
  O  O16  1  0.67941381  0.84113182  0.00000000  1
  O  O17  1  0.66286815  0.85264448  0.14886393  1
  O  O18  1  0.17839329  0.46782370  0.50000000  1
  O  O19  1  0.33828199  0.15886818  0.50000000  1
  O  O20  1  0.16286815  0.85264448  0.64886393  1
  O  O21  1  0.40753485  0.00000000  0.76611033  1
  O  O22  1  0.83828199  0.15886818  0.00000000  1
  O  O23  1  0.81022367  0.14735552  0.14886393  1
  O  O24  1  0.31022367  0.14735552  0.35113607  1
  O  O25  1  0.21056959  0.53217630  0.00000000  1
  O  O26  1  0.17941381  0.84113182  0.50000000  1
  O  O27  1  0.96672527  0.70223158  0.07370017  1
  O  O28  1  0.26449369  0.29776842  0.92629983  1
  O  O29  1  0.09348271  0.00000000  0.07945507  1
  O  O30  1  0.09348271  0.00000000  0.92054493  1
  O  O31  1  0.46672527  0.70223158  0.57370017  1
  O  O32  1  0.90753485  0.00000000  0.26611033  1
  O  O33  1  0.90753485  0.00000000  0.73388967  1
  O  O34  1  0.59348271  0.00000000  0.42054493  1
  O  O35  1  0.31022367  0.14735552  0.64886393  1
  O  O36  1  0.26449369  0.29776842  0.07370017  1
  O  O37  1  0.71056959  0.53217630  0.50000000  1
  O  O38  1  0.81022367  0.14735552  0.85113607  1
  O  O39  1  0.46672527  0.70223158  0.42629983  1
  O  O40  1  0.66286815  0.85264448  0.85113607  1
  O  O41  1  0.59348271  0.00000000  0.57945507  1
  O  O42  1  0.40753485  0.00000000  0.23388967  1
  O  O43  1  0.16286815  0.85264448  0.35113607  1
  O  O44  1  0.67839329  0.46782370  0.00000000  1
  O  O45  1  0.76449369  0.29776842  0.42629983  1
  O  O46  1  0.76449369  0.29776842  0.57370017  1
  O  O47  1  0.96672527  0.70223158  0.92629983  1
