# generated using pymatgen
data_CuTe4H12C4N
_symmetry_space_group_name_H-M   'P 1'
_cell_length_a   9.74199351
_cell_length_b   11.34348072
_cell_length_c   12.00951381
_cell_angle_alpha   90.00000000
_cell_angle_beta   103.16875637
_cell_angle_gamma   90.00000000
_symmetry_Int_Tables_number   1
_chemical_formula_structural   CuTe4H12C4N
_chemical_formula_sum   'Cu4 Te16 H48 C16 N4'
_cell_volume   1292.24907982
_cell_formula_units_Z   4
loop_
 _symmetry_equiv_pos_site_id
 _symmetry_equiv_pos_as_xyz
  1  'x, y, z'
loop_
 _atom_site_type_symbol
 _atom_site_label
 _atom_site_symmetry_multiplicity
 _atom_site_fract_x
 _atom_site_fract_y
 _atom_site_fract_z
 _atom_site_occupancy
  Cu  Cu0  1  0.46993300  0.03326460  0.88935811  1
  Cu  Cu1  1  0.46993300  0.46673540  0.38935811  1
  Cu  Cu2  1  0.53006700  0.53326460  0.61064189  1
  Cu  Cu3  1  0.53006700  0.96673540  0.11064189  1
  Te  Te4  1  0.63201276  0.06744063  0.30590523  1
  Te  Te5  1  0.28254969  0.04828982  0.01625838  1
  Te  Te6  1  0.36798724  0.93255937  0.69409477  1
  Te  Te7  1  0.71745031  0.54828982  0.48374162  1
  Te  Te8  1  0.63201276  0.43255937  0.80590523  1
  Te  Te9  1  0.33046640  0.28471175  0.08988704  1
  Te  Te10  1  0.71745031  0.95171018  0.98374162  1
  Te  Te11  1  0.42837577  0.23897955  0.33225192  1
  Te  Te12  1  0.66953360  0.71528825  0.91011296  1
  Te  Te13  1  0.42837577  0.26102045  0.83225192  1
  Te  Te14  1  0.33046640  0.21528825  0.58988704  1
  Te  Te15  1  0.57162423  0.76102045  0.66774808  1
  Te  Te16  1  0.28254969  0.45171018  0.51625838  1
  Te  Te17  1  0.66953360  0.78471175  0.41011296  1
  Te  Te18  1  0.36798724  0.56744063  0.19409477  1
  Te  Te19  1  0.57162423  0.73897955  0.16774808  1
  H  H20  1  0.05317628  0.18860011  0.79623847  1
  H  H21  1  0.29233628  0.96043813  0.27342260  1
  H  H22  1  0.99456192  0.24909274  0.59630078  1
  H  H23  1  0.07287811  0.45607540  0.79818866  1
  H  H24  1  0.16682304  0.68763633  0.37981439  1
  H  H25  1  0.17426553  0.79243900  0.49317659  1
  H  H26  1  0.99456192  0.25090726  0.09630078  1
  H  H27  1  0.94983005  0.54399290  0.85384831  1
  H  H28  1  0.92712189  0.54392460  0.20181134  1
  H  H29  1  0.70766372  0.46043813  0.22657740  1
  H  H30  1  0.11673070  0.50040356  0.94526425  1
  H  H31  1  0.05016995  0.04399290  0.64615169  1
  H  H32  1  0.94682372  0.81139989  0.20376153  1
  H  H33  1  0.93224200  0.09875616  0.85153772  1
  H  H34  1  0.06775800  0.59875616  0.64846228  1
  H  H35  1  0.16682304  0.81236367  0.87981439  1
  H  H36  1  0.33166363  0.80834295  0.30920547  1
  H  H37  1  0.70766372  0.03956187  0.72657740  1
  H  H38  1  0.00543808  0.74909274  0.90369922  1
  H  H39  1  0.82573447  0.29243900  0.00682341  1
  H  H40  1  0.83317696  0.18763633  0.12018561  1
  H  H41  1  0.66695196  0.08551366  0.57894300  1
  H  H42  1  0.33304804  0.91448634  0.42105700  1
  H  H43  1  0.11205800  0.75007446  0.68551688  1
  H  H44  1  0.17426553  0.70756100  0.99317659  1
  H  H45  1  0.29233628  0.53956187  0.77342260  1
  H  H46  1  0.82573447  0.20756100  0.50682341  1
  H  H47  1  0.88326930  0.00040356  0.55473575  1
  H  H48  1  0.33166363  0.69165705  0.80920547  1
  H  H49  1  0.93224200  0.40124384  0.35153772  1
  H  H50  1  0.94682372  0.68860011  0.70376153  1
  H  H51  1  0.94983005  0.95600710  0.35384831  1
  H  H52  1  0.88326930  0.49959644  0.05473575  1
  H  H53  1  0.88794200  0.25007446  0.81448312  1
  H  H54  1  0.66695196  0.41448634  0.07894300  1
  H  H55  1  0.88794200  0.24992554  0.31448312  1
  H  H56  1  0.11205800  0.74992554  0.18551688  1
  H  H57  1  0.66833637  0.30834295  0.19079453  1
  H  H58  1  0.06775800  0.90124384  0.14846228  1
  H  H59  1  0.66833637  0.19165705  0.69079453  1
  H  H60  1  0.11673070  0.99959644  0.44526425  1
  H  H61  1  0.07287811  0.04392460  0.29818866  1
  H  H62  1  0.83317696  0.31236367  0.62018561  1
  H  H63  1  0.33304804  0.58551366  0.92105700  1
  H  H64  1  0.92712189  0.95607540  0.70181134  1
  H  H65  1  0.05016995  0.45600710  0.14615169  1
  H  H66  1  0.05317628  0.31139989  0.29623847  1
  H  H67  1  0.00543808  0.75090726  0.40369922  1
  C  C68  1  0.06168376  0.52596538  0.85846491  1
  C  C69  1  0.11758136  0.73366295  0.90688983  1
  C  C70  1  0.94161532  0.32903712  0.29303379  1
  C  C71  1  0.28340585  0.88909810  0.33295658  1
  C  C72  1  0.71659415  0.38909810  0.16704342  1
  C  C73  1  0.06168376  0.97403462  0.35846491  1
  C  C74  1  0.88241864  0.23366295  0.59311017  1
  C  C75  1  0.94161532  0.17096288  0.79303379  1
  C  C76  1  0.11758136  0.76633705  0.40688983  1
  C  C77  1  0.88241864  0.26633705  0.09311017  1
  C  C78  1  0.93831624  0.02596538  0.64153509  1
  C  C79  1  0.71659415  0.11090190  0.66704342  1
  C  C80  1  0.05838468  0.67096288  0.70696621  1
  C  C81  1  0.05838468  0.82903712  0.20696621  1
  C  C82  1  0.93831624  0.47403462  0.14153509  1
  C  C83  1  0.28340585  0.61090190  0.83295658  1
  N  N84  1  0.87009911  0.13516535  0.67373519  1
  N  N85  1  0.12990089  0.86483465  0.32626481  1
  N  N86  1  0.12990089  0.63516535  0.82626481  1
  N  N87  1  0.87009911  0.36483465  0.17373519  1
