# generated using pymatgen
data_GaH19C8
_symmetry_space_group_name_H-M   'P 1'
_cell_length_a   18.21829148
_cell_length_b   18.21829169
_cell_length_c   18.21829198
_cell_angle_alpha   33.12563561
_cell_angle_beta   33.12563461
_cell_angle_gamma   33.12563526
_symmetry_Int_Tables_number   1
_chemical_formula_structural   GaH19C8
_chemical_formula_sum   'Ga6 H114 C48'
_cell_volume   1607.32140823
_cell_formula_units_Z   6
loop_
 _symmetry_equiv_pos_site_id
 _symmetry_equiv_pos_as_xyz
  1  'x, y, z'
loop_
 _atom_site_type_symbol
 _atom_site_label
 _atom_site_symmetry_multiplicity
 _atom_site_fract_x
 _atom_site_fract_y
 _atom_site_fract_z
 _atom_site_occupancy
  Ga  Ga0  1  0.25000000  0.05953670  0.44046330  1
  Ga  Ga1  1  0.44046330  0.25000000  0.05953670  1
  Ga  Ga2  1  0.75000000  0.94046330  0.55953670  1
  Ga  Ga3  1  0.05953670  0.44046330  0.25000000  1
  Ga  Ga4  1  0.94046330  0.55953670  0.75000000  1
  Ga  Ga5  1  0.55953670  0.75000000  0.94046330  1
  H  H6  1  0.42732240  0.32976210  0.17517363  1
  H  H7  1  0.76934362  0.20749786  0.82180671  1
  H  H8  1  0.26934362  0.32180671  0.70749786  1
  H  H9  1  0.51948737  0.22116305  0.44228307  1
  H  H10  1  0.23065638  0.79250214  0.17819329  1
  H  H11  1  0.86109826  0.79269285  0.43129254  1
  H  H12  1  0.82976210  0.92732240  0.67517363  1
  H  H13  1  0.93477823  0.99847605  0.23291481  1
  H  H14  1  0.23291481  0.93477823  0.99847605  1
  H  H15  1  0.61811582  0.47740468  0.82267738  1
  H  H16  1  0.17517363  0.42732240  0.32976210  1
  H  H17  1  0.32267738  0.97740468  0.11811582  1
  H  H18  1  0.20503428  0.88170285  0.81303619  1
  H  H19  1  0.20749786  0.82180671  0.76934362  1
  H  H20  1  0.11302225  0.25000000  0.38697775  1
  H  H21  1  0.36109826  0.93129254  0.29269285  1
  H  H22  1  0.99847605  0.23291481  0.93477823  1
  H  H23  1  0.88697775  0.75000000  0.61302225  1
  H  H24  1  0.29250214  0.73065638  0.67819329  1
  H  H25  1  0.96781226  0.07518013  0.58002760  1
  H  H26  1  0.72116305  0.01948737  0.94228307  1
  H  H27  1  0.57267760  0.67023790  0.82482637  1
  H  H28  1  0.52259532  0.17732262  0.38188418  1
  H  H29  1  0.93129254  0.29269285  0.36109826  1
  H  H30  1  0.82482637  0.57267760  0.67023790  1
  H  H31  1  0.70503428  0.31303619  0.38170285  1
  H  H32  1  0.41997240  0.03218774  0.92481987  1
  H  H33  1  0.22116305  0.44228307  0.51948737  1
  H  H34  1  0.28003132  0.07732057  0.61862131  1
  H  H35  1  0.07267760  0.32482637  0.17023790  1
  H  H36  1  0.05771693  0.27883695  0.98051263  1
  H  H37  1  0.29496572  0.68696381  0.61829715  1
  H  H38  1  0.47740468  0.82267738  0.61811582  1
  H  H39  1  0.11862131  0.57732057  0.78003132  1
  H  H40  1  0.67517363  0.82976210  0.92732240  1
  H  H41  1  0.42267943  0.21996868  0.88137869  1
  H  H42  1  0.88188418  0.67732262  0.02259532  1
  H  H43  1  0.27883695  0.98051263  0.05771693  1
  H  H44  1  0.82267738  0.61811582  0.47740468  1
  H  H45  1  0.08002760  0.57518013  0.46781226  1
  H  H46  1  0.67819329  0.29250214  0.73065638  1
  H  H47  1  0.26708519  0.50152395  0.56522177  1
  H  H48  1  0.02259532  0.88188418  0.67732262  1
  H  H49  1  0.01948737  0.94228307  0.72116305  1
  H  H50  1  0.61862131  0.28003132  0.07732057  1
  H  H51  1  0.97740468  0.11811582  0.32267738  1
  H  H52  1  0.06870746  0.70730715  0.63890174  1
  H  H53  1  0.61302225  0.88697775  0.75000000  1
  H  H54  1  0.79250214  0.17819329  0.23065638  1
  H  H55  1  0.56870746  0.13890174  0.20730715  1
  H  H56  1  0.58002760  0.96781226  0.07518013  1
  H  H57  1  0.07518013  0.58002760  0.96781226  1
  H  H58  1  0.03218774  0.92481987  0.41997240  1
  H  H59  1  0.06522177  0.00152395  0.76708519  1
  H  H60  1  0.88137869  0.42267943  0.21996868  1
  H  H61  1  0.18696381  0.79496572  0.11829715  1
  H  H62  1  0.57518013  0.46781226  0.08002760  1
  H  H63  1  0.49847605  0.43477823  0.73291481  1
  H  H64  1  0.77883695  0.55771693  0.48051263  1
  H  H65  1  0.46781226  0.08002760  0.57518013  1
  H  H66  1  0.76708519  0.06522177  0.00152395  1
  H  H67  1  0.68696381  0.61829715  0.29496572  1
  H  H68  1  0.92732240  0.67517363  0.82976210  1
  H  H69  1  0.11811582  0.32267738  0.97740468  1
  H  H70  1  0.11829715  0.18696381  0.79496572  1
  H  H71  1  0.13890174  0.20730715  0.56870746  1
  H  H72  1  0.38697775  0.11302225  0.25000000  1
  H  H73  1  0.92481987  0.41997240  0.03218774  1
  H  H74  1  0.82180671  0.76934362  0.20749786  1
  H  H75  1  0.75000000  0.61302225  0.88697775  1
  H  H76  1  0.17732262  0.38188418  0.52259532  1
  H  H77  1  0.20730715  0.56870746  0.13890174  1
  H  H78  1  0.38170285  0.70503428  0.31303619  1
  H  H79  1  0.57732057  0.78003132  0.11862131  1
  H  H80  1  0.79269285  0.43129254  0.86109826  1
  H  H81  1  0.31303619  0.38170285  0.70503428  1
  H  H82  1  0.32976210  0.17517363  0.42732240  1
  H  H83  1  0.94228307  0.72116305  0.01948737  1
  H  H84  1  0.81303619  0.20503428  0.88170285  1
  H  H85  1  0.67732262  0.02259532  0.88188418  1
  H  H86  1  0.32180671  0.70749786  0.26934362  1
  H  H87  1  0.73291481  0.49847605  0.43477823  1
  H  H88  1  0.07732057  0.61862131  0.28003132  1
  H  H89  1  0.61829715  0.29496572  0.68696381  1
  H  H90  1  0.63890174  0.06870746  0.70730715  1
  H  H91  1  0.71996868  0.92267943  0.38137869  1
  H  H92  1  0.88170285  0.81303619  0.20503428  1
  H  H93  1  0.98051263  0.05771693  0.27883695  1
  H  H94  1  0.92267943  0.38137869  0.71996868  1
  H  H95  1  0.70749786  0.26934362  0.32180671  1
  H  H96  1  0.17819329  0.23065638  0.79250214  1
  H  H97  1  0.55771693  0.48051263  0.77883695  1
  H  H98  1  0.25000000  0.38697775  0.11302225  1
  H  H99  1  0.43477823  0.73291481  0.49847605  1
  H  H100  1  0.44228307  0.51948737  0.22116305  1
  H  H101  1  0.00152395  0.76708519  0.06522177  1
  H  H102  1  0.53218774  0.91997240  0.42481987  1
  H  H103  1  0.50152395  0.56522177  0.26708519  1
  H  H104  1  0.73065638  0.67819329  0.29250214  1
  H  H105  1  0.67023790  0.82482637  0.57267760  1
  H  H106  1  0.78003132  0.11862131  0.57732057  1
  H  H107  1  0.38137869  0.71996868  0.92267943  1
  H  H108  1  0.79496572  0.11829715  0.18696381  1
  H  H109  1  0.17023790  0.07267760  0.32482637  1
  H  H110  1  0.29269285  0.36109826  0.93129254  1
  H  H111  1  0.70730715  0.63890174  0.06870746  1
  H  H112  1  0.56522177  0.26708519  0.50152395  1
  H  H113  1  0.21996868  0.88137869  0.42267943  1
  H  H114  1  0.32482637  0.17023790  0.07267760  1
  H  H115  1  0.43129254  0.86109826  0.79269285  1
  H  H116  1  0.42481987  0.53218774  0.91997240  1
  H  H117  1  0.48051263  0.77883695  0.55771693  1
  H  H118  1  0.38188418  0.52259532  0.17732262  1
  H  H119  1  0.91997240  0.42481987  0.53218774  1
  C  C120  1  0.21163729  0.92742162  0.50786735  1
  C  C121  1  0.57937049  0.31460206  0.76097028  1
  C  C122  1  0.00786735  0.42742162  0.71163729  1
  C  C123  1  0.04060176  0.37220944  0.95371196  1
  C  C124  1  0.26097028  0.81460206  0.07937049  1
  C  C125  1  0.54400233  0.25740187  0.12107921  1
  C  C126  1  0.24259813  0.95599767  0.37892079  1
  C  C127  1  0.07937049  0.26097028  0.81460206  1
  C  C128  1  0.42742162  0.71163729  0.00786735  1
  C  C129  1  0.28836271  0.99213265  0.57257838  1
  C  C130  1  0.57257838  0.28836271  0.99213265  1
  C  C131  1  0.87892079  0.45599767  0.74259813  1
  C  C132  1  0.12107921  0.54400233  0.25740187  1
  C  C133  1  0.37220944  0.95371196  0.04060176  1
  C  C134  1  0.95599767  0.37892079  0.24259813  1
  C  C135  1  0.45371196  0.87220944  0.54060176  1
  C  C136  1  0.49213265  0.78836271  0.07257838  1
  C  C137  1  0.04628804  0.95939824  0.62779056  1
  C  C138  1  0.74259813  0.87892079  0.45599767  1
  C  C139  1  0.68539794  0.23902972  0.42062951  1
  C  C140  1  0.50786735  0.21163729  0.92742162  1
  C  C141  1  0.31460206  0.76097028  0.57937049  1
  C  C142  1  0.87220944  0.54060176  0.45371196  1
  C  C143  1  0.62779056  0.04628804  0.95939824  1
  C  C144  1  0.12779056  0.45939824  0.54628804  1
  C  C145  1  0.76097028  0.57937049  0.31460206  1
  C  C146  1  0.45939824  0.54628804  0.12779056  1
  C  C147  1  0.75740187  0.04400233  0.62107921  1
  C  C148  1  0.73902972  0.18539794  0.92062951  1
  C  C149  1  0.54628804  0.12779056  0.45939824  1
  C  C150  1  0.42062951  0.68539794  0.23902972  1
  C  C151  1  0.71163729  0.00786735  0.42742162  1
  C  C152  1  0.18539794  0.92062951  0.73902972  1
  C  C153  1  0.45599767  0.74259813  0.87892079  1
  C  C154  1  0.04400233  0.62107921  0.75740187  1
  C  C155  1  0.92742162  0.50786735  0.21163729  1
  C  C156  1  0.54060176  0.45371196  0.87220944  1
  C  C157  1  0.92062951  0.73902972  0.18539794  1
  C  C158  1  0.95939824  0.62779056  0.04628804  1
  C  C159  1  0.23902972  0.42062951  0.68539794  1
  C  C160  1  0.95371196  0.04060176  0.37220944  1
  C  C161  1  0.81460206  0.07937049  0.26097028  1
  C  C162  1  0.25740187  0.12107921  0.54400233  1
  C  C163  1  0.99213265  0.57257838  0.28836271  1
  C  C164  1  0.62107921  0.75740187  0.04400233  1
  C  C165  1  0.37892079  0.24259813  0.95599767  1
  C  C166  1  0.07257838  0.49213265  0.78836271  1
  C  C167  1  0.78836271  0.07257838  0.49213265  1
