# generated using pymatgen
data_PbN6
_symmetry_space_group_name_H-M   'P 1'
_cell_length_a   6.69631735
_cell_length_b   11.81823146
_cell_length_c   16.38686715
_cell_angle_alpha   90.00000000
_cell_angle_beta   90.00000000
_cell_angle_gamma   90.00000000
_symmetry_Int_Tables_number   1
_chemical_formula_structural   PbN6
_chemical_formula_sum   'Pb12 N72'
_cell_volume   1296.83418956
_cell_formula_units_Z   12
loop_
 _symmetry_equiv_pos_site_id
 _symmetry_equiv_pos_as_xyz
  1  'x, y, z'
loop_
 _atom_site_type_symbol
 _atom_site_label
 _atom_site_symmetry_multiplicity
 _atom_site_fract_x
 _atom_site_fract_y
 _atom_site_fract_z
 _atom_site_occupancy
  Pb  Pb0  1  0.14984591  0.62377875  0.90642710  1
  Pb  Pb1  1  0.16393865  0.62703602  0.58363474  1
  Pb  Pb2  1  0.66393865  0.87296398  0.58363474  1
  Pb  Pb3  1  0.94077769  0.13126346  0.74155785  1
  Pb  Pb4  1  0.83606135  0.37296398  0.08363474  1
  Pb  Pb5  1  0.64984591  0.87622125  0.90642710  1
  Pb  Pb6  1  0.33606135  0.12703602  0.08363474  1
  Pb  Pb7  1  0.44077769  0.36873654  0.74155785  1
  Pb  Pb8  1  0.35015409  0.12377875  0.40642710  1
  Pb  Pb9  1  0.55922231  0.63126346  0.24155785  1
  Pb  Pb10  1  0.85015409  0.37622125  0.40642710  1
  Pb  Pb11  1  0.05922231  0.86873654  0.24155785  1
  N  N12  1  0.65125829  0.22782086  0.32186930  1
  N  N13  1  0.21032990  0.50271006  0.44380436  1
  N  N14  1  0.63450412  0.21981199  0.85415850  1
  N  N15  1  0.99441088  0.99727862  0.86406243  1
  N  N16  1  0.11147877  0.26327840  0.56209866  1
  N  N17  1  0.17273045  0.58825472  0.24160661  1
  N  N18  1  0.71032990  0.99728994  0.44380436  1
  N  N19  1  0.58177361  0.26357521  0.49275244  1
  N  N20  1  0.17101160  0.99469778  0.58294101  1
  N  N21  1  0.82457165  0.50219395  0.54701337  1
  N  N22  1  0.82898840  0.00530222  0.08294101  1
  N  N23  1  0.10552385  0.26344219  0.92396446  1
  N  N24  1  0.89447615  0.73655781  0.42396446  1
  N  N25  1  0.15528050  0.27483096  0.24941297  1
  N  N26  1  0.82726955  0.41174528  0.74160661  1
  N  N27  1  0.86356468  0.71058457  0.13053683  1
  N  N28  1  0.28967010  0.00271006  0.94380436  1
  N  N29  1  0.17542835  0.49780605  0.04701337  1
  N  N30  1  0.08177361  0.23642479  0.49275244  1
  N  N31  1  0.65693919  0.21997353  0.17745539  1
  N  N32  1  0.67273045  0.91174528  0.24160661  1
  N  N33  1  0.15125829  0.27217914  0.32186930  1
  N  N34  1  0.48198839  0.49179839  0.11923137  1
  N  N35  1  0.34874171  0.77217914  0.82186930  1
  N  N36  1  0.84306081  0.71997353  0.67745539  1
  N  N37  1  0.13450412  0.28018801  0.85415850  1
  N  N38  1  0.78967010  0.49728994  0.94380436  1
  N  N39  1  0.32457165  0.99780605  0.54701337  1
  N  N40  1  0.00558912  0.00272138  0.36406243  1
  N  N41  1  0.65528050  0.22516904  0.24941297  1
  N  N42  1  0.67101160  0.50530222  0.58294101  1
  N  N43  1  0.36356468  0.78941543  0.13053683  1
  N  N44  1  0.86911134  0.48519821  0.24322645  1
  N  N45  1  0.85774734  0.99949402  0.40425381  1
  N  N46  1  0.36911134  0.01480179  0.24322645  1
  N  N47  1  0.13088866  0.51480179  0.74322645  1
  N  N48  1  0.47554673  0.03634018  0.74234290  1
  N  N49  1  0.02445327  0.53634018  0.24234290  1
  N  N50  1  0.50558912  0.49727862  0.36406243  1
  N  N51  1  0.86549588  0.71981199  0.35415850  1
  N  N52  1  0.97554673  0.46365982  0.74234290  1
  N  N53  1  0.61147877  0.23672160  0.56209866  1
  N  N54  1  0.13643532  0.28941543  0.63053683  1
  N  N55  1  0.64225266  0.49949402  0.90425381  1
  N  N56  1  0.32898840  0.49469778  0.08294101  1
  N  N57  1  0.84471950  0.72516904  0.74941297  1
  N  N58  1  0.63643532  0.21058457  0.63053683  1
  N  N59  1  0.07486603  0.24532545  0.99464943  1
  N  N60  1  0.92513397  0.75467455  0.49464943  1
  N  N61  1  0.34306081  0.78002647  0.67745539  1
  N  N62  1  0.51801161  0.50820161  0.61923137  1
  N  N63  1  0.42513397  0.74532545  0.49464943  1
  N  N64  1  0.84874171  0.72782086  0.82186930  1
  N  N65  1  0.39447615  0.76344219  0.42396446  1
  N  N66  1  0.14225266  0.00050598  0.90425381  1
  N  N67  1  0.35774734  0.50050598  0.40425381  1
  N  N68  1  0.98198839  0.00820161  0.11923137  1
  N  N69  1  0.41822639  0.73642479  0.99275244  1
  N  N70  1  0.63088866  0.98519821  0.74322645  1
  N  N71  1  0.52445327  0.96365982  0.24234290  1
  N  N72  1  0.57486603  0.25467455  0.99464943  1
  N  N73  1  0.91822639  0.76357521  0.99275244  1
  N  N74  1  0.36549588  0.78018801  0.35415850  1
  N  N75  1  0.32726955  0.08825472  0.74160661  1
  N  N76  1  0.67542835  0.00219395  0.04701337  1
  N  N77  1  0.49441088  0.50272138  0.86406243  1
  N  N78  1  0.38852123  0.76327840  0.06209866  1
  N  N79  1  0.88852123  0.73672160  0.06209866  1
  N  N80  1  0.34471950  0.77483096  0.74941297  1
  N  N81  1  0.60552385  0.23655781  0.92396446  1
  N  N82  1  0.15693919  0.28002647  0.17745539  1
  N  N83  1  0.01801161  0.99179839  0.61923137  1
