# generated using pymatgen
data_Np(SiNi)2
_symmetry_space_group_name_H-M   'P 1'
_cell_length_a   3.91207666
_cell_length_b   3.91207702
_cell_length_c   5.52063971
_cell_angle_alpha   110.75139384
_cell_angle_beta   110.75139589
_cell_angle_gamma   89.99999137
_symmetry_Int_Tables_number   1
_chemical_formula_structural   Np(SiNi)2
_chemical_formula_sum   'Np1 Si2 Ni2'
_cell_volume   73.11776120
_cell_formula_units_Z   1
loop_
 _symmetry_equiv_pos_site_id
 _symmetry_equiv_pos_as_xyz
  1  'x, y, z'
loop_
 _atom_site_type_symbol
 _atom_site_label
 _atom_site_symmetry_multiplicity
 _atom_site_fract_x
 _atom_site_fract_y
 _atom_site_fract_z
 _atom_site_occupancy
  Np  Np0  1  0.00000000  0.00000000  0.00000000  1
  Si  Si1  1  0.37806572  0.37806572  0.75613144  1
  Si  Si2  1  0.62193428  0.62193428  0.24386856  1
  Ni  Ni3  1  0.75000000  0.25000000  0.50000000  1
  Ni  Ni4  1  0.25000000  0.75000000  0.50000000  1
