# generated using pymatgen
data_KSnSe2
_symmetry_space_group_name_H-M   'P 1'
_cell_length_a   6.84872481
_cell_length_b   6.84872545
_cell_length_c   6.84872552
_cell_angle_alpha   106.02835084
_cell_angle_beta   106.02835180
_cell_angle_gamma   116.60095520
_symmetry_Int_Tables_number   1
_chemical_formula_structural   KSnSe2
_chemical_formula_sum   'K2 Sn2 Se4'
_cell_volume   244.38438311
_cell_formula_units_Z   2
loop_
 _symmetry_equiv_pos_site_id
 _symmetry_equiv_pos_as_xyz
  1  'x, y, z'
loop_
 _atom_site_type_symbol
 _atom_site_label
 _atom_site_symmetry_multiplicity
 _atom_site_fract_x
 _atom_site_fract_y
 _atom_site_fract_z
 _atom_site_occupancy
  K  K0  1  0.70473568  0.70473568  1.00000000  1
  K  K1  1  0.20473568  0.20473568  1.00000000  1
  Sn  Sn2  1  0.68640794  0.18640794  0.50000000  1
  Sn  Sn3  1  0.18640794  0.68640794  0.50000000  1
  Se  Se4  1  0.75732977  0.25732977  0.13880317  1
  Se  Se5  1  0.11852661  0.61852661  0.86119683  1
  Se  Se6  1  0.25732977  0.11852661  0.50000000  1
  Se  Se7  1  0.61852661  0.75732977  0.50000000  1
