# generated using pymatgen
data_SnH46C18(Br2N)2
_symmetry_space_group_name_H-M   'P 1'
_cell_length_a   10.79830114
_cell_length_b   10.89188958
_cell_length_c   13.19676708
_cell_angle_alpha   93.37251924
_cell_angle_beta   90.00000000
_cell_angle_gamma   90.00000000
_symmetry_Int_Tables_number   1
_chemical_formula_structural   SnH46C18(Br2N)2
_chemical_formula_sum   'Sn2 H92 C36 Br8 N4'
_cell_volume   1549.43526001
_cell_formula_units_Z   2
loop_
 _symmetry_equiv_pos_site_id
 _symmetry_equiv_pos_as_xyz
  1  'x, y, z'
loop_
 _atom_site_type_symbol
 _atom_site_label
 _atom_site_symmetry_multiplicity
 _atom_site_fract_x
 _atom_site_fract_y
 _atom_site_fract_z
 _atom_site_occupancy
  Sn  Sn0  1  0.00000000  0.00000000  0.00000000  1
  Sn  Sn1  1  0.50000000  0.50000000  0.50000000  1
  H  H2  1  0.44294104  0.14084317  0.63709942  1
  H  H3  1  0.43518393  0.10835501  0.08015302  1
  H  H4  1  0.05070972  0.22874666  0.69620714  1
  H  H5  1  0.55394460  0.01707559  0.40464734  1
  H  H6  1  0.14717565  0.52065602  0.93516083  1
  H  H7  1  0.05394460  0.48292441  0.09535266  1
  H  H8  1  0.01870865  0.75513836  0.62956356  1
  H  H9  1  0.12459526  0.38109146  0.29874132  1
  H  H10  1  0.64717565  0.97934398  0.56483917  1
  H  H11  1  0.93104905  0.98113781  0.19431878  1
  H  H12  1  0.63535076  0.13742316  0.70457877  1
  H  H13  1  0.55070972  0.27125334  0.80379286  1
  H  H14  1  0.47717784  0.83160102  0.69847537  1
  H  H15  1  0.32318578  0.13950202  0.35138560  1
  H  H16  1  0.47279874  0.92182116  0.09940026  1
  H  H17  1  0.93518393  0.39164499  0.41984698  1
  H  H18  1  0.65177686  0.81575039  0.82103776  1
  H  H19  1  0.51870865  0.74486164  0.87043644  1
  H  H20  1  0.67980164  0.03220969  0.79626355  1
  H  H21  1  0.48129135  0.25513836  0.12956356  1
  H  H22  1  0.59813370  0.51913743  0.31444009  1
  H  H23  1  0.94605540  0.51707559  0.90464734  1
  H  H24  1  0.97717784  0.66839898  0.80152463  1
  H  H25  1  0.44061878  0.28320861  0.90328629  1
  H  H26  1  0.05938122  0.78320861  0.40328629  1
  H  H27  1  0.75672586  0.90540550  0.26255605  1
  H  H28  1  0.56895095  0.48113781  0.69431878  1
  H  H29  1  0.02720126  0.42182116  0.59940026  1
  H  H30  1  0.38913567  0.26638400  0.77598648  1
  H  H31  1  0.34822314  0.18424961  0.17896224  1
  H  H32  1  0.74630155  0.55716751  0.82194477  1
  H  H33  1  0.76717708  0.92740508  0.39615375  1
  H  H34  1  0.86464924  0.63742316  0.20457877  1
  H  H35  1  0.05705896  0.64084317  0.13709942  1
  H  H36  1  0.51365495  0.37603911  0.31817510  1
  H  H37  1  0.21525236  0.01927385  0.36342529  1
  H  H38  1  0.73282292  0.42740508  0.89615375  1
  H  H39  1  0.24327414  0.09459450  0.73744395  1
  H  H40  1  0.44929028  0.72874666  0.19620714  1
  H  H41  1  0.15177686  0.68424961  0.67896224  1
  H  H42  1  0.82318578  0.36049798  0.14861440  1
  H  H43  1  0.01365495  0.12396089  0.18182490  1
  H  H44  1  0.94061878  0.21679139  0.59671371  1
  H  H45  1  0.13214941  0.57010440  0.36694108  1
  H  H46  1  0.90186630  0.01913743  0.81444009  1
  H  H47  1  0.52282216  0.16839898  0.30152463  1
  H  H48  1  0.43104905  0.51886219  0.30568122  1
  H  H49  1  0.06481607  0.60835501  0.58015302  1
  H  H50  1  0.25369845  0.44283249  0.17805523  1
  H  H51  1  0.28474764  0.51927385  0.86342529  1
  H  H52  1  0.55938122  0.71679139  0.09671371  1
  H  H53  1  0.26717708  0.57259492  0.10384625  1
  H  H54  1  0.78474764  0.98072615  0.63657471  1
  H  H55  1  0.61086433  0.73361600  0.22401352  1
  H  H56  1  0.63214941  0.92989560  0.13305892  1
  H  H57  1  0.06895095  0.01886219  0.80568122  1
  H  H58  1  0.71525236  0.48072615  0.13657471  1
  H  H59  1  0.11086433  0.76638400  0.27598648  1
  H  H60  1  0.23282292  0.07259492  0.60384625  1
  H  H61  1  0.82019836  0.53220969  0.29626355  1
  H  H62  1  0.48634505  0.62396089  0.68182490  1
  H  H63  1  0.62459526  0.11890854  0.20125868  1
  H  H64  1  0.09813370  0.98086257  0.18555991  1
  H  H65  1  0.13535076  0.36257684  0.79542123  1
  H  H66  1  0.94929028  0.77125334  0.30379286  1
  H  H67  1  0.40186630  0.48086257  0.68555991  1
  H  H68  1  0.52720126  0.07817884  0.90059974  1
  H  H69  1  0.17681422  0.63950202  0.85138560  1
  H  H70  1  0.98634505  0.87603911  0.81817510  1
  H  H71  1  0.67681422  0.86049798  0.64861440  1
  H  H72  1  0.84822314  0.31575039  0.32103776  1
  H  H73  1  0.86785059  0.42989560  0.63305892  1
  H  H74  1  0.85282435  0.47934398  0.06483917  1
  H  H75  1  0.75369845  0.05716751  0.32194477  1
  H  H76  1  0.32019836  0.96779031  0.20373645  1
  H  H77  1  0.36785059  0.07010440  0.86694108  1
  H  H78  1  0.98129135  0.24486164  0.37043644  1
  H  H79  1  0.97279874  0.57817884  0.40059974  1
  H  H80  1  0.37540474  0.88109146  0.79874132  1
  H  H81  1  0.55705896  0.85915683  0.36290058  1
  H  H82  1  0.87540474  0.61890854  0.70125868  1
  H  H83  1  0.94294104  0.35915683  0.86290058  1
  H  H84  1  0.56481607  0.89164499  0.91984698  1
  H  H85  1  0.02282216  0.33160102  0.19847537  1
  H  H86  1  0.36464924  0.86257684  0.29542123  1
  H  H87  1  0.74327414  0.40540550  0.76255605  1
  H  H88  1  0.17980164  0.46779031  0.70373645  1
  H  H89  1  0.88913567  0.23361600  0.72401352  1
  H  H90  1  0.35282435  0.02065602  0.43516083  1
  H  H91  1  0.44605540  0.98292441  0.59535266  1
  H  H92  1  0.25672586  0.59459450  0.23744395  1
  H  H93  1  0.24630155  0.94283249  0.67805523  1
  C  C94  1  0.22302526  0.53806280  0.17153650  1
  C  C95  1  0.86994465  0.54117314  0.22451443  1
  C  C96  1  0.63005535  0.04117314  0.72451443  1
  C  C97  1  0.13005535  0.45882686  0.77548557  1
  C  C98  1  0.98768414  0.97505597  0.83713666  1
  C  C99  1  0.27697474  0.03806280  0.67153650  1
  C  C100  1  0.36994465  0.95882686  0.27548557  1
  C  C101  1  0.77697474  0.46193720  0.82846350  1
  C  C102  1  0.95952777  0.39980399  0.65763666  1
  C  C103  1  0.04047223  0.60019601  0.34236334  1
  C  C104  1  0.94229813  0.33309807  0.34965442  1
  C  C105  1  0.72302526  0.96193720  0.32846350  1
  C  C106  1  0.97135928  0.61536821  0.72823675  1
  C  C107  1  0.01231586  0.02494403  0.16286334  1
  C  C108  1  0.45952777  0.10019601  0.84236334  1
  C  C109  1  0.68532671  0.95947064  0.63901639  1
  C  C110  1  0.47135928  0.88463179  0.77176325  1
  C  C111  1  0.48768414  0.52494403  0.66286334  1
  C  C112  1  0.58399163  0.95189223  0.34297708  1
  C  C113  1  0.96065498  0.26237113  0.67135828  1
  C  C114  1  0.08399163  0.54810777  0.15702292  1
  C  C115  1  0.44229813  0.16690193  0.15034558  1
  C  C116  1  0.91600837  0.45189223  0.84297708  1
  C  C117  1  0.46065498  0.23762887  0.82864172  1
  C  C118  1  0.41600837  0.04810777  0.65702292  1
  C  C119  1  0.31467329  0.04052936  0.36098361  1
  C  C120  1  0.81467329  0.45947064  0.13901639  1
  C  C121  1  0.05770187  0.66690193  0.65034558  1
  C  C122  1  0.03934502  0.73762887  0.32864172  1
  C  C123  1  0.54047223  0.89980399  0.15763666  1
  C  C124  1  0.02864072  0.38463179  0.27176325  1
  C  C125  1  0.55770187  0.83309807  0.84965442  1
  C  C126  1  0.18532671  0.54052936  0.86098361  1
  C  C127  1  0.51231586  0.47505597  0.33713666  1
  C  C128  1  0.52864072  0.11536821  0.22823675  1
  C  C129  1  0.53934502  0.76237113  0.17135828  1
  Br  Br130  1  0.77439364  0.13278824  0.00661033  1
  Br  Br131  1  0.86591545  0.77959645  0.01802935  1
  Br  Br132  1  0.36591545  0.72040355  0.48197065  1
  Br  Br133  1  0.27439364  0.36721176  0.49338967  1
  Br  Br134  1  0.72560636  0.63278824  0.50661033  1
  Br  Br135  1  0.13408455  0.22040355  0.98197065  1
  Br  Br136  1  0.22560636  0.86721176  0.99338967  1
  Br  Br137  1  0.63408455  0.27959645  0.51802935  1
  N  N138  1  0.99410267  0.48156946  0.75140728  1
  N  N139  1  0.50589733  0.98156946  0.25140728  1
  N  N140  1  0.49410267  0.01843054  0.74859272  1
  N  N141  1  0.00589733  0.51843054  0.24859272  1
