# generated using pymatgen
data_Ge7H18O23
_symmetry_space_group_name_H-M   'P 1'
_cell_length_a   7.95282109
_cell_length_b   7.66870681
_cell_length_c   7.76648137
_cell_angle_alpha   90.25229982
_cell_angle_beta   90.07157688
_cell_angle_gamma   91.03678580
_symmetry_Int_Tables_number   1
_chemical_formula_structural   Ge7H18O23
_chemical_formula_sum   'Ge7 H18 O23'
_cell_volume   473.57847013
_cell_formula_units_Z   1
loop_
 _symmetry_equiv_pos_site_id
 _symmetry_equiv_pos_as_xyz
  1  'x, y, z'
loop_
 _atom_site_type_symbol
 _atom_site_label
 _atom_site_symmetry_multiplicity
 _atom_site_fract_x
 _atom_site_fract_y
 _atom_site_fract_z
 _atom_site_occupancy
  Ge  Ge0  1  0.87714947  0.86271067  0.15028550  1
  Ge  Ge1  1  0.86060037  0.13256881  0.88762139  1
  Ge  Ge2  1  0.13062883  0.86311815  0.86755968  1
  Ge  Ge3  1  0.14349365  0.14360082  0.14365776  1
  Ge  Ge4  1  0.00892371  0.99942697  0.49841310  1
  Ge  Ge5  1  0.99357244  0.49928363  0.00783196  1
  Ge  Ge6  1  0.48477828  0.00114190  0.99731135  1
  H  H7  1  0.53069173  0.04224076  0.42862656  1
  H  H8  1  0.56892242  0.03122981  0.63401452  1
  H  H9  1  0.91987341  0.27470800  0.60443914  1
  H  H10  1  0.03239111  0.47556237  0.42918688  1
  H  H11  1  0.03098716  0.54892875  0.62217253  1
  H  H12  1  0.39007795  0.53238049  0.00497147  1
  H  H13  1  0.58196263  0.56563664  0.96188577  1
  H  H14  1  0.31442968  0.73689084  0.44228996  1
  H  H15  1  0.27318103  0.62296649  0.28154941  1
  H  H16  1  0.55303788  0.78665060  0.21600783  1
  H  H17  1  0.69249172  0.67051244  0.56224857  1
  H  H18  1  0.72285698  0.52423516  0.69266019  1
  H  H19  1  0.56246310  0.40302181  0.15738508  1
  H  H20  1  0.73639647  0.45341362  0.26916819  1
  H  H21  1  0.58346362  0.36305944  0.37592866  1
  H  H22  1  0.36078368  0.42915988  0.61318813  1
  H  H23  1  0.45414020  0.34726509  0.77452289  1
  H  H24  1  0.42326963  0.20227687  0.59811200  1
  O  O25  1  0.11586156  0.87906352  0.12787868  1
  O  O26  1  0.87985580  0.88089170  0.89232275  1
  O  O27  1  0.88028859  0.11429568  0.13118826  1
  O  O28  1  0.11206505  0.12039699  0.89547989  1
  O  O29  1  0.85457213  0.87485828  0.38712198  1
  O  O30  1  0.85813808  0.62009609  0.14704063  1
  O  O31  1  0.61749515  0.86541744  0.13877919  1
  O  O32  1  0.88187677  0.14907237  0.63103502  1
  O  O33  1  0.84926458  0.37238212  0.88475657  1
  O  O34  1  0.62611451  0.10921614  0.85805594  1
  O  O35  1  0.12820084  0.86544600  0.62895043  1
  O  O36  1  0.11714813  0.62088231  0.86304741  1
  O  O37  1  0.36376599  0.85380882  0.87811778  1
  O  O38  1  0.13967749  0.13912269  0.38016017  1
  O  O39  1  0.13392519  0.38753620  0.14323482  1
  O  O40  1  0.37819899  0.13879254  0.13841625  1
  O  O41  1  0.48473926  0.05868914  0.54409443  1
  O  O42  1  0.97427318  0.46904383  0.53976352  1
  O  O43  1  0.50075259  0.47674468  0.00058595  1
  O  O44  1  0.36402025  0.65271121  0.36247539  1
  O  O45  1  0.63408376  0.57543414  0.62362234  1
  O  O46  1  0.64145536  0.36490010  0.26490350  1
  O  O47  1  0.37653263  0.32090799  0.67694359  1
