# generated using pymatgen
data_TiFeH2
_symmetry_space_group_name_H-M   'P 1'
_cell_length_a   4.66581393
_cell_length_b   4.66718069
_cell_length_c   2.78355971
_cell_angle_alpha   90.00000000
_cell_angle_beta   90.00000000
_cell_angle_gamma   97.66061224
_symmetry_Int_Tables_number   1
_chemical_formula_structural   TiFeH2
_chemical_formula_sum   'Ti2 Fe2 H4'
_cell_volume   60.07435623
_cell_formula_units_Z   2
loop_
 _symmetry_equiv_pos_site_id
 _symmetry_equiv_pos_as_xyz
  1  'x, y, z'
loop_
 _atom_site_type_symbol
 _atom_site_label
 _atom_site_symmetry_multiplicity
 _atom_site_fract_x
 _atom_site_fract_y
 _atom_site_fract_z
 _atom_site_occupancy
  Ti  Ti0  1  0.71640294  0.78311423  0.50000000  1
  Ti  Ti1  1  0.28359706  0.21688577  0.50000000  1
  Fe  Fe2  1  0.79509808  0.29495341  0.00000000  1
  Fe  Fe3  1  0.20490192  0.70504659  0.00000000  1
  H  H4  1  0.00000000  0.00000000  0.00000000  1
  H  H5  1  0.50000000  0.00000000  0.00000000  1
  H  H6  1  0.50000000  0.50000000  0.00000000  1
  H  H7  1  0.00000000  0.50000000  0.50000000  1
