# generated using pymatgen
data_LiVTeO5
_symmetry_space_group_name_H-M   'P 1'
_cell_length_a   6.00915376
_cell_length_b   8.28086359
_cell_length_c   10.55565670
_cell_angle_alpha   90.00000000
_cell_angle_beta   90.00000000
_cell_angle_gamma   90.00000000
_symmetry_Int_Tables_number   1
_chemical_formula_structural   LiVTeO5
_chemical_formula_sum   'Li4 V4 Te4 O20'
_cell_volume   525.25984915
_cell_formula_units_Z   4
loop_
 _symmetry_equiv_pos_site_id
 _symmetry_equiv_pos_as_xyz
  1  'x, y, z'
loop_
 _atom_site_type_symbol
 _atom_site_label
 _atom_site_symmetry_multiplicity
 _atom_site_fract_x
 _atom_site_fract_y
 _atom_site_fract_z
 _atom_site_occupancy
  Li  Li0  1  0.40448498  0.32962298  0.19406801  1
  Li  Li1  1  0.09551502  0.82962298  0.80593199  1
  Li  Li2  1  0.90448498  0.67037702  0.30593199  1
  Li  Li3  1  0.59551502  0.17037702  0.69406801  1
  V  V4  1  0.20638364  0.23509622  0.89500235  1
  V  V5  1  0.70638364  0.76490378  0.60499765  1
  V  V6  1  0.29361636  0.73509622  0.10499765  1
  V  V7  1  0.79361636  0.26490378  0.39500235  1
  Te  Te8  1  0.12163200  0.39354237  0.61317735  1
  Te  Te9  1  0.87836800  0.10645763  0.11317735  1
  Te  Te10  1  0.37836800  0.89354237  0.38682265  1
  Te  Te11  1  0.62163200  0.60645763  0.88682265  1
  O  O12  1  0.68063393  0.27190244  0.10952761  1
  O  O13  1  0.52142783  0.25738405  0.36583082  1
  O  O14  1  0.39994603  0.55965325  0.15006216  1
  O  O15  1  0.47857217  0.24261595  0.86583082  1
  O  O16  1  0.89994603  0.44034675  0.34993784  1
  O  O17  1  0.31936607  0.22809756  0.60952761  1
  O  O18  1  0.02142783  0.74261595  0.13416918  1
  O  O19  1  0.10005397  0.05965325  0.84993784  1
  O  O20  1  0.97857217  0.75738405  0.63416918  1
  O  O21  1  0.35681641  0.74200820  0.93129796  1
  O  O22  1  0.92996741  0.10239875  0.29738737  1
  O  O23  1  0.14318359  0.24200820  0.06870204  1
  O  O24  1  0.57003259  0.60239875  0.70261263  1
  O  O25  1  0.42996741  0.89760125  0.20261263  1
  O  O26  1  0.81936607  0.77190244  0.89047239  1
  O  O27  1  0.85681641  0.25799180  0.56870204  1
  O  O28  1  0.64318359  0.75799180  0.43129796  1
  O  O29  1  0.18063393  0.72809756  0.39047239  1
  O  O30  1  0.07003259  0.39760125  0.79738737  1
  O  O31  1  0.60005397  0.94034675  0.65006216  1
