# generated using pymatgen
data_Li5AuO4
_symmetry_space_group_name_H-M   'P 1'
_cell_length_a   7.70116811
_cell_length_b   5.55844509
_cell_length_c   5.38247158
_cell_angle_alpha   79.95946452
_cell_angle_beta   47.57015392
_cell_angle_gamma   44.88668058
_symmetry_Int_Tables_number   1
_chemical_formula_structural   Li5AuO4
_chemical_formula_sum   'Li5 Au1 O4'
_cell_volume   97.50882053
_cell_formula_units_Z   1
loop_
 _symmetry_equiv_pos_site_id
 _symmetry_equiv_pos_as_xyz
  1  'x, y, z'
loop_
 _atom_site_type_symbol
 _atom_site_label
 _atom_site_symmetry_multiplicity
 _atom_site_fract_x
 _atom_site_fract_y
 _atom_site_fract_z
 _atom_site_occupancy
  Li  Li0  1  0.00000000  0.00000000  0.00000000  1
  Li  Li1  1  0.18548587  0.21095740  0.77748021  1
  Li  Li2  1  0.31807333  0.64933131  0.34390085  1
  Li  Li3  1  0.68192667  0.35066869  0.65609915  1
  Li  Li4  1  0.81451413  0.78904260  0.22251979  1
  Au  Au5  1  0.50000000  0.00000000  0.00000000  1
  O  O6  1  0.23501434  0.94250223  0.07728553  1
  O  O7  1  0.41541251  0.29755085  0.72604395  1
  O  O8  1  0.58458749  0.70244915  0.27395605  1
  O  O9  1  0.76498566  0.05749777  0.92271447  1
