# generated using pymatgen
data_Ce5C2Cl9
_symmetry_space_group_name_H-M   'P 1'
_cell_length_a   9.50327402
_cell_length_b   8.66068412
_cell_length_c   11.77699435
_cell_angle_alpha   85.61680662
_cell_angle_beta   81.81750794
_cell_angle_gamma   58.78840081
_symmetry_Int_Tables_number   1
_chemical_formula_structural   Ce5C2Cl9
_chemical_formula_sum   'Ce10 C4 Cl18'
_cell_volume   820.56259765
_cell_formula_units_Z   2
loop_
 _symmetry_equiv_pos_site_id
 _symmetry_equiv_pos_as_xyz
  1  'x, y, z'
loop_
 _atom_site_type_symbol
 _atom_site_label
 _atom_site_symmetry_multiplicity
 _atom_site_fract_x
 _atom_site_fract_y
 _atom_site_fract_z
 _atom_site_occupancy
  Ce  Ce0  1  0.85044261  0.31639539  0.00805294  1
  Ce  Ce1  1  0.14955739  0.68360461  0.99194706  1
  Ce  Ce2  1  0.12223005  0.22758545  0.69371856  1
  Ce  Ce3  1  0.25219392  0.90556351  0.22385571  1
  Ce  Ce4  1  0.36074975  0.39802120  0.23435194  1
  Ce  Ce5  1  0.17314285  0.69597228  0.51770085  1
  Ce  Ce6  1  0.82685715  0.30402772  0.48229915  1
  Ce  Ce7  1  0.63925025  0.60197880  0.76564806  1
  Ce  Ce8  1  0.74780608  0.09443649  0.77614429  1
  Ce  Ce9  1  0.87776995  0.77241455  0.30628144  1
  C  C10  1  0.15765798  0.70594102  0.31591078  1
  C  C11  1  0.14534107  0.70599743  0.19196125  1
  C  C12  1  0.84234202  0.29405898  0.68408922  1
  C  C13  1  0.85465893  0.29400257  0.80803875  1
  Cl  Cl14  1  0.98391621  0.62529843  0.75305927  1
  Cl  Cl15  1  0.70774583  0.69991783  0.97374755  1
  Cl  Cl16  1  0.41624078  0.33823935  0.47420101  1
  Cl  Cl17  1  0.81263901  0.00142233  0.01697061  1
  Cl  Cl18  1  0.01608379  0.37470157  0.24694073  1
  Cl  Cl19  1  0.18736099  -0.00142233  -0.01697061  1
  Cl  Cl20  1  0.18719736  0.02574875  0.46551840  1
  Cl  Cl21  1  0.47635822  0.00766323  0.73143486  1
  Cl  Cl22  1  0.29225417  0.30008217  0.02625245  1
  Cl  Cl23  1  0.58375922  0.66176065  0.52579899  1
  Cl  Cl24  1  0.84608058  0.12729026  0.26064013  1
  Cl  Cl25  1  0.15391942  0.87270974  0.73935987  1
  Cl  Cl26  1  0.50000000  0.50000000  0.00000000  1
  Cl  Cl27  1  0.52364178  -0.00766323  0.26856514  1
  Cl  Cl28  1  0.81280264  -0.02574875  0.53448160  1
  Cl  Cl29  1  0.00000000  0.50000000  0.50000000  1
  Cl  Cl30  1  0.44344920  0.43875546  0.74488680  1
  Cl  Cl31  1  0.55655080  0.56124454  0.25511320  1
