# generated using pymatgen
data_Rb2MgH4
_symmetry_space_group_name_H-M   'P 1'
_cell_length_a   10.83239768
_cell_length_b   13.22205038
_cell_length_c   7.31633065
_cell_angle_alpha   90.00000000
_cell_angle_beta   90.00000000
_cell_angle_gamma   90.00000000
_symmetry_Int_Tables_number   1
_chemical_formula_structural   Rb2MgH4
_chemical_formula_sum   'Rb8 Mg4 H16'
_cell_volume   1047.89248936
_cell_formula_units_Z   4
loop_
 _symmetry_equiv_pos_site_id
 _symmetry_equiv_pos_as_xyz
  1  'x, y, z'
loop_
 _atom_site_type_symbol
 _atom_site_label
 _atom_site_symmetry_multiplicity
 _atom_site_fract_x
 _atom_site_fract_y
 _atom_site_fract_z
 _atom_site_occupancy
  Rb  Rb0  1  0.11782321  0.94077328  0.25000000  1
  Rb  Rb1  1  0.61782321  0.55922672  0.25000000  1
  Rb  Rb2  1  0.88217679  0.05922672  0.75000000  1
  Rb  Rb3  1  0.38217679  0.44077328  0.75000000  1
  Rb  Rb4  1  0.43174055  0.18388047  0.25000000  1
  Rb  Rb5  1  0.93174055  0.31611953  0.25000000  1
  Rb  Rb6  1  0.56825945  0.81611953  0.75000000  1
  Rb  Rb7  1  0.06825945  0.68388047  0.75000000  1
  Mg  Mg8  1  0.77287411  0.07251946  0.25000000  1
  Mg  Mg9  1  0.27287411  0.42748054  0.25000000  1
  Mg  Mg10  1  0.22712589  0.92748054  0.75000000  1
  Mg  Mg11  1  0.72712589  0.57251946  0.75000000  1
  H  H12  1  0.60670988  0.04412908  0.25000000  1
  H  H13  1  0.10670988  0.45587092  0.25000000  1
  H  H14  1  0.39329012  0.95587092  0.75000000  1
  H  H15  1  0.89329012  0.54412908  0.75000000  1
  H  H16  1  0.87106746  0.95771284  0.25000000  1
  H  H17  1  0.37106746  0.54228716  0.25000000  1
  H  H18  1  0.12893254  0.04228716  0.75000000  1
  H  H19  1  0.62893254  0.45771284  0.75000000  1
  H  H20  1  0.82101875  0.15712042  0.05631353  1
  H  H21  1  0.32101875  0.34287958  0.44368647  1
  H  H22  1  0.17898125  0.84287958  0.55631353  1
  H  H23  1  0.67898125  0.65712042  0.94368647  1
  H  H24  1  0.17898125  0.84287958  0.94368647  1
  H  H25  1  0.67898125  0.65712042  0.55631353  1
  H  H26  1  0.82101875  0.15712042  0.44368647  1
  H  H27  1  0.32101875  0.34287958  0.05631353  1
