# generated using pymatgen
data_Gd5(RuO7)2
_symmetry_space_group_name_H-M   'P 1'
_cell_length_a   6.45430022
_cell_length_b   6.45429997
_cell_length_c   7.55830416
_cell_angle_alpha   89.75113662
_cell_angle_beta   89.75113666
_cell_angle_gamma   107.58870812
_symmetry_Int_Tables_number   1
_chemical_formula_structural   Gd5(RuO7)2
_chemical_formula_sum   'Gd5 Ru2 O14'
_cell_volume   300.13583741
_cell_formula_units_Z   1
loop_
 _symmetry_equiv_pos_site_id
 _symmetry_equiv_pos_as_xyz
  1  'x, y, z'
loop_
 _atom_site_type_symbol
 _atom_site_label
 _atom_site_symmetry_multiplicity
 _atom_site_fract_x
 _atom_site_fract_y
 _atom_site_fract_z
 _atom_site_occupancy
  Gd  Gd0  1  0.06712854  0.51724396  0.24441232  1
  Gd  Gd1  1  0.48275604  0.93287146  0.75558768  1
  Gd  Gd2  1  0.51724396  0.06712854  0.24441232  1
  Gd  Gd3  1  0.00000000  0.00000000  0.50000000  1
  Gd  Gd4  1  0.93287146  0.48275604  0.75558768  1
  Ru  Ru5  1  0.50000000  0.50000000  0.50000000  1
  Ru  Ru6  1  0.50000000  0.50000000  0.00000000  1
  O  O7  1  0.12638090  0.82508032  0.71169606  1
  O  O8  1  0.17491968  0.87361910  0.28830394  1
  O  O9  1  0.19584247  0.45065406  0.53788879  1
  O  O10  1  0.20222085  0.46654221  0.95287247  1
  O  O11  1  0.41124385  0.41124385  0.24947773  1
  O  O12  1  0.53345779  0.79777915  0.04712753  1
  O  O13  1  0.54934594  0.80415753  0.46211121  1
  O  O14  1  0.45065406  0.19584247  0.53788879  1
  O  O15  1  0.46654221  0.20222085  0.95287247  1
  O  O16  1  0.58875615  0.58875615  0.75052227  1
  O  O17  1  0.79777915  0.53345779  0.04712753  1
  O  O18  1  0.80415753  0.54934594  0.46211121  1
  O  O19  1  0.82508032  0.12638090  0.71169606  1
  O  O20  1  0.87361910  0.17491968  0.28830394  1
