# generated using pymatgen
data_YZr9O20
_symmetry_space_group_name_H-M   'P 1'
_cell_length_a   18.30497434
_cell_length_b   8.19876378
_cell_length_c   6.40855830
_cell_angle_alpha   59.25589555
_cell_angle_beta   55.16267765
_cell_angle_gamma   26.52912897
_symmetry_Int_Tables_number   1
_chemical_formula_structural   YZr9O20
_chemical_formula_sum   'Y1 Zr9 O20'
_cell_volume   352.59255844
_cell_formula_units_Z   1
loop_
 _symmetry_equiv_pos_site_id
 _symmetry_equiv_pos_as_xyz
  1  'x, y, z'
loop_
 _atom_site_type_symbol
 _atom_site_label
 _atom_site_symmetry_multiplicity
 _atom_site_fract_x
 _atom_site_fract_y
 _atom_site_fract_z
 _atom_site_occupancy
  Y  Y0  1  0.59975804  0.49997785  0.50145907  1
  Zr  Zr1  1  0.00017853  0.99827214  0.99912574  1
  Zr  Zr2  1  0.20052057  0.99733601  0.00076011  1
  Zr  Zr3  1  0.99836017  0.50241506  0.50101187  1
  Zr  Zr4  1  0.40203677  0.99734182  0.00013311  1
  Zr  Zr5  1  0.20065996  0.49857150  0.50118399  1
  Zr  Zr6  1  0.59679194  0.00644742  0.00082272  1
  Zr  Zr7  1  0.40004662  0.50092209  0.50017294  1
  Zr  Zr8  1  0.80036962  0.00123204  0.99945458  1
  Zr  Zr9  1  0.80111756  0.49843789  0.49580186  1
  O  O10  1  0.04614765  0.99204328  0.28667116  1
  O  O11  1  0.23951395  0.00590811  0.29088308  1
  O  O12  1  0.05798121  0.50128334  0.70843765  1
  O  O13  1  0.15722881  0.50086012  0.21222393  1
  O  O14  1  0.43710806  0.02379863  0.27078218  1
  O  O15  1  0.35761184  0.50412326  0.21856903  1
  O  O16  1  0.25829959  0.49904114  0.71466671  1
  O  O17  1  0.64158479  0.00108256  0.28928745  1
  O  O18  1  0.13682186  0.01132437  0.78954348  1
  O  O19  1  0.55295416  0.50135221  0.21532372  1
  O  O20  1  0.44804504  0.50196673  0.73186349  1
  O  O21  1  0.85363691  0.97733688  0.27124431  1
  O  O22  1  0.33642276  0.01317219  0.79218565  1
  O  O23  1  0.76215825  0.49749117  0.20738660  1
  O  O24  1  0.66095904  0.49598779  0.72812180  1
  O  O25  1  0.54501590  0.99672256  0.78167278  1
  O  O26  1  0.95724670  0.49620575  0.20918484  1
  O  O27  1  0.85678500  0.50077149  0.70884933  1
  O  O28  1  0.74713019  0.98620094  0.79120304  1
  O  O29  1  0.94750652  0.99237064  0.78197481  1
