# generated using pymatgen
data_K3SnSb3
_symmetry_space_group_name_H-M   'P 1'
_cell_length_a   5.26883249
_cell_length_b   15.55793676
_cell_length_c   7.75141790
_cell_angle_alpha   103.56625425
_cell_angle_beta   111.98062876
_cell_angle_gamma   89.78147224
_symmetry_Int_Tables_number   1
_chemical_formula_structural   K3SnSb3
_chemical_formula_sum   'K6 Sn2 Sb6'
_cell_volume   570.28280751
_cell_formula_units_Z   2
loop_
 _symmetry_equiv_pos_site_id
 _symmetry_equiv_pos_as_xyz
  1  'x, y, z'
loop_
 _atom_site_type_symbol
 _atom_site_label
 _atom_site_symmetry_multiplicity
 _atom_site_fract_x
 _atom_site_fract_y
 _atom_site_fract_z
 _atom_site_occupancy
  K  K0  1  0.00000000  0.00000000  0.00000000  1
  K  K1  1  0.00000000  0.50000000  0.00000000  1
  K  K2  1  0.30422434  0.37060985  0.55199010  1
  K  K3  1  0.31452160  0.86728425  0.56429436  1
  K  K4  1  0.68547840  0.13271575  0.43570564  1
  K  K5  1  0.69577566  0.62939015  0.44800990  1
  Sn  Sn6  1  0.87336522  0.72000222  0.11997012  1
  Sn  Sn7  1  0.12663478  0.27999778  0.88002988  1
  Sb  Sb8  1  0.85833765  0.22014316  0.10079684  1
  Sb  Sb9  1  0.38306930  0.11523563  0.78352179  1
  Sb  Sb10  1  0.38382447  0.61829774  0.79201907  1
  Sb  Sb11  1  0.61617553  0.38170226  0.20798093  1
  Sb  Sb12  1  0.61693070  0.88476437  0.21647821  1
  Sb  Sb13  1  0.14166235  0.77985684  0.89920316  1
