# generated using pymatgen
data_KAu(Br2O)2
_symmetry_space_group_name_H-M   'P 1'
_cell_length_a   8.87948145
_cell_length_b   13.09691809
_cell_length_c   4.39497021
_cell_angle_alpha   90.00000000
_cell_angle_beta   90.42074995
_cell_angle_gamma   90.00000000
_symmetry_Int_Tables_number   1
_chemical_formula_structural   KAu(Br2O)2
_chemical_formula_sum   'K2 Au2 Br8 O4'
_cell_volume   511.09418612
_cell_formula_units_Z   2
loop_
 _symmetry_equiv_pos_site_id
 _symmetry_equiv_pos_as_xyz
  1  'x, y, z'
loop_
 _atom_site_type_symbol
 _atom_site_label
 _atom_site_symmetry_multiplicity
 _atom_site_fract_x
 _atom_site_fract_y
 _atom_site_fract_z
 _atom_site_occupancy
  K  K0  1  -0.00000000  0.50000000  0.50000000  1
  K  K1  1  0.50000000  -0.00000000  0.50000000  1
  Au  Au2  1  0.50000000  0.50000000  -0.00000000  1
  Au  Au3  1  -0.00000000  -0.00000000  -0.00000000  1
  Br  Br4  1  0.65804268  0.61376277  0.31347563  1
  Br  Br5  1  0.84195732  0.11376277  0.68652437  1
  Br  Br6  1  0.34195732  0.38623723  0.68652437  1
  Br  Br7  1  0.15804268  0.88623723  0.31347563  1
  Br  Br8  1  0.69418167  0.35240066  0.97221270  1
  Br  Br9  1  0.80581833  0.85240066  0.02778730  1
  Br  Br10  1  0.30581833  0.64759934  0.02778730  1
  Br  Br11  1  0.19418167  0.14759934  0.97221270  1
  O  O12  1  0.37730994  0.10238282  0.02159078  1
  O  O13  1  0.12269006  0.60238282  0.97840922  1
  O  O14  1  0.62269006  0.89761718  0.97840922  1
  O  O15  1  0.87730994  0.39761718  0.02159078  1
