# generated using pymatgen
data_NaSr8LaTi10O30
_symmetry_space_group_name_H-M   'P 1'
_cell_length_a   7.85137854
_cell_length_b   5.55176301
_cell_length_c   19.65870646
_cell_angle_alpha   90.00000000
_cell_angle_beta   90.00000000
_cell_angle_gamma   45.00000000
_symmetry_Int_Tables_number   1
_chemical_formula_structural   NaSr8LaTi10O30
_chemical_formula_sum   'Na1 Sr8 La1 Ti10 O30'
_cell_volume   605.92207555
_cell_formula_units_Z   1
loop_
 _symmetry_equiv_pos_site_id
 _symmetry_equiv_pos_as_xyz
  1  'x, y, z'
loop_
 _atom_site_type_symbol
 _atom_site_label
 _atom_site_symmetry_multiplicity
 _atom_site_fract_x
 _atom_site_fract_y
 _atom_site_fract_z
 _atom_site_occupancy
  Na  Na0  1  0.00000000  0.00000000  0.80000000  1
  Sr  Sr1  1  0.00000000  0.00000000  0.99914660  1
  Sr  Sr2  1  0.50000000  0.00000000  0.00048080  1
  Sr  Sr3  1  0.50000000  0.00000000  0.20001077  1
  Sr  Sr4  1  0.50000000  0.00000000  0.39998923  1
  Sr  Sr5  1  0.50000000  0.00000000  0.59951920  1
  Sr  Sr6  1  0.00000000  0.00000000  0.19998209  1
  Sr  Sr7  1  0.00000000  0.00000000  0.40001791  1
  Sr  Sr8  1  0.00000000  0.00000000  0.60085340  1
  La  La9  1  0.50000000  0.00000000  0.80000000  1
  Ti  Ti10  1  0.00000000  0.50000000  0.30000000  1
  Ti  Ti11  1  0.00000000  0.50000000  0.09991907  1
  Ti  Ti12  1  0.00000000  0.50000000  0.70095235  1
  Ti  Ti13  1  0.00000000  0.50000000  0.50008093  1
  Ti  Ti14  1  0.00000000  0.50000000  0.89904765  1
  Ti  Ti15  1  0.50000000  0.50000000  0.09991907  1
  Ti  Ti16  1  0.50000000  0.50000000  0.30000000  1
  Ti  Ti17  1  0.50000000  0.50000000  0.70095235  1
  Ti  Ti18  1  0.50000000  0.50000000  0.89904765  1
  Ti  Ti19  1  0.50000000  0.50000000  0.50008093  1
  O  O20  1  0.00000000  0.50000000  0.19999264  1
  O  O21  1  0.00000000  0.50000000  0.60035895  1
  O  O22  1  0.24985643  0.50028714  0.09998959  1
  O  O23  1  0.25001018  0.49997963  0.30000000  1
  O  O24  1  0.24985643  0.50028714  0.50001041  1
  O  O25  1  0.25696471  0.48607058  0.70095413  1
  O  O26  1  0.25696471  0.48607058  0.89904587  1
  O  O27  1  0.50000000  0.50000000  0.19999264  1
  O  O28  1  0.24985643  0.00000000  0.09998959  1
  O  O29  1  0.50000000  0.50000000  0.99964105  1
  O  O30  1  0.25001018  0.00000000  0.30000000  1
  O  O31  1  0.24985643  0.00000000  0.50001041  1
  O  O32  1  0.25696471  0.00000000  0.89904587  1
  O  O33  1  0.50000000  0.50000000  0.60035895  1
  O  O34  1  0.50000000  0.50000000  0.80000000  1
  O  O35  1  0.25696471  0.00000000  0.70095413  1
  O  O36  1  0.50000000  0.50000000  0.40000736  1
  O  O37  1  0.75014357  0.49971286  0.09998959  1
  O  O38  1  0.74998982  0.50002037  0.30000000  1
  O  O39  1  0.75014357  0.49971286  0.50001041  1
  O  O40  1  0.74303529  0.51392942  0.70095413  1
  O  O41  1  0.74303529  0.51392942  0.89904587  1
  O  O42  1  0.75014357  0.00000000  0.09998959  1
  O  O43  1  0.74998982  0.00000000  0.30000000  1
  O  O44  1  0.75014357  0.00000000  0.50001041  1
  O  O45  1  0.74303529  0.00000000  0.70095413  1
  O  O46  1  0.00000000  0.50000000  0.99964105  1
  O  O47  1  0.00000000  0.50000000  0.40000736  1
  O  O48  1  0.74303529  0.00000000  0.89904587  1
  O  O49  1  0.00000000  0.50000000  0.80000000  1
