# generated using pymatgen
data_Na9CaTa9TiO30
_symmetry_space_group_name_H-M   'P 1'
_cell_length_a   5.76151765
_cell_length_b   5.79794885
_cell_length_c   38.53595941
_cell_angle_alpha   90.00000000
_cell_angle_beta   90.00000000
_cell_angle_gamma   88.50723079
_symmetry_Int_Tables_number   1
_chemical_formula_structural   Na9CaTa9TiO30
_chemical_formula_sum   'Na18 Ca2 Ta18 Ti2 O60'
_cell_volume   1286.85625028
_cell_formula_units_Z   2
loop_
 _symmetry_equiv_pos_site_id
 _symmetry_equiv_pos_as_xyz
  1  'x, y, z'
loop_
 _atom_site_type_symbol
 _atom_site_label
 _atom_site_symmetry_multiplicity
 _atom_site_fract_x
 _atom_site_fract_y
 _atom_site_fract_z
 _atom_site_occupancy
  Na  Na0  1  0.97050458  0.04249044  0.15209089  1
  Na  Na1  1  0.03000766  0.03083425  0.34801141  1
  Na  Na2  1  0.99806647  0.03903252  0.55000000  1
  Na  Na3  1  0.03000766  0.03083425  0.75198859  1
  Na  Na4  1  0.97050458  0.04249044  0.94790911  1
  Na  Na5  1  0.52603825  0.52141347  0.35004785  1
  Na  Na6  1  0.62907291  0.42866094  0.15724996  1
  Na  Na7  1  0.50097570  0.54049973  0.55000000  1
  Na  Na8  1  0.52603825  0.52141347  0.74995215  1
  Na  Na9  1  0.62907291  0.42866094  0.94275004  1
  Na  Na10  1  0.59413402  0.42157226  0.25227212  1
  Na  Na11  1  0.50791887  0.54160947  0.65062043  1
  Na  Na12  1  0.50791887  0.54160947  0.44937957  1
  Na  Na13  1  0.59413402  0.42157226  0.84772788  1
  Na  Na14  1  0.05007649  0.06700831  0.24766309  1
  Na  Na15  1  0.00268485  0.04012706  0.44960015  1
  Na  Na16  1  0.00268485  0.04012706  0.65039985  1
  Na  Na17  1  0.05007649  0.06700831  0.85233691  1
  Ca  Ca18  1  0.67410020  0.54790500  0.05000000  1
  Ca  Ca19  1  0.03263710  0.95625796  0.05000000  1
  Ta  Ta20  1  0.11517175  0.58871819  0.19684580  1
  Ta  Ta21  1  0.00082565  0.52488530  0.49997255  1
  Ta  Ta22  1  0.01059616  0.52060109  0.70094037  1
  Ta  Ta23  1  0.04630149  0.50101651  0.80133562  1
  Ta  Ta24  1  0.11517175  0.58871819  0.90315420  1
  Ta  Ta25  1  0.49424931  0.96565855  0.10165729  1
  Ta  Ta26  1  0.49424931  0.96565855  0.99834271  1
  Ta  Ta27  1  0.54633625  0.97862638  0.29823109  1
  Ta  Ta28  1  0.55135785  0.92734600  0.19960479  1
  Ta  Ta29  1  0.50041331  0.02471644  0.49980955  1
  Ta  Ta30  1  0.50041331  0.02471644  0.60019045  1
  Ta  Ta31  1  0.55135785  0.92734600  0.90039521  1
  Ta  Ta32  1  0.50516902  0.02267347  0.39989409  1
  Ta  Ta33  1  0.50516902  0.02267347  0.70010591  1
  Ta  Ta34  1  0.54633625  0.97862638  0.80176891  1
  Ta  Ta35  1  0.04630149  0.50101651  0.29866438  1
  Ta  Ta36  1  0.00082565  0.52488530  0.60002745  1
  Ta  Ta37  1  0.01059616  0.52060109  0.39905963  1
  Ti  Ti38  1  0.20898030  0.41691761  0.09930176  1
  Ti  Ti39  1  0.20898030  0.41691761  0.00069824  1
  O  O40  1  0.09644920  0.46411548  0.05000000  1
  O  O41  1  0.03989687  0.49888298  0.24536499  1
  O  O42  1  0.04751602  0.47388731  0.44961769  1
  O  O43  1  0.04751602  0.47388731  0.65038231  1
  O  O44  1  0.03989687  0.49888298  0.85463501  1
  O  O45  1  0.10505074  0.42544593  0.15298929  1
  O  O46  1  0.23710239  0.22766455  0.39496656  1
  O  O47  1  0.24187587  0.23907613  0.59423533  1
  O  O48  1  0.14264484  0.11299809  0.10158674  1
  O  O49  1  0.28584598  0.25962522  0.30065133  1
  O  O50  1  0.28584598  0.25962522  0.79934867  1
  O  O51  1  0.14264484  0.11299809  0.99841326  1
  O  O52  1  0.23710239  0.22766455  0.70503344  1
  O  O53  1  0.24187587  0.23907613  0.50576467  1
  O  O54  1  0.10505074  0.42544593  0.94701071  1
  O  O55  1  0.32704680  0.69728920  0.11281402  1
  O  O56  1  0.19928658  0.91462027  0.19353905  1
  O  O57  1  0.23961904  0.75184329  0.30465869  1
  O  O58  1  0.25528993  0.72805964  0.39461239  1
  O  O59  1  0.23922154  0.73973816  0.59473633  1
  O  O60  1  0.19928658  0.91462027  0.90646095  1
  O  O61  1  0.25528993  0.72805964  0.70538761  1
  O  O62  1  0.23961904  0.75184329  0.79534131  1
  O  O63  1  0.23922154  0.73973816  0.50526367  1
  O  O64  1  0.32704680  0.69728920  0.98718598  1
  O  O65  1  0.42186405  0.91196535  0.05000000  1
  O  O66  1  0.46324524  0.96587126  0.24964987  1
  O  O67  1  0.44211199  0.97703585  0.65015581  1
  O  O68  1  0.44211199  0.97703585  0.44984419  1
  O  O69  1  0.46324524  0.96587126  0.85035013  1
  O  O70  1  0.54079410  0.98025913  0.34949111  1
  O  O71  1  0.54256645  0.03882588  0.14991289  1
  O  O72  1  0.54927390  0.97252834  0.55000000  1
  O  O73  1  0.54079410  0.98025913  0.75050889  1
  O  O74  1  0.54256645  0.03882588  0.95008711  1
  O  O75  1  0.52166419  0.31185448  0.00828051  1
  O  O76  1  0.52166419  0.31185448  0.09171949  1
  O  O77  1  0.79032631  0.19143913  0.29426638  1
  O  O78  1  0.74578692  0.17201559  0.20714662  1
  O  O79  1  0.73515695  0.24388576  0.60529631  1
  O  O80  1  0.72857642  0.25369225  0.40450446  1
  O  O81  1  0.73515695  0.24388576  0.49470369  1
  O  O82  1  0.72857642  0.25369225  0.69549554  1
  O  O83  1  0.79032631  0.19143913  0.80573362  1
  O  O84  1  0.74578692  0.17201559  0.89285338  1
  O  O85  1  0.78015295  0.81490567  0.09182669  1
  O  O86  1  0.78015295  0.81490567  0.00817331  1
  O  O87  1  0.80692586  0.72572279  0.18691903  1
  O  O88  1  0.76093113  0.74999756  0.69598978  1
  O  O89  1  0.73988965  0.70004553  0.29596671  1
  O  O90  1  0.74679290  0.74359342  0.49377063  1
  O  O91  1  0.76093113  0.74999756  0.40401022  1
  O  O92  1  0.74679290  0.74359342  0.60622937  1
  O  O93  1  0.80692586  0.72572279  0.91308097  1
  O  O94  1  0.73988965  0.70004553  0.80403329  1
  O  O95  1  0.43653859  0.56749038  0.20541102  1
  O  O96  1  0.96376882  0.47116731  0.34846480  1
  O  O97  1  0.93569876  0.48408359  0.55000000  1
  O  O98  1  0.96376882  0.47116731  0.75153520  1
  O  O99  1  0.43653859  0.56749038  0.89458898  1
