# generated using pymatgen
data_Na3MgAlSi7O18
_symmetry_space_group_name_H-M   'P 1'
_cell_length_a   5.31539250
_cell_length_b   19.32199211
_cell_length_c   14.95478841
_cell_angle_alpha   25.37933257
_cell_angle_beta   72.76286427
_cell_angle_gamma   76.74116087
_symmetry_Int_Tables_number   1
_chemical_formula_structural   Na3MgAlSi7O18
_chemical_formula_sum   'Na6 Mg2 Al2 Si14 O36'
_cell_volume   625.97176730
_cell_formula_units_Z   2
loop_
 _symmetry_equiv_pos_site_id
 _symmetry_equiv_pos_as_xyz
  1  'x, y, z'
loop_
 _atom_site_type_symbol
 _atom_site_label
 _atom_site_symmetry_multiplicity
 _atom_site_fract_x
 _atom_site_fract_y
 _atom_site_fract_z
 _atom_site_occupancy
  Na  Na0  1  0.24970228  0.03464607  0.29788248  1
  Na  Na1  1  0.25029772  0.36717562  0.30029583  1
  Na  Na2  1  0.25000000  0.69710081  0.30289919  1
  Na  Na3  1  0.75000000  0.29583958  0.70416042  1
  Na  Na4  1  0.75024305  0.63287286  0.70255490  1
  Na  Na5  1  0.74975695  0.96830161  0.69627063  1
  Mg  Mg6  1  0.75068333  0.23754256  0.09492947  1
  Mg  Mg7  1  0.74931667  0.57001558  0.09751239  1
  Al  Al8  1  0.25000000  0.09270296  0.90729704  1
  Al  Al9  1  0.75000000  0.90230829  0.09769171  1
  Si  Si10  1  0.26360544  0.14357250  0.38416892  1
  Si  Si11  1  0.23263632  0.00130202  0.80269813  1
  Si  Si12  1  0.26484073  0.47877249  0.38066433  1
  Si  Si13  1  0.23515927  0.33821032  0.80235286  1
  Si  Si14  1  0.26736368  0.80530318  0.39069667  1
  Si  Si15  1  0.77538923  0.33027712  0.19505892  1
  Si  Si16  1  0.24901833  0.42707315  0.90671170  1
  Si  Si17  1  0.23639456  0.67131392  0.80094465  1
  Si  Si18  1  0.72991172  0.18465438  0.62386976  1
  Si  Si19  1  0.77785342  0.66453557  0.19558047  1
  Si  Si20  1  0.25098167  0.76085900  0.90535615  1
  Si  Si21  1  0.72214658  0.52465261  0.61523134  1
  Si  Si22  1  0.77008828  0.99317953  0.19829632  1
  Si  Si23  1  0.72461077  0.85561317  0.61905079  1
  O  O24  1  0.00700116  0.10309705  0.66131375  1
  O  O25  1  0.34321461  0.23006582  0.17716889  1
  O  O26  1  0.00270084  0.44327904  0.66247065  1
  O  O27  1  0.20731375  0.28465133  0.62301332  1
  O  O28  1  0.70334098  0.14309499  0.08896344  1
  O  O29  1  0.33926844  0.56512054  0.17441838  1
  O  O30  1  0.49850202  0.20668475  0.35641090  1
  O  O31  1  0.87701242  0.03288073  0.03718574  1
  O  O32  1  0.00149798  0.76978041  0.66712394  1
  O  O33  1  0.16073156  0.30466047  0.95580061  1
  O  O34  1  0.51006206  0.12174444  0.64242368  1
  O  O35  1  0.29268625  0.19231698  0.90001837  1
  O  O36  1  0.19205544  0.61007365  0.63970351  1
  O  O37  1  0.80193689  0.04474101  0.38753588  1
  O  O38  1  0.69806310  0.47701790  0.09070521  1
  O  O39  1  0.36821088  0.88039491  0.19458189  1
  O  O40  1  0.49729916  0.54902773  0.34522257  1
  O  O41  1  0.90441771  0.38202447  0.02156501  1
  O  O42  1  0.15678539  0.63730053  0.95546475  1
  O  O43  1  0.51180547  0.46349812  0.62901809  1
  O  O44  1  0.62298758  0.10294621  0.82698732  1
  O  O45  1  0.30407469  0.52695085  0.89290038  1
  O  O46  1  0.19592531  0.94680207  0.63334670  1
  O  O47  1  0.79665902  0.37515242  0.39278915  1
  O  O48  1  0.70268259  0.80806896  0.10079200  1
  O  O49  1  0.49299884  0.86750885  0.36808034  1
  O  O50  1  0.90369273  0.71922438  0.01887930  1
  O  O51  1  0.98778593  0.22201077  0.35101279  1
  O  O52  1  0.13178912  0.95537071  0.96965250  1
  O  O53  1  0.51221407  0.79503433  0.63194210  1
  O  O54  1  0.59630727  0.45732906  0.80456726  1
  O  O55  1  0.30794456  0.85984981  0.89037302  1
  O  O56  1  0.79731741  0.71693093  0.37420811  1
  O  O57  1  0.98819453  0.55601332  0.35147047  1
  O  O58  1  0.59558229  0.78561395  0.81079657  1
  O  O59  1  0.98993794  0.88591357  0.34991830  1
