# generated using pymatgen
data_KAgC2(SN)2
_symmetry_space_group_name_H-M   'P 1'
_cell_length_a   6.73676335
_cell_length_b   10.84599876
_cell_length_c   18.06969123
_cell_angle_alpha   90.00000000
_cell_angle_beta   90.00000000
_cell_angle_gamma   90.00000000
_symmetry_Int_Tables_number   1
_chemical_formula_structural   KAgC2(SN)2
_chemical_formula_sum   'K8 Ag8 C16 S16 N16'
_cell_volume   1320.29680894
_cell_formula_units_Z   8
loop_
 _symmetry_equiv_pos_site_id
 _symmetry_equiv_pos_as_xyz
  1  'x, y, z'
loop_
 _atom_site_type_symbol
 _atom_site_label
 _atom_site_symmetry_multiplicity
 _atom_site_fract_x
 _atom_site_fract_y
 _atom_site_fract_z
 _atom_site_occupancy
  K  K0  1  0.64742733  0.62649254  0.73025403  1
  K  K1  1  0.14742733  0.87350746  0.73025403  1
  K  K2  1  0.35257267  0.37350746  0.26974597  1
  K  K3  1  0.14742733  0.37350746  0.76974597  1
  K  K4  1  0.35257267  0.87350746  0.23025403  1
  K  K5  1  0.85257267  0.12649254  0.26974597  1
  K  K6  1  0.85257267  0.62649254  0.23025403  1
  K  K7  1  0.64742733  0.12649254  0.76974597  1
  Ag  Ag8  1  0.67014304  0.62763827  0.99743635  1
  Ag  Ag9  1  0.32985696  0.87236173  0.49743635  1
  Ag  Ag10  1  0.17014304  0.37236173  0.50256365  1
  Ag  Ag11  1  0.17014304  0.87236173  0.99743635  1
  Ag  Ag12  1  0.82985696  0.62763827  0.49743635  1
  Ag  Ag13  1  0.32985696  0.37236173  0.00256365  1
  Ag  Ag14  1  0.82985696  0.12763827  0.00256365  1
  Ag  Ag15  1  0.67014304  0.12763827  0.50256365  1
  C  C16  1  0.52080638  0.84701250  0.87603619  1
  C  C17  1  0.97919362  0.84701250  0.37603619  1
  C  C18  1  0.83272449  0.39786145  0.36843413  1
  C  C19  1  0.16727551  0.10213855  0.86843413  1
  C  C20  1  0.47919362  0.65298750  0.37603619  1
  C  C21  1  0.02080638  0.65298750  0.87603619  1
  C  C22  1  0.33272449  0.60213855  0.13156587  1
  C  C23  1  0.33272449  0.10213855  0.36843413  1
  C  C24  1  0.66727551  0.89786145  0.63156587  1
  C  C25  1  0.52080638  0.34701250  0.62396381  1
  C  C26  1  0.66727551  0.39786145  0.86843413  1
  C  C27  1  0.97919362  0.34701250  0.12396381  1
  C  C28  1  0.02080638  0.15298750  0.62396381  1
  C  C29  1  0.83272449  0.89786145  0.13156587  1
  C  C30  1  0.16727551  0.60213855  0.63156587  1
  C  C31  1  0.47919362  0.15298750  0.12396381  1
  S  S32  1  0.01886160  0.98974851  0.10869121  1
  S  S33  1  0.95660705  0.84942051  0.46702446  1
  S  S34  1  0.01886160  0.48974851  0.39130879  1
  S  S35  1  0.98113840  0.51025149  0.60869121  1
  S  S36  1  0.51886160  0.51025149  0.10869121  1
  S  S37  1  0.04339295  0.65057949  0.96702446  1
  S  S38  1  0.54339295  0.34942051  0.53297554  1
  S  S39  1  0.51886160  0.01025149  0.39130879  1
  S  S40  1  0.95660705  0.34942051  0.03297554  1
  S  S41  1  0.45660705  0.15057949  0.03297554  1
  S  S42  1  0.54339295  0.84942051  0.96702446  1
  S  S43  1  0.45660705  0.65057949  0.46702446  1
  S  S44  1  0.48113840  0.98974851  0.60869121  1
  S  S45  1  0.48113840  0.48974851  0.89130879  1
  S  S46  1  0.98113840  0.01025149  0.89130879  1
  S  S47  1  0.04339295  0.15057949  0.53297554  1
  N  N48  1  0.50498966  0.85021930  0.81079084  1
  N  N49  1  0.80201475  0.33536446  0.85024003  1
  N  N50  1  0.99501034  0.35021930  0.18920916  1
  N  N51  1  0.30201475  0.66463554  0.64975997  1
  N  N52  1  0.49501034  0.64978070  0.31079084  1
  N  N53  1  0.99501034  0.85021930  0.31079084  1
  N  N54  1  0.00498966  0.14978070  0.68920916  1
  N  N55  1  0.19798525  0.16463554  0.35024003  1
  N  N56  1  0.00498966  0.64978070  0.81079084  1
  N  N57  1  0.30201475  0.16463554  0.85024003  1
  N  N58  1  0.50498966  0.35021930  0.68920916  1
  N  N59  1  0.80201475  0.83536446  0.64975997  1
  N  N60  1  0.69798525  0.33536446  0.35024003  1
  N  N61  1  0.69798525  0.83536446  0.14975997  1
  N  N62  1  0.49501034  0.14978070  0.18920916  1
  N  N63  1  0.19798525  0.66463554  0.14975997  1
