# generated using pymatgen
data_Ba8Tl2Bi2Pb4O17
_symmetry_space_group_name_H-M   'P 1'
_cell_length_a   6.45941472
_cell_length_b   6.45778550
_cell_length_c   24.78871953
_cell_angle_alpha   122.65852195
_cell_angle_beta   124.73085867
_cell_angle_gamma   86.76585791
_symmetry_Int_Tables_number   1
_chemical_formula_structural   Ba8Tl2Bi2Pb4O17
_chemical_formula_sum   'Ba8 Tl2 Bi2 Pb4 O17'
_cell_volume   666.70254426
_cell_formula_units_Z   1
loop_
 _symmetry_equiv_pos_site_id
 _symmetry_equiv_pos_as_xyz
  1  'x, y, z'
loop_
 _atom_site_type_symbol
 _atom_site_label
 _atom_site_symmetry_multiplicity
 _atom_site_fract_x
 _atom_site_fract_y
 _atom_site_fract_z
 _atom_site_occupancy
  Ba  Ba0  1  0.27022775  0.77480353  0.87849386  1
  Ba  Ba1  1  0.26630724  0.73920506  0.62384716  1
  Ba  Ba2  1  0.75023962  0.21554900  0.87250820  1
  Ba  Ba3  1  0.26169758  0.79141631  0.39254678  1
  Ba  Ba4  1  0.77203108  0.26127947  0.62909842  1
  Ba  Ba5  1  0.26207439  0.78461234  0.14073517  1
  Ba  Ba6  1  0.77542969  0.28727072  0.39059073  1
  Ba  Ba7  1  0.77309493  0.27876521  0.14044018  1
  Tl  Tl8  1  0.05671217  0.05611555  0.52863593  1
  Tl  Tl9  1  0.49889326  0.48369525  0.99342571  1
  Bi  Bi10  1  0.50235333  0.46824714  0.74421023  1
  Bi  Bi11  1  -0.01139208  0.02146051  0.25458830  1
  Pb  Pb12  1  0.05189935  0.04971844  0.77157453  1
  Pb  Pb13  1  0.57233586  0.56631810  0.53150676  1
  Pb  Pb14  1  0.02037311  0.00561325  0.00664646  1
  Pb  Pb15  1  0.55207698  0.59238877  0.29009935  1
  O  O16  1  0.24037144  0.72432333  0.75128843  1
  O  O17  1  0.24034369  0.18335097  0.73243995  1
  O  O18  1  0.83684829  0.64467000  0.87566949  1
  O  O19  1  0.20619521  0.68949579  0.47689124  1
  O  O20  1  0.73297366  0.73836382  0.74478817  1
  O  O21  1  0.25697388  0.25138187  0.49919529  1
  O  O22  1  0.68620751  0.15149604  0.70499375  1
  O  O23  1  0.17369017  0.68953314  0.22016926  1
  O  O24  1  0.72217041  0.73744730  0.49282639  1
  O  O25  1  0.24335820  0.23302583  0.23915700  1
  O  O26  1  0.69395898  0.21992207  0.47634467  1
  O  O27  1  0.73584914  0.80761300  0.25743753  1
  O  O28  1  0.24497467  0.20923367  -0.01756498  1
  O  O29  1  0.76389968  0.31261479  0.25305692  1
  O  O30  1  0.65474098  0.80890560  0.12301237  1
  O  O31  1  0.71518268  0.77120305  -0.00134048  1
  O  O32  1  0.75724713  0.23030107  -0.01731279  1
