# generated using pymatgen
data_K4Mg2H16S4O23
_symmetry_space_group_name_H-M   'P 1'
_cell_length_a   7.91794992
_cell_length_b   7.74878073
_cell_length_c   9.93595839
_cell_angle_alpha   84.39348626
_cell_angle_beta   83.72368375
_cell_angle_gamma   80.58496211
_symmetry_Int_Tables_number   1
_chemical_formula_structural   K4Mg2H16S4O23
_chemical_formula_sum   'K4 Mg2 H16 S4 O23'
_cell_volume   595.81539700
_cell_formula_units_Z   1
loop_
 _symmetry_equiv_pos_site_id
 _symmetry_equiv_pos_as_xyz
  1  'x, y, z'
loop_
 _atom_site_type_symbol
 _atom_site_label
 _atom_site_symmetry_multiplicity
 _atom_site_fract_x
 _atom_site_fract_y
 _atom_site_fract_z
 _atom_site_occupancy
  K  K0  1  0.07892331  0.61344369  0.27852060  1
  K  K1  1  0.58107372  0.08752240  0.28030761  1
  K  K2  1  0.39088950  0.91941053  0.70472083  1
  K  K3  1  0.89943044  0.41631182  0.75758327  1
  Mg  Mg4  1  0.00360923  0.00240059  0.05095835  1
  Mg  Mg5  1  0.49375132  0.48743304  0.50049516  1
  H  H6  1  0.07363212  0.08661275  0.72909004  1
  H  H7  1  0.10906419  0.02743284  0.31040279  1
  H  H8  1  0.17468134  0.65719776  0.61900880  1
  H  H9  1  0.20722108  0.67559583  0.97782051  1
  H  H10  1  0.27161606  0.54923447  0.73699103  1
  H  H11  1  0.33239373  0.79175481  0.02740572  1
  H  H12  1  0.34559468  0.81741737  0.37920453  1
  H  H13  1  0.44769720  0.71375445  0.26221680  1
  H  H14  1  0.55439162  0.27387985  0.74057410  1
  H  H15  1  0.65747449  0.17501852  0.62001867  1
  H  H16  1  0.67369742  0.20114829  0.97931595  1
  H  H17  1  0.73336784  0.45047590  0.25705719  1
  H  H18  1  0.77776923  0.33488313  0.03429256  1
  H  H19  1  0.81434156  0.33784369  0.38011333  1
  H  H20  1  0.93398651  0.95943821  0.72626076  1
  H  H21  1  0.92943085  0.94613398  0.31690615  1
  S  S22  1  0.23076706  0.25656394  0.38966654  1
  S  S23  1  0.26349577  0.27111231  0.89703255  1
  S  S24  1  0.73734271  0.73923229  0.10506604  1
  S  S25  1  0.75424504  0.75729462  0.59574348  1
  O  O26  1  0.00891843  0.00497442  0.25354524  1
  O  O27  1  0.16591435  0.17597335  0.00882883  1
  O  O28  1  0.21258327  0.22879356  0.76529386  1
  O  O29  1  0.24804617  0.05127308  0.38774812  1
  O  O30  1  0.21719749  0.46553726  0.90437622  1
  O  O31  1  0.21213446  0.79193291  0.00976334  1
  O  O32  1  0.28681994  0.32338414  0.24654072  1
  O  O33  1  0.37731186  0.27911267  0.47431689  1
  O  O34  1  0.29147621  0.60832421  0.64397363  1
  O  O35  1  0.37942555  0.69591403  0.35085483  1
  O  O36  1  0.45263546  0.21558310  0.90058910  1
  O  O37  1  0.55008699  0.78765503  0.09116510  1
  O  O38  1  0.62600980  0.29418298  0.65286581  1
  O  O39  1  0.70370378  0.38073303  0.34418175  1
  O  O40  1  0.78642362  0.21290249  0.00782846  1
  O  O41  1  0.64552042  0.66226645  0.52397868  1
  O  O42  1  0.70974784  0.72537529  0.74474519  1
  O  O43  1  0.79326890  0.54569363  0.09526606  1
  O  O44  1  0.71307323  0.94858685  0.55407005  1
  O  O45  1  0.77225728  0.78268096  0.24089029  1
  O  O46  1  0.84254457  0.84082156  0.00024399  1
  O  O47  1  0.93928292  0.68768556  0.55844912  1
  O  O48  1  0.04162941  -0.00803365  0.68281135  1
