# generated using pymatgen
data_Lu(HO)3
_symmetry_space_group_name_H-M   'P 1'
_cell_length_a   7.15268890
_cell_length_b   7.08623301
_cell_length_c   7.09951985
_cell_angle_alpha   107.40506981
_cell_angle_beta   112.13129786
_cell_angle_gamma   108.89447450
_symmetry_Int_Tables_number   1
_chemical_formula_structural   Lu(HO)3
_chemical_formula_sum   'Lu4 H12 O12'
_cell_volume   276.57701988
_cell_formula_units_Z   4
loop_
 _symmetry_equiv_pos_site_id
 _symmetry_equiv_pos_as_xyz
  1  'x, y, z'
loop_
 _atom_site_type_symbol
 _atom_site_label
 _atom_site_symmetry_multiplicity
 _atom_site_fract_x
 _atom_site_fract_y
 _atom_site_fract_z
 _atom_site_occupancy
  Lu  Lu0  1  0.03809920  0.53837850  0.02690149  1
  Lu  Lu1  1  0.49258797  0.50538215  0.49494905  1
  Lu  Lu2  1  0.48204537  0.97796140  0.98964305  1
  Lu  Lu3  1  0.01789396  0.99631503  0.48995695  1
  H  H4  1  0.15838515  0.45379724  0.61908055  1
  H  H5  1  0.38746646  0.83507638  0.55187391  1
  H  H6  1  0.46020371  0.29057453  0.83664681  1
  H  H7  1  0.36937421  0.04950784  0.32533293  1
  H  H8  1  0.53644008  0.71002397  0.18110742  1
  H  H9  1  0.67930612  0.64253352  0.96791762  1
  H  H10  1  0.71956139  0.03809647  0.68622333  1
  H  H11  1  0.70403790  0.16845706  0.53830574  1
  H  H12  1  0.79356731  0.59783486  0.38297530  1
  H  H13  1  0.02625505  0.68186681  0.71239773  1
  H  H14  1  0.79374745  0.40484418  0.19002749  1
  H  H15  1  0.99532357  0.31856906  0.31708633  1
  O  O16  1  0.15520805  0.67030532  0.82527238  1
  O  O17  1  0.13718056  0.83218836  0.31461939  1
  O  O18  1  0.14292965  0.33451075  0.48445209  1
  O  O19  1  0.34208668  0.15317985  0.82081528  1
  O  O20  1  0.51067764  0.83572461  0.68180115  1
  O  O21  1  0.33758700  0.52972815  0.20039356  1
  O  O22  1  0.67830742  0.52212512  0.84823899  1
  O  O23  1  0.49389431  0.17045806  0.32712794  1
  O  O24  1  0.65967931  0.82832743  0.17300005  1
  O  O25  1  0.83610209  0.70428688  0.53602573  1
  O  O26  1  0.82320805  0.16140452  0.66888503  1
  O  O27  1  0.83984431  0.29354195  0.14094270  1
