# generated using pymatgen
data_CdH2(CO2)2
_symmetry_space_group_name_H-M   'P 1'
_cell_length_a   6.82855427
_cell_length_b   6.82855427
_cell_length_c   12.62119182
_cell_angle_alpha   69.69270921
_cell_angle_beta   110.30729079
_cell_angle_gamma   124.49789751
_symmetry_Int_Tables_number   1
_chemical_formula_structural   CdH2(CO2)2
_chemical_formula_sum   'Cd4 H8 C8 O16'
_cell_volume   446.17108114
_cell_formula_units_Z   4
loop_
 _symmetry_equiv_pos_site_id
 _symmetry_equiv_pos_as_xyz
  1  'x, y, z'
loop_
 _atom_site_type_symbol
 _atom_site_label
 _atom_site_symmetry_multiplicity
 _atom_site_fract_x
 _atom_site_fract_y
 _atom_site_fract_z
 _atom_site_occupancy
  Cd  Cd0  1  0.82430018  0.19300967  0.94946006  1
  Cd  Cd1  1  0.19300967  0.82430018  0.55053994  1
  Cd  Cd2  1  0.17569982  0.80699033  0.05053994  1
  Cd  Cd3  1  0.80699033  0.17569982  0.44946006  1
  H  H4  1  0.17189367  0.93015356  0.77361967  1
  H  H5  1  0.93015356  0.17189367  0.72638033  1
  H  H6  1  0.82810633  0.06984644  0.22638033  1
  H  H7  1  0.06984644  0.82810633  0.27361967  1
  H  H8  1  0.55281032  0.49634291  0.13791720  1
  H  H9  1  0.49634291  0.55281032  0.36208280  1
  H  H10  1  0.44718968  0.50365709  0.86208280  1
  H  H11  1  0.50365709  0.44718968  0.63791720  1
  C  C12  1  0.06635469  0.73018688  0.78878169  1
  C  C13  1  0.73018688  0.06635469  0.71121831  1
  C  C14  1  0.93364531  0.26981312  0.21121831  1
  C  C15  1  0.26981312  0.93364531  0.28878169  1
  C  C16  1  0.63226700  0.68713557  0.09128268  1
  C  C17  1  0.68713557  0.63226700  0.40871732  1
  C  C18  1  0.36773300  0.31286443  0.90871732  1
  C  C19  1  0.31286443  0.36773300  0.59128268  1
  O  O20  1  0.00514700  0.62295871  0.88738897  1
  O  O21  1  0.62295871  0.00514700  0.61261103  1
  O  O22  1  0.99485300  0.37704129  0.11261103  1
  O  O23  1  0.37704129  0.99485300  0.38738897  1
  O  O24  1  0.01383809  0.62173966  0.71128137  1
  O  O25  1  0.62173966  0.01383809  0.78871863  1
  O  O26  1  0.98616191  0.37826034  0.28871863  1
  O  O27  1  0.37826034  0.98616191  0.21128137  1
  O  O28  1  0.82754550  0.78534743  0.05660818  1
  O  O29  1  0.78534743  0.82754550  0.44339182  1
  O  O30  1  0.17245450  0.21465257  0.94339182  1
  O  O31  1  0.21465257  0.17245450  0.55660818  1
  O  O32  1  0.52908178  0.80513716  0.07369741  1
  O  O33  1  0.80513716  0.52908178  0.42630259  1
  O  O34  1  0.47091822  0.19486284  0.92630259  1
  O  O35  1  0.19486284  0.47091822  0.57369741  1
