# generated using pymatgen
data_YAl6Si18(N15O)2
_symmetry_space_group_name_H-M   'P 1'
_cell_length_a   7.94099453
_cell_length_b   7.93999810
_cell_length_c   11.43932244
_cell_angle_alpha   89.96194570
_cell_angle_beta   90.42873180
_cell_angle_gamma   119.66644223
_symmetry_Int_Tables_number   1
_chemical_formula_structural   YAl6Si18(N15O)2
_chemical_formula_sum   'Y1 Al6 Si18 N30 O2'
_cell_volume   626.70238959
_cell_formula_units_Z   1
loop_
 _symmetry_equiv_pos_site_id
 _symmetry_equiv_pos_as_xyz
  1  'x, y, z'
loop_
 _atom_site_type_symbol
 _atom_site_label
 _atom_site_symmetry_multiplicity
 _atom_site_fract_x
 _atom_site_fract_y
 _atom_site_fract_z
 _atom_site_occupancy
  Y  Y0  1  0.67745430  0.32977282  0.86780799  1
  Al  Al1  1  0.08651156  0.83707137  0.00571173  1
  Al  Al2  1  0.09658842  0.51224047  0.85555131  1
  Al  Al3  1  0.91753759  0.74694722  0.74665125  1
  Al  Al4  1  0.91344706  0.42668268  0.60109799  1
  Al  Al5  1  0.83575051  0.08620168  0.25581274  1
  Al  Al6  1  0.83362321  0.08514585  0.74956983  1
  Si  Si7  1  0.08978477  0.84051399  0.50491617  1
  Si  Si8  1  0.09013244  0.50731640  0.35555613  1
  Si  Si9  1  0.43504590  0.91893815  0.35672182  1
  Si  Si10  1  0.43085711  0.91392945  0.85779380  1
  Si  Si11  1  0.16357734  0.25750229  0.00553588  1
  Si  Si12  1  0.16516730  0.25225891  0.49716296  1
  Si  Si13  1  0.26048531  0.16533194  0.25205060  1
  Si  Si14  1  0.25461663  0.17271699  0.75072673  1
  Si  Si15  1  0.48656814  0.57081592  0.35857591  1
  Si  Si16  1  0.48489613  0.57646330  0.85594011  1
  Si  Si17  1  0.74157442  0.91859665  0.00307806  1
  Si  Si18  1  0.73861518  0.90824438  0.50203707  1
  Si  Si19  1  0.56977481  0.48968213  0.10972136  1
  Si  Si20  1  0.56077137  0.47799884  0.60454401  1
  Si  Si21  1  0.51296174  0.07575750  0.10722597  1
  Si  Si22  1  0.51340643  0.08056784  0.60086652  1
  Si  Si23  1  0.91312539  0.74660956  0.24863858  1
  Si  Si24  1  0.92488942  0.43408718  0.11442820  1
  N  N25  1  0.05031151  0.38633271  0.48520596  1
  N  N26  1  0.04450763  0.39167965  0.00167905  1
  N  N27  1  0.33956717  0.95705811  0.48803599  1
  N  N28  1  0.35465765  0.96974446  0.98753708  1
  N  N29  1  0.99324923  0.01015038  0.99893348  1
  N  N30  1  0.01375413  0.99463301  0.25119062  1
  N  N31  1  0.99601405  0.99916337  0.49823889  1
  N  N32  1  0.33305569  0.66879212  0.33018380  1
  N  N33  1  0.34607242  0.67819232  0.82252084  1
  N  N34  1  0.31727271  0.31972047  0.37257355  1
  N  N35  1  0.31989505  0.32523739  0.87787203  1
  N  N36  1  0.32273013  0.31321448  0.12512196  1
  N  N37  1  0.30974446  0.31275830  0.62382150  1
  N  N38  1  0.67268756  0.98426481  0.37916634  1
  N  N39  1  0.67629038  0.00658753  0.88141851  1
  N  N40  1  0.60946502  0.65044260  0.49399193  1
  N  N41  1  0.61509000  0.65479668  0.99141750  1
  N  N42  1  0.64337057  0.58122085  0.74803933  1
  N  N43  1  0.65672830  0.60961229  0.24590703  1
  N  N44  1  0.39799680  0.04751991  0.24218127  1
  N  N45  1  0.40809042  0.06384438  0.74683661  1
  N  N46  1  0.66876077  0.33415602  0.07728187  1
  N  N47  1  0.64876170  0.32505563  0.57443526  1
  N  N48  1  0.99057831  0.67483380  0.13092362  1
  N  N49  1  0.00066483  0.68752091  0.61555917  1
  N  N50  1  0.67743691  0.99682460  0.12366271  1
  N  N51  1  0.67219452  0.99208808  0.62021123  1
  N  N52  1  0.95536233  0.35442970  0.24680175  1
  N  N53  1  0.92156955  0.34583497  0.75197796  1
  N  N54  1  0.01573604  0.00778868  0.75883389  1
  O  O55  1  0.00966536  0.68867593  0.37337752  1
  O  O56  1  0.98822332  0.66976535  0.88033902  1
