# generated using pymatgen
data_Li10Si(PO6)2
_symmetry_space_group_name_H-M   'P 1'
_cell_length_a   6.99575712
_cell_length_b   7.00022131
_cell_length_c   10.65401999
_cell_angle_alpha   90.89879810
_cell_angle_beta   89.71747707
_cell_angle_gamma   89.88465482
_symmetry_Int_Tables_number   1
_chemical_formula_structural   Li10Si(PO6)2
_chemical_formula_sum   'Li20 Si2 P4 O24'
_cell_volume   521.67537112
_cell_formula_units_Z   2
loop_
 _symmetry_equiv_pos_site_id
 _symmetry_equiv_pos_as_xyz
  1  'x, y, z'
loop_
 _atom_site_type_symbol
 _atom_site_label
 _atom_site_symmetry_multiplicity
 _atom_site_fract_x
 _atom_site_fract_y
 _atom_site_fract_z
 _atom_site_occupancy
  Li  Li0  1  0.98568313  0.51927667  0.93566202  1
  Li  Li1  1  0.95174838  0.51939846  0.42470250  1
  Li  Li2  1  0.52479742  0.95809567  0.56102931  1
  Li  Li3  1  0.49073409  0.00903185  0.05854353  1
  Li  Li4  1  0.26402856  0.27115555  0.15512541  1
  Li  Li5  1  0.73182531  0.73362300  0.28101855  1
  Li  Li6  1  0.20097844  0.83240113  0.74612854  1
  Li  Li7  1  0.21731814  0.75729890  0.25306089  1
  Li  Li8  1  0.75428542  0.24028611  0.35562815  1
  Li  Li9  1  0.45476710  0.52477845  0.74467099  1
  Li  Li10  1  0.23071128  0.26418568  0.37877650  1
  Li  Li11  1  0.75839099  0.24920359  0.86421814  1
  Li  Li12  1  0.22171410  0.77806968  0.99935323  1
  Li  Li13  1  0.74622267  0.24215926  0.12695034  1
  Li  Li14  1  0.76242611  0.74662844  0.69059762  1
  Li  Li15  1  0.18335494  0.23551339  0.91786254  1
  Li  Li16  1  0.77272194  0.78496115  0.00586125  1
  Li  Li17  1  0.27750456  0.69761818  0.49104656  1
  Li  Li18  1  0.75259898  0.21992306  0.62852251  1
  Li  Li19  1  0.26323564  0.20557383  0.65235702  1
  Si  Si20  1  0.99715375  0.49038245  0.17596387  1
  Si  Si21  1  0.50491949  0.99005421  0.81505372  1
  P  P22  1  0.99570138  0.96604628  0.49866601  1
  P  P23  1  0.49527100  0.50965626  0.99504099  1
  P  P24  1  0.01359915  0.48432903  0.68561877  1
  P  P25  1  0.48569194  0.00427081  0.31401198  1
  O  O26  1  0.99183471  0.16288442  0.43427464  1
  O  O27  1  0.00929870  0.79310531  0.40553833  1
  O  O28  1  0.31471001  0.51007112  0.90821278  1
  O  O29  1  0.68246155  0.51245013  0.91341641  1
  O  O30  1  0.48899518  0.69487882  0.07741781  1
  O  O31  1  0.49355912  0.31966509  0.06850180  1
  O  O32  1  0.17849015  0.95473551  0.58323206  1
  O  O33  1  0.80985227  0.95454946  0.57921797  1
  O  O34  1  0.01087096  0.31586652  0.06863832  1
  O  O35  1  0.00185698  0.69417812  0.09875687  1
  O  O36  1  0.20612217  0.48529960  0.60976677  1
  O  O37  1  0.83774433  0.48782715  0.59651862  1
  O  O38  1  0.47646641  0.80588792  0.37821907  1
  O  O39  1  0.49175617  0.16428397  0.41747641  1
  O  O40  1  0.30011708  0.98944962  0.89482968  1
  O  O41  1  0.68318193  0.99780209  0.91447643  1
  O  O42  1  0.99815342  0.66142136  0.77471316  1
  O  O43  1  0.00523252  0.29722611  0.76435449  1
  O  O44  1  0.80361204  0.46617910  0.26269050  1
  O  O45  1  0.17911065  0.47535709  0.27337379  1
  O  O46  1  0.51957900  0.18271812  0.72470633  1
  O  O47  1  0.49707061  0.80084180  0.71909473  1
  O  O48  1  0.67096799  0.01736953  0.23206925  1
  O  O49  1  0.30897412  0.02913494  0.22823081  1
