# generated using pymatgen
data_LiNi(PO3)5
_symmetry_space_group_name_H-M   'P 1'
_cell_length_a   12.37825052
_cell_length_b   9.49357592
_cell_length_c   5.38471310
_cell_angle_alpha   90.00000000
_cell_angle_beta   93.18548457
_cell_angle_gamma   90.00000000
_symmetry_Int_Tables_number   1
_chemical_formula_structural   LiNi(PO3)5
_chemical_formula_sum   'Li2 Ni2 P10 O30'
_cell_volume   631.80070533
_cell_formula_units_Z   2
loop_
 _symmetry_equiv_pos_site_id
 _symmetry_equiv_pos_as_xyz
  1  'x, y, z'
loop_
 _atom_site_type_symbol
 _atom_site_label
 _atom_site_symmetry_multiplicity
 _atom_site_fract_x
 _atom_site_fract_y
 _atom_site_fract_z
 _atom_site_occupancy
  Li  Li0  1  0.41693342  0.70476122  0.35651847  1
  Li  Li1  1  0.91693342  0.29523878  0.85651847  1
  Ni  Ni2  1  0.49780547  0.01479204  0.52892726  1
  Ni  Ni3  1  0.99780547  0.98520796  0.02892726  1
  P  P4  1  0.24723118  0.99959546  0.26408062  1
  P  P5  1  0.35308449  0.47839158  0.90569077  1
  P  P6  1  0.58455846  0.80708899  0.95227078  1
  P  P7  1  0.91297465  0.81858274  0.54176240  1
  P  P8  1  0.64739714  0.52130928  0.09309518  1
  P  P9  1  0.41297465  0.18141726  0.04176240  1
  P  P10  1  0.14739714  0.47869172  0.59309518  1
  P  P11  1  0.08455846  0.19291101  0.45227078  1
  P  P12  1  0.74723118  0.00040454  0.76408062  1
  P  P13  1  0.85308449  0.52160842  0.40569077  1
  O  O14  1  0.29640238  0.10894438  0.06821187  1
  O  O15  1  0.69567308  0.89570763  0.96490368  1
  O  O16  1  0.93434503  0.48505432  0.21566581  1
  O  O17  1  0.88203610  0.65516160  0.57566858  1
  O  O18  1  0.98945928  0.85055752  0.76078490  1
  O  O19  1  0.01465025  0.15842467  0.22064001  1
  O  O20  1  0.33128833  0.60161778  0.07390735  1
  O  O21  1  0.48945928  0.14944248  0.26078490  1
  O  O22  1  0.79640238  0.89105562  0.56821187  1
  O  O23  1  0.24757268  0.41420552  0.76018985  1
  O  O24  1  0.83992324  0.07747956  0.89944290  1
  O  O25  1  0.03441627  0.18027999  0.69886417  1
  O  O26  1  0.55378162  0.50536804  0.25990218  1
  O  O27  1  0.67653369  0.38980818  0.95442409  1
  O  O28  1  0.12927750  0.34964709  0.40245185  1
  O  O29  1  0.15719283  0.92208866  0.12487262  1
  O  O30  1  0.38203610  0.34483840  0.07566858  1
  O  O31  1  0.62927750  0.65035291  0.90245185  1
  O  O32  1  0.83128833  0.39838222  0.57390735  1
  O  O33  1  0.43434503  0.51494568  0.71566581  1
  O  O34  1  0.44853690  0.15351866  0.78553666  1
  O  O35  1  0.33992324  0.92252044  0.39944290  1
  O  O36  1  0.19567308  0.10429237  0.46490368  1
  O  O37  1  0.65719283  0.07791134  0.62487262  1
  O  O38  1  0.51465025  0.84157533  0.72064001  1
  O  O39  1  0.74757268  0.58579448  0.26018985  1
  O  O40  1  0.05378162  0.49463196  0.75990218  1
  O  O41  1  0.17653369  0.61019182  0.45442409  1
  O  O42  1  0.53441627  0.81972001  0.19886417  1
  O  O43  1  0.94853690  0.84648134  0.28553666  1
