# generated using pymatgen
data_K3VH6C4O13
_symmetry_space_group_name_H-M   'P 1'
_cell_length_a   7.93837585
_cell_length_b   11.71266936
_cell_length_c   7.89324734
_cell_angle_alpha   94.40202418
_cell_angle_beta   110.19034687
_cell_angle_gamma   91.11404155
_symmetry_Int_Tables_number   1
_chemical_formula_structural   K3VH6C4O13
_chemical_formula_sum   'K6 V2 H12 C8 O26'
_cell_volume   685.95297861
_cell_formula_units_Z   2
loop_
 _symmetry_equiv_pos_site_id
 _symmetry_equiv_pos_as_xyz
  1  'x, y, z'
loop_
 _atom_site_type_symbol
 _atom_site_label
 _atom_site_symmetry_multiplicity
 _atom_site_fract_x
 _atom_site_fract_y
 _atom_site_fract_z
 _atom_site_occupancy
  K  K0  1  0.72524118  0.51995936  0.43122557  1
  K  K1  1  0.27475882  0.48004064  0.56877443  1
  K  K2  1  0.73114623  0.77087686  0.84227396  1
  K  K3  1  0.26885377  0.22912314  0.15772604  1
  K  K4  1  0.96776500  0.82673347  0.41183825  1
  K  K5  1  0.03223500  0.17326653  0.58816175  1
  V  V6  1  0.18599726  0.70652509  0.84434432  1
  V  V7  1  0.81400274  0.29347491  0.15565568  1
  H  H8  1  0.66667591  0.60673124  0.09538525  1
  H  H9  1  0.33332409  0.39326876  0.90461475  1
  H  H10  1  0.57111975  0.71747780  0.12572320  1
  H  H11  1  0.42888025  0.28252220  0.87427680  1
  H  H12  1  0.49947178  0.78802492  0.37837694  1
  H  H13  1  0.50052822  0.21197508  0.62162306  1
  H  H14  1  0.42612155  0.74244527  0.52227631  1
  H  H15  1  0.57387845  0.25755473  0.47772369  1
  H  H16  1  0.71669733  0.98628056  0.59391835  1
  H  H17  1  0.28330267  0.01371944  0.40608165  1
  H  H18  1  0.63367446  0.00882435  0.39085922  1
  H  H19  1  0.36632554  0.99117565  0.60914078  1
  C  C20  1  0.16960846  0.95252651  0.91604911  1
  C  C21  1  0.83039154  0.04747349  0.08395089  1
  C  C22  1  0.32829001  0.92466403  0.08720313  1
  C  C23  1  0.67170999  0.07533597  0.91279687  1
  C  C24  1  0.26688703  0.55085130  0.12942701  1
  C  C25  1  0.73311297  0.44914870  0.87057299  1
  C  C26  1  0.13071625  0.63035644  0.17334293  1
  C  C27  1  0.86928375  0.36964356  0.82665707  1
  O  O28  1  0.00392615  0.64724537  0.68116881  1
  O  O29  1  0.99607385  0.35275463  0.31883119  1
  O  O30  1  0.34382334  0.71529299  0.74803706  1
  O  O31  1  0.65617666  0.28470701  0.25196294  1
  O  O32  1  0.08712200  0.86346233  0.80820769  1
  O  O33  1  0.91287800  0.13653767  0.19179231  1
  O  O34  1  0.36912696  0.81952190  0.08731217  1
  O  O35  1  0.63087304  0.18047810  0.91268783  1
  O  O36  1  0.12822418  0.05291238  0.88928724  1
  O  O37  1  0.87177582  0.94708762  0.11071276  1
  O  O38  1  0.40125355  0.00382330  0.20973158  1
  O  O39  1  0.59874645  0.99617670  0.79026842  1
  O  O40  1  0.29532137  0.57009411  0.98020156  1
  O  O41  1  0.70467863  0.42990589  0.01979844  1
  O  O42  1  0.06170840  0.69887046  0.05041157  1
  O  O43  1  0.93829160  0.30112954  0.94958843  1
  O  O44  1  0.34094904  0.47579566  0.22901394  1
  O  O45  1  0.65905096  0.52420434  0.77098606  1
  O  O46  1  0.09947302  0.62390707  0.31665382  1
  O  O47  1  0.90052698  0.37609293  0.68334618  1
  O  O48  1  0.68846851  0.68289696  0.16182844  1
  O  O49  1  0.31153149  0.31710304  0.83817156  1
  O  O50  1  0.52502497  0.73620429  0.47491228  1
  O  O51  1  0.47497503  0.26379571  0.52508772  1
  O  O52  1  0.74976273  0.00218069  0.48898445  1
  O  O53  1  0.25023727  0.99781931  0.51101555  1
