# generated using pymatgen
data_BaYb2(MoO4)4
_symmetry_space_group_name_H-M   'P 1'
_cell_length_a   5.28074607
_cell_length_b   6.92296932
_cell_length_c   19.83515435
_cell_angle_alpha   89.37285831
_cell_angle_beta   88.35546252
_cell_angle_gamma   67.58000087
_symmetry_Int_Tables_number   1
_chemical_formula_structural   BaYb2(MoO4)4
_chemical_formula_sum   'Ba2 Yb4 Mo8 O32'
_cell_volume   670.05489603
_cell_formula_units_Z   2
loop_
 _symmetry_equiv_pos_site_id
 _symmetry_equiv_pos_as_xyz
  1  'x, y, z'
loop_
 _atom_site_type_symbol
 _atom_site_label
 _atom_site_symmetry_multiplicity
 _atom_site_fract_x
 _atom_site_fract_y
 _atom_site_fract_z
 _atom_site_occupancy
  Yb  Yb0  1  0.85584940  0.29621072  0.03044134  1
  Yb  Yb1  1  0.14415060  0.70378928  0.96955866  1
  Yb  Yb2  1  0.15206012  0.70378928  0.53044134  1
  Yb  Yb3  1  0.84793988  0.29621072  0.46955866  1
  Ba  Ba4  1  0.03298527  0.93402947  0.75000000  1
  Ba  Ba5  1  0.96701473  0.06597053  0.25000000  1
  Mo  Mo6  1  0.73922283  0.51743318  0.85424082  1
  Mo  Mo7  1  0.25665601  0.48256682  0.35424082  1
  Mo  Mo8  1  0.54610699  0.88268002  0.08935729  1
  Mo  Mo9  1  0.42878701  0.11731998  0.58935729  1
  Mo  Mo10  1  0.45389301  0.11731998  0.91064271  1
  Mo  Mo11  1  0.26077717  0.48256682  0.14575918  1
  Mo  Mo12  1  0.74334399  0.51743318  0.64575918  1
  Mo  Mo13  1  0.57121299  0.88268002  0.41064271  1
  O  O14  1  0.67845247  0.09732337  0.39818421  1
  O  O15  1  0.08803897  0.30156332  0.36649945  1
  O  O16  1  0.50799814  0.66178255  0.04608834  1
  O  O17  1  0.16978069  0.33821745  0.54608834  1
  O  O18  1  0.70940637  0.83221071  0.16915863  1
  O  O19  1  0.48804877  0.60938194  0.71031037  1
  O  O20  1  0.99843188  0.27069165  0.67267617  1
  O  O21  1  0.23172136  0.03320419  0.96482835  1
  O  O22  1  0.61039771  0.30156332  0.13350055  1
  O  O23  1  0.51195123  0.39061806  0.28968963  1
  O  O24  1  0.29059363  0.16778929  0.83084137  1
  O  O25  1  0.90256929  0.60938194  0.78968963  1
  O  O26  1  0.54161708  0.16778929  0.66915863  1
  O  O27  1  0.45838292  0.83221071  0.33084137  1
  O  O28  1  0.09743071  0.39061806  0.21031037  1
  O  O29  1  0.73087646  0.27069165  0.82732383  1
  O  O30  1  0.32154753  0.90267663  0.60181579  1
  O  O31  1  0.26492555  0.96679581  0.46482835  1
  O  O32  1  0.26912354  0.72930835  0.17267617  1
  O  O33  1  0.49200186  0.33821745  0.95391166  1
  O  O34  1  0.73507445  0.03320419  0.53517165  1
  O  O35  1  0.22422417  0.09732337  0.10181579  1
  O  O36  1  0.38960229  0.69843668  0.86649945  1
  O  O37  1  0.83021931  0.66178255  0.45391166  1
  O  O38  1  0.93105238  0.47664708  0.93197797  1
  O  O39  1  0.76827864  0.96679581  0.03517165  1
  O  O40  1  0.59230054  0.47664708  0.56802203  1
  O  O41  1  0.91196103  0.69843668  0.63350055  1
  O  O42  1  0.06894762  0.52335292  0.06802203  1
  O  O43  1  0.77577583  0.90267663  0.89818421  1
  O  O44  1  0.40769946  0.52335292  0.43197797  1
  O  O45  1  0.00156812  0.72930835  0.32732383  1
