# generated using pymatgen
data_LiBH2C4O9
_symmetry_space_group_name_H-M   'P 1'
_cell_length_a   16.26743160
_cell_length_b   16.07750769
_cell_length_c   5.65596438
_cell_angle_alpha   90.00000000
_cell_angle_beta   90.00000000
_cell_angle_gamma   90.00000000
_symmetry_Int_Tables_number   1
_chemical_formula_structural   LiBH2C4O9
_chemical_formula_sum   'Li8 B8 H16 C32 O72'
_cell_volume   1479.25954754
_cell_formula_units_Z   8
loop_
 _symmetry_equiv_pos_site_id
 _symmetry_equiv_pos_as_xyz
  1  'x, y, z'
loop_
 _atom_site_type_symbol
 _atom_site_label
 _atom_site_symmetry_multiplicity
 _atom_site_fract_x
 _atom_site_fract_y
 _atom_site_fract_z
 _atom_site_occupancy
  Li  Li0  1  0.15442800  0.24823860  0.62318392  1
  Li  Li1  1  0.65442800  0.25176140  0.37681608  1
  Li  Li2  1  0.84557200  0.74823860  0.87681608  1
  Li  Li3  1  0.34557200  0.75176140  0.12318392  1
  Li  Li4  1  0.84557200  0.75176140  0.37681608  1
  Li  Li5  1  0.34557200  0.74823860  0.62318392  1
  Li  Li6  1  0.15442800  0.25176140  0.12318392  1
  Li  Li7  1  0.65442800  0.24823860  0.87681608  1
  B  B8  1  0.91021565  0.44250645  0.71915739  1
  B  B9  1  0.41021565  0.05749355  0.28084261  1
  B  B10  1  0.08978435  0.94250645  0.78084261  1
  B  B11  1  0.58978435  0.55749355  0.21915739  1
  B  B12  1  0.08978435  0.55749355  0.28084261  1
  B  B13  1  0.58978435  0.94250645  0.71915739  1
  B  B14  1  0.91021565  0.05749355  0.21915739  1
  B  B15  1  0.41021565  0.44250645  0.78084261  1
  H  H16  1  0.29075111  0.22841872  0.36709274  1
  H  H17  1  0.79075111  0.27158128  0.63290726  1
  H  H18  1  0.70924889  0.72841872  0.13290726  1
  H  H19  1  0.20924889  0.77158128  0.86709274  1
  H  H20  1  0.70924889  0.77158128  0.63290726  1
  H  H21  1  0.20924889  0.72841872  0.36709274  1
  H  H22  1  0.29075111  0.27158128  0.86709274  1
  H  H23  1  0.79075111  0.22841872  0.13290726  1
  H  H24  1  0.23805654  0.14579565  0.33645073  1
  H  H25  1  0.73805654  0.35420435  0.66354927  1
  H  H26  1  0.76194346  0.64579565  0.16354927  1
  H  H27  1  0.26194346  0.85420435  0.83645073  1
  H  H28  1  0.76194346  0.85420435  0.66354927  1
  H  H29  1  0.26194346  0.64579565  0.33645073  1
  H  H30  1  0.23805654  0.35420435  0.83645073  1
  H  H31  1  0.73805654  0.14579565  0.16354927  1
  C  C32  1  0.00394248  0.34565031  0.85307737  1
  C  C33  1  0.50394248  0.15434969  0.14692263  1
  C  C34  1  0.99605752  0.84565031  0.64692263  1
  C  C35  1  0.49605752  0.65434969  0.35307737  1
  C  C36  1  0.99605752  0.65434969  0.14692263  1
  C  C37  1  0.49605752  0.84565031  0.85307737  1
  C  C38  1  0.00394248  0.15434969  0.35307737  1
  C  C39  1  0.50394248  0.34565031  0.64692263  1
  C  C40  1  0.92081279  0.33275222  0.98039021  1
  C  C41  1  0.42081279  0.16724778  0.01960979  1
  C  C42  1  0.07918721  0.83275222  0.51960979  1
  C  C43  1  0.57918721  0.66724778  0.48039021  1
  C  C44  1  0.07918721  0.66724778  0.01960979  1
  C  C45  1  0.57918721  0.83275222  0.98039021  1
  C  C46  1  0.92081279  0.16724778  0.48039021  1
  C  C47  1  0.42081279  0.33275222  0.51960979  1
  C  C48  1  0.86687947  0.57412118  0.62463051  1
  C  C49  1  0.36687947  0.92587882  0.37536949  1
  C  C50  1  0.13312053  0.07412118  0.87536949  1
  C  C51  1  0.63312053  0.42587882  0.12463051  1
  C  C52  1  0.13312053  0.42587882  0.37536949  1
  C  C53  1  0.63312053  0.07412118  0.62463051  1
  C  C54  1  0.86687947  0.92587882  0.12463051  1
  C  C55  1  0.36687947  0.57412118  0.87536949  1
  C  C56  1  0.83806153  0.51310273  0.43126500  1
  C  C57  1  0.33806153  0.98689727  0.56873500  1
  C  C58  1  0.16193847  0.01310273  0.06873500  1
  C  C59  1  0.66193847  0.48689727  0.93126500  1
  C  C60  1  0.16193847  0.48689727  0.56873500  1
  C  C61  1  0.66193847  0.01310273  0.43126500  1
  C  C62  1  0.83806153  0.98689727  0.93126500  1
  C  C63  1  0.33806153  0.51310273  0.06873500  1
  O  O64  1  0.86680875  0.43804415  0.48885555  1
  O  O65  1  0.36680875  0.06195585  0.51114445  1
  O  O66  1  0.13319125  0.93804415  0.01114445  1
  O  O67  1  0.63319125  0.56195585  0.98885555  1
  O  O68  1  0.13319125  0.56195585  0.51114445  1
  O  O69  1  0.63319125  0.93804415  0.48885555  1
  O  O70  1  0.86680875  0.06195585  0.98885555  1
  O  O71  1  0.36680875  0.43804415  0.01114445  1
  O  O72  1  0.06599663  0.30397483  0.87787596  1
  O  O73  1  0.56599663  0.19602517  0.12212404  1
  O  O74  1  0.93400337  0.80397483  0.62212404  1
  O  O75  1  0.43400337  0.69602517  0.37787596  1
  O  O76  1  0.93400337  0.69602517  0.12212404  1
  O  O77  1  0.43400337  0.80397483  0.87787596  1
  O  O78  1  0.06599663  0.19602517  0.37787596  1
  O  O79  1  0.56599663  0.30397483  0.62212404  1
  O  O80  1  0.85242269  0.64871391  0.62976671  1
  O  O81  1  0.35242269  0.85128609  0.37023329  1
  O  O82  1  0.14757731  0.14871391  0.87023329  1
  O  O83  1  0.64757731  0.35128609  0.12976671  1
  O  O84  1  0.14757731  0.35128609  0.37023329  1
  O  O85  1  0.64757731  0.14871391  0.62976671  1
  O  O86  1  0.85242269  0.85128609  0.12976671  1
  O  O87  1  0.35242269  0.64871391  0.87023329  1
  O  O88  1  0.99566934  0.40930753  0.70492523  1
  O  O89  1  0.49566934  0.09069247  0.29507477  1
  O  O90  1  0.00433066  0.90930753  0.79507477  1
  O  O91  1  0.50433066  0.59069247  0.20492523  1
  O  O92  1  0.00433066  0.59069247  0.29507477  1
  O  O93  1  0.50433066  0.90930753  0.70492523  1
  O  O94  1  0.99566934  0.09069247  0.20492523  1
  O  O95  1  0.49566934  0.40930753  0.79507477  1
  O  O96  1  0.90389553  0.27784648  0.12056518  1
  O  O97  1  0.40389553  0.22215352  0.87943482  1
  O  O98  1  0.09610447  0.77784648  0.37943482  1
  O  O99  1  0.59610447  0.72215352  0.62056518  1
  O  O100  1  0.09610447  0.72215352  0.87943482  1
  O  O101  1  0.59610447  0.77784648  0.12056518  1
  O  O102  1  0.90389553  0.22215352  0.62056518  1
  O  O103  1  0.40389553  0.27784648  0.37943482  1
  O  O104  1  0.79678742  0.53047890  0.25883722  1
  O  O105  1  0.29678742  0.96952110  0.74116278  1
  O  O106  1  0.20321258  0.03047890  0.24116278  1
  O  O107  1  0.70321258  0.46952110  0.75883722  1
  O  O108  1  0.20321258  0.46952110  0.74116278  1
  O  O109  1  0.70321258  0.03047890  0.25883722  1
  O  O110  1  0.79678742  0.96952110  0.75883722  1
  O  O111  1  0.29678742  0.53047890  0.24116278  1
  O  O112  1  0.90947838  0.53222320  0.78487170  1
  O  O113  1  0.40947838  0.96777680  0.21512830  1
  O  O114  1  0.09052162  0.03222320  0.71512830  1
  O  O115  1  0.59052162  0.46777680  0.28487170  1
  O  O116  1  0.09052162  0.46777680  0.21512830  1
  O  O117  1  0.59052162  0.03222320  0.78487170  1
  O  O118  1  0.90947838  0.96777680  0.28487170  1
  O  O119  1  0.40947838  0.53222320  0.71512830  1
  O  O120  1  0.86927869  0.39042013  0.90050941  1
  O  O121  1  0.36927869  0.10957987  0.09949059  1
  O  O122  1  0.13072131  0.89042013  0.59949059  1
  O  O123  1  0.63072131  0.60957987  0.40050941  1
  O  O124  1  0.13072131  0.60957987  0.09949059  1
  O  O125  1  0.63072131  0.89042013  0.90050941  1
  O  O126  1  0.86927869  0.10957987  0.40050941  1
  O  O127  1  0.36927869  0.39042013  0.59949059  1
  O  O128  1  0.23474910  0.20553563  0.37271456  1
  O  O129  1  0.73474910  0.29446437  0.62728544  1
  O  O130  1  0.76525090  0.70553563  0.12728544  1
  O  O131  1  0.26525090  0.79446437  0.87271456  1
  O  O132  1  0.76525090  0.79446437  0.62728544  1
  O  O133  1  0.26525090  0.70553563  0.37271456  1
  O  O134  1  0.23474910  0.29446437  0.87271456  1
  O  O135  1  0.73474910  0.20553563  0.12728544  1
