# generated using pymatgen
data_UH16C4(NO3)4
_symmetry_space_group_name_H-M   'P 1'
_cell_length_a   8.00305194
_cell_length_b   14.81246065
_cell_length_c   12.21046437
_cell_angle_alpha   90.00000000
_cell_angle_beta   97.34207443
_cell_angle_gamma   90.00000000
_symmetry_Int_Tables_number   1
_chemical_formula_structural   UH16C4(NO3)4
_chemical_formula_sum   'U4 H64 C16 N16 O48'
_cell_volume   1435.62003140
_cell_formula_units_Z   4
loop_
 _symmetry_equiv_pos_site_id
 _symmetry_equiv_pos_as_xyz
  1  'x, y, z'
loop_
 _atom_site_type_symbol
 _atom_site_label
 _atom_site_symmetry_multiplicity
 _atom_site_fract_x
 _atom_site_fract_y
 _atom_site_fract_z
 _atom_site_occupancy
  U  U0  1  0.16508400  0.47211357  0.72323587  1
  U  U1  1  0.83491600  0.97211357  0.77676413  1
  U  U2  1  0.83491600  0.52788643  0.27676413  1
  U  U3  1  0.16508400  0.02788643  0.22323587  1
  H  H4  1  0.15528239  0.59578189  0.51256911  1
  H  H5  1  0.84471761  0.09578189  0.98743089  1
  H  H6  1  0.84471761  0.40421811  0.48743089  1
  H  H7  1  0.15528239  0.90421811  0.01256911  1
  H  H8  1  0.26887359  0.65409267  0.61547003  1
  H  H9  1  0.73112641  0.15409267  0.88452997  1
  H  H10  1  0.73112641  0.34590733  0.38452997  1
  H  H11  1  0.26887359  0.84590733  0.11547003  1
  H  H12  1  0.12927032  0.30768669  0.53013587  1
  H  H13  1  0.87072968  0.80768669  0.96986413  1
  H  H14  1  0.87072968  0.69231331  0.46986413  1
  H  H15  1  0.12927032  0.19231331  0.03013587  1
  H  H16  1  0.15470617  0.23295630  0.44394736  1
  H  H17  1  0.84529383  0.73295630  0.05605264  1
  H  H18  1  0.84529383  0.76704370  0.55605264  1
  H  H19  1  0.15470617  0.26704370  0.94394736  1
  H  H20  1  0.93785896  0.18358812  0.73781635  1
  H  H21  1  0.06214104  0.68358812  0.76218365  1
  H  H22  1  0.06214104  0.81641188  0.26218365  1
  H  H23  1  0.93785896  0.31641188  0.23781635  1
  H  H24  1  0.88533200  0.20256626  0.59830872  1
  H  H25  1  0.11466800  0.70256626  0.90169128  1
  H  H26  1  0.11466800  0.79743374  0.40169128  1
  H  H27  1  0.88533200  0.29743374  0.09830872  1
  H  H28  1  0.41150335  0.15803720  0.44358932  1
  H  H29  1  0.58849665  0.65803720  0.05641068  1
  H  H30  1  0.58849665  0.84196280  0.55641068  1
  H  H31  1  0.41150335  0.34196280  0.94358932  1
  H  H32  1  0.24654064  0.08542458  0.81906904  1
  H  H33  1  0.75345936  0.58542458  0.68093096  1
  H  H34  1  0.75345936  0.91457542  0.18093096  1
  H  H35  1  0.24654064  0.41457542  0.31906904  1
  H  H36  1  0.43062189  0.04140104  0.88138319  1
  H  H37  1  0.56937811  0.54140104  0.61861681  1
  H  H38  1  0.56937811  0.95859896  0.11861681  1
  H  H39  1  0.43062189  0.45859896  0.38138319  1
  H  H40  1  0.42952653  0.14253878  0.81541617  1
  H  H41  1  0.57047347  0.64253878  0.68458383  1
  H  H42  1  0.57047347  0.85746122  0.18458383  1
  H  H43  1  0.42952653  0.35746122  0.31541617  1
  H  H44  1  0.77751055  0.25339899  0.68890585  1
  H  H45  1  0.22248945  0.75339899  0.81109415  1
  H  H46  1  0.22248945  0.74660101  0.31109415  1
  H  H47  1  0.77751055  0.24660101  0.18890585  1
  H  H48  1  0.97504409  0.28640126  0.67818794  1
  H  H49  1  0.02495591  0.78640126  0.82181206  1
  H  H50  1  0.02495591  0.71359874  0.32181206  1
  H  H51  1  0.97504409  0.21359874  0.17818794  1
  H  H52  1  0.44089554  0.08668918  0.55270679  1
  H  H53  1  0.55910446  0.58668918  0.94729321  1
  H  H54  1  0.55910446  0.91331082  0.44729321  1
  H  H55  1  0.44089554  0.41331082  0.05270679  1
  H  H56  1  0.60351361  0.11190728  0.48001287  1
  H  H57  1  0.39648639  0.61190728  0.01998713  1
  H  H58  1  0.39648639  0.88809272  0.51998713  1
  H  H59  1  0.60351361  0.38809272  0.98001287  1
  H  H60  1  0.52756666  0.19032899  0.56200786  1
  H  H61  1  0.47243334  0.69032899  0.93799214  1
  H  H62  1  0.47243334  0.80967101  0.43799214  1
  H  H63  1  0.52756666  0.30967101  0.06200786  1
  H  H64  1  0.34245263  0.13561715  0.93343831  1
  H  H65  1  0.65754737  0.63561715  0.56656169  1
  H  H66  1  0.65754737  0.86438285  0.06656169  1
  H  H67  1  0.34245263  0.36438285  0.43343831  1
  C  C68  1  0.45289585  0.30529395  0.72804835  1
  C  C69  1  0.54710415  0.80529395  0.77195165  1
  C  C70  1  0.54710415  0.69470605  0.27195165  1
  C  C71  1  0.45289585  0.19470605  0.22804835  1
  C  C72  1  0.90857788  0.38644830  0.89706815  1
  C  C73  1  0.09142212  0.88644830  0.60293185  1
  C  C74  1  0.09142212  0.61355170  0.10293185  1
  C  C75  1  0.90857788  0.11355170  0.39706815  1
  C  C76  1  0.82265937  0.47729063  0.85917700  1
  C  C77  1  0.17734063  0.97729063  0.64082300  1
  C  C78  1  0.17734063  0.52270937  0.14082300  1
  C  C79  1  0.82265937  0.02270937  0.35917700  1
  C  C80  1  0.50125957  0.37007276  0.63754275  1
  C  C81  1  0.49874043  0.87007276  0.86245725  1
  C  C82  1  0.49874043  0.62992724  0.36245725  1
  C  C83  1  0.50125957  0.12992724  0.13754275  1
  N  N84  1  0.19188601  0.59926692  0.59682034  1
  N  N85  1  0.80811399  0.09926692  0.90317966  1
  N  N86  1  0.80811399  0.40073308  0.40317966  1
  N  N87  1  0.19188601  0.90073308  0.09682034  1
  N  N88  1  0.89632741  0.23109958  0.67667923  1
  N  N89  1  0.10367259  0.73109958  0.82332077  1
  N  N90  1  0.10367259  0.76890042  0.32332077  1
  N  N91  1  0.89632741  0.26890042  0.17667923  1
  N  N92  1  0.49580095  0.13684933  0.50960456  1
  N  N93  1  0.50419905  0.63684933  0.99039544  1
  N  N94  1  0.50419905  0.86315067  0.49039544  1
  N  N95  1  0.49580095  0.36315067  0.00960456  1
  N  N96  1  0.36266030  0.10060443  0.86306100  1
  N  N97  1  0.63733970  0.60060443  0.63693900  1
  N  N98  1  0.63733970  0.89939557  0.13693900  1
  N  N99  1  0.36266030  0.39939557  0.36306100  1
  O  O100  1  0.33133020  0.33151124  0.77871240  1
  O  O101  1  0.66866980  0.83151124  0.72128760  1
  O  O102  1  0.66866980  0.66848876  0.22128760  1
  O  O103  1  0.33133020  0.16848876  0.27871240  1
  O  O104  1  0.04862982  0.37060207  0.85953484  1
  O  O105  1  0.95137018  0.87060207  0.64046516  1
  O  O106  1  0.95137018  0.62939793  0.14046516  1
  O  O107  1  0.04862982  0.12939793  0.35953484  1
  O  O108  1  0.41460945  0.44354588  0.62580713  1
  O  O109  1  0.58539055  0.94354588  0.87419287  1
  O  O110  1  0.58539055  0.55645412  0.37419287  1
  O  O111  1  0.41460945  0.05645412  0.12580713  1
  O  O112  1  0.04967304  0.60426566  0.65260422  1
  O  O113  1  0.95032696  0.10426566  0.84739578  1
  O  O114  1  0.95032696  0.39573434  0.34739578  1
  O  O115  1  0.04967304  0.89573434  0.15260422  1
  O  O116  1  0.90510361  0.52547810  0.79652418  1
  O  O117  1  0.09489639  0.02547810  0.70347582  1
  O  O118  1  0.09489639  0.47452190  0.20347582  1
  O  O119  1  0.90510361  0.97452190  0.29652418  1
  O  O120  1  0.29392034  0.53457214  0.83154441  1
  O  O121  1  0.70607966  0.03457214  0.66845559  1
  O  O122  1  0.70607966  0.46542786  0.16845559  1
  O  O123  1  0.29392034  0.96542786  0.33154441  1
  O  O124  1  0.03647074  0.40403155  0.61581820  1
  O  O125  1  0.96352926  0.90403155  0.88418180  1
  O  O126  1  0.96352926  0.59596845  0.38418180  1
  O  O127  1  0.03647074  0.09596845  0.11581820  1
  O  O128  1  0.53609394  0.23310161  0.74589361  1
  O  O129  1  0.46390606  0.73310161  0.75410639  1
  O  O130  1  0.46390606  0.76689839  0.25410639  1
  O  O131  1  0.53609394  0.26689839  0.24589361  1
  O  O132  1  0.83740275  0.33528164  0.95865798  1
  O  O133  1  0.16259725  0.83528164  0.54134202  1
  O  O134  1  0.16259725  0.66471836  0.04134202  1
  O  O135  1  0.83740275  0.16471836  0.45865798  1
  O  O136  1  0.68354693  0.49615031  0.88934793  1
  O  O137  1  0.31645307  0.99615031  0.61065207  1
  O  O138  1  0.31645307  0.50384969  0.11065207  1
  O  O139  1  0.68354693  0.00384969  0.38934793  1
  O  O140  1  0.61782658  0.34797236  0.58379948  1
  O  O141  1  0.38217342  0.84797236  0.91620052  1
  O  O142  1  0.38217342  0.65202764  0.41620052  1
  O  O143  1  0.61782658  0.15202764  0.08379948  1
  O  O144  1  0.21659119  0.27165743  0.50130401  1
  O  O145  1  0.78340881  0.77165743  0.99869599  1
  O  O146  1  0.78340881  0.72834257  0.49869599  1
  O  O147  1  0.21659119  0.22834257  0.00130401  1
