# generated using pymatgen
data_Rb4CdCl6
_symmetry_space_group_name_H-M   'P 1'
_cell_length_a   7.72868913
_cell_length_b   8.83667097
_cell_length_c   12.96035331
_cell_angle_alpha   85.29766749
_cell_angle_beta   107.34751974
_cell_angle_gamma   105.95867067
_symmetry_Int_Tables_number   1
_chemical_formula_structural   Rb4CdCl6
_chemical_formula_sum   'Rb8 Cd2 Cl12'
_cell_volume   812.31586696
_cell_formula_units_Z   2
loop_
 _symmetry_equiv_pos_site_id
 _symmetry_equiv_pos_as_xyz
  1  'x, y, z'
loop_
 _atom_site_type_symbol
 _atom_site_label
 _atom_site_symmetry_multiplicity
 _atom_site_fract_x
 _atom_site_fract_y
 _atom_site_fract_z
 _atom_site_occupancy
  Rb  Rb0  1  0.52630830  0.25000000  0.05261659  1
  Rb  Rb1  1  0.47369170  0.75000000  0.94738341  1
  Rb  Rb2  1  0.34721422  0.10713964  0.35837204  1
  Rb  Rb3  1  0.35714373  0.25000000  0.71428746  1
  Rb  Rb4  1  0.01115782  0.39286036  0.35837204  1
  Rb  Rb5  1  0.65278578  -0.10713964  0.64162796  1
  Rb  Rb6  1  0.64285627  0.75000000  0.28571254  1
  Rb  Rb7  1  0.98884218  0.60713964  0.64162796  1
  Cd  Cd8  1  0.00000000  0.50000000  0.00000000  1
  Cd  Cd9  1  0.00000000  0.00000000  0.00000000  1
  Cl  Cl10  1  0.82504481  0.58510725  0.12183728  1
  Cl  Cl11  1  0.67229142  0.45072199  0.42750358  1
  Cl  Cl12  1  0.25728965  0.45099807  0.15786332  1
  Cl  Cl13  1  0.17495519  0.41489275  0.87816272  1
  Cl  Cl14  1  0.32770858  0.54927801  0.57249642  1
  Cl  Cl15  1  0.74271035  0.54900193  0.84213668  1
  Cl  Cl16  1  0.24478784  0.95072199  0.57249642  1
  Cl  Cl17  1  0.09942634  0.95099807  0.84213669  1
  Cl  Cl18  1  0.70320753  0.08510725  0.87816272  1
  Cl  Cl19  1  0.75521216  0.04927801  0.42750358  1
  Cl  Cl20  1  -0.09942634  0.04900193  0.15786331  1
  Cl  Cl21  1  0.29679247  0.91489275  0.12183728  1
