# generated using pymatgen
data_Mn3(PO4)4
_symmetry_space_group_name_H-M   'P 1'
_cell_length_a   6.32222331
_cell_length_b   10.00765534
_cell_length_c   10.88989747
_cell_angle_alpha   88.21936930
_cell_angle_beta   90.00491675
_cell_angle_gamma   71.66317902
_symmetry_Int_Tables_number   1
_chemical_formula_structural   Mn3(PO4)4
_chemical_formula_sum   'Mn6 P8 O32'
_cell_volume   653.67401274
_cell_formula_units_Z   2
loop_
 _symmetry_equiv_pos_site_id
 _symmetry_equiv_pos_as_xyz
  1  'x, y, z'
loop_
 _atom_site_type_symbol
 _atom_site_label
 _atom_site_symmetry_multiplicity
 _atom_site_fract_x
 _atom_site_fract_y
 _atom_site_fract_z
 _atom_site_occupancy
  Mn  Mn0  1  0.36516795  0.30749824  0.25115372  1
  Mn  Mn1  1  0.63483205  0.69250176  0.74884628  1
  Mn  Mn2  1  0.00000000  0.50000000  0.00000000  1
  Mn  Mn3  1  0.32726394  0.30755556  0.75069632  1
  Mn  Mn4  1  0.67273606  0.69244444  0.24930368  1
  Mn  Mn5  1  0.50000000  0.50000000  0.50000000  1
  P  P6  1  0.42229823  0.82779460  0.49051673  1
  P  P7  1  0.57770177  0.17220540  0.50948327  1
  P  P8  1  0.78006624  0.40226862  0.75493949  1
  P  P9  1  0.21993376  0.59773138  0.24506051  1
  P  P10  1  0.25001514  0.17221029  0.00917832  1
  P  P11  1  0.18246890  0.59767849  0.74520438  1
  P  P12  1  0.81753110  0.40232151  0.25479562  1
  P  P13  1  0.74998486  0.82778971  0.99082168  1
  O  O14  1  0.36812761  0.16629291  0.88220063  1
  O  O15  1  0.73115798  0.51304998  0.35958108  1
  O  O16  1  0.63187239  0.83370709  0.11779937  1
  O  O17  1  0.46548183  0.16614492  0.38229478  1
  O  O18  1  0.53451817  0.83385508  0.61770522  1
  O  O19  1  0.94194252  0.68987463  0.72188447  1
  O  O20  1  0.76730101  0.03541429  0.53290041  1
  O  O21  1  0.24386011  0.48716864  0.14020993  1
  O  O22  1  0.96269317  0.69604667  0.99198359  1
  O  O23  1  0.78824017  0.51893251  0.14563611  1
  O  O24  1  0.32712071  0.69021987  0.76974842  1
  O  O25  1  0.34177618  0.69606763  0.49188155  1
  O  O26  1  0.41237532  0.18586191  0.11369217  1
  O  O27  1  0.65822382  0.30393237  0.50811845  1
  O  O28  1  0.26884202  0.48695002  0.64041892  1
  O  O29  1  0.05805748  0.31012537  0.27811553  1
  O  O30  1  0.69265272  0.51906742  0.64580241  1
  O  O31  1  0.67287929  0.30978013  0.23025158  1
  O  O32  1  0.30734728  0.48093258  0.35419759  1
  O  O33  1  0.58762468  0.81413809  0.88630783  1
  O  O34  1  0.40130004  0.18598632  0.61389383  1
  O  O35  1  0.98290139  0.69017001  0.26969600  1
  O  O36  1  0.59869996  0.81401368  0.38610617  1
  O  O37  1  0.19727007  0.03567059  0.03309912  1
  O  O38  1  0.21175983  0.48106749  0.85436389  1
  O  O39  1  0.03730683  0.30395333  0.00801641  1
  O  O40  1  0.01709861  0.30982999  0.73030400  1
  O  O41  1  0.36832403  0.68982244  0.22172081  1
  O  O42  1  0.23269899  0.96458571  0.46709959  1
  O  O43  1  0.80272993  0.96432941  0.96690088  1
  O  O44  1  0.63167597  0.31017756  0.77827919  1
  O  O45  1  0.75613989  0.51283136  0.85979007  1
