# generated using pymatgen
data_Fe21Ni9O40
_symmetry_space_group_name_H-M   'P 1'
_cell_length_a   30.24093641
_cell_length_b   16.02555716
_cell_length_c   10.44738986
_cell_angle_alpha   29.20356705
_cell_angle_beta   30.06542053
_cell_angle_gamma   19.06491767
_symmetry_Int_Tables_number   1
_chemical_formula_structural   Fe21Ni9O40
_chemical_formula_sum   'Fe21 Ni9 O40'
_cell_volume   780.50389180
_cell_formula_units_Z   1
loop_
 _symmetry_equiv_pos_site_id
 _symmetry_equiv_pos_as_xyz
  1  'x, y, z'
loop_
 _atom_site_type_symbol
 _atom_site_label
 _atom_site_symmetry_multiplicity
 _atom_site_fract_x
 _atom_site_fract_y
 _atom_site_fract_z
 _atom_site_occupancy
  Fe  Fe0  1  0.00147199  -0.00071666  0.49735705  1
  Fe  Fe1  1  0.20042317  0.99801964  0.50394126  1
  Fe  Fe2  1  0.10059219  0.49945519  0.00144399  1
  Fe  Fe3  1  0.09888974  0.49977851  0.50278521  1
  Fe  Fe4  1  0.40018453  0.99882367  0.50001918  1
  Fe  Fe5  1  0.29859154  0.50165516  0.00222948  1
  Fe  Fe6  1  0.19888366  0.50162710  0.50008546  1
  Fe  Fe7  1  0.30033926  0.50039162  0.49921071  1
  Fe  Fe8  1  0.50255863  0.49504075  0.99866574  1
  Fe  Fe9  1  0.60274454  0.99500091  0.50035011  1
  Fe  Fe10  1  0.40085254  0.49691651  0.50337024  1
  Fe  Fe11  1  0.50012134  0.49827813  0.50367769  1
  Fe  Fe12  1  0.70319574  0.49305878  0.00047880  1
  Fe  Fe13  1  0.80003319  0.99803973  0.50281028  1
  Fe  Fe14  1  0.60335083  0.49695323  0.49477792  1
  Fe  Fe15  1  0.70122443  0.49919840  0.49728256  1
  Fe  Fe16  1  0.89864155  0.50222233  0.00103094  1
  Fe  Fe17  1  0.45142199  0.87112763  0.87674786  1
  Fe  Fe18  1  0.80218433  0.49634546  0.49920283  1
  Fe  Fe19  1  0.90279963  0.49258601  0.50309440  1
  Fe  Fe20  1  0.99838348  0.49822493  0.50667577  1
  Ni  Ni21  1  0.14943196  0.12497013  0.12881458  1
  Ni  Ni22  1  0.35093118  0.12062110  0.13008220  1
  Ni  Ni23  1  0.54910778  0.12670165  0.12253187  1
  Ni  Ni24  1  0.05202964  0.86894706  0.88114022  1
  Ni  Ni25  1  0.75230233  0.12246483  0.12370678  1
  Ni  Ni26  1  0.24980636  0.87766774  0.87282495  1
  Ni  Ni27  1  0.94964027  0.12357228  0.13010758  1
  Ni  Ni28  1  0.65012436  0.87527970  0.87185081  1
  Ni  Ni29  1  0.85167762  0.87227993  0.87550737  1
  O  O30  1  0.09947705  0.25795370  0.25679459  1
  O  O31  1  0.00483181  0.25516716  0.72486551  1
  O  O32  1  0.18915250  0.25721915  0.26198248  1
  O  O33  1  0.08577511  0.28144865  0.74286538  1
  O  O34  1  0.29271312  0.26590271  0.26134466  1
  O  O35  1  0.20432918  0.25733848  0.72242127  1
  O  O36  1  0.11051660  0.71985584  0.26079117  1
  O  O37  1  0.38601277  0.25713298  0.27044286  1
  O  O38  1  0.01303506  0.74221757  0.73331124  1
  O  O39  1  0.19655474  0.73923294  0.27808716  1
  O  O40  1  0.28558846  0.28759721  0.73704962  1
  O  O41  1  0.10464343  0.73985697  0.73985426  1
  O  O42  1  0.49753327  0.25657068  0.26106431  1
  O  O43  1  0.40581775  0.25574695  0.72172666  1
  O  O44  1  0.31420728  0.71719688  0.25793481  1
  O  O45  1  0.58890983  0.25843335  0.26097741  1
  O  O46  1  0.21379105  0.73936345  0.73548513  1
  O  O47  1  0.39569683  0.73415323  0.29014606  1
  O  O48  1  0.48663373  0.28075118  0.74698407  1
  O  O49  1  0.30354897  0.73782779  0.74683944  1
  O  O50  1  0.69472483  0.26213324  0.25963115  1
  O  O51  1  0.60770448  0.25709968  0.71645004  1
  O  O52  1  0.51430984  0.71617633  0.25588605  1
  O  O53  1  0.79144387  0.25324199  0.25792942  1
  O  O54  1  0.41691171  0.73360769  0.73496900  1
  O  O55  1  0.59651286  0.74081362  0.27599526  1
  O  O56  1  0.69161820  0.27621660  0.73485618  1
  O  O57  1  0.50632342  0.73331655  0.73882486  1
  O  O58  1  0.89454356  0.26448132  0.25998838  1
  O  O59  1  0.80327784  0.26237834  0.71926063  1
  O  O60  1  0.71094924  0.72149982  0.26160359  1
  O  O61  1  0.98936923  0.25712375  0.25829718  1
  O  O62  1  0.61629116  0.73589095  0.73585636  1
  O  O63  1  0.79744601  0.73417824  0.28418637  1
  O  O64  1  0.89192097  0.27209154  0.73975476  1
  O  O65  1  0.70818183  0.72957294  0.74217821  1
  O  O66  1  0.91467846  0.71161592  0.26353365  1
  O  O67  1  0.80938999  0.74273084  0.74336397  1
  O  O68  1  0.99246472  0.73901579  0.28883158  1
  O  O69  1  0.90487446  0.73835354  0.74076241  1
