# generated using pymatgen
data_PH2NF2
_symmetry_space_group_name_H-M   'P 1'
_cell_length_a   5.30308423
_cell_length_b   13.10279926
_cell_length_c   4.96425936
_cell_angle_alpha   90.00000000
_cell_angle_beta   115.42400022
_cell_angle_gamma   90.00000000
_symmetry_Int_Tables_number   1
_chemical_formula_structural   PH2NF2
_chemical_formula_sum   'P4 H8 N4 F8'
_cell_volume   311.53699452
_cell_formula_units_Z   4
loop_
 _symmetry_equiv_pos_site_id
 _symmetry_equiv_pos_as_xyz
  1  'x, y, z'
loop_
 _atom_site_type_symbol
 _atom_site_label
 _atom_site_symmetry_multiplicity
 _atom_site_fract_x
 _atom_site_fract_y
 _atom_site_fract_z
 _atom_site_occupancy
  P  P0  1  0.28416818  0.41218194  0.63800347  1
  P  P1  1  0.28416818  0.08781806  0.13800347  1
  P  P2  1  0.71583182  0.91218194  0.86199653  1
  P  P3  1  0.71583182  0.58781806  0.36199653  1
  H  H4  1  0.24911846  0.87347384  0.65349037  1
  H  H5  1  0.43497363  0.77159059  0.62419429  1
  H  H6  1  0.24911846  0.62652616  0.15349037  1
  H  H7  1  0.56502637  0.27159059  0.87580571  1
  H  H8  1  0.43497363  0.72840941  0.12419429  1
  H  H9  1  0.75088154  0.37347384  0.84650963  1
  H  H10  1  0.56502637  0.22840941  0.37580571  1
  H  H11  1  0.75088154  0.12652616  0.34650963  1
  N  N12  1  0.43767070  0.83709625  0.73952843  1
  N  N13  1  0.56232930  0.33709625  0.76047157  1
  N  N14  1  0.43767070  0.66290375  0.23952843  1
  N  N15  1  0.56232930  0.16290375  0.26047157  1
  F  F16  1  0.05163889  0.17405905  0.96314484  1
  F  F17  1  0.20199454  0.41706104  0.92399127  1
  F  F18  1  0.05163889  0.32594095  0.46314484  1
  F  F19  1  0.20199454  0.08293896  0.42399127  1
  F  F20  1  0.79800546  0.91706104  0.57600873  1
  F  F21  1  0.94836111  0.67405905  0.53685516  1
  F  F22  1  0.79800546  0.58293896  0.07600873  1
  F  F23  1  0.94836111  0.82594095  0.03685516  1
