# generated using pymatgen
data_MoPNCl6O
_symmetry_space_group_name_H-M   'P 1'
_cell_length_a   12.07517757
_cell_length_b   13.27682247
_cell_length_c   15.13850079
_cell_angle_alpha   90.00000000
_cell_angle_beta   90.00000000
_cell_angle_gamma   113.49934876
_symmetry_Int_Tables_number   1
_chemical_formula_structural   MoPNCl6O
_chemical_formula_sum   'Mo8 P8 N8 Cl48 O8'
_cell_volume   2225.71972404
_cell_formula_units_Z   8
loop_
 _symmetry_equiv_pos_site_id
 _symmetry_equiv_pos_as_xyz
  1  'x, y, z'
loop_
 _atom_site_type_symbol
 _atom_site_label
 _atom_site_symmetry_multiplicity
 _atom_site_fract_x
 _atom_site_fract_y
 _atom_site_fract_z
 _atom_site_occupancy
  Mo  Mo0  1  0.19177363  0.94308663  0.01629229  1
  Mo  Mo1  1  0.46636675  0.48203687  0.32453071  1
  Mo  Mo2  1  0.53363325  0.51796313  0.67546929  1
  Mo  Mo3  1  0.30822637  0.55691337  0.51629229  1
  Mo  Mo4  1  0.03363325  0.01796313  0.82453071  1
  Mo  Mo5  1  0.69177363  0.44308663  0.48370771  1
  Mo  Mo6  1  0.80822637  0.05691337  0.98370771  1
  Mo  Mo7  1  0.96636675  0.98203687  0.17546929  1
  P  P8  1  0.68800457  0.46800982  0.88150293  1
  P  P9  1  0.15182197  0.57646382  0.73631281  1
  P  P10  1  0.81199543  0.03199018  0.38150293  1
  P  P11  1  0.31199543  0.53199018  0.11849707  1
  P  P12  1  0.84817803  0.42353618  0.26368719  1
  P  P13  1  0.34817803  0.92353618  0.23631281  1
  P  P14  1  0.18800457  0.96800982  0.61849707  1
  P  P15  1  0.65182197  0.07646382  0.76368719  1
  N  N16  1  0.36461231  0.52640541  0.42172532  1
  N  N17  1  0.43377852  0.53469962  0.60368868  1
  N  N18  1  0.13538769  0.97359459  0.92172532  1
  N  N19  1  0.86461231  0.02640541  0.07827468  1
  N  N20  1  0.56622148  0.46530038  0.39631132  1
  N  N21  1  0.06622148  0.96530038  0.10368868  1
  N  N22  1  0.93377852  0.03469962  0.89631132  1
  N  N23  1  0.63538769  0.47359459  0.57827468  1
  Cl  Cl24  1  0.96262209  0.06369903  0.69431423  1
  Cl  Cl25  1  0.96132968  0.14417678  0.43606201  1
  Cl  Cl26  1  0.00061490  0.40690742  0.29538953  1
  Cl  Cl27  1  0.15203029  0.60234078  0.46678153  1
  Cl  Cl28  1  0.19410832  0.18888330  0.84058557  1
  Cl  Cl29  1  0.59833506  0.92532516  0.71291972  1
  Cl  Cl30  1  0.81541273  0.41037204  0.90400219  1
  Cl  Cl31  1  0.50061490  0.90690742  0.20461047  1
  Cl  Cl32  1  0.06129056  0.17144152  0.19223062  1
  Cl  Cl33  1  0.18374426  0.37693016  0.55674806  1
  Cl  Cl34  1  0.65203029  0.10234078  0.03321847  1
  Cl  Cl35  1  0.21994802  0.67942773  0.83728064  1
  Cl  Cl36  1  0.43870944  0.32855848  0.69223062  1
  Cl  Cl37  1  0.31541273  0.91037204  0.59599781  1
  Cl  Cl38  1  0.80589168  0.81111670  0.15941443  1
  Cl  Cl39  1  0.84796971  0.39765922  0.53321847  1
  Cl  Cl40  1  0.90166494  0.57467484  0.21291972  1
  Cl  Cl41  1  0.03867032  0.85582322  0.56393799  1
  Cl  Cl42  1  0.46262209  0.56369903  0.80568577  1
  Cl  Cl43  1  0.26700535  0.39933420  0.04159541  1
  Cl  Cl44  1  0.49938510  0.09309258  0.79538953  1
  Cl  Cl45  1  0.81625574  0.62306984  0.44325194  1
  Cl  Cl46  1  0.28005198  0.82057227  0.33728064  1
  Cl  Cl47  1  0.53867032  0.35582322  0.93606201  1
  Cl  Cl48  1  0.34796971  0.89765922  0.96678153  1
  Cl  Cl49  1  0.18458727  0.58962796  0.09599781  1
  Cl  Cl50  1  0.56129056  0.67144152  0.30776938  1
  Cl  Cl51  1  0.44580315  0.74132016  0.52739646  1
  Cl  Cl52  1  0.03737791  0.93630097  0.30568577  1
  Cl  Cl53  1  0.99938510  0.59309258  0.70461047  1
  Cl  Cl54  1  0.09833506  0.42532516  0.78708028  1
  Cl  Cl55  1  0.30589168  0.31111670  0.34058557  1
  Cl  Cl56  1  0.40166494  0.07467484  0.28708028  1
  Cl  Cl57  1  0.69410832  0.68888330  0.65941443  1
  Cl  Cl58  1  0.55419685  0.25867984  0.47260354  1
  Cl  Cl59  1  0.46132968  0.64417678  0.06393799  1
  Cl  Cl60  1  0.94580315  0.24132016  0.97260354  1
  Cl  Cl61  1  0.53737791  0.43630097  0.19431423  1
  Cl  Cl62  1  0.93870944  0.82855848  0.80776938  1
  Cl  Cl63  1  0.05419685  0.75867984  0.02739646  1
  Cl  Cl64  1  0.78005198  0.32057227  0.16271936  1
  Cl  Cl65  1  0.23299465  0.10066580  0.54159541  1
  Cl  Cl66  1  0.68374426  0.87693016  0.94325194  1
  Cl  Cl67  1  0.76700535  0.89933420  0.45840459  1
  Cl  Cl68  1  0.31625574  0.12306984  0.05674806  1
  Cl  Cl69  1  0.68458727  0.08962796  0.40400219  1
  Cl  Cl70  1  0.73299465  0.60066580  0.95840459  1
  Cl  Cl71  1  0.71994802  0.17942773  0.66271936  1
  O  O72  1  0.23840721  0.59882328  0.66203463  1
  O  O73  1  0.26159279  0.90117672  0.16203463  1
  O  O74  1  0.73840721  0.09882328  0.83796537  1
  O  O75  1  0.67685305  0.48875374  0.78649353  1
  O  O76  1  0.32314695  0.51124626  0.21350647  1
  O  O77  1  0.82314695  0.01124626  0.28649353  1
  O  O78  1  0.76159279  0.40117672  0.33796537  1
  O  O79  1  0.17685305  0.98875374  0.71350647  1
