# generated using pymatgen
data_V2P2H6PbO14
_symmetry_space_group_name_H-M   'P 1'
_cell_length_a   6.32151707
_cell_length_b   6.32151707
_cell_length_c   14.00075671
_cell_angle_alpha   81.48960943
_cell_angle_beta   98.51039057
_cell_angle_gamma   90.22530027
_symmetry_Int_Tables_number   1
_chemical_formula_structural   V2P2H6PbO14
_chemical_formula_sum   'V4 P4 H12 Pb2 O28'
_cell_volume   547.14672183
_cell_formula_units_Z   2
loop_
 _symmetry_equiv_pos_site_id
 _symmetry_equiv_pos_as_xyz
  1  'x, y, z'
loop_
 _atom_site_type_symbol
 _atom_site_label
 _atom_site_symmetry_multiplicity
 _atom_site_fract_x
 _atom_site_fract_y
 _atom_site_fract_z
 _atom_site_occupancy
  V  V0  1  0.74203457  0.04925500  0.46800115  1
  V  V1  1  0.95074500  0.25796543  0.96800115  1
  V  V2  1  0.26971879  0.50730009  0.56933320  1
  V  V3  1  0.49269991  0.73028121  0.06933320  1
  P  P4  1  0.25853871  0.02427513  0.52144377  1
  P  P5  1  0.97572487  0.74146129  0.02144377  1
  P  P6  1  0.75925417  0.52460008  0.52459086  1
  P  P7  1  0.47539992  0.24074583  0.02459086  1
  H  H8  1  0.71982464  0.08607042  0.25776253  1
  H  H9  1  0.91392958  0.28017536  0.75776253  1
  H  H10  1  0.18987032  0.40808553  0.78283970  1
  H  H11  1  0.59191447  0.81012968  0.28283970  1
  H  H12  1  0.39587750  0.54564490  0.78136389  1
  H  H13  1  0.45435510  0.60412250  0.28136389  1
  H  H14  1  0.09725970  0.98309359  0.71405097  1
  H  H15  1  0.01690641  0.90274030  0.21405097  1
  H  H16  1  0.78209422  0.56549992  0.78671766  1
  H  H17  1  0.43450008  0.21790578  0.28671766  1
  H  H18  1  0.88554290  0.78817434  0.78601690  1
  H  H19  1  0.21182566  0.11445710  0.28601690  1
  Pb  Pb20  1  0.50381672  0.04138446  0.77756531  1
  Pb  Pb21  1  0.95861554  0.49618328  0.27756531  1
  O  O22  1  0.78943310  0.03017394  0.58675354  1
  O  O23  1  0.96982606  0.21056690  0.08675354  1
  O  O24  1  0.43612959  0.04325965  0.45740224  1
  O  O25  1  0.95674035  0.56387041  0.95740224  1
  O  O26  1  0.04519780  0.06265417  0.45271825  1
  O  O27  1  0.93734583  0.95480220  0.95271825  1
  O  O28  1  0.73571175  0.36626647  0.44916662  1
  O  O29  1  0.63373353  0.26428825  0.94916662  1
  O  O30  1  0.74842625  0.74589333  0.46106320  1
  O  O31  1  0.25410667  0.25157375  0.96106320  1
  O  O32  1  0.22474905  0.53136191  0.45221568  1
  O  O33  1  0.46863809  0.77525095  0.95221568  1
  O  O34  1  0.27429384  0.80047136  0.58659161  1
  O  O35  1  0.19952864  0.72570616  0.08659161  1
  O  O36  1  0.97697947  0.48723828  0.59407958  1
  O  O37  1  0.51276172  0.02302053  0.09407958  1
  O  O38  1  0.57964225  0.49650342  0.58997046  1
  O  O39  1  0.50349658  0.42035775  0.08997046  1
  O  O40  1  0.28940763  0.18898194  0.59559735  1
  O  O41  1  0.81101806  0.71059237  0.09559735  1
  O  O42  1  0.66435706  0.09844530  0.31758112  1
  O  O43  1  0.90155470  0.33564294  0.81758112  1
  O  O44  1  0.31688934  0.43688337  0.74858880  1
  O  O45  1  0.56311663  0.68311066  0.24858880  1
  O  O46  1  0.17337895  0.92393473  0.77827141  1
  O  O47  1  0.07606527  0.82662105  0.27827141  1
  O  O48  1  0.74370820  0.72430520  0.76968420  1
  O  O49  1  0.27569480  0.25629180  0.26968420  1
