# generated using pymatgen
data_K2FeH4(SO5)2
_symmetry_space_group_name_H-M   'P 1'
_cell_length_a   7.70459457
_cell_length_b   11.12927393
_cell_length_c   6.76293245
_cell_angle_alpha   110.21343914
_cell_angle_beta   109.73365640
_cell_angle_gamma   95.70482066
_symmetry_Int_Tables_number   1
_chemical_formula_structural   K2FeH4(SO5)2
_chemical_formula_sum   'K4 Fe2 H8 S4 O20'
_cell_volume   496.66372043
_cell_formula_units_Z   2
loop_
 _symmetry_equiv_pos_site_id
 _symmetry_equiv_pos_as_xyz
  1  'x, y, z'
loop_
 _atom_site_type_symbol
 _atom_site_label
 _atom_site_symmetry_multiplicity
 _atom_site_fract_x
 _atom_site_fract_y
 _atom_site_fract_z
 _atom_site_occupancy
  K  K0  1  0.25441082  0.08184979  0.78494485  1
  K  K1  1  0.74637222  0.41882941  0.16447306  1
  K  K2  1  0.74753084  0.91481179  0.17288442  1
  K  K3  1  0.20071136  0.57815322  0.79583262  1
  Fe  Fe4  1  0.56954378  0.25135906  0.47950102  1
  Fe  Fe5  1  0.45298154  0.75308065  0.49035042  1
  H  H6  1  0.21547439  0.13118330  0.38739560  1
  H  H7  1  0.20594504  0.28055553  0.42866519  1
  H  H8  1  0.79190294  0.20208751  0.29596664  1
  H  H9  1  0.36251978  0.31827533  0.18123509  1
  H  H10  1  0.79570718  0.85699100  0.58260818  1
  H  H11  1  0.78399025  0.70594960  0.56748007  1
  H  H12  1  0.16586927  0.79277217  0.65706056  1
  H  H13  1  0.07288440  0.72661282  0.37605817  1
  S  S14  1  0.71197700  0.06992373  0.78731991  1
  S  S15  1  0.18973908  0.43952076  0.16421142  1
  S  S16  1  0.26970763  0.91765788  0.14966425  1
  S  S17  1  0.70624873  0.58458891  0.79759134  1
  O  O18  1  0.55375748  0.95602474  0.73254228  1
  O  O19  1  0.83088062  0.12586609  0.03580947  1
  O  O20  1  0.82609179  0.02223580  0.65100042  1
  O  O21  1  0.61910361  0.17347987  0.72947554  1
  O  O22  1  0.47240898  0.27898449  0.19758561  1
  O  O23  1  0.13744790  0.43997627  0.35699768  1
  O  O24  1  0.02763940  0.41084788  0.94810318  1
  O  O25  1  0.34054610  0.55802578  0.22358963  1
  O  O26  1  0.28510246  0.22623886  0.48596910  1
  O  O27  1  0.80159994  0.24338090  0.45464226  1
  O  O28  1  0.43431439  0.02615858  0.21214112  1
  O  O29  1  0.14766841  0.86840602  0.89909878  1
  O  O30  1  0.15501147  0.96702911  0.28614467  1
  O  O31  1  0.34189218  0.80528517  0.19478742  1
  O  O32  1  0.55843607  0.66267424  0.75513709  1
  O  O33  1  0.81859914  0.58799104  0.65715472  1
  O  O34  1  0.82697911  0.64046240  0.04596661  1
  O  O35  1  0.60572081  0.44259605  0.72469163  1
  O  O36  1  0.72531328  0.76248822  0.48815622  1
  O  O37  1  0.18432963  0.74085101  0.51385478  1
