# generated using pymatgen
data_Li3BiO3
_symmetry_space_group_name_H-M   'P 1'
_cell_length_a   7.16499898
_cell_length_b   7.16499898
_cell_length_c   7.16499898
_cell_angle_alpha   90.00000000
_cell_angle_beta   90.00000000
_cell_angle_gamma   90.00000000
_symmetry_Int_Tables_number   1
_chemical_formula_structural   Li3BiO3
_chemical_formula_sum   'Li12 Bi4 O12'
_cell_volume   367.83106003
_cell_formula_units_Z   4
loop_
 _symmetry_equiv_pos_site_id
 _symmetry_equiv_pos_as_xyz
  1  'x, y, z'
loop_
 _atom_site_type_symbol
 _atom_site_label
 _atom_site_symmetry_multiplicity
 _atom_site_fract_x
 _atom_site_fract_y
 _atom_site_fract_z
 _atom_site_occupancy
  Li  Li0  1  0.97667495  0.97667495  0.97667495  1
  Li  Li1  1  0.24644587  0.25355413  0.74644587  1
  Li  Li2  1  0.24452557  0.74452557  0.75547443  1
  Li  Li3  1  0.25547443  0.25547443  0.25547443  1
  Li  Li4  1  0.25355413  0.74644587  0.24644587  1
  Li  Li5  1  0.52332505  0.02332505  0.47667495  1
  Li  Li6  1  0.47667495  0.52332505  0.02332505  1
  Li  Li7  1  0.74644587  0.24644587  0.25355413  1
  Li  Li8  1  0.74452557  0.75547443  0.24452557  1
  Li  Li9  1  0.75547443  0.24452557  0.74452557  1
  Li  Li10  1  0.75355413  0.75355413  0.75355413  1
  Li  Li11  1  0.02332505  0.47667495  0.52332505  1
  Bi  Bi12  1  0.03434281  0.96565719  0.46565719  1
  Bi  Bi13  1  0.46565719  0.03434281  0.96565719  1
  Bi  Bi14  1  0.53434281  0.53434281  0.53434281  1
  Bi  Bi15  1  0.96565719  0.46565719  0.03434281  1
  O  O16  1  0.99734479  0.25220606  0.38190870  1
  O  O17  1  0.11809130  0.00265521  0.75220606  1
  O  O18  1  0.25220606  0.38190870  0.99734479  1
  O  O19  1  0.24779394  0.61809130  0.49734479  1
  O  O20  1  0.38190870  0.99734479  0.25220606  1
  O  O21  1  0.50265521  0.74779394  0.88190870  1
  O  O22  1  0.49734479  0.24779394  0.61809130  1
  O  O23  1  0.61809130  0.49734479  0.24779394  1
  O  O24  1  0.75220606  0.11809130  0.00265521  1
  O  O25  1  0.74779394  0.88190870  0.50265521  1
  O  O26  1  0.88190870  0.50265521  0.74779394  1
  O  O27  1  0.00265521  0.75220606  0.11809130  1
