# generated using pymatgen
data_Cs2CaO2
_symmetry_space_group_name_H-M   'P 1'
_cell_length_a   11.37056658
_cell_length_b   6.91265874
_cell_length_c   6.53973648
_cell_angle_alpha   90.00000000
_cell_angle_beta   90.00000000
_cell_angle_gamma   90.00000000
_symmetry_Int_Tables_number   1
_chemical_formula_structural   Cs2CaO2
_chemical_formula_sum   'Cs8 Ca4 O8'
_cell_volume   514.02882287
_cell_formula_units_Z   4
loop_
 _symmetry_equiv_pos_site_id
 _symmetry_equiv_pos_as_xyz
  1  'x, y, z'
loop_
 _atom_site_type_symbol
 _atom_site_label
 _atom_site_symmetry_multiplicity
 _atom_site_fract_x
 _atom_site_fract_y
 _atom_site_fract_z
 _atom_site_occupancy
  Cs  Cs0  1  0.15824642  0.38955160  0.59647877  1
  Cs  Cs1  1  0.15824642  0.61044840  0.09647877  1
  Cs  Cs2  1  0.34175358  0.11044840  0.09647877  1
  Cs  Cs3  1  0.34175358  0.88955160  0.59647877  1
  Cs  Cs4  1  0.65824642  0.11044840  0.40352123  1
  Cs  Cs5  1  0.65824642  0.88955160  0.90352123  1
  Cs  Cs6  1  0.84175358  0.38955160  0.90352123  1
  Cs  Cs7  1  0.84175358  0.61044840  0.40352123  1
  Ca  Ca8  1  0.00000000  0.01953828  0.25000000  1
  Ca  Ca9  1  0.00000000  0.98046172  0.75000000  1
  Ca  Ca10  1  0.50000000  0.48046172  0.75000000  1
  Ca  Ca11  1  0.50000000  0.51953828  0.25000000  1
  O  O12  1  0.09442233  0.17314600  0.98716695  1
  O  O13  1  0.09442233  0.82685400  0.48716695  1
  O  O14  1  0.40557767  0.32685400  0.48716695  1
  O  O15  1  0.40557767  0.67314600  0.98716695  1
  O  O16  1  0.59442233  0.32685400  0.01283305  1
  O  O17  1  0.59442233  0.67314600  0.51283305  1
  O  O18  1  0.90557767  0.17314600  0.51283305  1
  O  O19  1  0.90557767  0.82685400  0.01283305  1
