# generated using pymatgen
data_CoH19S3N5O11
_symmetry_space_group_name_H-M   'P 1'
_cell_length_a   13.56098778
_cell_length_b   16.01849661
_cell_length_c   6.72609648
_cell_angle_alpha   90.00000000
_cell_angle_beta   95.74925845
_cell_angle_gamma   90.00000000
_symmetry_Int_Tables_number   1
_chemical_formula_structural   CoH19S3N5O11
_chemical_formula_sum   'Co4 H76 S12 N20 O44'
_cell_volume   1453.73777766
_cell_formula_units_Z   4
loop_
 _symmetry_equiv_pos_site_id
 _symmetry_equiv_pos_as_xyz
  1  'x, y, z'
loop_
 _atom_site_type_symbol
 _atom_site_label
 _atom_site_symmetry_multiplicity
 _atom_site_fract_x
 _atom_site_fract_y
 _atom_site_fract_z
 _atom_site_occupancy
  Co  Co0  1  0.24749349  0.39046892  0.51932114  1
  Co  Co1  1  0.25250651  0.89046892  0.48067886  1
  Co  Co2  1  0.75250651  0.60953108  0.48067886  1
  Co  Co3  1  0.74749349  0.10953108  0.51932114  1
  H  H4  1  0.91829846  0.24158002  0.15114997  1
  H  H5  1  0.58170154  0.74158002  0.84885003  1
  H  H6  1  0.08170154  0.75841998  0.84885003  1
  H  H7  1  0.41829846  0.25841998  0.15114997  1
  H  H8  1  0.83359397  0.30710945  0.08537733  1
  H  H9  1  0.66640603  0.80710945  0.91462267  1
  H  H10  1  0.16640603  0.69289055  0.91462267  1
  H  H11  1  0.33359397  0.19289055  0.08537733  1
  H  H12  1  0.25872195  0.30897376  0.17603211  1
  H  H13  1  0.24127805  0.80897376  0.82396789  1
  H  H14  1  0.74127805  0.69102624  0.82396789  1
  H  H15  1  0.75872195  0.19102624  0.17603211  1
  H  H16  1  0.14737587  0.35268266  0.16461883  1
  H  H17  1  0.35262413  0.85268266  0.83538117  1
  H  H18  1  0.85262413  0.64731734  0.83538117  1
  H  H19  1  0.64737587  0.14731734  0.16461883  1
  H  H20  1  0.09231257  0.30123618  0.48548404  1
  H  H21  1  0.40768743  0.80123618  0.51451596  1
  H  H22  1  0.90768743  0.69876382  0.51451596  1
  H  H23  1  0.59231257  0.19876382  0.48548404  1
  H  H24  1  0.10393924  0.33920793  0.71396657  1
  H  H25  1  0.39606076  0.83920793  0.28603343  1
  H  H26  1  0.89606076  0.66079207  0.28603343  1
  H  H27  1  0.60393924  0.16079207  0.71396657  1
  H  H28  1  0.05989280  0.39933538  0.52298875  1
  H  H29  1  0.44010720  0.89933538  0.47701125  1
  H  H30  1  0.94010720  0.60066462  0.47701125  1
  H  H31  1  0.55989280  0.10066462  0.52298875  1
  H  H32  1  0.24221612  0.55223650  0.52582029  1
  H  H33  1  0.25778388  0.05223650  0.47417971  1
  H  H34  1  0.75778388  0.44776350  0.47417971  1
  H  H35  1  0.74221612  0.94776350  0.52582029  1
  H  H36  1  0.12816040  0.51633506  0.47586373  1
  H  H37  1  0.37183960  0.01633506  0.52413627  1
  H  H38  1  0.87183960  0.48366494  0.52413627  1
  H  H39  1  0.62816040  0.98366494  0.47586373  1
  H  H40  1  0.20374039  0.51985001  0.29634577  1
  H  H41  1  0.29625961  0.01985001  0.70365423  1
  H  H42  1  0.79625961  0.48014999  0.70365423  1
  H  H43  1  0.70374039  0.98014999  0.29634577  1
  H  H44  1  0.28614142  0.23261306  0.48146999  1
  H  H45  1  0.21385858  0.73261306  0.51853001  1
  H  H46  1  0.71385858  0.76738694  0.51853001  1
  H  H47  1  0.78614142  0.26738694  0.48146999  1
  H  H48  1  0.26452532  0.25097786  0.71519548  1
  H  H49  1  0.23547468  0.75097786  0.28480452  1
  H  H50  1  0.73547468  0.74902214  0.28480452  1
  H  H51  1  0.76452532  0.24902214  0.71519548  1
  H  H52  1  0.37485899  0.27516152  0.64393331  1
  H  H53  1  0.12514101  0.77516152  0.35606669  1
  H  H54  1  0.62514101  0.72483848  0.35606669  1
  H  H55  1  0.87485899  0.22483848  0.64393331  1
  H  H56  1  0.38757133  0.48767111  0.44350105  1
  H  H57  1  0.11242867  0.98767111  0.55649895  1
  H  H58  1  0.61242867  0.51232889  0.55649895  1
  H  H59  1  0.88757133  0.01232889  0.44350105  1
  H  H60  1  0.39789025  0.40087855  0.32292545  1
  H  H61  1  0.10210975  0.90087855  0.67707455  1
  H  H62  1  0.60210975  0.59912145  0.67707455  1
  H  H63  1  0.89789025  0.09912145  0.32292545  1
  H  H64  1  0.43500757  0.40492713  0.56466607  1
  H  H65  1  0.06499243  0.90492713  0.43533393  1
  H  H66  1  0.56499243  0.59507287  0.43533393  1
  H  H67  1  0.93500757  0.09507287  0.56466607  1
  H  H68  1  0.28057103  0.49244454  0.83022509  1
  H  H69  1  0.21942897  0.99244454  0.16977491  1
  H  H70  1  0.71942897  0.50755546  0.16977491  1
  H  H71  1  0.78057103  0.00755546  0.83022509  1
  H  H72  1  0.23275692  0.40727081  0.91248848  1
  H  H73  1  0.26724308  0.90727081  0.08751152  1
  H  H74  1  0.76724308  0.59272919  0.08751152  1
  H  H75  1  0.73275692  0.09272919  0.91248848  1
  H  H76  1  0.35030865  0.40921275  0.86950732  1
  H  H77  1  0.14969135  0.90921275  0.13049268  1
  H  H78  1  0.64969135  0.59078725  0.13049268  1
  H  H79  1  0.85030865  0.09078725  0.86950732  1
  S  S80  1  0.09640279  0.14928494  0.88793398  1
  S  S81  1  0.40359721  0.64928494  0.11206602  1
  S  S82  1  0.90359721  0.85071506  0.11206602  1
  S  S83  1  0.59640279  0.35071506  0.88793398  1
  S  S84  1  0.10012153  0.13687916  0.21856781  1
  S  S85  1  0.39987847  0.63687916  0.78143219  1
  S  S86  1  0.89987847  0.86312084  0.78143219  1
  S  S87  1  0.60012153  0.36312084  0.21856781  1
  S  S88  1  0.97008880  0.44680707  0.08013499  1
  S  S89  1  0.52991120  0.94680707  0.91986501  1
  S  S90  1  0.02991120  0.55319293  0.91986501  1
  S  S91  1  0.47008880  0.05319293  0.08013499  1
  N  N92  1  0.11124817  0.35419245  0.56793758  1
  N  N93  1  0.38875183  0.85419245  0.43206242  1
  N  N94  1  0.88875183  0.64580755  0.43206242  1
  N  N95  1  0.61124817  0.14580755  0.56793758  1
  N  N96  1  0.28070286  0.42891453  0.81651797  1
  N  N97  1  0.21929714  0.92891453  0.18348203  1
  N  N98  1  0.71929714  0.57108547  0.18348203  1
  N  N99  1  0.78070286  0.07108547  0.81651797  1
  N  N100  1  0.38061613  0.42425158  0.45674032  1
  N  N101  1  0.11938387  0.92425158  0.54325968  1
  N  N102  1  0.61938387  0.57574842  0.54325968  1
  N  N103  1  0.88061613  0.07574842  0.45674032  1
  N  N104  1  0.20009458  0.50781020  0.44545606  1
  N  N105  1  0.29990542  0.00781020  0.55454394  1
  N  N106  1  0.79990542  0.49218980  0.55454394  1
  N  N107  1  0.70009458  0.99218980  0.44545606  1
  N  N108  1  0.30025010  0.27373054  0.59820219  1
  N  N109  1  0.19974990  0.77373054  0.40179781  1
  N  N110  1  0.69974990  0.72626946  0.40179781  1
  N  N111  1  0.80025010  0.22626946  0.59820219  1
  O  O112  1  0.21748714  0.35608717  0.22381993  1
  O  O113  1  0.28251286  0.85608717  0.77618007  1
  O  O114  1  0.78251286  0.64391283  0.77618007  1
  O  O115  1  0.71748714  0.14391283  0.22381993  1
  O  O116  1  0.15459362  0.22592225  0.86490223  1
  O  O117  1  0.34540638  0.72592225  0.13509777  1
  O  O118  1  0.84540638  0.77407775  0.13509777  1
  O  O119  1  0.65459362  0.27407775  0.86490223  1
  O  O120  1  0.99073467  0.15827948  0.81582102  1
  O  O121  1  0.50926533  0.65827948  0.18417898  1
  O  O122  1  0.00926533  0.84172052  0.18417898  1
  O  O123  1  0.49073467  0.34172052  0.81582102  1
  O  O124  1  0.14222110  0.07297259  0.82116289  1
  O  O125  1  0.35777890  0.57297259  0.17883711  1
  O  O126  1  0.85777890  0.92702741  0.17883711  1
  O  O127  1  0.64222110  0.42702741  0.82116289  1
  O  O128  1  0.20618810  0.14181376  0.29475934  1
  O  O129  1  0.29381190  0.64181376  0.70524066  1
  O  O130  1  0.79381190  0.85818624  0.70524066  1
  O  O131  1  0.70618810  0.35818624  0.29475934  1
  O  O132  1  0.05663767  0.05436236  0.24997637  1
  O  O133  1  0.44336233  0.55436236  0.75002363  1
  O  O134  1  0.94336233  0.94563764  0.75002363  1
  O  O135  1  0.55663767  0.44563764  0.24997637  1
  O  O136  1  0.04122190  0.20720211  0.28599572  1
  O  O137  1  0.45877810  0.70720211  0.71400428  1
  O  O138  1  0.95877810  0.79279789  0.71400428  1
  O  O139  1  0.54122190  0.29279789  0.28599572  1
  O  O140  1  0.86750189  0.43671540  0.99301679  1
  O  O141  1  0.63249811  0.93671540  0.00698321  1
  O  O142  1  0.13249811  0.56328460  0.00698321  1
  O  O143  1  0.36750189  0.06328460  0.99301679  1
  O  O144  1  0.03478035  0.37567056  0.03929400  1
  O  O145  1  0.46521965  0.87567056  0.96070600  1
  O  O146  1  0.96521965  0.62432944  0.96070600  1
  O  O147  1  0.53478035  0.12432944  0.03929400  1
  O  O148  1  0.97988229  0.47242800  0.29199312  1
  O  O149  1  0.52011771  0.97242800  0.70800688  1
  O  O150  1  0.02011771  0.52757200  0.70800688  1
  O  O151  1  0.47988229  0.02757200  0.29199312  1
  O  O152  1  0.84731930  0.24739088  0.10735249  1
  O  O153  1  0.65268070  0.74739088  0.89264751  1
  O  O154  1  0.15268070  0.75260912  0.89264751  1
  O  O155  1  0.34731930  0.25260912  0.10735249  1
