# generated using pymatgen
data_BiOF
_symmetry_space_group_name_H-M   'P 1'
_cell_length_a   8.34661456
_cell_length_b   12.42451427
_cell_length_c   3.94908235
_cell_angle_alpha   90.00000000
_cell_angle_beta   90.00000000
_cell_angle_gamma   109.13261447
_symmetry_Int_Tables_number   1
_chemical_formula_structural   BiOF
_chemical_formula_sum   'Bi8 O8 F8'
_cell_volume   386.90880510
_cell_formula_units_Z   8
loop_
 _symmetry_equiv_pos_site_id
 _symmetry_equiv_pos_as_xyz
  1  'x, y, z'
loop_
 _atom_site_type_symbol
 _atom_site_label
 _atom_site_symmetry_multiplicity
 _atom_site_fract_x
 _atom_site_fract_y
 _atom_site_fract_z
 _atom_site_occupancy
  Bi  Bi0  1  0.08705080  0.87801522  0.75000000  1
  Bi  Bi1  1  0.17214003  0.59383402  0.25000000  1
  Bi  Bi2  1  0.32111309  0.33734270  0.75000000  1
  Bi  Bi3  1  0.55305822  0.87459218  0.75000000  1
  Bi  Bi4  1  0.44694178  0.12540782  0.25000000  1
  Bi  Bi5  1  0.67888691  0.66265730  0.25000000  1
  Bi  Bi6  1  0.82785997  0.40616598  0.75000000  1
  Bi  Bi7  1  0.91294920  0.12198478  0.25000000  1
  O  O8  1  0.11297015  0.49613428  0.75000000  1
  O  O9  1  0.35178959  0.98925172  0.75000000  1
  O  O10  1  0.24908508  0.23655407  0.25000000  1
  O  O11  1  0.49922641  0.75622193  0.25000000  1
  O  O12  1  0.50077359  0.24377807  0.75000000  1
  O  O13  1  0.75091492  0.76344593  0.75000000  1
  O  O14  1  0.64821041  0.01074828  0.25000000  1
  O  O15  1  0.88702985  0.50386572  0.25000000  1
  F  F16  1  0.09924013  0.98801935  0.25000000  1
  F  F17  1  0.01403107  0.75571462  0.25000000  1
  F  F18  1  0.24238399  0.75284224  0.75000000  1
  F  F19  1  0.37476175  0.49983832  0.25000000  1
  F  F20  1  0.62523825  0.50016168  0.75000000  1
  F  F21  1  0.75761601  0.24715776  0.25000000  1
  F  F22  1  0.98596893  0.24428538  0.75000000  1
  F  F23  1  0.90075987  0.01198065  0.75000000  1
