# generated using pymatgen
data_In2Sn2O7
_symmetry_space_group_name_H-M   'P 1'
_cell_length_a   7.34396717
_cell_length_b   7.34375785
_cell_length_c   7.34418499
_cell_angle_alpha   59.99675994
_cell_angle_beta   59.99931629
_cell_angle_gamma   59.99672342
_symmetry_Int_Tables_number   1
_chemical_formula_structural   In2Sn2O7
_chemical_formula_sum   'In4 Sn4 O14'
_cell_volume   280.06191215
_cell_formula_units_Z   2
loop_
 _symmetry_equiv_pos_site_id
 _symmetry_equiv_pos_as_xyz
  1  'x, y, z'
loop_
 _atom_site_type_symbol
 _atom_site_label
 _atom_site_symmetry_multiplicity
 _atom_site_fract_x
 _atom_site_fract_y
 _atom_site_fract_z
 _atom_site_occupancy
  In  In0  1  0.49998805  0.50000953  -0.00000222  1
  In  In1  1  0.50000507  -0.00000414  0.50000528  1
  In  In2  1  -0.00000641  0.49999730  0.50001147  1
  In  In3  1  0.50000052  0.49999232  0.50000519  1
  Sn  Sn4  1  0.00000451  0.00000928  0.00000418  1
  Sn  Sn5  1  0.49998996  -0.00000115  0.00000456  1
  Sn  Sn6  1  0.00000007  0.49999037  0.00000430  1
  Sn  Sn7  1  0.00000288  0.00000235  0.49999287  1
  O  O8  1  0.65815883  0.09183233  0.09183987  1
  O  O9  1  0.90815737  0.34184136  0.34183615  1
  O  O10  1  0.65815937  0.65817226  0.09185167  1
  O  O11  1  0.09184820  0.65815144  0.09184355  1
  O  O12  1  0.65815334  0.09184593  0.65816619  1
  O  O13  1  0.37501216  0.37501811  0.37497973  1
  O  O14  1  0.09181101  0.09184123  0.65817345  1
  O  O15  1  0.34184628  0.90815371  0.34182507  1
  O  O16  1  0.34183930  0.34183692  0.90815008  1
  O  O17  1  0.62500404  0.62500740  0.62497350  1
  O  O18  1  0.90815168  0.90816246  0.34183852  1
  O  O19  1  0.90818689  0.34183514  0.90814772  1
  O  O20  1  0.09183243  0.65815783  0.65818195  1
  O  O21  1  0.34185445  0.90814802  0.90816693  1
