# generated using pymatgen
data_Li2TiCuO4
_symmetry_space_group_name_H-M   'P 1'
_cell_length_a   6.16534934
_cell_length_b   6.16534880
_cell_length_c   5.78823991
_cell_angle_alpha   117.93223403
_cell_angle_beta   117.93224202
_cell_angle_gamma   97.44267398
_symmetry_Int_Tables_number   1
_chemical_formula_structural   Li2TiCuO4
_chemical_formula_sum   'Li4 Ti2 Cu2 O8'
_cell_volume   153.62482128
_cell_formula_units_Z   2
loop_
 _symmetry_equiv_pos_site_id
 _symmetry_equiv_pos_as_xyz
  1  'x, y, z'
loop_
 _atom_site_type_symbol
 _atom_site_label
 _atom_site_symmetry_multiplicity
 _atom_site_fract_x
 _atom_site_fract_y
 _atom_site_fract_z
 _atom_site_occupancy
  Li  Li0  1  0.00000000  0.50000000  0.50000000  1
  Li  Li1  1  0.50000000  0.50000000  0.50000000  1
  Li  Li2  1  0.50000000  0.00000000  0.00000000  1
  Li  Li3  1  0.50000000  0.50000000  0.00000000  1
  Ti  Ti4  1  0.00000000  0.00000000  0.50000000  1
  Ti  Ti5  1  0.00000000  0.00000000  0.00000000  1
  Cu  Cu6  1  0.00000000  0.50000000  0.00000000  1
  Cu  Cu7  1  0.50000000  0.00000000  0.50000000  1
  O  O8  1  0.21701297  0.78161367  0.01667692  1
  O  O9  1  0.21875900  0.25253654  0.48486011  1
  O  O10  1  0.21838633  0.78298703  0.48332308  1
  O  O11  1  0.74746346  0.78124100  0.01513989  1
  O  O12  1  0.25253654  0.21875900  0.98486011  1
  O  O13  1  0.78161367  0.21701297  0.51667692  1
  O  O14  1  0.78124100  0.74746346  0.51513989  1
  O  O15  1  0.78298703  0.21838633  0.98332308  1
