# generated using pymatgen
data_TiBi2O5
_symmetry_space_group_name_H-M   'P 1'
_cell_length_a   4.06773968
_cell_length_b   6.49213741
_cell_length_c   10.42153189
_cell_angle_alpha   90.00000000
_cell_angle_beta   90.00000000
_cell_angle_gamma   71.74286874
_symmetry_Int_Tables_number   1
_chemical_formula_structural   TiBi2O5
_chemical_formula_sum   'Ti2 Bi4 O10'
_cell_volume   261.36090632
_cell_formula_units_Z   2
loop_
 _symmetry_equiv_pos_site_id
 _symmetry_equiv_pos_as_xyz
  1  'x, y, z'
loop_
 _atom_site_type_symbol
 _atom_site_label
 _atom_site_symmetry_multiplicity
 _atom_site_fract_x
 _atom_site_fract_y
 _atom_site_fract_z
 _atom_site_occupancy
  Ti  Ti0  1  0.16409882  0.67180236  0.25000000  1
  Ti  Ti1  1  0.83590118  0.32819764  0.75000000  1
  Bi  Bi2  1  0.14300438  0.71399124  0.92641857  1
  Bi  Bi3  1  0.14300438  0.71399124  0.57358143  1
  Bi  Bi4  1  0.85699562  0.28600876  0.07358143  1
  Bi  Bi5  1  0.85699562  0.28600876  0.42641857  1
  O  O6  1  0.06272790  0.87454420  0.37966881  1
  O  O7  1  0.06272790  0.87454420  0.12033119  1
  O  O8  1  0.72286483  0.55427133  0.91603096  1
  O  O9  1  0.72286483  0.55427133  0.58396904  1
  O  O10  1  0.29084604  0.41830892  0.75000000  1
  O  O11  1  0.70915396  0.58169108  0.25000000  1
  O  O12  1  0.27713517  0.44572867  0.08396904  1
  O  O13  1  0.27713517  0.44572867  0.41603096  1
  O  O14  1  0.93727210  0.12545580  0.62033119  1
  O  O15  1  0.93727210  0.12545580  0.87966881  1
