# generated using pymatgen
data_AlSeCl7
_symmetry_space_group_name_H-M   'P 1'
_cell_length_a   6.86345183
_cell_length_b   8.72935466
_cell_length_c   10.20478120
_cell_angle_alpha   85.78155649
_cell_angle_beta   73.70510318
_cell_angle_gamma   82.89683107
_symmetry_Int_Tables_number   1
_chemical_formula_structural   AlSeCl7
_chemical_formula_sum   'Al2 Se2 Cl14'
_cell_volume   581.85533653
_cell_formula_units_Z   2
loop_
 _symmetry_equiv_pos_site_id
 _symmetry_equiv_pos_as_xyz
  1  'x, y, z'
loop_
 _atom_site_type_symbol
 _atom_site_label
 _atom_site_symmetry_multiplicity
 _atom_site_fract_x
 _atom_site_fract_y
 _atom_site_fract_z
 _atom_site_occupancy
  Al  Al0  1  0.19725354  0.96456918  0.52088859  1
  Al  Al1  1  0.45172627  0.39245629  0.93998431  1
  Se  Se2  1  0.77212185  0.51592385  0.30292116  1
  Se  Se3  1  0.99951669  0.01027251  0.98706916  1
  Cl  Cl4  1  0.88924676  0.91510634  0.56264131  1
  Cl  Cl5  1  0.39106349  0.76052386  0.43055204  1
  Cl  Cl6  1  0.26348471  0.15583586  0.37785572  1
  Cl  Cl7  1  0.66882242  0.36035813  0.46896237  1
  Cl  Cl8  1  0.48192578  0.58026881  0.79296174  1
  Cl  Cl9  1  0.13680605  0.33230823  0.99811062  1
  Cl  Cl10  1  0.03458068  0.59346983  0.33640341  1
  Cl  Cl11  1  0.02076334  0.45251051  0.64985513  1
  Cl  Cl12  1  0.88755337  0.80081527  0.94688618  1
  Cl  Cl13  1  0.25808627  0.90575634  0.05612787  1
  Cl  Cl14  1  0.78583410  0.04916618  0.18790525  1
  Cl  Cl15  1  0.65924313  0.19010967  0.86686705  1
  Cl  Cl16  1  0.50601817  0.46868007  0.12451036  1
  Cl  Cl17  1  0.27275338  0.01206907  0.70769771  1
