# generated using pymatgen
data_Na5CuO4
_symmetry_space_group_name_H-M   'P 1'
_cell_length_a   7.47590101
_cell_length_b   7.20461529
_cell_length_c   5.39675513
_cell_angle_alpha   89.99985186
_cell_angle_beta   90.00057726
_cell_angle_gamma   89.99959476
_symmetry_Int_Tables_number   1
_chemical_formula_structural   Na5CuO4
_chemical_formula_sum   'Na10 Cu2 O8'
_cell_volume   290.67457798
_cell_formula_units_Z   2
loop_
 _symmetry_equiv_pos_site_id
 _symmetry_equiv_pos_as_xyz
  1  'x, y, z'
loop_
 _atom_site_type_symbol
 _atom_site_label
 _atom_site_symmetry_multiplicity
 _atom_site_fract_x
 _atom_site_fract_y
 _atom_site_fract_z
 _atom_site_occupancy
  Na  Na0  1  0.05461737  0.01026953  0.74176497  1
  Na  Na1  1  0.05461770  0.48974049  0.74177147  1
  Na  Na2  1  0.25000188  0.75000287  0.17608860  1
  Na  Na3  1  0.44538067  0.48973339  0.74176838  1
  Na  Na4  1  0.44538539  0.01026574  0.74178182  1
  Na  Na5  1  0.55507469  0.51065745  0.25803271  1
  Na  Na6  1  0.55507571  0.98934236  0.25802769  1
  Na  Na7  1  0.74999918  0.24999713  0.82318423  1
  Na  Na8  1  0.94493034  0.51065688  0.25802355  1
  Na  Na9  1  0.94492893  0.98934801  0.25802468  1
  Cu  Cu10  1  0.24998384  0.24998529  0.21263700  1
  Cu  Cu11  1  0.75000297  0.74999065  0.78821932  1
  O  O12  1  0.02283249  0.25000295  0.03176349  1
  O  O13  1  0.25000129  0.47861028  0.40153823  1
  O  O14  1  0.25000148  0.02139231  0.40153912  1
  O  O15  1  0.47716767  0.24999766  0.03176683  1
  O  O16  1  0.52234840  0.75000288  0.96794765  1
  O  O17  1  0.75000064  0.52172802  0.59908535  1
  O  O18  1  0.75000116  0.97827400  0.59908777  1
  O  O19  1  0.97764821  0.75000212  0.96794714  1
