# generated using pymatgen
data_Li3Cu3(PO4)2
_symmetry_space_group_name_H-M   'P 1'
_cell_length_a   6.16004104
_cell_length_b   5.48885285
_cell_length_c   5.09889939
_cell_angle_alpha   90.16016120
_cell_angle_beta   89.90789790
_cell_angle_gamma   89.63502115
_symmetry_Int_Tables_number   1
_chemical_formula_structural   Li3Cu3(PO4)2
_chemical_formula_sum   'Li3 Cu3 P2 O8'
_cell_volume   172.39733750
_cell_formula_units_Z   1
loop_
 _symmetry_equiv_pos_site_id
 _symmetry_equiv_pos_as_xyz
  1  'x, y, z'
loop_
 _atom_site_type_symbol
 _atom_site_label
 _atom_site_symmetry_multiplicity
 _atom_site_fract_x
 _atom_site_fract_y
 _atom_site_fract_z
 _atom_site_occupancy
  Li  Li0  1  0.99945791  0.15419303  0.49520640  1
  Li  Li1  1  0.24636726  0.32781862  0.99305371  1
  Li  Li2  1  0.50020584  0.84686541  0.99255442  1
  Cu  Cu3  1  0.25828002  0.65788765  0.50460876  1
  Cu  Cu4  1  0.74084222  0.65785354  0.49812573  1
  Cu  Cu5  1  0.75741076  0.33723069  0.99320921  1
  P  P6  1  0.00440342  0.83353025  0.99899996  1
  P  P7  1  0.49494704  0.17163712  0.49599299  1
  O  O8  1  0.01315783  0.09607410  0.88262082  1
  O  O9  1  0.00109821  0.84784722  0.30429450  1
  O  O10  1  0.20806986  0.68358428  0.90963708  1
  O  O11  1  0.28972480  0.30394065  0.38409530  1
  O  O12  1  0.48728536  0.16630324  0.80167821  1
  O  O13  1  0.49857718  0.90951421  0.37810609  1
  O  O14  1  0.70897508  0.30022131  0.40551602  1
  O  O15  1  0.79119721  0.70549869  0.90488980  1
