# generated using pymatgen
data_BaSrI4
_symmetry_space_group_name_H-M   'P 1'
_cell_length_a   6.08189407
_cell_length_b   20.97855175
_cell_length_c   10.09807399
_cell_angle_alpha   90.00000000
_cell_angle_beta   89.98272130
_cell_angle_gamma   90.00000000
_symmetry_Int_Tables_number   1
_chemical_formula_structural   BaSrI4
_chemical_formula_sum   'Ba4 Sr4 I16'
_cell_volume   1288.40643082
_cell_formula_units_Z   4
loop_
 _symmetry_equiv_pos_site_id
 _symmetry_equiv_pos_as_xyz
  1  'x, y, z'
loop_
 _atom_site_type_symbol
 _atom_site_label
 _atom_site_symmetry_multiplicity
 _atom_site_fract_x
 _atom_site_fract_y
 _atom_site_fract_z
 _atom_site_occupancy
  Ba  Ba0  1  0.18533488  0.86544304  0.75504338  1
  Ba  Ba1  1  0.18533488  0.63455696  0.25504338  1
  Ba  Ba2  1  0.81466512  0.36544304  0.74495662  1
  Ba  Ba3  1  0.81466512  0.13455696  0.24495662  1
  Sr  Sr4  1  0.29492448  0.15363815  0.75549295  1
  Sr  Sr5  1  0.29492448  0.34636185  0.25549295  1
  Sr  Sr6  1  0.70507552  0.65363815  0.74450705  1
  Sr  Sr7  1  0.70507552  0.84636185  0.24450705  1
  I  I8  1  0.20460698  0.69790333  0.78171087  1
  I  I9  1  0.30827412  0.39756039  0.55991144  1
  I  I10  1  0.30069386  0.30528348  0.91720803  1
  I  I11  1  0.20460698  0.80209667  0.28171087  1
  I  I12  1  0.25479357  0.01273658  0.64848100  1
  I  I13  1  0.30827412  0.10243961  0.05991144  1
  I  I14  1  0.30069386  0.19471652  0.41720803  1
  I  I15  1  0.25479357  0.48726342  0.14848100  1
  I  I16  1  0.74520643  0.51273658  0.85151900  1
  I  I17  1  0.69930614  0.80528348  0.58279197  1
  I  I18  1  0.69172588  0.89756039  0.94008856  1
  I  I19  1  0.74520643  0.98726342  0.35151900  1
  I  I20  1  0.79539302  0.19790333  0.71828913  1
  I  I21  1  0.69930614  0.69471652  0.08279197  1
  I  I22  1  0.69172588  0.60243961  0.44008856  1
  I  I23  1  0.79539302  0.30209667  0.21828913  1
