# generated using pymatgen
data_Tl6S
_symmetry_space_group_name_H-M   'P 1'
_cell_length_a   6.56241733
_cell_length_b   8.89734031
_cell_length_c   8.90512803
_cell_angle_alpha   79.32106591
_cell_angle_beta   68.45792564
_cell_angle_gamma   137.51171150
_symmetry_Int_Tables_number   1
_chemical_formula_structural   Tl6S
_chemical_formula_sum   'Tl6 S1'
_cell_volume   224.66958235
_cell_formula_units_Z   1
loop_
 _symmetry_equiv_pos_site_id
 _symmetry_equiv_pos_as_xyz
  1  'x, y, z'
loop_
 _atom_site_type_symbol
 _atom_site_label
 _atom_site_symmetry_multiplicity
 _atom_site_fract_x
 _atom_site_fract_y
 _atom_site_fract_z
 _atom_site_occupancy
  Tl  Tl0  1  0.33457039  0.00579954  0.98641922  1
  Tl  Tl1  1  0.09198594  0.75765695  0.71875464  1
  Tl  Tl2  1  0.24425406  0.52646936  0.94925465  1
  Tl  Tl3  1  0.34694747  0.66195966  0.33038511  1
  Tl  Tl4  1  0.08915381  0.14094535  0.33476366  1
  Tl  Tl5  1  0.29310493  0.30694733  0.68509542  1
  S  S6  1  0.69596540  0.36259581  0.33424231  1
