# generated using pymatgen
data_Sm2Cu2O5
_symmetry_space_group_name_H-M   'P 1'
_cell_length_a   5.78979821
_cell_length_b   9.89187108
_cell_length_c   3.76661391
_cell_angle_alpha   90.00000000
_cell_angle_beta   90.00000000
_cell_angle_gamma   90.00000000
_symmetry_Int_Tables_number   1
_chemical_formula_structural   Sm2Cu2O5
_chemical_formula_sum   'Sm4 Cu4 O10'
_cell_volume   215.72127634
_cell_formula_units_Z   2
loop_
 _symmetry_equiv_pos_site_id
 _symmetry_equiv_pos_as_xyz
  1  'x, y, z'
loop_
 _atom_site_type_symbol
 _atom_site_label
 _atom_site_symmetry_multiplicity
 _atom_site_fract_x
 _atom_site_fract_y
 _atom_site_fract_z
 _atom_site_occupancy
  Sm  Sm0  1  0.14445878  0.84960257  0.50000000  1
  Sm  Sm1  1  0.35554122  0.34960257  0.50000000  1
  Sm  Sm2  1  0.64445878  0.65039743  0.50000000  1
  Sm  Sm3  1  0.85554122  0.15039743  0.50000000  1
  Cu  Cu4  1  0.18903710  0.59296183  0.00000000  1
  Cu  Cu5  1  0.31096290  0.09296183  0.00000000  1
  Cu  Cu6  1  0.68903710  0.90703817  0.00000000  1
  Cu  Cu7  1  0.81096290  0.40703817  0.00000000  1
  O  O8  1  0.00000000  0.00000000  0.00000000  1
  O  O9  1  0.09920177  0.30093957  0.00000000  1
  O  O10  1  0.23405777  0.60246560  0.50000000  1
  O  O11  1  0.26594223  0.10246560  0.50000000  1
  O  O12  1  0.40079823  0.80093957  0.00000000  1
  O  O13  1  0.50000000  0.50000000  0.00000000  1
  O  O14  1  0.59920177  0.19906043  0.00000000  1
  O  O15  1  0.73405777  0.89753440  0.50000000  1
  O  O16  1  0.76594223  0.39753440  0.50000000  1
  O  O17  1  0.90079823  0.69906043  0.00000000  1
