# generated using pymatgen
data_LiSn(PO3)4
_symmetry_space_group_name_H-M   'P 1'
_cell_length_a   7.00575233
_cell_length_b   8.81076094
_cell_length_c   7.76970565
_cell_angle_alpha   90.00000000
_cell_angle_beta   89.48354952
_cell_angle_gamma   90.00000000
_symmetry_Int_Tables_number   1
_chemical_formula_structural   LiSn(PO3)4
_chemical_formula_sum   'Li2 Sn2 P8 O24'
_cell_volume   479.57343793
_cell_formula_units_Z   2
loop_
 _symmetry_equiv_pos_site_id
 _symmetry_equiv_pos_as_xyz
  1  'x, y, z'
loop_
 _atom_site_type_symbol
 _atom_site_label
 _atom_site_symmetry_multiplicity
 _atom_site_fract_x
 _atom_site_fract_y
 _atom_site_fract_z
 _atom_site_occupancy
  Li  Li0  1  0.29563818  0.62468689  0.63937900  1
  Li  Li1  1  0.70436182  0.12468689  0.36062100  1
  Sn  Sn2  1  0.23793831  0.28799251  0.22743450  1
  Sn  Sn3  1  0.76206169  0.78799251  0.77256550  1
  P  P4  1  0.99329937  0.10048528  0.59376743  1
  P  P5  1  0.08481851  0.81824893  0.11349067  1
  P  P6  1  0.39996309  0.99258831  0.58526168  1
  P  P7  1  0.44348979  0.62683031  0.09408580  1
  P  P8  1  0.55651021  0.12683031  0.90591420  1
  P  P9  1  0.60003691  0.49258831  0.41473832  1
  P  P10  1  0.91518149  0.31824893  0.88650933  1
  P  P11  1  0.00670063  0.60048528  0.40623257  1
  O  O12  1  0.01386084  0.18111942  0.77636224  1
  O  O13  1  0.02009822  0.79154522  0.92915709  1
  O  O14  1  0.99223426  0.20682577  0.44198802  1
  O  O15  1  0.05590020  0.96512397  0.20050798  1
  O  O16  1  0.17269904  0.99248442  0.60013656  1
  O  O17  1  0.18248120  0.49922783  0.40629332  1
  O  O18  1  0.31155687  0.77412313  0.11383980  1
  O  O19  1  0.32660582  0.48480935  0.06559705  1
  O  O20  1  0.45870649  0.03965960  0.40884823  1
  O  O21  1  0.40406767  0.15567438  0.03916153  1
  O  O22  1  0.45824268  0.12529176  0.71928886  1
  O  O23  1  0.45504328  0.83778493  0.65535897  1
  O  O24  1  0.54495672  0.33778493  0.34464103  1
  O  O25  1  0.54175732  0.62529176  0.28071114  1
  O  O26  1  0.59593233  0.65567438  0.96083847  1
  O  O27  1  0.54129351  0.53965960  0.59115177  1
  O  O28  1  0.67339418  0.98480935  0.93440295  1
  O  O29  1  0.68844313  0.27412313  0.88616020  1
  O  O30  1  0.81751880  0.99922783  0.59370668  1
  O  O31  1  0.82730096  0.49248442  0.39986344  1
  O  O32  1  0.94409980  0.46512397  0.79949202  1
  O  O33  1  0.00776574  0.70682577  0.55801198  1
  O  O34  1  0.97990178  0.29154522  0.07084291  1
  O  O35  1  0.98613916  0.68111942  0.22363776  1
