# generated using pymatgen
data_Dy2TiO5
_symmetry_space_group_name_H-M   'P 1'
_cell_length_a   4.08417128
_cell_length_b   5.91368819
_cell_length_c   10.52765094
_cell_angle_alpha   90.00000000
_cell_angle_beta   90.00000000
_cell_angle_gamma   69.79897012
_symmetry_Int_Tables_number   1
_chemical_formula_structural   Dy2TiO5
_chemical_formula_sum   'Dy4 Ti2 O10'
_cell_volume   238.62834083
_cell_formula_units_Z   2
loop_
 _symmetry_equiv_pos_site_id
 _symmetry_equiv_pos_as_xyz
  1  'x, y, z'
loop_
 _atom_site_type_symbol
 _atom_site_label
 _atom_site_symmetry_multiplicity
 _atom_site_fract_x
 _atom_site_fract_y
 _atom_site_fract_z
 _atom_site_occupancy
  Dy  Dy0  1  0.14332731  0.71334639  0.92969557  1
  Dy  Dy1  1  0.14332731  0.71334639  0.57030443  1
  Dy  Dy2  1  0.85667269  0.28665361  0.07030443  1
  Dy  Dy3  1  0.85667269  0.28665361  0.42969557  1
  Ti  Ti4  1  0.16974109  0.66051881  0.25000000  1
  Ti  Ti5  1  0.83025891  0.33948119  0.75000000  1
  O  O6  1  0.05076996  0.89846007  0.37643250  1
  O  O7  1  0.05076996  0.89846007  0.12356750  1
  O  O8  1  0.71135492  0.57729017  0.90782836  1
  O  O9  1  0.71135492  0.57729017  0.59217164  1
  O  O10  1  0.27682302  0.44635396  0.75000000  1
  O  O11  1  0.72317698  0.55364604  0.25000000  1
  O  O12  1  0.28864508  0.42270983  0.09217164  1
  O  O13  1  0.28864508  0.42270983  0.40782836  1
  O  O14  1  0.94923004  0.10153993  0.62356750  1
  O  O15  1  0.94923004  0.10153993  0.87643250  1
