# generated using pymatgen
data_AgAsS6N4(OF3)2
_symmetry_space_group_name_H-M   'P 1'
_cell_length_a   9.30317443
_cell_length_b   10.44350397
_cell_length_c   15.13609151
_cell_angle_alpha   90.00000000
_cell_angle_beta   90.00000000
_cell_angle_gamma   90.00000000
_symmetry_Int_Tables_number   1
_chemical_formula_structural   AgAsS6N4(OF3)2
_chemical_formula_sum   'Ag4 As4 S24 N16 O8 F24'
_cell_volume   1470.58842982
_cell_formula_units_Z   4
loop_
 _symmetry_equiv_pos_site_id
 _symmetry_equiv_pos_as_xyz
  1  'x, y, z'
loop_
 _atom_site_type_symbol
 _atom_site_label
 _atom_site_symmetry_multiplicity
 _atom_site_fract_x
 _atom_site_fract_y
 _atom_site_fract_z
 _atom_site_occupancy
  Ag  Ag0  1  0.25000000  0.00000000  0.58798011  1
  Ag  Ag1  1  0.25000000  0.00000000  0.08798011  1
  Ag  Ag2  1  0.75000000  0.00000000  0.41201989  1
  Ag  Ag3  1  0.75000000  0.00000000  0.91201989  1
  As  As4  1  0.50000000  0.77516777  0.25000000  1
  As  As5  1  0.50000000  0.22483223  0.75000000  1
  As  As6  1  0.00000000  0.77516777  0.75000000  1
  As  As7  1  0.00000000  0.22483223  0.25000000  1
  S  S8  1  0.92963661  0.84133808  0.12489696  1
  S  S9  1  0.07036339  0.15866192  0.87510304  1
  S  S10  1  0.66440918  0.68595003  0.93101436  1
  S  S11  1  0.40221689  0.37826267  0.35837976  1
  S  S12  1  0.66440918  0.31404997  0.43101436  1
  S  S13  1  0.59778311  0.37826267  0.14162024  1
  S  S14  1  0.92963661  0.15866192  0.62489696  1
  S  S15  1  0.42963661  0.15866192  0.37510304  1
  S  S16  1  0.16440918  0.31404997  0.56898564  1
  S  S17  1  0.40221689  0.62173733  0.85837976  1
  S  S18  1  0.59778311  0.62173733  0.64162024  1
  S  S19  1  0.33559082  0.31404997  0.06898564  1
  S  S20  1  0.83559082  0.31404997  0.93101436  1
  S  S21  1  0.90221689  0.37826267  0.64162024  1
  S  S22  1  0.09778311  0.37826267  0.85837976  1
  S  S23  1  0.09778311  0.62173733  0.35837976  1
  S  S24  1  0.33559082  0.68595003  0.56898564  1
  S  S25  1  0.90221689  0.62173733  0.14162024  1
  S  S26  1  0.42963661  0.84133808  0.87510304  1
  S  S27  1  0.57036339  0.84133808  0.62489696  1
  S  S28  1  0.07036339  0.84133808  0.37510304  1
  S  S29  1  0.83559082  0.68595003  0.43101436  1
  S  S30  1  0.16440918  0.68595003  0.06898564  1
  S  S31  1  0.57036339  0.15866192  0.12489696  1
  N  N32  1  0.04833685  0.41751647  0.59130858  1
  N  N33  1  0.89552272  0.82150972  0.39488827  1
  N  N34  1  0.45166315  0.58248353  0.59130858  1
  N  N35  1  0.95166315  0.41751647  0.90869142  1
  N  N36  1  0.54833685  0.41751647  0.40869142  1
  N  N37  1  0.95166315  0.58248353  0.40869142  1
  N  N38  1  0.10447728  0.17849028  0.60511173  1
  N  N39  1  0.39552272  0.82150972  0.60511173  1
  N  N40  1  0.89552272  0.17849028  0.89488827  1
  N  N41  1  0.54833685  0.58248353  0.90869142  1
  N  N42  1  0.10447728  0.82150972  0.10511173  1
  N  N43  1  0.39552272  0.17849028  0.10511173  1
  N  N44  1  0.60447728  0.82150972  0.89488827  1
  N  N45  1  0.45166315  0.41751647  0.09130858  1
  N  N46  1  0.04833685  0.58248353  0.09130858  1
  N  N47  1  0.60447728  0.17849028  0.39488827  1
  O  O48  1  0.14818689  0.87165707  0.45743347  1
  O  O49  1  0.35181311  0.12834293  0.45743347  1
  O  O50  1  0.64818689  0.12834293  0.04256653  1
  O  O51  1  0.85181311  0.87165707  0.04256653  1
  O  O52  1  0.64818689  0.87165707  0.54256653  1
  O  O53  1  0.35181311  0.87165707  0.95743347  1
  O  O54  1  0.85181311  0.12834293  0.54256653  1
  O  O55  1  0.14818689  0.12834293  0.95743347  1
  F  F56  1  0.49515220  0.22541060  0.86726647  1
  F  F57  1  0.50484780  0.22541060  0.63273353  1
  F  F58  1  0.86367843  0.34448830  0.25226493  1
  F  F59  1  0.13466127  0.89619955  0.74785521  1
  F  F60  1  0.00484780  0.22541060  0.36726647  1
  F  F61  1  0.36367843  0.65551170  0.24773507  1
  F  F62  1  0.63632157  0.65551170  0.25226493  1
  F  F63  1  0.49515220  0.77458940  0.36726647  1
  F  F64  1  0.36367843  0.34448830  0.74773507  1
  F  F65  1  0.99515220  0.22541060  0.13273353  1
  F  F66  1  0.63632157  0.34448830  0.75226493  1
  F  F67  1  0.86367843  0.65551170  0.75226493  1
  F  F68  1  0.86533873  0.89619955  0.75214479  1
  F  F69  1  0.13466127  0.10380045  0.24785521  1
  F  F70  1  0.13632157  0.34448830  0.24773507  1
  F  F71  1  0.13632157  0.65551170  0.74773507  1
  F  F72  1  0.63466127  0.89619955  0.25214479  1
  F  F73  1  0.00484780  0.77458940  0.86726647  1
  F  F74  1  0.36533873  0.89619955  0.24785521  1
  F  F75  1  0.50484780  0.77458940  0.13273353  1
  F  F76  1  0.36533873  0.10380045  0.74785521  1
  F  F77  1  0.63466127  0.10380045  0.75214479  1
  F  F78  1  0.99515220  0.77458940  0.63273353  1
  F  F79  1  0.86533873  0.10380045  0.25214479  1
