# generated using pymatgen
data_EuZr4O9
_symmetry_space_group_name_H-M   'P 1'
_cell_length_a   3.58218799
_cell_length_b   10.05216417
_cell_length_c   5.25247610
_cell_angle_alpha   105.11468892
_cell_angle_beta   90.06943320
_cell_angle_gamma   79.67257731
_symmetry_Int_Tables_number   1
_chemical_formula_structural   EuZr4O9
_chemical_formula_sum   'Eu1 Zr4 O9'
_cell_volume   179.42741131
_cell_formula_units_Z   1
loop_
 _symmetry_equiv_pos_site_id
 _symmetry_equiv_pos_as_xyz
  1  'x, y, z'
loop_
 _atom_site_type_symbol
 _atom_site_label
 _atom_site_symmetry_multiplicity
 _atom_site_fract_x
 _atom_site_fract_y
 _atom_site_fract_z
 _atom_site_occupancy
  Eu  Eu0  1  0.99528224  0.00065910  0.96161574  1
  Zr  Zr1  1  0.80101295  0.39339788  0.21772746  1
  Zr  Zr2  1  0.60705989  0.77745921  0.41117101  1
  Zr  Zr3  1  0.19591323  0.60800496  0.82594719  1
  Zr  Zr4  1  0.39120980  0.22429383  0.63378615  1
  O  O5  1  0.09746532  0.80242130  0.16786919  1
  O  O6  1  0.70038084  0.60009426  0.06584269  1
  O  O7  1  0.89801193  0.19856999  0.36496442  1
  O  O8  1  0.70072077  0.59440398  0.56405103  1
  O  O9  1  0.29758311  0.40095740  0.46400039  1
  O  O10  1  0.10719522  0.78058473  0.65119545  1
  O  O11  1  0.89292524  0.22116226  0.86994810  1
  O  O12  1  0.29787190  0.40741061  0.96896800  1
  O  O13  1  0.49682856  0.00083447  0.62813519  1
