# generated using pymatgen
data_NdAl11O18
_symmetry_space_group_name_H-M   'P 1'
_cell_length_a   5.61114392
_cell_length_b   11.68082028
_cell_length_c   5.76111631
_cell_angle_alpha   106.06388936
_cell_angle_beta   59.47895003
_cell_angle_gamma   104.51810231
_symmetry_Int_Tables_number   1
_chemical_formula_structural   NdAl11O18
_chemical_formula_sum   'Nd1 Al11 O18'
_cell_volume   309.79935591
_cell_formula_units_Z   1
loop_
 _symmetry_equiv_pos_site_id
 _symmetry_equiv_pos_as_xyz
  1  'x, y, z'
loop_
 _atom_site_type_symbol
 _atom_site_label
 _atom_site_symmetry_multiplicity
 _atom_site_fract_x
 _atom_site_fract_y
 _atom_site_fract_z
 _atom_site_occupancy
  Nd  Nd0  1  0.50000861  0.49999620  0.99998753  1
  Al  Al1  1  0.08693709  0.78229595  0.09461161  1
  Al  Al2  1  0.99999934  0.99999979  0.00000368  1
  Al  Al3  1  0.08595468  0.77596370  0.58767386  1
  Al  Al4  1  0.58728567  0.79291150  0.09769667  1
  Al  Al5  1  0.35092773  0.05639911  0.35365091  1
  Al  Al6  1  0.46142288  0.37292729  0.45796983  1
  Al  Al7  1  0.53857521  0.62707280  0.54201801  1
  Al  Al8  1  0.64907153  0.94360005  0.64635224  1
  Al  Al9  1  0.41271220  0.20708689  0.90230567  1
  Al  Al10  1  0.91404241  0.22403636  0.41232777  1
  Al  Al11  1  0.91306420  0.21770279  0.90538728  1
  O  O12  1  0.29351162  0.89181545  0.29178275  1
  O  O13  1  0.10944414  0.29336339  0.09917025  1
  O  O14  1  0.27563720  0.89335409  0.80854979  1
  O  O15  1  0.19652075  0.10331478  0.18679813  1
  O  O16  1  0.10765437  0.28783902  0.60470531  1
  O  O17  1  0.41088443  0.70936970  0.38249570  1
  O  O18  1  0.67687638  0.50318577  0.55512657  1
  O  O19  1  0.19047604  0.09732274  0.72556354  1
  O  O20  1  0.38927126  0.69599111  0.90896324  1
  O  O21  1  0.61073014  0.30400559  0.09103217  1
  O  O22  1  0.80952241  0.90267757  0.27444056  1
  O  O23  1  0.32312992  0.49681366  0.44485211  1
  O  O24  1  0.58911220  0.29063402  0.61751067  1
  O  O25  1  0.89234761  0.71216348  0.39529758  1
  O  O26  1  0.80347968  0.89668526  0.81320599  1
  O  O27  1  0.72436014  0.10664547  0.19145520  1
  O  O28  1  0.70648697  0.10818198  0.70822130  1
  O  O29  1  0.89055219  0.70663452  0.90083004  1
