# generated using pymatgen
data_NdZrO3
_symmetry_space_group_name_H-M   'P 1'
_cell_length_a   7.61752466
_cell_length_b   7.56672185
_cell_length_c   7.61752466
_cell_angle_alpha   60.22037130
_cell_angle_beta   89.23829170
_cell_angle_gamma   119.77962870
_symmetry_Int_Tables_number   1
_chemical_formula_structural   NdZrO3
_chemical_formula_sum   'Nd4 Zr4 O12'
_cell_volume   310.44318465
_cell_formula_units_Z   4
loop_
 _symmetry_equiv_pos_site_id
 _symmetry_equiv_pos_as_xyz
  1  'x, y, z'
loop_
 _atom_site_type_symbol
 _atom_site_label
 _atom_site_symmetry_multiplicity
 _atom_site_fract_x
 _atom_site_fract_y
 _atom_site_fract_z
 _atom_site_occupancy
  Nd  Nd0  1  0.99134733  0.00894489  0.99134733  1
  Nd  Nd1  1  0.49970677  0.49105511  0.01759756  1
  Nd  Nd2  1  0.01759756  0.00894489  0.49970677  1
  Nd  Nd3  1  0.99134733  0.49105511  0.99134733  1
  Zr  Zr4  1  0.49950401  0.99494576  0.00961349  1
  Zr  Zr5  1  0.49544075  0.99494576  0.49544075  1
  Zr  Zr6  1  0.49544075  0.50505424  0.49544075  1
  Zr  Zr7  1  0.00961349  0.50505424  0.49950401  1
  O  O8  1  0.59637734  0.19275367  0.15362266  1
  O  O9  1  0.83249229  0.25000000  0.41750771  1
  O  O10  1  0.40940689  0.25000000  0.40940689  1
  O  O11  1  0.12500000  0.25000000  0.12500000  1
  O  O12  1  0.84059311  0.25000000  0.84059311  1
  O  O13  1  0.83249229  0.66498457  0.41750771  1
  O  O14  1  0.59637734  0.75000000  0.15362266  1
  O  O15  1  0.41750771  0.25000000  0.83249229  1
  O  O16  1  0.15362266  0.30724633  0.59637734  1
  O  O17  1  0.87500000  0.75000000  0.87500000  1
  O  O18  1  0.15362266  0.75000000  0.59637734  1
  O  O19  1  0.41750771  0.83501543  0.83249229  1
