# generated using pymatgen
data_LiSiBiO4
_symmetry_space_group_name_H-M   'P 1'
_cell_length_a   5.85329621
_cell_length_b   6.40788200
_cell_length_c   11.39951465
_cell_angle_alpha   90.00000000
_cell_angle_beta   115.63504423
_cell_angle_gamma   90.00000000
_symmetry_Int_Tables_number   1
_chemical_formula_structural   LiSiBiO4
_chemical_formula_sum   'Li4 Si4 Bi4 O16'
_cell_volume   385.47826481
_cell_formula_units_Z   4
loop_
 _symmetry_equiv_pos_site_id
 _symmetry_equiv_pos_as_xyz
  1  'x, y, z'
loop_
 _atom_site_type_symbol
 _atom_site_label
 _atom_site_symmetry_multiplicity
 _atom_site_fract_x
 _atom_site_fract_y
 _atom_site_fract_z
 _atom_site_occupancy
  Li  Li0  1  0.41791000  0.63232669  0.56327125  1
  Li  Li1  1  0.58209000  0.13232669  0.93672875  1
  Li  Li2  1  0.41791000  0.86767331  0.06327125  1
  Li  Li3  1  0.58209000  0.36767331  0.43672875  1
  Si  Si4  1  0.19163442  0.30063946  0.63264956  1
  Si  Si5  1  0.19163442  0.19936054  0.13264956  1
  Si  Si6  1  0.80836558  0.80063946  0.86735044  1
  Si  Si7  1  0.80836558  0.69936054  0.36735044  1
  Bi  Bi8  1  0.03247063  0.33474385  0.85831076  1
  Bi  Bi9  1  0.03247063  0.16525615  0.35831076  1
  Bi  Bi10  1  0.96752937  0.83474385  0.64168924  1
  Bi  Bi11  1  0.96752937  0.66525615  0.14168924  1
  O  O12  1  0.09118813  0.70291988  0.97090322  1
  O  O13  1  0.09118813  0.79708012  0.47090322  1
  O  O14  1  0.28902103  0.14710583  0.76024516  1
  O  O15  1  0.17306583  0.53024927  0.69171269  1
  O  O16  1  0.34791021  0.31339875  0.54076140  1
  O  O17  1  0.28902103  0.35289417  0.26024516  1
  O  O18  1  0.17306583  0.96975073  0.19171269  1
  O  O19  1  0.65208979  0.81339875  0.95923860  1
  O  O20  1  0.34791021  0.18660125  0.04076140  1
  O  O21  1  0.82693417  0.03024927  0.80828731  1
  O  O22  1  0.71097897  0.64710583  0.73975484  1
  O  O23  1  0.65208979  0.68660125  0.45923860  1
  O  O24  1  0.82693417  0.46975073  0.30828731  1
  O  O25  1  0.71097897  0.85289417  0.23975484  1
  O  O26  1  0.90881187  0.20291988  0.52909678  1
  O  O27  1  0.90881187  0.29708012  0.02909678  1
