# generated using pymatgen
data_Lu4(B2O5)3
_symmetry_space_group_name_H-M   'P 1'
_cell_length_a   7.94293303
_cell_length_b   7.94293303
_cell_length_c   7.94293290
_cell_angle_alpha   112.00079248
_cell_angle_beta   112.00079250
_cell_angle_gamma   112.00079424
_symmetry_Int_Tables_number   1
_chemical_formula_structural   Lu4(B2O5)3
_chemical_formula_sum   'Lu4 B6 O15'
_cell_volume   344.94932220
_cell_formula_units_Z   1
loop_
 _symmetry_equiv_pos_site_id
 _symmetry_equiv_pos_as_xyz
  1  'x, y, z'
loop_
 _atom_site_type_symbol
 _atom_site_label
 _atom_site_symmetry_multiplicity
 _atom_site_fract_x
 _atom_site_fract_y
 _atom_site_fract_z
 _atom_site_occupancy
  Lu  Lu0  1  0.19801741  0.72061139  0.90473457  1
  Lu  Lu1  1  0.72061139  0.90473457  0.19801741  1
  Lu  Lu2  1  0.00635745  0.00635745  0.00635745  1
  Lu  Lu3  1  0.90473457  0.19801741  0.72061139  1
  B  B4  1  0.49897061  0.81235911  0.72799111  1
  B  B5  1  0.14946457  0.40618351  0.48738003  1
  B  B6  1  0.40618351  0.48738003  0.14946457  1
  B  B7  1  0.81235911  0.72799111  0.49897061  1
  B  B8  1  0.72799111  0.49897061  0.81235911  1
  B  B9  1  0.48738003  0.14946457  0.40618351  1
  O  O10  1  0.27577641  0.00725779  0.19978846  1
  O  O11  1  0.49083901  0.88409188  0.91186844  1
  O  O12  1  0.11359006  0.41097807  0.64564590  1
  O  O13  1  0.31446598  0.59672985  0.52433638  1
  O  O14  1  0.69150367  0.95122001  0.75185835  1
  O  O15  1  0.41097807  0.64564590  0.11359006  1
  O  O16  1  0.19978846  0.27577641  0.00725779  1
  O  O17  1  0.88409188  0.91186844  0.49083901  1
  O  O18  1  0.75185835  0.69150367  0.95122001  1
  O  O19  1  0.59672985  0.52433638  0.31446598  1
  O  O20  1  0.52433638  0.31446598  0.59672985  1
  O  O21  1  0.95122001  0.75185835  0.69150367  1
  O  O22  1  0.91186844  0.49083901  0.88409188  1
  O  O23  1  0.64564590  0.11359006  0.41097807  1
  O  O24  1  0.00725779  0.19978846  0.27577641  1
