# generated using pymatgen
data_Nb2P2O9
_symmetry_space_group_name_H-M   'P 1'
_cell_length_a   5.47605060
_cell_length_b   5.47605060
_cell_length_c   11.83299889
_cell_angle_alpha   90.00000000
_cell_angle_beta   90.00000000
_cell_angle_gamma   74.91360841
_symmetry_Int_Tables_number   1
_chemical_formula_structural   Nb2P2O9
_chemical_formula_sum   'Nb4 P4 O18'
_cell_volume   342.60801221
_cell_formula_units_Z   2
loop_
 _symmetry_equiv_pos_site_id
 _symmetry_equiv_pos_as_xyz
  1  'x, y, z'
loop_
 _atom_site_type_symbol
 _atom_site_label
 _atom_site_symmetry_multiplicity
 _atom_site_fract_x
 _atom_site_fract_y
 _atom_site_fract_z
 _atom_site_occupancy
  Nb  Nb0  1  0.79626394  0.79626394  0.55998152  1
  Nb  Nb1  1  0.20373606  0.20373606  0.44001848  1
  Nb  Nb2  1  0.70373606  0.70373606  0.05998152  1
  Nb  Nb3  1  0.29626394  0.29626394  0.94001848  1
  P  P4  1  0.89452653  0.89452653  0.85270487  1
  P  P5  1  0.10547347  0.10547347  0.14729513  1
  P  P6  1  0.60547347  0.60547347  0.35270487  1
  P  P7  1  0.39452653  0.39452653  0.64729513  1
  O  O8  1  0.01782002  0.36772547  0.08353786  1
  O  O9  1  0.63227453  0.98217998  0.91646214  1
  O  O10  1  0.51782002  0.86772547  0.41646214  1
  O  O11  1  0.13227453  0.48217998  0.58353786  1
  O  O12  1  0.50000000  0.50000000  0.00000000  1
  O  O13  1  0.14150290  0.14150290  0.27302827  1
  O  O14  1  0.35849710  0.35849710  0.77302827  1
  O  O15  1  0.00000000  0.00000000  0.50000000  1
  O  O16  1  0.43534014  0.43534014  0.37460846  1
  O  O17  1  0.06465986  0.06465986  0.87460846  1
  O  O18  1  0.93534014  0.93534014  0.12539154  1
  O  O19  1  0.85849710  0.85849710  0.72697173  1
  O  O20  1  0.64150290  0.64150290  0.22697173  1
  O  O21  1  0.56465986  0.56465986  0.62539154  1
  O  O22  1  0.86772547  0.51782002  0.41646214  1
  O  O23  1  0.98217998  0.63227453  0.91646214  1
  O  O24  1  0.48217998  0.13227453  0.58353786  1
  O  O25  1  0.36772547  0.01782002  0.08353786  1
