# generated using pymatgen
data_P2SN3Cl5O
_symmetry_space_group_name_H-M   'P 1'
_cell_length_a   10.60575266
_cell_length_b   10.70721861
_cell_length_c   17.39545341
_cell_angle_alpha   89.46993504
_cell_angle_beta   73.99017203
_cell_angle_gamma   60.80671169
_symmetry_Int_Tables_number   1
_chemical_formula_structural   P2SN3Cl5O
_chemical_formula_sum   'P12 S6 N18 Cl30 O6'
_cell_volume   1639.01749772
_cell_formula_units_Z   6
loop_
 _symmetry_equiv_pos_site_id
 _symmetry_equiv_pos_as_xyz
  1  'x, y, z'
loop_
 _atom_site_type_symbol
 _atom_site_label
 _atom_site_symmetry_multiplicity
 _atom_site_fract_x
 _atom_site_fract_y
 _atom_site_fract_z
 _atom_site_occupancy
  P  P0  1  0.82655895  0.60358451  0.87910385  1
  P  P1  1  0.67655051  0.87635460  0.80785810  1
  P  P2  1  0.71214380  0.22757090  0.10947987  1
  P  P3  1  0.32344949  0.12364540  0.19214190  1
  P  P4  1  0.51403564  0.49994832  0.78473452  1
  P  P5  1  0.28785620  0.77242910  0.89052013  1
  P  P6  1  0.17344105  0.39641549  0.12089615  1
  P  P7  1  0.70460094  0.15762791  0.45260051  1
  P  P8  1  0.76965841  0.40772545  0.42730538  1
  P  P9  1  0.23034159  0.59227455  0.57269462  1
  P  P10  1  0.48596436  0.50005168  0.21526548  1
  P  P11  1  0.29539906  0.84237209  0.54739949  1
  S  S12  1  0.82230492  0.38555499  0.79180160  1
  S  S13  1  0.38052972  0.28176625  0.51941137  1
  S  S14  1  0.63014582  0.01178729  0.09525782  1
  S  S15  1  0.61947028  0.71823375  0.48058863  1
  S  S16  1  0.17769508  0.61444501  0.20819840  1
  S  S17  1  0.36985418  0.98821271  0.90474218  1
  N  N18  1  0.35248410  0.51021359  0.18465756  1
  N  N19  1  0.52206747  0.98727534  0.87718789  1
  N  N20  1  0.77112805  0.71552154  0.82036064  1
  N  N21  1  0.11152480  0.56233924  0.15495729  1
  N  N22  1  0.47793253  0.01272466  0.12281211  1
  N  N23  1  0.63476796  0.56767650  0.46798339  1
  N  N24  1  0.22887195  0.28447846  0.17963936  1
  N  N25  1  0.39280000  0.84412646  0.86695332  1
  N  N26  1  0.88847520  0.43766076  0.84504271  1
  N  N27  1  0.54193304  0.17242536  0.46277620  1
  N  N28  1  0.60720000  0.15587354  0.13304668  1
  N  N29  1  0.45806696  0.82757464  0.53722380  1
  N  N30  1  0.36523204  0.43232350  0.53201661  1
  N  N31  1  0.64877687  0.37292452  0.16544844  1
  N  N32  1  0.28801010  0.70081557  0.55099283  1
  N  N33  1  0.35122313  0.62707548  0.83455156  1
  N  N34  1  0.64751590  0.48978641  0.81534244  1
  N  N35  1  0.71198990  0.29918443  0.44900717  1
  Cl  Cl36  1  0.84720087  0.39617738  0.30625287  1
  Cl  Cl37  1  0.66714709  0.65832430  0.98751236  1
  Cl  Cl38  1  0.95520212  0.35356417  0.46088480  1
  Cl  Cl39  1  0.00138204  0.59538773  0.90698255  1
  Cl  Cl40  1  0.15279913  0.60382262  0.69374713  1
  Cl  Cl41  1  0.78381686  0.05691533  0.54201645  1
  Cl  Cl42  1  0.33285291  0.34167570  0.01248764  1
  Cl  Cl43  1  0.99861796  0.40461227  0.09301745  1
  Cl  Cl44  1  0.74765918  0.26000952  0.99296299  1
  Cl  Cl45  1  0.92256862  0.09207414  0.11308414  1
  Cl  Cl46  1  0.04479788  0.64643583  0.53911520  1
  Cl  Cl47  1  0.36777423  0.21215817  0.63286382  1
  Cl  Cl48  1  0.15777493  0.98668218  0.64817367  1
  Cl  Cl49  1  0.19840431  0.02772270  0.20855178  1
  Cl  Cl50  1  0.63977186  0.87135371  0.70104903  1
  Cl  Cl51  1  0.91510743  0.40831751  0.67420987  1
  Cl  Cl52  1  0.08489257  0.59168249  0.32579013  1
  Cl  Cl53  1  0.21618314  0.94308467  0.45798355  1
  Cl  Cl54  1  0.49366853  0.68377660  0.21011256  1
  Cl  Cl55  1  0.50633147  0.31622340  0.78988744  1
  Cl  Cl56  1  0.76825506  0.85053946  0.15155729  1
  Cl  Cl57  1  0.84222507  0.01331782  0.35182633  1
  Cl  Cl58  1  0.63222577  0.78784183  0.36713618  1
  Cl  Cl59  1  0.55345347  0.51816002  0.66635216  1
  Cl  Cl60  1  0.25234082  0.73999048  0.00703701  1
  Cl  Cl61  1  0.36022814  0.12864629  0.29895097  1
  Cl  Cl62  1  0.07743138  0.90792586  0.88691586  1
  Cl  Cl63  1  0.80159569  0.97227730  0.79144822  1
  Cl  Cl64  1  0.23174494  0.14946054  0.84844271  1
  Cl  Cl65  1  0.44654653  0.48183998  0.33364784  1
  O  O66  1  0.73681256  0.72383663  0.50423520  1
  O  O67  1  0.12537271  0.76672519  0.21098208  1
  O  O68  1  0.26318744  0.27616337  0.49576480  1
  O  O69  1  0.28985802  0.03658716  0.99001623  1
  O  O70  1  0.71014198  0.96341284  0.00998377  1
  O  O71  1  0.87462729  0.23327481  0.78901792  1
