# generated using pymatgen
data_Ti5Pb5O14
_symmetry_space_group_name_H-M   'P 1'
_cell_length_a   8.61570240
_cell_length_b   7.14360912
_cell_length_c   6.02632876
_cell_angle_alpha   83.51281404
_cell_angle_beta   72.32465185
_cell_angle_gamma   77.50986335
_symmetry_Int_Tables_number   1
_chemical_formula_structural   Ti5Pb5O14
_chemical_formula_sum   'Ti5 Pb5 O14'
_cell_volume   344.58387274
_cell_formula_units_Z   1
loop_
 _symmetry_equiv_pos_site_id
 _symmetry_equiv_pos_as_xyz
  1  'x, y, z'
loop_
 _atom_site_type_symbol
 _atom_site_label
 _atom_site_symmetry_multiplicity
 _atom_site_fract_x
 _atom_site_fract_y
 _atom_site_fract_z
 _atom_site_occupancy
  Ti  Ti0  1  0.59884921  0.30235920  0.22331064  1
  Ti  Ti1  1  0.40325666  0.68976021  0.83638023  1
  Ti  Ti2  1  0.79490099  0.91159269  0.61514320  1
  Ti  Ti3  1  0.98980484  0.51944011  0.01301663  1
  Ti  Ti4  1  0.18594728  0.13181302  0.39254153  1
  Pb  Pb5  1  0.79174633  0.42933282  0.64172971  1
  Pb  Pb6  1  0.38479557  0.21656574  0.82596869  1
  Pb  Pb7  1  0.20006697  0.65266444  0.44874089  1
  Pb  Pb8  1  0.56264033  0.82594367  0.26887922  1
  Pb  Pb9  1  0.98312245  0.02575827  0.02820861  1
  O  O10  1  0.71847337  0.06815574  0.84638893  1
  O  O11  1  0.91465189  0.67707375  0.75973376  1
  O  O12  1  0.71161015  0.07331365  0.36698988  1
  O  O13  1  0.51445805  0.47081012  0.97378147  1
  O  O14  1  0.52387540  0.45193960  0.46328075  1
  O  O15  1  0.91292381  0.66864090  0.24947263  1
  O  O16  1  0.21639864  0.57417139  0.85217443  1
  O  O17  1  0.12116810  0.25660052  0.65322216  1
  O  O18  1  0.61258910  0.76858618  0.65588369  1
  O  O19  1  0.81684608  0.36631134  0.05233652  1
  O  O20  1  0.41433307  0.16436286  0.25972906  1
  O  O21  1  0.11187672  0.27792872  0.14855090  1
  O  O22  1  0.31092470  0.87942881  0.03040235  1
  O  O23  1  0.01744230  0.97204622  0.45603411  1
