# generated using pymatgen
data_Li3Sn2(PO4)3
_symmetry_space_group_name_H-M   'P 1'
_cell_length_a   5.05430998
_cell_length_b   5.05430998
_cell_length_c   20.42423907
_cell_angle_alpha   90.18471681
_cell_angle_beta   90.18471681
_cell_angle_gamma   66.37278619
_symmetry_Int_Tables_number   1
_chemical_formula_structural   Li3Sn2(PO4)3
_chemical_formula_sum   'Li6 Sn4 P6 O24'
_cell_volume   478.01733817
_cell_formula_units_Z   2
loop_
 _symmetry_equiv_pos_site_id
 _symmetry_equiv_pos_as_xyz
  1  'x, y, z'
loop_
 _atom_site_type_symbol
 _atom_site_label
 _atom_site_symmetry_multiplicity
 _atom_site_fract_x
 _atom_site_fract_y
 _atom_site_fract_z
 _atom_site_occupancy
  Li  Li0  1  0.00646501  0.00646501  0.81615333  1
  Li  Li1  1  0.33567355  0.33567355  0.57911593  1
  Li  Li2  1  0.33279697  0.33279697  0.89238847  1
  Li  Li3  1  0.66720303  0.66720303  0.44094553  1
  Li  Li4  1  0.99353499  0.99353499  0.51717967  1
  Li  Li5  1  0.66432645  0.66432645  0.75421707  1
  Sn  Sn6  1  0.00000000  0.00000000  0.16666700  1
  Sn  Sn7  1  0.00106855  0.00106855  0.98667865  1
  Sn  Sn8  1  0.99893145  0.99893145  0.34665435  1
  Sn  Sn9  1  0.00000000  0.00000000  0.66666700  1
  P  P10  1  0.34714159  0.34714159  0.42188476  1
  P  P11  1  0.35757866  0.35757866  0.06314205  1
  P  P12  1  0.35899987  0.35899987  0.75243549  1
  P  P13  1  0.64242134  0.64242134  0.27019095  1
  P  P14  1  0.64100013  0.64100013  0.58089751  1
  P  P15  1  0.65285841  0.65285841  0.91144824  1
  O  O16  1  0.23505790  0.70014236  0.06005948  1
  O  O17  1  0.24148221  0.69051866  0.41720469  1
  O  O18  1  0.24783740  0.69524078  0.75932787  1
  O  O19  1  0.29985764  0.76494210  0.27327452  1
  O  O20  1  0.30475922  0.75216260  0.57400513  1
  O  O21  1  0.30948134  0.75851779  0.91612931  1
  O  O22  1  0.72888167  0.72888167  0.20540434  1
  O  O23  1  0.76052025  0.76052025  0.52439451  1
  O  O24  1  0.74679469  0.74679469  0.84976184  1
  O  O25  1  0.24879720  0.24879720  0.00062888  1
  O  O26  1  0.27111833  0.27111833  0.12792866  1
  O  O27  1  0.24045335  0.24045335  0.35955732  1
  O  O28  1  0.75954665  0.75954665  0.97377668  1
  O  O29  1  0.75120280  0.75120280  0.33270512  1
  O  O30  1  0.25320531  0.25320531  0.48357116  1
  O  O31  1  0.71758798  0.71758798  0.64963218  1
  O  O32  1  0.28241202  0.28241202  0.68370082  1
  O  O33  1  0.23947975  0.23947975  0.80893849  1
  O  O34  1  0.76494210  0.29985764  0.27327452  1
  O  O35  1  0.75851779  0.30948134  0.91612931  1
  O  O36  1  0.75216260  0.30475922  0.57400513  1
  O  O37  1  0.70014236  0.23505790  0.06005948  1
  O  O38  1  0.69524078  0.24783740  0.75932787  1
  O  O39  1  0.69051866  0.24148221  0.41720469  1
