# generated using pymatgen
data_LiSiBiO4
_symmetry_space_group_name_H-M   'P 1'
_cell_length_a   10.47141674
_cell_length_b   7.25402830
_cell_length_c   5.50464345
_cell_angle_alpha   90.00000000
_cell_angle_beta   90.00000000
_cell_angle_gamma   90.00000000
_symmetry_Int_Tables_number   1
_chemical_formula_structural   LiSiBiO4
_chemical_formula_sum   'Li4 Si4 Bi4 O16'
_cell_volume   418.13245980
_cell_formula_units_Z   4
loop_
 _symmetry_equiv_pos_site_id
 _symmetry_equiv_pos_as_xyz
  1  'x, y, z'
loop_
 _atom_site_type_symbol
 _atom_site_label
 _atom_site_symmetry_multiplicity
 _atom_site_fract_x
 _atom_site_fract_y
 _atom_site_fract_z
 _atom_site_occupancy
  Li  Li0  1  0.15710617  0.49195962  0.24852971  1
  Li  Li1  1  0.34289383  0.99195962  0.74852971  1
  Li  Li2  1  0.65710617  0.00804038  0.24852971  1
  Li  Li3  1  0.84289383  0.50804038  0.74852971  1
  Si  Si4  1  0.09032170  0.73908580  0.75107914  1
  Si  Si5  1  0.40967830  0.23908580  0.25107914  1
  Si  Si6  1  0.59032170  0.76091420  0.75107914  1
  Si  Si7  1  0.90967830  0.26091420  0.25107914  1
  Bi  Bi8  1  0.15828750  0.98094408  0.24999376  1
  Bi  Bi9  1  0.34171250  0.48094408  0.74999376  1
  Bi  Bi10  1  0.65828750  0.51905592  0.24999376  1
  Bi  Bi11  1  0.84171250  0.01905592  0.74999376  1
  O  O12  1  0.06397370  0.25674202  0.19346017  1
  O  O13  1  0.12469779  0.70574941  0.03825451  1
  O  O14  1  0.15878403  0.57287851  0.59142896  1
  O  O15  1  0.15115819  0.94228806  0.67310276  1
  O  O16  1  0.34884181  0.44228806  0.17310276  1
  O  O17  1  0.34121597  0.07287851  0.09142896  1
  O  O18  1  0.37530221  0.20574941  0.53825451  1
  O  O19  1  0.43602630  0.75674202  0.69346017  1
  O  O20  1  0.56397370  0.24325798  0.19346017  1
  O  O21  1  0.62469779  0.79425059  0.03825451  1
  O  O22  1  0.65878403  0.92712149  0.59142896  1
  O  O23  1  0.65115819  0.55771194  0.67310276  1
  O  O24  1  0.84884181  0.05771194  0.17310276  1
  O  O25  1  0.84121597  0.42712149  0.09142896  1
  O  O26  1  0.87530221  0.29425059  0.53825451  1
  O  O27  1  0.93602630  0.74325798  0.69346017  1
