# generated using pymatgen
data_Li2Nb(PO4)2
_symmetry_space_group_name_H-M   'P 1'
_cell_length_a   6.04106435
_cell_length_b   4.84817265
_cell_length_c   10.39602057
_cell_angle_alpha   90.00000000
_cell_angle_beta   89.87051244
_cell_angle_gamma   90.00000000
_symmetry_Int_Tables_number   1
_chemical_formula_structural   Li2Nb(PO4)2
_chemical_formula_sum   'Li4 Nb2 P4 O16'
_cell_volume   304.47915131
_cell_formula_units_Z   2
loop_
 _symmetry_equiv_pos_site_id
 _symmetry_equiv_pos_as_xyz
  1  'x, y, z'
loop_
 _atom_site_type_symbol
 _atom_site_label
 _atom_site_symmetry_multiplicity
 _atom_site_fract_x
 _atom_site_fract_y
 _atom_site_fract_z
 _atom_site_occupancy
  Li  Li0  1  0.54565319  0.49333906  0.50196166  1
  Li  Li1  1  0.54565319  0.00666094  0.00196166  1
  Li  Li2  1  0.75742682  0.02992179  0.71543603  1
  Li  Li3  1  0.75742682  0.47007821  0.21543603  1
  Nb  Nb4  1  0.24026113  0.52514777  0.77957863  1
  Nb  Nb5  1  0.24026113  0.97485223  0.27957863  1
  P  P6  1  0.25473153  0.08585217  0.59965038  1
  P  P7  1  0.25473153  0.41414783  0.09965038  1
  P  P8  1  0.73845916  0.55670902  0.90532962  1
  P  P9  1  0.73845916  0.94329098  0.40532962  1
  O  O10  1  0.05899581  0.20903209  0.67963212  1
  O  O11  1  0.05899581  0.29096791  0.17963212  1
  O  O12  1  0.24552595  0.32106525  0.95705408  1
  O  O13  1  0.24552595  0.17893475  0.45705408  1
  O  O14  1  0.26877615  0.76829702  0.60918317  1
  O  O15  1  0.26877615  0.73170298  0.10918317  1
  O  O16  1  0.45397169  0.24206287  0.66338989  1
  O  O17  1  0.45397169  0.25793713  0.16338989  1
  O  O18  1  0.52812633  0.70118766  0.83440243  1
  O  O19  1  0.52812633  0.79881234  0.33440243  1
  O  O20  1  0.72483570  0.24665617  0.89218446  1
  O  O21  1  0.72483570  0.25334383  0.39218446  1
  O  O22  1  0.74204652  0.82357857  0.53956037  1
  O  O23  1  0.74204652  0.67642143  0.03956037  1
  O  O24  1  0.94118900  0.67563759  0.82263715  1
  O  O25  1  0.94118900  0.82436241  0.32263715  1
