# generated using pymatgen
data_Li3Ti2(PO4)3
_symmetry_space_group_name_H-M   'P 1'
_cell_length_a   9.87484135
_cell_length_b   9.84571485
_cell_length_c   9.84571507
_cell_angle_alpha   85.68558938
_cell_angle_beta   85.68291806
_cell_angle_gamma   85.68291960
_symmetry_Int_Tables_number   1
_chemical_formula_structural   Li3Ti2(PO4)3
_chemical_formula_sum   'Li12 Ti8 P12 O48'
_cell_volume   949.49203486
_cell_formula_units_Z   4
loop_
 _symmetry_equiv_pos_site_id
 _symmetry_equiv_pos_as_xyz
  1  'x, y, z'
loop_
 _atom_site_type_symbol
 _atom_site_label
 _atom_site_symmetry_multiplicity
 _atom_site_fract_x
 _atom_site_fract_y
 _atom_site_fract_z
 _atom_site_occupancy
  Li  Li0  1  0.16048272  0.03316055  0.73050184  1
  Li  Li1  1  0.27110678  0.81649152  0.98878765  1
  Li  Li2  1  0.33951728  0.76949816  0.46683945  1
  Li  Li3  1  0.22889322  0.51121235  0.68350848  1
  Li  Li4  1  0.49365700  0.52057056  0.46418788  1
  Li  Li5  1  0.00634300  0.03581212  0.97942944  1
  Li  Li6  1  0.48601340  0.33288476  0.76227375  1
  Li  Li7  1  0.01398660  0.73772625  0.16711524  1
  Li  Li8  1  0.74686035  0.51034844  0.32764154  1
  Li  Li9  1  0.66155326  0.24929478  0.49784023  1
  Li  Li10  1  0.75313965  0.17235846  0.98965156  1
  Li  Li11  1  0.83844674  0.00215977  0.25070522  1
  Ti  Ti12  1  0.53904202  0.96114755  0.75027868  1
  Ti  Ti13  1  0.03673202  0.25296634  0.46764562  1
  Ti  Ti14  1  0.25000000  0.45988023  0.04011977  1
  Ti  Ti15  1  0.25000000  0.24913263  0.25086737  1
  Ti  Ti16  1  0.75000000  0.74956059  0.75043941  1
  Ti  Ti17  1  0.96095798  0.74972132  0.53885245  1
  Ti  Ti18  1  0.75000000  0.53641862  0.96358138  1
  Ti  Ti19  1  0.46326798  0.03235438  0.24703366  1
  P  P20  1  0.15050858  0.94675983  0.32850348  1
  P  P21  1  0.05442451  0.67372143  0.84968725  1
  P  P22  1  0.17158721  0.55443221  0.35001170  1
  P  P23  1  0.44557549  0.65031275  0.82627857  1
  P  P24  1  0.65275196  0.81846595  0.44632661  1
  P  P25  1  0.67811354  0.84835002  0.05339863  1
  P  P26  1  0.32841279  0.14998830  0.94556779  1
  P  P27  1  0.34949142  0.17149652  0.55324017  1
  P  P28  1  0.55433637  0.34173814  0.18052138  1
  P  P29  1  0.82188646  0.44660137  0.65164998  1
  P  P30  1  0.94566363  0.31947862  0.15826186  1
  P  P31  1  0.84724804  0.05367339  0.68153405  1
  O  O32  1  0.07823226  0.90403564  0.20821914  1
  O  O33  1  0.10314198  0.87894104  0.46844668  1
  O  O34  1  0.09494808  0.79192634  0.92720236  1
  O  O35  1  0.08763725  0.68765646  0.69136794  1
  O  O36  1  0.30850255  0.91342455  0.31592198  1
  O  O37  1  0.03013280  0.62248012  0.39250156  1
  O  O38  1  0.12445738  0.53412552  0.89559052  1
  O  O39  1  0.41236275  0.80863206  0.81234354  1
  O  O40  1  0.18678269  0.58720273  0.19177093  1
  O  O41  1  0.59796455  0.95586862  0.37797982  1
  O  O42  1  0.53760209  0.89990206  0.11574969  1
  O  O43  1  0.28633600  0.59605622  0.43139309  1
  O  O44  1  0.37554262  0.60440948  0.96587448  1
  O  O45  1  0.10382986  0.32573029  0.12293613  1
  O  O46  1  0.16913148  0.39450034  0.37923344  1
  O  O47  1  0.67090041  0.87818519  0.89321667  1
  O  O48  1  0.62322368  0.83055628  0.60591765  1
  O  O49  1  0.40505192  0.57279764  0.70807366  1
  O  O50  1  0.58495850  0.69287766  0.41018063  1
  O  O51  1  0.79639144  0.92508238  0.09345588  1
  O  O52  1  0.60436003  0.62311460  0.83373247  1
  O  O53  1  0.87677632  0.89408235  0.66944372  1
  O  O54  1  0.31321731  0.30822907  0.91279727  1
  O  O55  1  0.19149745  0.18407802  0.58657545  1
  O  O56  1  0.81030111  0.81226616  0.41146104  1
  O  O57  1  0.70064304  0.69117190  0.08367411  1
  O  O58  1  0.12045764  0.10592992  0.33351217  1
  O  O59  1  0.39617014  0.37706387  0.17426971  1
  O  O60  1  0.21366400  0.06860691  0.90394378  1
  O  O61  1  0.42176774  0.29178086  0.59596436  1
  O  O62  1  0.59949796  0.39755084  0.31025497  1
  O  O63  1  0.33086852  0.12076656  0.10549966  1
  O  O64  1  0.37954236  0.16648783  0.39407008  1
  O  O65  1  0.82909959  0.60678333  0.62181481  1
  O  O66  1  0.89563997  0.66626753  0.87688540  1
  O  O67  1  0.62238338  0.39796668  0.04397820  1
  O  O68  1  0.70360856  0.40654412  0.57491762  1
  O  O69  1  0.39685802  0.03155332  0.62105896  1
  O  O70  1  0.46986720  0.10749844  0.87751988  1
  O  O71  1  0.79935696  0.41632589  0.80882810  1
  O  O72  1  0.58511380  0.18325318  0.18308157  1
  O  O73  1  0.87761662  0.45602180  0.10203332  1
  O  O74  1  0.96239791  0.38425031  0.60009794  1
  O  O75  1  0.68969889  0.08853896  0.68773384  1
  O  O76  1  0.91488620  0.31691843  0.31674682  1
  O  O77  1  0.90050204  0.18974503  0.10244916  1
  O  O78  1  0.90203545  0.12202018  0.54413138  1
  O  O79  1  0.91504150  0.08981937  0.80712234  1
