# generated using pymatgen
data_LiSnP2O7
_symmetry_space_group_name_H-M   'P 1'
_cell_length_a   7.30353121
_cell_length_b   8.79381813
_cell_length_c   9.28025664
_cell_angle_alpha   90.00000000
_cell_angle_beta   113.64003631
_cell_angle_gamma   90.00000000
_symmetry_Int_Tables_number   1
_chemical_formula_structural   LiSnP2O7
_chemical_formula_sum   'Li4 Sn4 P8 O28'
_cell_volume   546.01561574
_cell_formula_units_Z   4
loop_
 _symmetry_equiv_pos_site_id
 _symmetry_equiv_pos_as_xyz
  1  'x, y, z'
loop_
 _atom_site_type_symbol
 _atom_site_label
 _atom_site_symmetry_multiplicity
 _atom_site_fract_x
 _atom_site_fract_y
 _atom_site_fract_z
 _atom_site_occupancy
  Li  Li0  1  0.11472873  0.95167949  0.82688023  1
  Li  Li1  1  0.38527127  0.45167949  0.67311977  1
  Li  Li2  1  0.61472873  0.54832051  0.32688023  1
  Li  Li3  1  0.88527127  0.04832051  0.17311977  1
  Sn  Sn4  1  0.13310901  0.57756644  0.88211898  1
  Sn  Sn5  1  0.36689099  0.07756644  0.61788102  1
  Sn  Sn6  1  0.63310901  0.92243356  0.38211898  1
  Sn  Sn7  1  0.86689099  0.42243356  0.11788102  1
  P  P8  1  0.06554317  0.72555907  0.52982931  1
  P  P9  1  0.43445683  0.22555907  0.97017069  1
  P  P10  1  0.18111416  0.74010357  0.24788251  1
  P  P11  1  0.31888584  0.24010357  0.25211749  1
  P  P12  1  0.68111416  0.75989643  0.74788251  1
  P  P13  1  0.81888584  0.25989643  0.75211749  1
  P  P14  1  0.56554317  0.77444093  0.02982931  1
  P  P15  1  0.93445683  0.27444093  0.47017069  1
  O  O16  1  0.14165437  0.59266260  0.64807222  1
  O  O17  1  0.14451209  0.88049578  0.60384254  1
  O  O18  1  0.33467016  0.77517000  0.94671717  1
  O  O19  1  0.16532984  0.27517000  0.55328283  1
  O  O20  1  0.35548791  0.38049578  0.89615746  1
  O  O21  1  0.15112328  0.67719240  0.40148413  1
  O  O22  1  0.35834563  0.09266260  0.85192778  1
  O  O23  1  0.08943017  0.24013915  0.20290398  1
  O  O24  1  0.07519456  0.88710911  0.19426273  1
  O  O25  1  0.09659696  0.60292524  0.12591098  1
  O  O26  1  0.65112328  0.82280760  0.90148413  1
  O  O27  1  0.40340304  0.10292524  0.37408902  1
  O  O28  1  0.58943017  0.25986085  0.70290398  1
  O  O29  1  0.57519456  0.61289089  0.69426273  1
  O  O30  1  0.42480544  0.38710911  0.30573727  1
  O  O31  1  0.41056983  0.74013915  0.29709602  1
  O  O32  1  0.59659696  0.89707476  0.62591098  1
  O  O33  1  0.34887672  0.17719240  0.09851587  1
  O  O34  1  0.90340304  0.39707476  0.87408902  1
  O  O35  1  0.92480544  0.11289089  0.80573727  1
  O  O36  1  0.91056983  0.75986085  0.79709602  1
  O  O37  1  0.64165437  0.90733740  0.14807222  1
  O  O38  1  0.84887672  0.32280760  0.59851587  1
  O  O39  1  0.64451209  0.61950422  0.10384254  1
  O  O40  1  0.83467016  0.72483000  0.44671717  1
  O  O41  1  0.66532984  0.22483000  0.05328283  1
  O  O42  1  0.85548791  0.11950422  0.39615746  1
  O  O43  1  0.85834563  0.40733740  0.35192778  1
