# generated using pymatgen
data_LiSn(PO3)4
_symmetry_space_group_name_H-M   'P 1'
_cell_length_a   9.86748621
_cell_length_b   13.31484634
_cell_length_c   7.43820962
_cell_angle_alpha   90.00000000
_cell_angle_beta   86.00259182
_cell_angle_gamma   90.00000000
_symmetry_Int_Tables_number   1
_chemical_formula_structural   LiSn(PO3)4
_chemical_formula_sum   'Li4 Sn4 P16 O48'
_cell_volume   974.88472067
_cell_formula_units_Z   4
loop_
 _symmetry_equiv_pos_site_id
 _symmetry_equiv_pos_as_xyz
  1  'x, y, z'
loop_
 _atom_site_type_symbol
 _atom_site_label
 _atom_site_symmetry_multiplicity
 _atom_site_fract_x
 _atom_site_fract_y
 _atom_site_fract_z
 _atom_site_occupancy
  Li  Li0  1  0.03501622  0.20505473  0.08972090  1
  Li  Li1  1  0.46498378  0.70505473  0.41027910  1
  Li  Li2  1  0.53501622  0.29494527  0.58972090  1
  Li  Li3  1  0.96498378  0.79494527  0.91027910  1
  Sn  Sn4  1  0.06659119  0.79241611  0.45919610  1
  Sn  Sn5  1  0.43340881  0.29241611  0.04080390  1
  Sn  Sn6  1  0.56659119  0.70758389  0.95919610  1
  Sn  Sn7  1  0.93340881  0.20758389  0.54080390  1
  P  P8  1  0.19938300  0.37196460  0.38335945  1
  P  P9  1  0.20390578  0.58808757  0.30585897  1
  P  P10  1  0.24788147  0.12166626  0.59540430  1
  P  P11  1  0.22840737  0.90714279  0.72253366  1
  P  P12  1  0.27159263  0.40714279  0.77746634  1
  P  P13  1  0.25211853  0.62166626  0.90459570  1
  P  P14  1  0.29609422  0.08808757  0.19414103  1
  P  P15  1  0.30061700  0.87196460  0.11664055  1
  P  P16  1  0.69938300  0.12803540  0.88335945  1
  P  P17  1  0.70390578  0.91191243  0.80585897  1
  P  P18  1  0.74788147  0.37833374  0.09540430  1
  P  P19  1  0.72840737  0.59285721  0.22253366  1
  P  P20  1  0.77159263  0.09285721  0.27746634  1
  P  P21  1  0.75211853  0.87833374  0.40459570  1
  P  P22  1  0.79609422  0.41191243  0.69414103  1
  P  P23  1  0.80061700  0.62803540  0.61664055  1
  O  O24  1  0.07965181  0.65698154  0.30623969  1
  O  O25  1  0.07461761  0.89864640  0.74401173  1
  O  O26  1  0.10439104  0.15295912  0.66606215  1
  O  O27  1  0.09704168  0.29120485  0.34617603  1
  O  O28  1  0.13563347  0.47820333  0.33292402  1
  O  O29  1  0.13870308  0.69360299  0.89702123  1
  O  O30  1  0.15913375  0.86159826  0.20668535  1
  O  O31  1  0.20406769  0.37971693  0.59552791  1
  O  O32  1  0.20929714  0.34384812  0.93106615  1
  O  O33  1  0.21808481  0.52101830  0.79752199  1
  O  O34  1  0.22702732  0.07962975  0.39515949  1
  O  O35  1  0.19207440  0.11153486  0.06655554  1
  O  O36  1  0.30792560  0.61153486  0.43344446  1
  O  O37  1  0.27297268  0.57962975  0.10484051  1
  O  O38  1  0.28191519  0.02101830  0.70247801  1
  O  O39  1  0.29070286  0.84384812  0.56893385  1
  O  O40  1  0.29593231  0.87971693  0.90447209  1
  O  O41  1  0.34086625  0.36159826  0.29331465  1
  O  O42  1  0.36129692  0.19360299  0.60297877  1
  O  O43  1  0.36436653  0.97820333  0.16707598  1
  O  O44  1  0.40295832  0.79120485  0.15382397  1
  O  O45  1  0.39560896  0.65295912  0.83393785  1
  O  O46  1  0.42538239  0.39864640  0.75598827  1
  O  O47  1  0.42034919  0.15698154  0.19376031  1
  O  O48  1  0.57965081  0.84301846  0.80623969  1
  O  O49  1  0.57461761  0.60135360  0.24401173  1
  O  O50  1  0.60439104  0.34704088  0.16606215  1
  O  O51  1  0.59704168  0.20879515  0.84617603  1
  O  O52  1  0.63563347  0.02179667  0.83292402  1
  O  O53  1  0.63870308  0.80639701  0.39702123  1
  O  O54  1  0.65913375  0.63840174  0.70668535  1
  O  O55  1  0.70406769  0.12028307  0.09552791  1
  O  O56  1  0.70929714  0.15615188  0.43106615  1
  O  O57  1  0.71808481  0.97898170  0.29752199  1
  O  O58  1  0.72702732  0.42037025  0.89515949  1
  O  O59  1  0.69207440  0.38846514  0.56655554  1
  O  O60  1  0.80792560  0.88846514  0.93344446  1
  O  O61  1  0.77297268  0.92037025  0.60484051  1
  O  O62  1  0.78191519  0.47898170  0.20247801  1
  O  O63  1  0.79070286  0.65615188  0.06893385  1
  O  O64  1  0.79593231  0.62028307  0.40447209  1
  O  O65  1  0.84086625  0.13840174  0.79331465  1
  O  O66  1  0.86129692  0.30639701  0.10297877  1
  O  O67  1  0.86436653  0.52179667  0.66707598  1
  O  O68  1  0.90295832  0.70879515  0.65382397  1
  O  O69  1  0.89560896  0.84704088  0.33393785  1
  O  O70  1  0.92538239  0.10135360  0.25598827  1
  O  O71  1  0.92034919  0.34301846  0.69376031  1
