# generated using pymatgen
data_LiTiP2O7
_symmetry_space_group_name_H-M   'P 1'
_cell_length_a   7.07477862
_cell_length_b   8.35565904
_cell_length_c   8.91638447
_cell_angle_alpha   90.00000000
_cell_angle_beta   111.55286164
_cell_angle_gamma   90.00000000
_symmetry_Int_Tables_number   1
_chemical_formula_structural   LiTiP2O7
_chemical_formula_sum   'Li4 Ti4 P8 O28'
_cell_volume   490.23262076
_cell_formula_units_Z   4
loop_
 _symmetry_equiv_pos_site_id
 _symmetry_equiv_pos_as_xyz
  1  'x, y, z'
loop_
 _atom_site_type_symbol
 _atom_site_label
 _atom_site_symmetry_multiplicity
 _atom_site_fract_x
 _atom_site_fract_y
 _atom_site_fract_z
 _atom_site_occupancy
  Li  Li0  1  0.12744250  0.94654844  0.83403434  1
  Li  Li1  1  0.37255750  0.44654844  0.66596566  1
  Li  Li2  1  0.62744250  0.55345156  0.33403434  1
  Li  Li3  1  0.87255750  0.05345156  0.16596566  1
  Ti  Ti4  1  0.12542555  0.57219489  0.88944114  1
  Ti  Ti5  1  0.37457445  0.07219489  0.61055886  1
  Ti  Ti6  1  0.62542555  0.92780511  0.38944114  1
  Ti  Ti7  1  0.87457445  0.42780511  0.11055886  1
  P  P8  1  0.06919092  0.73040808  0.53329336  1
  P  P9  1  0.43080908  0.23040808  0.96670664  1
  P  P10  1  0.18464556  0.73793572  0.24356136  1
  P  P11  1  0.31535444  0.23793572  0.25643864  1
  P  P12  1  0.68464556  0.76206428  0.74356136  1
  P  P13  1  0.81535444  0.26206428  0.75643864  1
  P  P14  1  0.56919092  0.76959192  0.03329336  1
  P  P15  1  0.93080908  0.26959192  0.46670664  1
  O  O16  1  0.13545628  0.59660984  0.65835134  1
  O  O17  1  0.17506907  0.89252237  0.59584937  1
  O  O18  1  0.33707975  0.75157561  0.95623449  1
  O  O19  1  0.16292025  0.25157561  0.54376551  1
  O  O20  1  0.32493093  0.39252237  0.90415063  1
  O  O21  1  0.14441724  0.66466859  0.39641445  1
  O  O22  1  0.36454372  0.09660984  0.84164866  1
  O  O23  1  0.08121028  0.24821758  0.19643013  1
  O  O24  1  0.07136422  0.89008063  0.18620612  1
  O  O25  1  0.10424886  0.59702196  0.11751233  1
  O  O26  1  0.64441724  0.83533141  0.89641445  1
  O  O27  1  0.39575114  0.09702196  0.38248767  1
  O  O28  1  0.58121028  0.25178242  0.69643013  1
  O  O29  1  0.57136422  0.60991937  0.68620612  1
  O  O30  1  0.42863578  0.39008063  0.31379388  1
  O  O31  1  0.41878972  0.74821758  0.30356987  1
  O  O32  1  0.60424886  0.90297804  0.61751233  1
  O  O33  1  0.35558276  0.16466859  0.10358555  1
  O  O34  1  0.89575114  0.40297804  0.88248767  1
  O  O35  1  0.92863578  0.10991937  0.81379388  1
  O  O36  1  0.91878972  0.75178242  0.80356987  1
  O  O37  1  0.63545628  0.90339016  0.15835134  1
  O  O38  1  0.85558276  0.33533141  0.60358555  1
  O  O39  1  0.67506907  0.60747763  0.09584937  1
  O  O40  1  0.83707975  0.74842439  0.45623449  1
  O  O41  1  0.66292025  0.24842439  0.04376551  1
  O  O42  1  0.82493093  0.10747763  0.40415063  1
  O  O43  1  0.86454372  0.40339016  0.34164866  1
