# generated using pymatgen
data_LiSiBiO4
_symmetry_space_group_name_H-M   'P 1'
_cell_length_a   21.12076364
_cell_length_b   8.94894774
_cell_length_c   5.96667898
_cell_angle_alpha   90.00000000
_cell_angle_beta   90.00000000
_cell_angle_gamma   90.00000000
_symmetry_Int_Tables_number   1
_chemical_formula_structural   LiSiBiO4
_chemical_formula_sum   'Li12 Si12 Bi12 O48'
_cell_volume   1127.75370058
_cell_formula_units_Z   12
loop_
 _symmetry_equiv_pos_site_id
 _symmetry_equiv_pos_as_xyz
  1  'x, y, z'
loop_
 _atom_site_type_symbol
 _atom_site_label
 _atom_site_symmetry_multiplicity
 _atom_site_fract_x
 _atom_site_fract_y
 _atom_site_fract_z
 _atom_site_occupancy
  Li  Li0  1  0.99462104  0.23900164  0.91847468  1
  Li  Li1  1  0.00537896  0.76099836  0.41847468  1
  Li  Li2  1  0.16990711  0.74516942  0.60862006  1
  Li  Li3  1  0.16212911  0.25860955  0.92986296  1
  Li  Li4  1  0.33787089  0.75860955  0.42986296  1
  Li  Li5  1  0.33009289  0.24516942  0.10862006  1
  Li  Li6  1  0.49462104  0.26099836  0.91847468  1
  Li  Li7  1  0.50537896  0.73900164  0.41847468  1
  Li  Li8  1  0.66990711  0.75483058  0.60862006  1
  Li  Li9  1  0.66212911  0.24139045  0.92986296  1
  Li  Li10  1  0.83787089  0.74139045  0.42986296  1
  Li  Li11  1  0.83009289  0.25483058  0.10862006  1
  Si  Si12  1  0.07905588  0.94057640  0.97690747  1
  Si  Si13  1  0.08671697  0.44475293  0.54092679  1
  Si  Si14  1  0.24833518  0.55314389  0.00926714  1
  Si  Si15  1  0.25166482  0.05314389  0.50926714  1
  Si  Si16  1  0.41328303  0.94475293  0.04092679  1
  Si  Si17  1  0.42094412  0.44057640  0.47690747  1
  Si  Si18  1  0.57905588  0.55942360  0.97690747  1
  Si  Si19  1  0.58671697  0.05524707  0.54092679  1
  Si  Si20  1  0.74833518  0.94685611  0.00926714  1
  Si  Si21  1  0.75166482  0.44685611  0.50926714  1
  Si  Si22  1  0.91328303  0.55524707  0.04092679  1
  Si  Si23  1  0.92094412  0.05942360  0.47690747  1
  Bi  Bi24  1  0.07687047  0.51483993  0.05725627  1
  Bi  Bi25  1  0.09360372  0.02241943  0.44704678  1
  Bi  Bi26  1  0.24133469  0.98110515  0.02873326  1
  Bi  Bi27  1  0.25866531  0.48110515  0.52873326  1
  Bi  Bi28  1  0.40639628  0.52241943  0.94704678  1
  Bi  Bi29  1  0.42312953  0.01483993  0.55725627  1
  Bi  Bi30  1  0.57687047  0.98516007  0.05725627  1
  Bi  Bi31  1  0.59360372  0.47758057  0.44704678  1
  Bi  Bi32  1  0.74133469  0.51889485  0.02873326  1
  Bi  Bi33  1  0.75866531  0.01889485  0.52873326  1
  Bi  Bi34  1  0.90639628  0.97758057  0.94704678  1
  Bi  Bi35  1  0.92312953  0.48516007  0.55725627  1
  O  O36  1  0.98728034  0.96749586  0.45888074  1
  O  O37  1  0.01271966  0.03250414  0.95888074  1
  O  O38  1  0.02770920  0.56529917  0.52927129  1
  O  O39  1  0.08116412  0.34457946  0.77590078  1
  O  O40  1  0.08033662  0.33798569  0.31442074  1
  O  O41  1  0.07821703  0.83093166  0.20465901  1
  O  O42  1  0.09833226  0.85515103  0.74390167  1
  O  O43  1  0.13475922  0.06479727  0.04732856  1
  O  O44  1  0.15266507  0.53955939  0.52984004  1
  O  O45  1  0.18257811  0.45999853  0.03739551  1
  O  O46  1  0.19690607  0.92752952  0.44276444  1
  O  O47  1  0.25329418  0.16448918  0.28437594  1
  O  O48  1  0.23137910  0.14421963  0.74016587  1
  O  O49  1  0.24670582  0.66448918  0.78437594  1
  O  O50  1  0.26862090  0.64421963  0.24016587  1
  O  O51  1  0.30309393  0.42752952  0.94276444  1
  O  O52  1  0.31742189  0.95999853  0.53739551  1
  O  O53  1  0.34733493  0.03955939  0.02984004  1
  O  O54  1  0.36524078  0.56479727  0.54732856  1
  O  O55  1  0.40166774  0.35515103  0.24390167  1
  O  O56  1  0.42178297  0.33093166  0.70465901  1
  O  O57  1  0.41966338  0.83798569  0.81442074  1
  O  O58  1  0.41883588  0.84457946  0.27590078  1
  O  O59  1  0.47229080  0.06529917  0.02927129  1
  O  O60  1  0.48728034  0.53250414  0.45888074  1
  O  O61  1  0.51271966  0.46749586  0.95888074  1
  O  O62  1  0.52770820  0.93470083  0.52927129  1
  O  O63  1  0.58116412  0.15542054  0.77590078  1
  O  O64  1  0.58033662  0.16201431  0.31442074  1
  O  O65  1  0.57821703  0.66906834  0.20465901  1
  O  O66  1  0.59833226  0.64484897  0.74390167  1
  O  O67  1  0.63475922  0.43520273  0.04732856  1
  O  O68  1  0.65266507  0.96044061  0.52984004  1
  O  O69  1  0.68257811  0.04000147  0.03739551  1
  O  O70  1  0.69690607  0.57247048  0.44276444  1
  O  O71  1  0.73137910  0.35578037  0.74016587  1
  O  O72  1  0.75329418  0.33551082  0.28437594  1
  O  O73  1  0.76862090  0.85578037  0.24016587  1
  O  O74  1  0.74670582  0.83551082  0.78437594  1
  O  O75  1  0.80309393  0.07247048  0.94276444  1
  O  O76  1  0.81742189  0.54000147  0.53739551  1
  O  O77  1  0.84733493  0.46044061  0.02984004  1
  O  O78  1  0.86524078  0.93520273  0.54732856  1
  O  O79  1  0.90166774  0.14484897  0.24390167  1
  O  O80  1  0.92178297  0.16906834  0.70465901  1
  O  O81  1  0.91966338  0.66201431  0.81442074  1
  O  O82  1  0.91883588  0.65542054  0.27590078  1
  O  O83  1  0.97229180  0.43470083  0.02927129  1
