# generated using pymatgen
data_Ti11H7O24
_symmetry_space_group_name_H-M   'P 1'
_cell_length_a   9.81478551
_cell_length_b   3.01129411
_cell_length_c   14.75625266
_cell_angle_alpha   90.00000000
_cell_angle_beta   90.45599309
_cell_angle_gamma   90.00000000
_symmetry_Int_Tables_number   1
_chemical_formula_structural   Ti11H7O24
_chemical_formula_sum   'Ti11 H7 O24'
_cell_volume   436.11027226
_cell_formula_units_Z   1
loop_
 _symmetry_equiv_pos_site_id
 _symmetry_equiv_pos_as_xyz
  1  'x, y, z'
loop_
 _atom_site_type_symbol
 _atom_site_label
 _atom_site_symmetry_multiplicity
 _atom_site_fract_x
 _atom_site_fract_y
 _atom_site_fract_z
 _atom_site_occupancy
  Ti  Ti0  1  0.14365488  0.25000000  0.66044446  1
  Ti  Ti1  1  0.14654377  0.25000000  0.98284705  1
  Ti  Ti2  1  0.34231818  0.75000000  0.16305177  1
  Ti  Ti3  1  0.33677840  0.75000000  0.48520887  1
  Ti  Ti4  1  0.36581951  0.75000000  0.82088462  1
  Ti  Ti5  1  0.65671607  0.25000000  0.17896120  1
  Ti  Ti6  1  0.63483430  0.25000000  0.50393071  1
  Ti  Ti7  1  0.63100639  0.25000000  0.84261560  1
  Ti  Ti8  1  0.85193557  0.75000000  0.67851812  1
  Ti  Ti9  1  0.85896324  0.75000000  0.00342442  1
  Ti  Ti10  1  0.87637931  0.75000000  0.34236126  1
  H  H11  1  0.99239739  0.25000000  0.14048935  1
  H  H12  1  0.06254109  0.25000000  0.41418363  1
  H  H13  1  0.52880551  0.75000000  0.30377826  1
  H  H14  1  0.53588736  0.75000000  0.64236680  1
  H  H15  1  0.47914307  0.25000000  0.03208252  1
  H  H16  1  0.96908611  0.75000000  0.18779487  1
  H  H17  1  0.02726793  0.75000000  0.52634715  1
  O  O18  1  0.03409416  0.75000000  0.93781262  1
  O  O19  1  0.00213460  0.75000000  0.25014886  1
  O  O20  1  0.03133943  0.75000000  0.59291003  1
  O  O21  1  0.22635343  0.75000000  0.05974422  1
  O  O22  1  0.21616489  0.75000000  0.73168519  1
  O  O23  1  0.19609584  0.75000000  0.41913225  1
  O  O24  1  0.28431450  0.25000000  0.22109657  1
  O  O25  1  0.27386579  0.25000000  0.57081574  1
  O  O26  1  0.28288034  0.25000000  0.89516387  1
  O  O27  1  0.45797884  0.25000000  0.43950704  1
  O  O28  1  0.47281281  0.25000000  0.09850807  1
  O  O29  1  0.46427036  0.25000000  0.76260808  1
  O  O30  1  0.53283243  0.75000000  0.23729484  1
  O  O31  1  0.53729657  0.75000000  0.90152874  1
  O  O32  1  0.53645534  0.75000000  0.57596754  1
  O  O33  1  0.73566099  0.75000000  0.11040751  1
  O  O34  1  0.70972367  0.75000000  0.44119284  1
  O  O35  1  0.71937496  0.75000000  0.77108540  1
  O  O36  1  0.76649628  0.25000000  0.28271532  1
  O  O37  1  0.77490319  0.25000000  0.94072765  1
  O  O38  1  0.76868576  0.25000000  0.60525864  1
  O  O39  1  0.95793922  0.25000000  0.72601399  1
  O  O40  1  0.97189687  0.25000000  0.07532528  1
  O  O41  1  0.96062563  0.25000000  0.41492706  1
