# generated using pymatgen
data_Sb6O5F8
_symmetry_space_group_name_H-M   'P 1'
_cell_length_a   6.34341345
_cell_length_b   34.43176020
_cell_length_c   5.89288276
_cell_angle_alpha   90.00000000
_cell_angle_beta   90.00000000
_cell_angle_gamma   88.00519264
_symmetry_Int_Tables_number   1
_chemical_formula_structural   Sb6O5F8
_chemical_formula_sum   'Sb24 O20 F32'
_cell_volume   1286.31334656
_cell_formula_units_Z   4
loop_
 _symmetry_equiv_pos_site_id
 _symmetry_equiv_pos_as_xyz
  1  'x, y, z'
loop_
 _atom_site_type_symbol
 _atom_site_label
 _atom_site_symmetry_multiplicity
 _atom_site_fract_x
 _atom_site_fract_y
 _atom_site_fract_z
 _atom_site_occupancy
  Sb  Sb0  1  0.28482970  0.98805683  0.74388257  1
  Sb  Sb1  1  0.28482970  0.48805683  0.75611743  1
  Sb  Sb2  1  0.27830042  0.25423057  0.32852053  1
  Sb  Sb3  1  0.27830042  0.75423057  0.17147947  1
  Sb  Sb4  1  0.30850948  0.66696885  0.85479538  1
  Sb  Sb5  1  0.30313684  0.33880033  0.69197842  1
  Sb  Sb6  1  0.30313684  0.83880033  0.80802158  1
  Sb  Sb7  1  0.30850948  0.16696885  0.64520462  1
  Sb  Sb8  1  0.32148927  0.08298336  0.31380035  1
  Sb  Sb9  1  0.25787778  0.41637645  0.33632467  1
  Sb  Sb10  1  0.32148927  0.58298336  0.18619965  1
  Sb  Sb11  1  0.25787778  0.91637645  0.16367533  1
  Sb  Sb12  1  0.74212222  0.08362355  0.83632467  1
  Sb  Sb13  1  0.67851073  0.91701664  0.68619965  1
  Sb  Sb14  1  0.67851073  0.41701664  0.81380035  1
  Sb  Sb15  1  0.74212222  0.58362355  0.66367533  1
  Sb  Sb16  1  0.69686316  0.16119967  0.19197842  1
  Sb  Sb17  1  0.69149052  0.83303115  0.35479538  1
  Sb  Sb18  1  0.69686316  0.66119967  0.30802158  1
  Sb  Sb19  1  0.69149052  0.33303115  0.14520462  1
  Sb  Sb20  1  0.72169958  0.74576943  0.67147947  1
  Sb  Sb21  1  0.72169958  0.24576943  0.82852053  1
  Sb  Sb22  1  0.71517030  0.51194317  0.24388257  1
  Sb  Sb23  1  0.71517030  0.01194317  0.25611743  1
  O  O24  1  0.53000715  0.28918637  0.00409891  1
  O  O25  1  0.53000715  0.78918637  0.49590109  1
  O  O26  1  0.50145950  0.86987236  0.56620650  1
  O  O27  1  0.53986173  0.63013429  0.53519631  1
  O  O28  1  0.50145950  0.36987236  0.93379350  1
  O  O29  1  0.53986173  0.13013429  0.96480369  1
  O  O30  1  0.56290993  0.55132027  0.46116127  1
  O  O31  1  0.49059206  0.95758312  0.52748173  1
  O  O32  1  0.56290993  0.05132027  0.03883873  1
  O  O33  1  0.49059206  0.45758212  0.97251827  1
  O  O34  1  0.50940794  0.54241688  0.02748173  1
  O  O35  1  0.43709007  0.44867973  0.53883873  1
  O  O36  1  0.50940794  0.04241688  0.47251827  1
  O  O37  1  0.43709007  0.94867973  0.96116127  1
  O  O38  1  0.46013827  0.86986571  0.03519631  1
  O  O39  1  0.49854050  0.63012764  0.06620650  1
  O  O40  1  0.46013827  0.36986571  0.46480369  1
  O  O41  1  0.49854050  0.13012764  0.43379350  1
  O  O42  1  0.46999285  0.21081363  0.50409891  1
  O  O43  1  0.46999285  0.71081363  0.99590109  1
  F  F44  1  0.95046161  0.03933189  0.40852565  1
  F  F45  1  0.05040020  0.46247603  0.44603637  1
  F  F46  1  0.95046161  0.53933189  0.09147435  1
  F  F47  1  0.05040020  0.96247603  0.05396363  1
  F  F48  1  0.18684623  0.09585383  0.62801004  1
  F  F49  1  0.10215471  0.39150127  0.62730285  1
  F  F50  1  0.18684623  0.59585383  0.87198996  1
  F  F51  1  0.10215471  0.89150127  0.87269715  1
  F  F52  1  0.11502603  0.17141020  0.36933937  1
  F  F53  1  0.14641689  0.31448526  0.34751908  1
  F  F54  1  0.14641689  0.81448526  0.15248092  1
  F  F55  1  0.11502603  0.67141020  0.13066063  1
  F  F56  1  0.11086248  0.25208677  0.62054802  1
  F  F57  1  0.11086248  0.75208677  0.87945198  1
  F  F58  1  0.50110322  0.71181374  0.49760482  1
  F  F59  1  0.50110322  0.21181374  0.00239518  1
  F  F60  1  0.49889678  0.28818626  0.50239518  1
  F  F61  1  0.49889678  0.78818626  0.99760482  1
  F  F62  1  0.88913752  0.74791323  0.37945198  1
  F  F63  1  0.88913752  0.24791323  0.12054802  1
  F  F64  1  0.85358311  0.18551474  0.84751908  1
  F  F65  1  0.88497397  0.82858980  0.63066063  1
  F  F66  1  0.88497397  0.32858980  0.86933937  1
  F  F67  1  0.85358311  0.68551474  0.65248092  1
  F  F68  1  0.89784529  0.60849873  0.37269715  1
  F  F69  1  0.81315377  0.90414617  0.37198996  1
  F  F70  1  0.89784529  0.10849873  0.12730285  1
  F  F71  1  0.81315377  0.40414617  0.12801004  1
  F  F72  1  0.94959980  0.03752397  0.94603637  1
  F  F73  1  0.04953839  0.46066811  0.90852565  1
  F  F74  1  0.94959980  0.53752397  0.55396363  1
  F  F75  1  0.04953839  0.96066811  0.59147435  1
