# generated using pymatgen
data_LiCuPO4
_symmetry_space_group_name_H-M   'P 1'
_cell_length_a   5.04862904
_cell_length_b   9.49259924
_cell_length_c   6.15167817
_cell_angle_alpha   90.00000000
_cell_angle_beta   90.00000000
_cell_angle_gamma   90.00000000
_symmetry_Int_Tables_number   1
_chemical_formula_structural   LiCuPO4
_chemical_formula_sum   'Li4 Cu4 P4 O16'
_cell_volume   294.81679060
_cell_formula_units_Z   4
loop_
 _symmetry_equiv_pos_site_id
 _symmetry_equiv_pos_as_xyz
  1  'x, y, z'
loop_
 _atom_site_type_symbol
 _atom_site_label
 _atom_site_symmetry_multiplicity
 _atom_site_fract_x
 _atom_site_fract_y
 _atom_site_fract_z
 _atom_site_occupancy
  Li  Li0  1  0.00000000  0.00000000  0.00000000  1
  Li  Li1  1  0.00000000  0.00000000  0.50000000  1
  Li  Li2  1  0.50000000  0.50000000  0.50000000  1
  Li  Li3  1  0.50000000  0.50000000  0.00000000  1
  Cu  Cu4  1  0.04901095  0.65548054  0.25000000  1
  Cu  Cu5  1  0.45098905  0.15548054  0.25000000  1
  Cu  Cu6  1  0.54901095  0.84451946  0.75000000  1
  Cu  Cu7  1  0.95098905  0.34451946  0.75000000  1
  P  P8  1  0.05074303  0.69003253  0.75000000  1
  P  P9  1  0.44925697  0.19003253  0.75000000  1
  P  P10  1  0.55074303  0.80996747  0.25000000  1
  P  P11  1  0.94925697  0.30996747  0.25000000  1
  O  O12  1  0.25473829  0.33308246  0.25000000  1
  O  O13  1  0.16909140  0.61502842  0.95288059  1
  O  O14  1  0.16909140  0.61502842  0.54711941  1
  O  O15  1  0.12810053  0.84938004  0.75000000  1
  O  O16  1  0.37189947  0.34938004  0.75000000  1
  O  O17  1  0.33090860  0.11502842  0.95288059  1
  O  O18  1  0.33090860  0.11502842  0.54711941  1
  O  O19  1  0.24526171  0.83308246  0.25000000  1
  O  O20  1  0.75473829  0.16691754  0.75000000  1
  O  O21  1  0.66909140  0.88497158  0.45288059  1
  O  O22  1  0.66909140  0.88497158  0.04711941  1
  O  O23  1  0.62810053  0.65061996  0.25000000  1
  O  O24  1  0.87189947  0.15061996  0.25000000  1
  O  O25  1  0.83090860  0.38497158  0.04711941  1
  O  O26  1  0.83090860  0.38497158  0.45288059  1
  O  O27  1  0.74526171  0.66691754  0.75000000  1
