# generated using pymatgen
data_LiBi(PO3)4
_symmetry_space_group_name_H-M   'P 1'
_cell_length_a   13.50592840
_cell_length_b   8.11394193
_cell_length_c   9.94378206
_cell_angle_alpha   90.00000000
_cell_angle_beta   90.00000000
_cell_angle_gamma   90.00000000
_symmetry_Int_Tables_number   1
_chemical_formula_structural   LiBi(PO3)4
_chemical_formula_sum   'Li4 Bi4 P16 O48'
_cell_volume   1089.70247039
_cell_formula_units_Z   4
loop_
 _symmetry_equiv_pos_site_id
 _symmetry_equiv_pos_as_xyz
  1  'x, y, z'
loop_
 _atom_site_type_symbol
 _atom_site_label
 _atom_site_symmetry_multiplicity
 _atom_site_fract_x
 _atom_site_fract_y
 _atom_site_fract_z
 _atom_site_occupancy
  Li  Li0  1  0.00000000  0.55830713  0.25000000  1
  Li  Li1  1  0.00000000  0.44169287  0.75000000  1
  Li  Li2  1  0.50000000  0.05830713  0.25000000  1
  Li  Li3  1  0.50000000  0.94169287  0.75000000  1
  Bi  Bi4  1  0.00000000  0.98691580  0.75000000  1
  Bi  Bi5  1  0.00000000  0.01308420  0.25000000  1
  Bi  Bi6  1  0.50000000  0.51308420  0.25000000  1
  Bi  Bi7  1  0.50000000  0.48691580  0.75000000  1
  P  P8  1  0.15083453  0.18503585  0.51595954  1
  P  P9  1  0.15083453  0.81496415  0.01595954  1
  P  P10  1  0.14262692  0.56186920  0.51054942  1
  P  P11  1  0.14262692  0.43813080  0.01054942  1
  P  P12  1  0.35737308  0.06186920  0.51054942  1
  P  P13  1  0.35737308  0.93813080  0.01054942  1
  P  P14  1  0.34916547  0.31496415  0.01595954  1
  P  P15  1  0.34916547  0.68503585  0.51595954  1
  P  P16  1  0.65083453  0.31496415  0.48404046  1
  P  P17  1  0.65083453  0.68503585  0.98404046  1
  P  P18  1  0.64262692  0.06186920  0.98945058  1
  P  P19  1  0.64262692  0.93813080  0.48945058  1
  P  P20  1  0.85737308  0.43813080  0.48945058  1
  P  P21  1  0.85737308  0.56186920  0.98945058  1
  P  P22  1  0.84916547  0.18503585  0.98404046  1
  P  P23  1  0.84916547  0.81496415  0.48404046  1
  O  O24  1  0.07178116  0.17811540  0.62730092  1
  O  O25  1  0.07178116  0.82188460  0.12730092  1
  O  O26  1  0.07047180  0.57526140  0.62354781  1
  O  O27  1  0.07047180  0.42473860  0.12354781  1
  O  O28  1  0.12458457  0.08963168  0.39020358  1
  O  O29  1  0.12458457  0.91036832  0.89020358  1
  O  O30  1  0.12665756  0.35767806  0.87869010  1
  O  O31  1  0.12665756  0.64232194  0.37869010  1
  O  O32  1  0.17196270  0.36851542  0.47893528  1
  O  O33  1  0.17196270  0.63148458  0.97893528  1
  O  O34  1  0.24972144  0.11550895  0.57875053  1
  O  O35  1  0.24972144  0.88449105  0.07875053  1
  O  O36  1  0.25027856  0.38449105  0.07875053  1
  O  O37  1  0.25027856  0.61550895  0.57875053  1
  O  O38  1  0.32803730  0.13148458  0.97893528  1
  O  O39  1  0.32803730  0.86851542  0.47893528  1
  O  O40  1  0.37334244  0.14232194  0.37869010  1
  O  O41  1  0.37334244  0.85767806  0.87869010  1
  O  O42  1  0.37541543  0.58963168  0.39020358  1
  O  O43  1  0.37541543  0.41036832  0.89020358  1
  O  O44  1  0.42952820  0.07526140  0.62354781  1
  O  O45  1  0.42952820  0.92473860  0.12354781  1
  O  O46  1  0.42821884  0.67811540  0.62730092  1
  O  O47  1  0.42821884  0.32188460  0.12730092  1
  O  O48  1  0.57178116  0.32188460  0.37269908  1
  O  O49  1  0.57178116  0.67811540  0.87269908  1
  O  O50  1  0.57047180  0.07526140  0.87645219  1
  O  O51  1  0.57047180  0.92473860  0.37645219  1
  O  O52  1  0.62458457  0.41036832  0.60979642  1
  O  O53  1  0.62458457  0.58963168  0.10979642  1
  O  O54  1  0.62665756  0.14232194  0.12130990  1
  O  O55  1  0.62665756  0.85767806  0.62130990  1
  O  O56  1  0.67196270  0.13148458  0.52106472  1
  O  O57  1  0.67196270  0.86851542  0.02106472  1
  O  O58  1  0.74972144  0.38449105  0.42124947  1
  O  O59  1  0.74972144  0.61550895  0.92124947  1
  O  O60  1  0.75027856  0.11550895  0.92124947  1
  O  O61  1  0.75027856  0.88449105  0.42124947  1
  O  O62  1  0.82803730  0.36851542  0.02106472  1
  O  O63  1  0.82803730  0.63148458  0.52106472  1
  O  O64  1  0.87334244  0.35767806  0.62130990  1
  O  O65  1  0.87334244  0.64232194  0.12130990  1
  O  O66  1  0.87541543  0.08963168  0.10979642  1
  O  O67  1  0.87541543  0.91036832  0.60979642  1
  O  O68  1  0.92952820  0.42473860  0.37645219  1
  O  O69  1  0.92952820  0.57526140  0.87645219  1
  O  O70  1  0.92821884  0.17811540  0.87269908  1
  O  O71  1  0.92821884  0.82188460  0.37269908  1
