# generated using pymatgen
data_Li3CuPO5
_symmetry_space_group_name_H-M   'P 1'
_cell_length_a   5.02822819
_cell_length_b   5.35379167
_cell_length_c   15.78701762
_cell_angle_alpha   90.00000000
_cell_angle_beta   90.00000000
_cell_angle_gamma   90.00000000
_symmetry_Int_Tables_number   1
_chemical_formula_structural   Li3CuPO5
_chemical_formula_sum   'Li12 Cu4 P4 O20'
_cell_volume   424.98787515
_cell_formula_units_Z   4
loop_
 _symmetry_equiv_pos_site_id
 _symmetry_equiv_pos_as_xyz
  1  'x, y, z'
loop_
 _atom_site_type_symbol
 _atom_site_label
 _atom_site_symmetry_multiplicity
 _atom_site_fract_x
 _atom_site_fract_y
 _atom_site_fract_z
 _atom_site_occupancy
  Li  Li0  1  0.00165390  0.66332308  0.59625855  1
  Li  Li1  1  0.00165390  0.16332308  0.90374145  1
  Li  Li2  1  0.50087819  0.32963272  0.99800679  1
  Li  Li3  1  0.50087819  0.82963272  0.50199321  1
  Li  Li4  1  0.49749015  0.33332749  0.80029177  1
  Li  Li5  1  0.49749015  0.83332749  0.69970823  1
  Li  Li6  1  0.50165390  0.33667692  0.40374145  1
  Li  Li7  1  0.50165390  0.83667692  0.09625855  1
  Li  Li8  1  0.00087819  0.67036728  0.00199321  1
  Li  Li9  1  0.00087819  0.17036728  0.49800679  1
  Li  Li10  1  0.99749015  0.16667251  0.30029177  1
  Li  Li11  1  0.99749015  0.66667251  0.19970823  1
  Cu  Cu12  1  0.00854207  0.16566425  0.70612661  1
  Cu  Cu13  1  0.00854207  0.66566425  0.79387339  1
  Cu  Cu14  1  0.50854107  0.33433575  0.20612661  1
  Cu  Cu15  1  0.50854107  0.83433575  0.29387339  1
  P  P16  1  0.99720120  0.16401445  0.09784473  1
  P  P17  1  0.99720120  0.66401445  0.40215527  1
  P  P18  1  0.49720120  0.33598555  0.59784473  1
  P  P19  1  0.49720120  0.83598555  0.90215527  1
  O  O20  1  0.10880601  0.33579361  0.80361693  1
  O  O21  1  0.10880601  0.83579361  0.69638307  1
  O  O22  1  0.09985461  0.39083746  0.40118884  1
  O  O23  1  0.09985461  0.89083746  0.09881116  1
  O  O24  1  0.10324585  0.30877241  0.01886715  1
  O  O25  1  0.10324585  0.80877241  0.48113285  1
  O  O26  1  0.09179733  0.29926043  0.18071187  1
  O  O27  1  0.09179733  0.79926043  0.31928813  1
  O  O28  1  0.18553070  0.33225514  0.59560724  1
  O  O29  1  0.18553070  0.83225514  0.90439276  1
  O  O30  1  0.60880601  0.16420639  0.30361693  1
  O  O31  1  0.60880601  0.66420639  0.19638307  1
  O  O32  1  0.59985461  0.60916254  0.59881116  1
  O  O33  1  0.59985461  0.10916254  0.90118884  1
  O  O34  1  0.60324585  0.19122759  0.51886715  1
  O  O35  1  0.60324585  0.69122759  0.98113285  1
  O  O36  1  0.59179733  0.20073957  0.68071187  1
  O  O37  1  0.59179733  0.70073957  0.81928813  1
  O  O38  1  0.68553070  0.16774486  0.09560724  1
  O  O39  1  0.68553070  0.66774486  0.40439276  1
