# generated using pymatgen
data_Li3Ti2(PO4)3
_symmetry_space_group_name_H-M   'P 1'
_cell_length_a   8.90800795
_cell_length_b   8.90800795
_cell_length_c   8.69363818
_cell_angle_alpha   57.50244205
_cell_angle_beta   122.49755795
_cell_angle_gamma   119.81667485
_symmetry_Int_Tables_number   1
_chemical_formula_structural   Li3Ti2(PO4)3
_chemical_formula_sum   'Li6 Ti4 P6 O24'
_cell_volume   469.16375345
_cell_formula_units_Z   2
loop_
 _symmetry_equiv_pos_site_id
 _symmetry_equiv_pos_as_xyz
  1  'x, y, z'
loop_
 _atom_site_type_symbol
 _atom_site_label
 _atom_site_symmetry_multiplicity
 _atom_site_fract_x
 _atom_site_fract_y
 _atom_site_fract_z
 _atom_site_occupancy
  Li  Li0  1  0.25806409  0.86887012  0.72831921  1
  Li  Li1  1  0.13112988  0.74193591  0.22831921  1
  Li  Li2  1  0.00000000  0.50000000  0.00000000  1
  Li  Li3  1  0.86887012  0.25806409  0.77168079  1
  Li  Li4  1  0.50000000  0.00000000  0.50000000  1
  Li  Li5  1  0.74193591  0.13112988  0.27168079  1
  Ti  Ti6  1  0.64016002  0.85475146  0.93132397  1
  Ti  Ti7  1  0.14524854  0.35983998  0.43132397  1
  Ti  Ti8  1  0.85475146  0.64016002  0.56867603  1
  Ti  Ti9  1  0.35983998  0.14524854  0.06867603  1
  P  P10  1  0.25089853  0.55251197  0.73737669  1
  P  P11  1  0.94900520  0.94900520  0.75000000  1
  P  P12  1  0.44748803  0.74910147  0.23737669  1
  P  P13  1  0.55251197  0.25089853  0.76262331  1
  P  P14  1  0.05099480  0.05099480  0.25000000  1
  P  P15  1  0.74910147  0.44748803  0.26262331  1
  O  O16  1  0.11361296  0.97982759  0.93887565  1
  O  O17  1  0.02017241  0.88638704  0.43887565  1
  O  O18  1  0.08905992  0.54743477  0.76748064  1
  O  O19  1  0.39496740  0.74791080  0.72771744  1
  O  O20  1  0.18698395  0.53625562  0.54232272  1
  O  O21  1  0.32301515  0.38960504  0.91201757  1
  O  O22  1  0.76481143  0.94130656  0.73833050  1
  O  O23  1  0.45256523  0.91094008  0.26748064  1
  O  O24  1  0.25208920  0.60503260  0.22771744  1
  O  O25  1  0.46374438  0.81301605  0.04232272  1
  O  O26  1  0.94130656  0.76481143  0.76166950  1
  O  O27  1  0.61039496  0.67698485  0.41201757  1
  O  O28  1  0.38960504  0.32301515  0.58798243  1
  O  O29  1  0.05869344  0.23518857  0.23833050  1
  O  O30  1  0.53625562  0.18698395  0.95767728  1
  O  O31  1  0.74791080  0.39496740  0.77228256  1
  O  O32  1  0.54743477  0.08905992  0.73251936  1
  O  O33  1  0.23518857  0.05869344  0.26166950  1
  O  O34  1  0.67698485  0.61039496  0.08798243  1
  O  O35  1  0.81301605  0.46374438  0.45767728  1
  O  O36  1  0.60503260  0.25208920  0.27228256  1
  O  O37  1  0.91094008  0.45256523  0.23251936  1
  O  O38  1  0.97982759  0.11361296  0.56112435  1
  O  O39  1  0.88638704  0.02017241  0.06112435  1
