# generated using pymatgen
data_Sb3Pd8
_symmetry_space_group_name_H-M   'P 1'
_cell_length_a   15.67567393
_cell_length_b   15.67567464
_cell_length_c   15.67567448
_cell_angle_alpha   28.82334757
_cell_angle_beta   28.82334224
_cell_angle_gamma   28.82334566
_symmetry_Int_Tables_number   1
_chemical_formula_structural   Sb3Pd8
_chemical_formula_sum   'Sb12 Pd32'
_cell_volume   791.69055477
_cell_formula_units_Z   4
loop_
 _symmetry_equiv_pos_site_id
 _symmetry_equiv_pos_as_xyz
  1  'x, y, z'
loop_
 _atom_site_type_symbol
 _atom_site_label
 _atom_site_symmetry_multiplicity
 _atom_site_fract_x
 _atom_site_fract_y
 _atom_site_fract_z
 _atom_site_occupancy
  Sb  Sb0  1  0.06865767  0.06865767  0.06865767  1
  Sb  Sb1  1  0.56865767  0.56865767  0.56865767  1
  Sb  Sb2  1  0.42290266  0.42290266  0.42290266  1
  Sb  Sb3  1  0.92290266  0.92290266  0.92290266  1
  Sb  Sb4  1  0.79230418  0.79230418  0.79230418  1
  Sb  Sb5  1  0.29230418  0.29230418  0.29230418  1
  Sb  Sb6  1  0.82284628  0.41113276  0.20336591  1
  Sb  Sb7  1  0.20336591  0.82284628  0.41113276  1
  Sb  Sb8  1  0.41113276  0.20336591  0.82284628  1
  Sb  Sb9  1  0.91113276  0.32284628  0.70336591  1
  Sb  Sb10  1  0.70336591  0.91113276  0.32284628  1
  Sb  Sb11  1  0.32284628  0.70336591  0.91113276  1
  Pd  Pd12  1  0.61125874  0.32611352  0.05435118  1
  Pd  Pd13  1  0.05435118  0.61125874  0.32611352  1
  Pd  Pd14  1  0.32611352  0.05435118  0.61125874  1
  Pd  Pd15  1  0.82611352  0.11125774  0.55435118  1
  Pd  Pd16  1  0.55435118  0.82611352  0.11125774  1
  Pd  Pd17  1  0.11125774  0.55435118  0.82611352  1
  Pd  Pd18  1  0.00856030  0.00856030  0.00856030  1
  Pd  Pd19  1  0.50856030  0.50856030  0.50856030  1
  Pd  Pd20  1  0.67662458  0.67662458  0.67662458  1
  Pd  Pd21  1  0.17662458  0.17662458  0.17662458  1
  Pd  Pd22  1  0.37499722  0.72617876  0.01511282  1
  Pd  Pd23  1  0.01511282  0.37499722  0.72617876  1
  Pd  Pd24  1  0.72617876  0.01511282  0.37499722  1
  Pd  Pd25  1  0.22617876  0.87499722  0.51511282  1
  Pd  Pd26  1  0.51511282  0.22617876  0.87499722  1
  Pd  Pd27  1  0.87499722  0.51511282  0.22617876  1
  Pd  Pd28  1  0.71296695  0.39490947  0.08605662  1
  Pd  Pd29  1  0.08605662  0.71296696  0.39490947  1
  Pd  Pd30  1  0.39490947  0.08605662  0.71296696  1
  Pd  Pd31  1  0.89490947  0.21296696  0.58605662  1
  Pd  Pd32  1  0.58605662  0.89490947  0.21296695  1
  Pd  Pd33  1  0.21296696  0.58605662  0.89490947  1
  Pd  Pd34  1  0.36573983  0.36573983  0.36573983  1
  Pd  Pd35  1  0.86573983  0.86573983  0.86573983  1
  Pd  Pd36  1  0.73662412  0.73662412  0.73662412  1
  Pd  Pd37  1  0.23662412  0.23662412  0.23662412  1
  Pd  Pd38  1  0.41280807  0.79799400  0.09519636  1
  Pd  Pd39  1  0.09519636  0.41280807  0.79799400  1
  Pd  Pd40  1  0.79799400  0.09519636  0.41280807  1
  Pd  Pd41  1  0.29799400  0.91280807  0.59519636  1
  Pd  Pd42  1  0.59519636  0.29799400  0.91280807  1
  Pd  Pd43  1  0.91280807  0.59519636  0.29799400  1
