# generated using pymatgen
data_Li2Cu(PO3)4
_symmetry_space_group_name_H-M   'P 1'
_cell_length_a   7.71606120
_cell_length_b   12.76625962
_cell_length_c   10.53207069
_cell_angle_alpha   90.00000000
_cell_angle_beta   103.71501046
_cell_angle_gamma   90.00000000
_symmetry_Int_Tables_number   1
_chemical_formula_structural   Li2Cu(PO3)4
_chemical_formula_sum   'Li8 Cu4 P16 O48'
_cell_volume   1007.88298235
_cell_formula_units_Z   4
loop_
 _symmetry_equiv_pos_site_id
 _symmetry_equiv_pos_as_xyz
  1  'x, y, z'
loop_
 _atom_site_type_symbol
 _atom_site_label
 _atom_site_symmetry_multiplicity
 _atom_site_fract_x
 _atom_site_fract_y
 _atom_site_fract_z
 _atom_site_occupancy
  Li  Li0  1  0.15009293  0.06286243  0.59445838  1
  Li  Li1  1  0.12532481  0.71068515  0.11843162  1
  Li  Li2  1  0.34990707  0.56286243  0.90554162  1
  Li  Li3  1  0.37467519  0.21068515  0.38156838  1
  Li  Li4  1  0.62532481  0.78931485  0.61843162  1
  Li  Li5  1  0.65009293  0.43713757  0.09445838  1
  Li  Li6  1  0.87467519  0.28931485  0.88156838  1
  Li  Li7  1  0.84990707  0.93713757  0.40554162  1
  Cu  Cu8  1  0.23835201  0.14634063  0.98781480  1
  Cu  Cu9  1  0.26164799  0.64634063  0.51218520  1
  Cu  Cu10  1  0.73835201  0.35365937  0.48781480  1
  Cu  Cu11  1  0.76164799  0.85365937  0.01218520  1
  P  P12  1  0.07791576  0.81249888  0.68037047  1
  P  P13  1  0.15773682  0.41674534  0.60860732  1
  P  P14  1  0.06229048  0.33556778  0.15389362  1
  P  P15  1  0.34226318  0.91674534  0.89139268  1
  P  P16  1  0.19896606  0.93912593  0.12889575  1
  P  P17  1  0.42208424  0.31249888  0.81962953  1
  P  P18  1  0.30103394  0.43912593  0.37110425  1
  P  P19  1  0.43770952  0.83556778  0.34610638  1
  P  P20  1  0.56229048  0.16443222  0.65389362  1
  P  P21  1  0.69896606  0.56087407  0.62889575  1
  P  P22  1  0.57791576  0.68750112  0.18037047  1
  P  P23  1  0.80103394  0.06087407  0.87110425  1
  P  P24  1  0.65773682  0.08325466  0.10860732  1
  P  P25  1  0.93770952  0.66443222  0.84610638  1
  P  P26  1  0.84226318  0.58325466  0.39139268  1
  P  P27  1  0.92208424  0.18750112  0.31962953  1
  O  O28  1  0.12653993  0.63496706  0.91136208  1
  O  O29  1  0.98944418  0.36365843  0.62214097  1
  O  O30  1  0.00226423  0.90492238  0.59602057  1
  O  O31  1  0.17363468  0.84600763  0.82516304  1
  O  O32  1  0.08460825  0.25115209  0.27767068  1
  O  O33  1  0.06024519  0.85598488  0.12902953  1
  O  O34  1  0.20004882  0.52769883  0.65119918  1
  O  O35  1  0.20288097  0.73869967  0.63758569  1
  O  O36  1  0.29711903  0.23869967  0.86241431  1
  O  O37  1  0.29995118  0.02769883  0.84880082  1
  O  O38  1  0.17073019  0.40104599  0.45986828  1
  O  O39  1  0.32636532  0.34600763  0.67483696  1
  O  O40  1  0.14285433  0.05120609  0.10019531  1
  O  O41  1  0.16034358  0.43753884  0.23000636  1
  O  O42  1  0.32913115  0.79222034  0.43418994  1
  O  O43  1  0.17086885  0.29222034  0.06581006  1
  O  O44  1  0.33965642  0.93753884  0.26999364  1
  O  O45  1  0.49773577  0.40492238  0.90397943  1
  O  O46  1  0.51055582  0.86365843  0.87785903  1
  O  O47  1  0.35714567  0.55120609  0.39980469  1
  O  O48  1  0.37346007  0.13496706  0.58863792  1
  O  O49  1  0.32926981  0.90104599  0.04013172  1
  O  O50  1  0.58460825  0.24884791  0.77767068  1
  O  O51  1  0.56024519  0.64401512  0.62902953  1
  O  O52  1  0.43975481  0.35598488  0.37097047  1
  O  O53  1  0.41539175  0.75115209  0.22232932  1
  O  O54  1  0.67073019  0.09895401  0.95986828  1
  O  O55  1  0.62653993  0.86503294  0.41136208  1
  O  O56  1  0.64285433  0.44879391  0.60019531  1
  O  O57  1  0.48944418  0.13634157  0.12214097  1
  O  O58  1  0.50226423  0.59507762  0.09602057  1
  O  O59  1  0.66034358  0.06246116  0.73000636  1
  O  O60  1  0.82913115  0.70777966  0.93418994  1
  O  O61  1  0.67086885  0.20777966  0.56581006  1
  O  O62  1  0.83965642  0.56246116  0.76999364  1
  O  O63  1  0.85714567  0.94879391  0.89980469  1
  O  O64  1  0.67363468  0.65399237  0.32516304  1
  O  O65  1  0.82926981  0.59895401  0.54013172  1
  O  O66  1  0.70004882  0.97230117  0.15119918  1
  O  O67  1  0.70288097  0.76130033  0.13758569  1
  O  O68  1  0.79711903  0.26130033  0.36241431  1
  O  O69  1  0.79995118  0.47230117  0.34880082  1
  O  O70  1  0.93975481  0.14401512  0.87097047  1
  O  O71  1  0.91539175  0.74884791  0.72232932  1
  O  O72  1  0.82636532  0.15399237  0.17483696  1
  O  O73  1  0.99773577  0.09507762  0.40397943  1
  O  O74  1  0.01055582  0.63634157  0.37785903  1
  O  O75  1  0.87346007  0.36503294  0.08863792  1
