# generated using pymatgen
data_LiSbP2O7
_symmetry_space_group_name_H-M   'P 1'
_cell_length_a   6.90735772
_cell_length_b   10.25891366
_cell_length_c   8.71579411
_cell_angle_alpha   90.00000000
_cell_angle_beta   112.67512339
_cell_angle_gamma   90.00000000
_symmetry_Int_Tables_number   1
_chemical_formula_structural   LiSbP2O7
_chemical_formula_sum   'Li4 Sb4 P8 O28'
_cell_volume   569.88000601
_cell_formula_units_Z   4
loop_
 _symmetry_equiv_pos_site_id
 _symmetry_equiv_pos_as_xyz
  1  'x, y, z'
loop_
 _atom_site_type_symbol
 _atom_site_label
 _atom_site_symmetry_multiplicity
 _atom_site_fract_x
 _atom_site_fract_y
 _atom_site_fract_z
 _atom_site_occupancy
  Li  Li0  1  0.25080054  0.91529604  0.74277283  1
  Li  Li1  1  0.25080054  0.58470396  0.24277283  1
  Li  Li2  1  0.74919946  0.41529604  0.75722717  1
  Li  Li3  1  0.74919946  0.08470396  0.25722717  1
  Sb  Sb4  1  0.37982366  0.28963150  0.88234351  1
  Sb  Sb5  1  0.37982366  0.21036850  0.38234351  1
  Sb  Sb6  1  0.62017634  0.78963150  0.61765649  1
  Sb  Sb7  1  0.62017634  0.71036850  0.11765649  1
  P  P8  1  0.03083110  0.66579782  0.79732407  1
  P  P9  1  0.03083110  0.83420218  0.29732407  1
  P  P10  1  0.34857497  0.59709492  0.67066555  1
  P  P11  1  0.34857497  0.90290508  0.17066555  1
  P  P12  1  0.65142503  0.09709492  0.82933445  1
  P  P13  1  0.65142503  0.40290508  0.32933445  1
  P  P14  1  0.96916890  0.16579782  0.70267593  1
  P  P15  1  0.96916890  0.33420218  0.20267593  1
  O  O16  1  0.98184900  0.81305220  0.75511539  1
  O  O17  1  0.19075237  0.62770872  0.96432093  1
  O  O18  1  0.19144246  0.10567255  0.75504260  1
  O  O19  1  0.11097643  0.61155400  0.65265127  1
  O  O20  1  0.98184900  0.68694780  0.25511539  1
  O  O21  1  0.19075237  0.87229128  0.46432093  1
  O  O22  1  0.37250862  0.89223519  0.00593206  1
  O  O23  1  0.19144246  0.39432745  0.25504260  1
  O  O24  1  0.11097643  0.88844600  0.15265127  1
  O  O25  1  0.46478782  0.72334187  0.77115204  1
  O  O26  1  0.37250862  0.60776481  0.50593206  1
  O  O27  1  0.43833008  0.47188798  0.76902793  1
  O  O28  1  0.56166992  0.97188798  0.73097207  1
  O  O29  1  0.53521218  0.22334187  0.72884796  1
  O  O30  1  0.46478782  0.77665813  0.27115204  1
  O  O31  1  0.43833008  0.02811202  0.26902793  1
  O  O32  1  0.56166992  0.52811202  0.23097207  1
  O  O33  1  0.62749138  0.39223519  0.49406794  1
  O  O34  1  0.53521218  0.27665813  0.22884796  1
  O  O35  1  0.88902357  0.11155400  0.84734873  1
  O  O36  1  0.80855754  0.60567255  0.74495740  1
  O  O37  1  0.62749138  0.10776481  0.99406794  1
  O  O38  1  0.80924763  0.12770872  0.53567907  1
  O  O39  1  0.01815100  0.31305220  0.74488461  1
  O  O40  1  0.88902357  0.38844600  0.34734873  1
  O  O41  1  0.80855754  0.89432745  0.24495740  1
  O  O42  1  0.80924763  0.37229128  0.03567907  1
  O  O43  1  0.01815100  0.18694780  0.24488461  1
