# generated using pymatgen
data_Sr2U4O11
_symmetry_space_group_name_H-M   'P 1'
_cell_length_a   3.84898809
_cell_length_b   6.82425175
_cell_length_c   10.24959147
_cell_angle_alpha   70.26656925
_cell_angle_beta   79.16415494
_cell_angle_gamma   89.89213572
_symmetry_Int_Tables_number   1
_chemical_formula_structural   Sr2U4O11
_chemical_formula_sum   'Sr2 U4 O11'
_cell_volume   248.33885195
_cell_formula_units_Z   1
loop_
 _symmetry_equiv_pos_site_id
 _symmetry_equiv_pos_as_xyz
  1  'x, y, z'
loop_
 _atom_site_type_symbol
 _atom_site_label
 _atom_site_symmetry_multiplicity
 _atom_site_fract_x
 _atom_site_fract_y
 _atom_site_fract_z
 _atom_site_occupancy
  Sr  Sr0  1  0.83661537  0.17535134  0.32840423  1
  Sr  Sr1  1  0.16261011  0.83246837  0.67939096  1
  U  U2  1  -0.00140277  0.00039272  0.00359328  1
  U  U3  1  0.50201188  0.49324345  0.99796971  1
  U  U4  1  0.67171423  0.33048898  0.66481337  1
  U  U5  1  0.33657027  0.64411892  0.32688271  1
  O  O6  1  0.12092053  0.15272171  0.76335341  1
  O  O7  1  0.70698477  0.07734403  0.58837553  1
  O  O8  1  0.38684351  0.38951579  0.23316270  1
  O  O9  1  0.97247050  0.29259051  0.06253817  1
  O  O10  1  0.53856730  0.18399464  0.92887505  1
  O  O11  1  0.22115217  0.54989777  0.56030256  1
  O  O12  1  0.79736274  0.47345589  0.40862495  1
  O  O13  1  0.45391184  0.79522406  0.08783026  1
  O  O14  1  0.03051514  0.70447120  0.93721297  1
  O  O15  1  0.61776725  0.57750884  0.76719212  1
  O  O16  1  0.86832614  0.86374477  0.25625302  1
