# generated using pymatgen
data_Cu4OF6
_symmetry_space_group_name_H-M   'P 1'
_cell_length_a   7.66232817
_cell_length_b   7.30063194
_cell_length_c   5.51738207
_cell_angle_alpha   85.57278805
_cell_angle_beta   99.14046497
_cell_angle_gamma   121.52698683
_symmetry_Int_Tables_number   1
_chemical_formula_structural   Cu4OF6
_chemical_formula_sum   'Cu8 O2 F12'
_cell_volume   259.73711375
_cell_formula_units_Z   2
loop_
 _symmetry_equiv_pos_site_id
 _symmetry_equiv_pos_as_xyz
  1  'x, y, z'
loop_
 _atom_site_type_symbol
 _atom_site_label
 _atom_site_symmetry_multiplicity
 _atom_site_fract_x
 _atom_site_fract_y
 _atom_site_fract_z
 _atom_site_occupancy
  Cu  Cu0  1  0.13958896  0.73914760  0.50799759  1
  Cu  Cu1  1  0.13775560  0.36025695  0.53012864  1
  Cu  Cu2  1  0.30806443  0.68302714  0.99034202  1
  Cu  Cu3  1  0.60374676  0.85891973  0.56283549  1
  Cu  Cu4  1  0.39351938  0.23688505  0.00614176  1
  Cu  Cu5  1  0.76440586  0.63552510  0.03008359  1
  Cu  Cu6  1  0.62428736  0.32390836  0.48665586  1
  Cu  Cu7  1  0.74780259  0.14127741  0.06493788  1
  O  O8  1  0.33011021  0.65665703  0.65388842  1
  O  O9  1  0.67189730  0.34098312  0.15207638  1
  F  F10  1  0.16260162  0.83289963  0.86306027  1
  F  F11  1  0.09171369  0.49649381  0.22823100  1
  F  F12  1  0.15567693  0.22549824  0.83350022  1
  F  F13  1  0.45903285  0.90617815  0.26874821  1
  F  F14  1  0.47221907  0.57241244  0.15085093  1
  F  F15  1  0.32832655  0.17767029  0.36000765  1
  F  F16  1  0.76805092  0.90834524  0.89706882  1
  F  F17  1  0.59363926  0.50460496  0.72367264  1
  F  F18  1  0.55783099  0.09901299  0.76607143  1
  F  F19  1  0.92903762  0.77391229  0.32773009  1
  F  F20  1  0.90106621  0.43558089  0.64335675  1
  F  F21  1  0.85962383  0.09050557  0.39953437  1
