# generated using pymatgen
data_Li3Cr2(PO4)3
_symmetry_space_group_name_H-M   'P 1'
_cell_length_a   9.07739427
_cell_length_b   9.08252382
_cell_length_c   15.02407458
_cell_angle_alpha   81.51660626
_cell_angle_beta   82.01800068
_cell_angle_gamma   121.85816185
_symmetry_Int_Tables_number   1
_chemical_formula_structural   Li3Cr2(PO4)3
_chemical_formula_sum   'Li12 Cr8 P12 O48'
_cell_volume   1005.33680414
_cell_formula_units_Z   4
loop_
 _symmetry_equiv_pos_site_id
 _symmetry_equiv_pos_as_xyz
  1  'x, y, z'
loop_
 _atom_site_type_symbol
 _atom_site_label
 _atom_site_symmetry_multiplicity
 _atom_site_fract_x
 _atom_site_fract_y
 _atom_site_fract_z
 _atom_site_occupancy
  Li  Li0  1  0.17932837  0.74992221  0.34758617  1
  Li  Li1  1  0.97250701  0.25276124  0.94185387  1
  Li  Li2  1  0.10206271  0.35425985  0.25070692  1
  Li  Li3  1  0.69227543  0.91456398  0.55695143  1
  Li  Li4  1  0.59709784  0.52379230  0.15067899  1
  Li  Li5  1  0.50011073  0.49520345  0.49946638  1
  Li  Li6  1  0.39744380  0.47196669  0.84873040  1
  Li  Li7  1  0.30773503  0.08775277  0.44226786  1
  Li  Li8  1  0.89801372  0.65327159  0.75155930  1
  Li  Li9  1  0.02799427  0.74798584  0.05839004  1
  Li  Li10  1  0.82692608  0.25562870  0.65091888  1
  Li  Li11  1  0.49610336  0.00295770  0.99887860  1
  Cr  Cr12  1  0.25964798  0.71583353  0.52940369  1
  Cr  Cr13  1  0.32828730  0.80854494  0.83460995  1
  Cr  Cr14  1  0.14544532  0.16457921  0.66479487  1
  Cr  Cr15  1  0.74627802  0.79156422  0.96975318  1
  Cr  Cr16  1  0.25204762  0.20900510  0.03109880  1
  Cr  Cr17  1  0.85477343  0.83403976  0.33562370  1
  Cr  Cr18  1  0.66890482  0.18993354  0.16488580  1
  Cr  Cr19  1  0.74047584  0.28314167  0.46931059  1
  P  P20  1  0.60443833  0.96187546  0.37211828  1
  P  P21  1  0.28079464  0.56354818  0.68848453  1
  P  P22  1  0.31117287  0.59409849  0.02945102  1
  P  P23  1  0.12499892  0.34185296  0.47015212  1
  P  P24  1  0.75510075  0.97292187  0.80987656  1
  P  P25  1  0.83322344  0.97534920  0.12752887  1
  P  P26  1  0.16415732  0.02194027  0.87345125  1
  P  P27  1  0.24587967  0.02846046  0.19035220  1
  P  P28  1  0.87504897  0.65697039  0.52978794  1
  P  P29  1  0.68758098  0.40600693  0.97075653  1
  P  P30  1  0.71797388  0.43460937  0.31061037  1
  P  P31  1  0.39620687  0.03722227  0.62623428  1
  O  O32  1  0.11138733  0.90912188  0.28773730  1
  O  O33  1  0.17554248  0.95335749  0.10677710  1
  O  O34  1  0.32251978  0.00195253  0.87372020  1
  O  O35  1  0.30402530  0.94599993  0.55246049  1
  O  O36  1  0.05990360  0.69496391  0.47966700  1
  O  O37  1  0.29739778  0.88738585  0.71715405  1
  O  O38  1  0.39999061  0.88055406  0.39772414  1
  O  O39  1  0.11316208  0.54364632  0.66095597  1
  O  O40  1  0.23077653  0.67838696  0.96970338  1
  O  O41  1  0.58755136  0.97261315  0.80165428  1
  O  O42  1  0.20036314  0.51025100  0.12939395  1
  O  O43  1  0.30053610  0.59907562  0.78638047  1
  O  O44  1  0.27387142  0.52616436  0.48204535  1
  O  O45  1  0.43967294  0.71879894  0.60553657  1
  O  O46  1  0.50761245  0.75521333  0.01690759  1
  O  O47  1  0.62385887  0.80332978  0.37309825  1
  O  O48  1  0.14264596  0.32941436  0.37052623  1
  O  O49  1  0.99830834  0.14037966  0.05302385  1
  O  O50  1  0.28137362  0.39283069  0.69473107  1
  O  O51  1  0.32277973  0.45829502  0.98026361  1
  O  O52  1  0.89586542  0.98127308  0.21717979  1
  O  O53  1  0.14846300  0.20167957  0.53061803  1
  O  O54  1  0.77501445  0.79576096  0.10238788  1
  O  O55  1  0.71361528  0.77997881  0.83687016  1
  O  O56  1  0.29345779  0.22366212  0.16268132  1
  O  O57  1  0.21897666  0.20026748  0.89920966  1
  O  O58  1  0.84897727  0.79649149  0.47073705  1
  O  O59  1  0.10455580  0.01648687  0.78290335  1
  O  O60  1  0.67525805  0.54186674  0.01927855  1
  O  O61  1  0.71839127  0.60550066  0.30565444  1
  O  O62  1  0.99905088  0.85535197  0.94713776  1
  O  O63  1  0.85893421  0.66668603  0.62990745  1
  O  O64  1  0.37688845  0.19609205  0.62499267  1
  O  O65  1  0.49051990  0.24496859  0.98367333  1
  O  O66  1  0.55995053  0.27939795  0.39408569  1
  O  O67  1  0.72655535  0.47281607  0.51709022  1
  O  O68  1  0.69519695  0.39866400  0.21319829  1
  O  O69  1  0.79952587  0.48847856  0.87104026  1
  O  O70  1  0.41020728  0.02209904  0.19796718  1
  O  O71  1  0.76662718  0.32061302  0.03068692  1
  O  O72  1  0.88604555  0.45332696  0.33696594  1
  O  O73  1  0.60048748  0.11728418  0.60115818  1
  O  O74  1  0.70105184  0.11194856  0.28151286  1
  O  O75  1  0.94066826  0.30620686  0.51879842  1
  O  O76  1  0.69855833  0.05458597  0.44507121  1
  O  O77  1  0.67643573  0.99733159  0.12709063  1
  O  O78  1  0.82233084  0.04810941  0.89392821  1
  O  O79  1  0.89065564  0.09485346  0.71301932  1
