# generated using pymatgen
data_Li3Fe(PO4)2
_symmetry_space_group_name_H-M   'P 1'
_cell_length_a   9.08468587
_cell_length_b   4.88038607
_cell_length_c   14.79660806
_cell_angle_alpha   90.00000000
_cell_angle_beta   103.63315264
_cell_angle_gamma   90.00000000
_symmetry_Int_Tables_number   1
_chemical_formula_structural   Li3Fe(PO4)2
_chemical_formula_sum   'Li12 Fe4 P8 O32'
_cell_volume   637.54997350
_cell_formula_units_Z   4
loop_
 _symmetry_equiv_pos_site_id
 _symmetry_equiv_pos_as_xyz
  1  'x, y, z'
loop_
 _atom_site_type_symbol
 _atom_site_label
 _atom_site_symmetry_multiplicity
 _atom_site_fract_x
 _atom_site_fract_y
 _atom_site_fract_z
 _atom_site_occupancy
  Li  Li0  1  0.10798033  0.25362489  0.92350276  1
  Li  Li1  1  0.10798033  0.24637511  0.42350276  1
  Li  Li2  1  0.26628692  0.65280435  0.50918391  1
  Li  Li3  1  0.26628692  0.84719565  0.00918391  1
  Li  Li4  1  0.39976719  0.13586575  0.65437394  1
  Li  Li5  1  0.39976719  0.36413425  0.15437394  1
  Li  Li6  1  0.60023281  0.63586575  0.84562606  1
  Li  Li7  1  0.60023281  0.86413425  0.34562606  1
  Li  Li8  1  0.73371308  0.34719565  0.49081609  1
  Li  Li9  1  0.73371308  0.15280435  0.99081609  1
  Li  Li10  1  0.89201967  0.75362489  0.57649724  1
  Li  Li11  1  0.89201967  0.74637511  0.07649724  1
  Fe  Fe12  1  0.18932575  0.79140160  0.79273809  1
  Fe  Fe13  1  0.18932575  0.70859840  0.29273809  1
  Fe  Fe14  1  0.81067425  0.29140160  0.70726191  1
  Fe  Fe15  1  0.81067425  0.20859840  0.20726191  1
  P  P16  1  0.06751031  0.24955331  0.62760263  1
  P  P17  1  0.06751031  0.25044669  0.12760263  1
  P  P18  1  0.40614716  0.22610000  0.85661564  1
  P  P19  1  0.40614716  0.27390000  0.35661564  1
  P  P20  1  0.59385284  0.72610000  0.64338436  1
  P  P21  1  0.59385284  0.77390000  0.14338436  1
  P  P22  1  0.93248969  0.74955331  0.87239737  1
  P  P23  1  0.93248969  0.75044669  0.37239737  1
  O  O24  1  0.03276302  0.47397904  0.69672086  1
  O  O25  1  0.03276302  0.02602096  0.19672086  1
  O  O26  1  0.09775067  0.64519124  0.91596832  1
  O  O27  1  0.09775067  0.85480876  0.41596832  1
  O  O28  1  0.15128053  0.36213175  0.55793835  1
  O  O29  1  0.15128053  0.13786825  0.05793835  1
  O  O30  1  0.15960239  0.00225274  0.67678536  1
  O  O31  1  0.15960239  0.49774726  0.17678536  1
  O  O32  1  0.32743150  0.49695760  0.81379595  1
  O  O33  1  0.28334255  0.06914323  0.89799602  1
  O  O34  1  0.32743150  0.00304240  0.31379595  1
  O  O35  1  0.28334255  0.43085677  0.39799602  1
  O  O36  1  0.44899567  0.81209379  0.57359761  1
  O  O37  1  0.44899567  0.68790621  0.07359761  1
  O  O38  1  0.43576858  0.02527809  0.78410243  1
  O  O39  1  0.56423142  0.52527809  0.71589757  1
  O  O40  1  0.43576858  0.47472191  0.28410243  1
  O  O41  1  0.56423142  0.97472191  0.21589757  1
  O  O42  1  0.55100433  0.31209379  0.92640239  1
  O  O43  1  0.55100433  0.18790621  0.42640239  1
  O  O44  1  0.71665745  0.56914323  0.60200398  1
  O  O45  1  0.67256850  0.99695760  0.68620405  1
  O  O46  1  0.71665745  0.93085677  0.10200398  1
  O  O47  1  0.67256850  0.50304240  0.18620405  1
  O  O48  1  0.84039761  0.50225274  0.82321464  1
  O  O49  1  0.84039761  0.99774726  0.32321464  1
  O  O50  1  0.84871947  0.86213175  0.94206165  1
  O  O51  1  0.84871947  0.63786825  0.44206165  1
  O  O52  1  0.90224933  0.14519124  0.58403168  1
  O  O53  1  0.90224933  0.35480876  0.08403168  1
  O  O54  1  0.96723698  0.97397904  0.80327914  1
  O  O55  1  0.96723698  0.52602096  0.30327914  1
