# generated using pymatgen
data_Li2CrPO5
_symmetry_space_group_name_H-M   'P 1'
_cell_length_a   13.17121430
_cell_length_b   12.73555942
_cell_length_c   5.11341298
_cell_angle_alpha   90.00000000
_cell_angle_beta   90.00000000
_cell_angle_gamma   60.36977108
_symmetry_Int_Tables_number   1
_chemical_formula_structural   Li2CrPO5
_chemical_formula_sum   'Li16 Cr8 P8 O40'
_cell_volume   745.57531582
_cell_formula_units_Z   8
loop_
 _symmetry_equiv_pos_site_id
 _symmetry_equiv_pos_as_xyz
  1  'x, y, z'
loop_
 _atom_site_type_symbol
 _atom_site_label
 _atom_site_symmetry_multiplicity
 _atom_site_fract_x
 _atom_site_fract_y
 _atom_site_fract_z
 _atom_site_occupancy
  Li  Li0  1  0.35102007  0.82268189  0.73564799  1
  Li  Li1  1  0.07855918  0.57525600  0.76206833  1
  Li  Li2  1  0.15142305  0.67181310  0.21230833  1
  Li  Li3  1  0.57505464  0.84031065  0.73015187  1
  Li  Li4  1  0.42494536  0.65968935  0.23015187  1
  Li  Li5  1  0.84857695  0.82818690  0.71230833  1
  Li  Li6  1  0.35102007  0.32268189  0.76435201  1
  Li  Li7  1  0.07855918  0.07525600  0.73793167  1
  Li  Li8  1  0.92144082  0.92474400  0.26206833  1
  Li  Li9  1  0.64897993  0.67731811  0.23564799  1
  Li  Li10  1  0.15142305  0.17181310  0.28769167  1
  Li  Li11  1  0.57505464  0.34031065  0.76984813  1
  Li  Li12  1  0.42494536  0.15968935  0.26984813  1
  Li  Li13  1  0.84857695  0.32818690  0.78769167  1
  Li  Li14  1  0.92144082  0.42474400  0.23793167  1
  Li  Li15  1  0.64897993  0.17731811  0.26435201  1
  Cr  Cr16  1  0.06069715  0.80836083  0.72544969  1
  Cr  Cr17  1  0.43849712  0.87122018  0.26883522  1
  Cr  Cr18  1  0.06069715  0.30836083  0.77455031  1
  Cr  Cr19  1  0.56150288  0.62877982  0.76883522  1
  Cr  Cr20  1  0.43849712  0.37122018  0.23116478  1
  Cr  Cr21  1  0.93930285  0.69163917  0.22544969  1
  Cr  Cr22  1  0.56150288  0.12877982  0.73116478  1
  Cr  Cr23  1  0.93930285  0.19163917  0.27455031  1
  P  P24  1  0.16249267  0.90984075  0.22428310  1
  P  P25  1  0.66301706  0.92461610  0.22593584  1
  P  P26  1  0.16249267  0.40984075  0.27571690  1
  P  P27  1  0.33698294  0.57538390  0.72593584  1
  P  P28  1  0.66301706  0.42461610  0.27406416  1
  P  P29  1  0.83750733  0.59015925  0.72428310  1
  P  P30  1  0.33698294  0.07538390  0.77406416  1
  P  P31  1  0.83750733  0.09015925  0.77571690  1
  O  O32  1  0.13619420  0.91088483  0.92647429  1
  O  O33  1  0.99508940  0.78515004  0.03940082  1
  O  O34  1  0.12149078  0.83335002  0.37634263  1
  O  O35  1  0.38844664  0.95704106  0.61808600  1
  O  O36  1  0.29566557  0.85032488  0.26933774  1
  O  O37  1  0.10146825  0.54033295  0.16024978  1
  O  O38  1  0.20598716  0.64782984  0.79930717  1
  O  O39  1  0.64376568  0.95195548  0.92712225  1
  O  O40  1  0.49271232  0.78161328  0.95299989  1
  O  O41  1  0.13619420  0.41088483  0.57352571  1
  O  O42  1  0.99508940  0.28515004  0.46059918  1
  O  O43  1  0.60340607  0.85160302  0.31736172  1
  O  O44  1  0.39659393  0.64839698  0.81736172  1
  O  O45  1  0.12149078  0.33335002  0.12365737  1
  O  O46  1  0.50728768  0.71838672  0.45299989  1
  O  O47  1  0.35623432  0.54804452  0.42712225  1
  O  O48  1  0.38844664  0.45704106  0.88191400  1
  O  O49  1  0.29566557  0.35032488  0.23066226  1
  O  O50  1  0.79401284  0.85217016  0.29930717  1
  O  O51  1  0.89853175  0.95966705  0.66024978  1
  O  O52  1  0.10146825  0.04033295  0.33975022  1
  O  O53  1  0.20598716  0.14782984  0.70069283  1
  O  O54  1  0.70433443  0.64967512  0.76933774  1
  O  O55  1  0.61155336  0.54295894  0.11808600  1
  O  O56  1  0.64376568  0.45195548  0.57287775  1
  O  O57  1  0.49271232  0.28161328  0.54700011  1
  O  O58  1  0.87850922  0.66664998  0.87634263  1
  O  O59  1  0.60340607  0.35160302  0.18263828  1
  O  O60  1  0.39659393  0.14839698  0.68263828  1
  O  O61  1  0.00491060  0.71484996  0.53940082  1
  O  O62  1  0.86380580  0.58911517  0.42647429  1
  O  O63  1  0.50728768  0.21838672  0.04700011  1
  O  O64  1  0.35623432  0.04804452  0.07287775  1
  O  O65  1  0.79401284  0.35217016  0.20069283  1
  O  O66  1  0.89853175  0.45966705  0.83975022  1
  O  O67  1  0.70433443  0.14967512  0.73066226  1
  O  O68  1  0.61155336  0.04295894  0.38191400  1
  O  O69  1  0.87850922  0.16664998  0.62365737  1
  O  O70  1  0.00491060  0.21484996  0.96059918  1
  O  O71  1  0.86380580  0.08911517  0.07352571  1
