# generated using pymatgen
data_NbCo3O8
_symmetry_space_group_name_H-M   'P 1'
_cell_length_a   5.68403663
_cell_length_b   5.71382121
_cell_length_c   9.22388008
_cell_angle_alpha   89.80574816
_cell_angle_beta   90.09763782
_cell_angle_gamma   120.17349991
_symmetry_Int_Tables_number   1
_chemical_formula_structural   NbCo3O8
_chemical_formula_sum   'Nb2 Co6 O16'
_cell_volume   258.97829264
_cell_formula_units_Z   2
loop_
 _symmetry_equiv_pos_site_id
 _symmetry_equiv_pos_as_xyz
  1  'x, y, z'
loop_
 _atom_site_type_symbol
 _atom_site_label
 _atom_site_symmetry_multiplicity
 _atom_site_fract_x
 _atom_site_fract_y
 _atom_site_fract_z
 _atom_site_occupancy
  Nb  Nb0  1  0.33364694  0.67282073  0.49874837  1
  Nb  Nb1  1  0.66635306  0.33917379  0.99874837  1
  Co  Co2  1  0.16873322  0.83109403  0.21427646  1
  Co  Co3  1  0.16784138  0.33785700  0.21421009  1
  Co  Co4  1  0.66357902  0.83248676  0.21633561  1
  Co  Co5  1  0.33642098  0.16890774  0.71633561  1
  Co  Co6  1  0.83126678  0.66236181  0.71427646  1
  Co  Co7  1  0.83215862  0.17001462  0.71421009  1
  O  O8  1  0.16364113  0.83689766  0.60014892  1
  O  O9  1  0.03550474  0.51326252  0.32834069  1
  O  O10  1  0.33996023  0.67090911  0.11110917  1
  O  O11  1  0.99300193  0.99551467  0.31065039  1
  O  O12  1  0.00699807  0.00251274  0.81065039  1
  O  O13  1  0.15932343  0.32458874  0.60163686  1
  O  O14  1  0.48501191  0.96384559  0.33171807  1
  O  O15  1  0.48131063  0.51400764  0.32859403  1
  O  O16  1  0.32478072  0.16498419  0.10209036  1
  O  O17  1  0.67521928  0.84020347  0.60209036  1
  O  O18  1  0.51498809  0.47883368  0.83171807  1
  O  O19  1  0.51868937  0.03269701  0.82859403  1
  O  O20  1  0.66003977  0.33094988  0.61110917  1
  O  O21  1  0.83635887  0.67325653  0.10014892  1
  O  O22  1  0.96449526  0.47775778  0.82834069  1
  O  O23  1  0.84067657  0.16526531  0.10163686  1
