# generated using pymatgen
data_ZrCoO3
_symmetry_space_group_name_H-M   'P 1'
_cell_length_a   5.40991996
_cell_length_b   5.68992128
_cell_length_c   5.40992014
_cell_angle_alpha   118.38506592
_cell_angle_beta   60.00000265
_cell_angle_gamma   118.38507032
_symmetry_Int_Tables_number   1
_chemical_formula_structural   ZrCoO3
_chemical_formula_sum   'Zr2 Co2 O6'
_cell_volume   120.54618114
_cell_formula_units_Z   2
loop_
 _symmetry_equiv_pos_site_id
 _symmetry_equiv_pos_as_xyz
  1  'x, y, z'
loop_
 _atom_site_type_symbol
 _atom_site_label
 _atom_site_symmetry_multiplicity
 _atom_site_fract_x
 _atom_site_fract_y
 _atom_site_fract_z
 _atom_site_occupancy
  Zr  Zr0  1  0.14127265  0.42381894  0.14127265  1
  Zr  Zr1  1  0.85872735  0.57618106  0.85872735  1
  Co  Co2  1  0.35514513  0.06543439  0.35514513  1
  Co  Co3  1  0.64485487  0.93456561  0.64485487  1
  O  O4  1  0.04870555  0.25314154  0.45023986  1
  O  O5  1  0.45023986  0.25314154  0.75419512  1
  O  O6  1  0.75419512  0.25314154  0.04870555  1
  O  O7  1  0.24580488  0.74685846  0.95129445  1
  O  O8  1  0.54976014  0.74685846  0.24580488  1
  O  O9  1  0.95129445  0.74685846  0.54976014  1
