# generated using pymatgen
data_Li2Fe(Si2O5)3
_symmetry_space_group_name_H-M   'P 1'
_cell_length_a   7.30881180
_cell_length_b   7.50009363
_cell_length_c   6.86219012
_cell_angle_alpha   112.23974012
_cell_angle_beta   113.22399350
_cell_angle_gamma   97.30700945
_symmetry_Int_Tables_number   1
_chemical_formula_structural   Li2Fe(Si2O5)3
_chemical_formula_sum   'Li2 Fe1 Si6 O15'
_cell_volume   302.59905680
_cell_formula_units_Z   1
loop_
 _symmetry_equiv_pos_site_id
 _symmetry_equiv_pos_as_xyz
  1  'x, y, z'
loop_
 _atom_site_type_symbol
 _atom_site_label
 _atom_site_symmetry_multiplicity
 _atom_site_fract_x
 _atom_site_fract_y
 _atom_site_fract_z
 _atom_site_occupancy
  Li  Li0  1  0.16916809  0.14221611  0.71454795  1
  Li  Li1  1  0.83083191  0.85778389  0.28545205  1
  Fe  Fe2  1  0.00000000  0.00000000  0.00000000  1
  Si  Si3  1  0.17319319  0.61280246  0.87231312  1
  Si  Si4  1  0.20079673  0.78226746  0.35498658  1
  Si  Si5  1  0.51037605  0.69617942  0.71753607  1
  Si  Si6  1  0.48962395  0.30382058  0.28246393  1
  Si  Si7  1  0.79920327  0.21773254  0.64501342  1
  Si  Si8  1  0.82680681  0.38719754  0.12768688  1
  O  O9  1  0.05789449  0.77419476  0.82600280  1
  O  O10  1  0.98762145  0.62324287  0.30728384  1
  O  O11  1  0.13391448  0.97886726  0.35257591  1
  O  O12  1  0.37407381  0.61401460  0.82414773  1
  O  O13  1  0.39985648  0.84156681  0.61466686  1
  O  O14  1  0.26377476  0.65891460  0.15068915  1
  O  O15  1  0.25492583  0.17527606  0.05484637  1
  O  O16  1  0.50000000  0.50000000  0.50000000  1
  O  O17  1  0.74507417  0.82472394  0.94515363  1
  O  O18  1  0.73622524  0.34108540  0.84931085  1
  O  O19  1  0.60014352  0.15843319  0.38533314  1
  O  O20  1  0.62592619  0.38598540  0.17585227  1
  O  O21  1  0.86608552  0.02113374  0.64742409  1
  O  O22  1  0.01237855  0.37675713  0.69271616  1
  O  O23  1  0.94210551  0.22580524  0.17399720  1
