# generated using pymatgen
data_Li7Mn11(Si3O16)2
_symmetry_space_group_name_H-M   'P 1'
_cell_length_a   8.26268025
_cell_length_b   8.30604662
_cell_length_c   8.25579477
_cell_angle_alpha   90.71150731
_cell_angle_beta   89.99645047
_cell_angle_gamma   91.30302958
_symmetry_Int_Tables_number   1
_chemical_formula_structural   Li7Mn11(Si3O16)2
_chemical_formula_sum   'Li7 Mn11 Si6 O32'
_cell_volume   566.40670000
_cell_formula_units_Z   1
loop_
 _symmetry_equiv_pos_site_id
 _symmetry_equiv_pos_as_xyz
  1  'x, y, z'
loop_
 _atom_site_type_symbol
 _atom_site_label
 _atom_site_symmetry_multiplicity
 _atom_site_fract_x
 _atom_site_fract_y
 _atom_site_fract_z
 _atom_site_occupancy
  Li  Li0  1  0.12991618  0.88101978  0.37583997  1
  Li  Li1  1  0.25315981  0.75613791  0.74878655  1
  Li  Li2  1  0.24859552  0.24693186  0.24408263  1
  Li  Li3  1  0.37586851  0.12522476  0.87620643  1
  Li  Li4  1  0.61905800  0.62206270  0.62735562  1
  Li  Li5  1  0.74353094  0.25431816  0.75722752  1
  Li  Li6  1  0.87676960  0.36780371  0.12062686  1
  Mn  Mn7  1  0.00114399  0.50318586  0.49197547  1
  Mn  Mn8  1  0.37259182  0.61971885  0.37121082  1
  Mn  Mn9  1  0.50325684  0.48384150  0.99533914  1
  Mn  Mn10  1  0.48496860  0.99738199  0.50995804  1
  Mn  Mn11  1  0.62529185  0.87635683  0.88308543  1
  Mn  Mn12  1  0.61057471  0.36507487  0.38448871  1
  Mn  Mn13  1  0.75868877  0.74390652  0.25097334  1
  Mn  Mn14  1  0.88723418  0.62494803  0.87192209  1
  Mn  Mn15  1  0.88229945  0.88655547  0.63208043  1
  Mn  Mn16  1  0.87300663  0.12575706  0.37893893  1
  Mn  Mn17  1  0.01548663  0.01186298  0.00700784  1
  Si  Si18  1  0.13563833  0.61927672  0.11302554  1
  Si  Si19  1  0.12736173  0.38197591  0.87199275  1
  Si  Si20  1  0.12119716  0.13486679  0.62266529  1
  Si  Si21  1  0.37517700  0.87499434  0.12307361  1
  Si  Si22  1  0.36880982  0.38059868  0.62116861  1
  Si  Si23  1  0.61691587  0.11811085  0.13027133  1
  O  O24  1  0.10226313  0.13936605  0.40564407  1
  O  O25  1  0.12608740  0.61016292  0.88731497  1
  O  O26  1  0.11569581  0.92319199  0.63719099  1
  O  O27  1  0.14424976  0.40184001  0.08425589  1
  O  O28  1  0.11996204  0.16893503  0.84807048  1
  O  O29  1  0.13940465  0.61970543  0.32561971  1
  O  O30  1  0.13691668  0.36310323  0.63907300  1
  O  O31  1  0.16245371  0.84551041  0.11224446  1
  O  O32  1  0.33412538  0.15856153  0.61962623  1
  O  O33  1  0.36070926  0.64260270  0.12719146  1
  O  O34  1  0.34246845  0.38661197  0.83485695  1
  O  O35  1  0.37381983  0.85008632  0.34136176  1
  O  O36  1  0.35837854  0.59733894  0.59995577  1
  O  O37  1  0.39683413  0.08500964  0.13640321  1
  O  O38  1  0.37128675  0.38269469  0.39819349  1
  O  O39  1  0.39871009  0.86647215  0.90744583  1
  O  O40  1  0.57755321  0.36668529  0.62242623  1
  O  O41  1  0.60498088  0.88623422  0.12096161  1
  O  O42  1  0.59866819  0.61430908  0.37493518  1
  O  O43  1  0.62830766  0.10633039  0.91821026  1
  O  O44  1  0.61351495  0.32689660  0.14013185  1
  O  O45  1  0.64356268  0.87982269  0.65185113  1
  O  O46  1  0.63509922  0.10846560  0.34886673  1
  O  O47  1  0.65645077  0.63835139  0.88150082  1
  O  O48  1  0.84596780  0.35452017  0.37568420  1
  O  O49  1  0.86777449  0.86476433  0.86959484  1
  O  O50  1  0.84376422  0.11618512  0.14808061  1
  O  O51  1  0.88157959  0.65366930  0.64123831  1
  O  O52  1  0.88345069  0.89263927  0.40149166  1
  O  O53  1  0.91196348  0.39888176  0.86521026  1
  O  O54  1  0.89662386  0.12350482  0.62039318  1
  O  O55  1  0.92082774  0.62565485  0.10569290  1
