# generated using pymatgen
data_Li2Ni(PO3)4
_symmetry_space_group_name_H-M   'P 1'
_cell_length_a   7.66286561
_cell_length_b   12.47842462
_cell_length_c   10.61000112
_cell_angle_alpha   90.00000000
_cell_angle_beta   103.05015107
_cell_angle_gamma   90.00000000
_symmetry_Int_Tables_number   1
_chemical_formula_structural   Li2Ni(PO3)4
_chemical_formula_sum   'Li8 Ni4 P16 O48'
_cell_volume   988.33094732
_cell_formula_units_Z   4
loop_
 _symmetry_equiv_pos_site_id
 _symmetry_equiv_pos_as_xyz
  1  'x, y, z'
loop_
 _atom_site_type_symbol
 _atom_site_label
 _atom_site_symmetry_multiplicity
 _atom_site_fract_x
 _atom_site_fract_y
 _atom_site_fract_z
 _atom_site_occupancy
  Li  Li0  1  0.13402620  0.06015666  0.59771851  1
  Li  Li1  1  0.11101577  0.70156557  0.14206943  1
  Li  Li2  1  0.36597380  0.56015666  0.90228149  1
  Li  Li3  1  0.38898423  0.20156557  0.35793057  1
  Li  Li4  1  0.61101577  0.79843443  0.64206943  1
  Li  Li5  1  0.63402620  0.43984334  0.09771851  1
  Li  Li6  1  0.88898423  0.29843443  0.85793057  1
  Li  Li7  1  0.86597380  0.93984334  0.40228149  1
  Ni  Ni8  1  0.24657518  0.15227404  0.98792052  1
  Ni  Ni9  1  0.25342482  0.65227404  0.51207948  1
  Ni  Ni10  1  0.74657518  0.34772596  0.48792052  1
  Ni  Ni11  1  0.75342482  0.84772596  0.01207948  1
  P  P12  1  0.07852916  0.82145925  0.69190970  1
  P  P13  1  0.15589493  0.42001965  0.59709100  1
  P  P14  1  0.06512004  0.33378316  0.14632689  1
  P  P15  1  0.34410507  0.92001965  0.90290900  1
  P  P16  1  0.20297738  0.93728877  0.13648516  1
  P  P17  1  0.42147084  0.32145925  0.80809030  1
  P  P18  1  0.29702262  0.43728877  0.36351484  1
  P  P19  1  0.43487996  0.83378316  0.35367311  1
  P  P20  1  0.56512004  0.16621684  0.64632689  1
  P  P21  1  0.70297738  0.56271123  0.63648516  1
  P  P22  1  0.57852916  0.67854075  0.19190970  1
  P  P23  1  0.79702262  0.06271123  0.86351484  1
  P  P24  1  0.65589493  0.07998035  0.09709100  1
  P  P25  1  0.93487996  0.66621684  0.85367311  1
  P  P26  1  0.84410507  0.57998035  0.40290900  1
  P  P27  1  0.92147084  0.17854075  0.30809030  1
  O  O28  1  0.12159826  0.63748483  0.92480537  1
  O  O29  1  0.99251616  0.36487662  0.62181580  1
  O  O30  1  0.99914373  0.91539020  0.60835136  1
  O  O31  1  0.16764051  0.85768461  0.83505180  1
  O  O32  1  0.08109348  0.24714908  0.26720931  1
  O  O33  1  0.06355580  0.85200117  0.13741023  1
  O  O34  1  0.18995525  0.53613790  0.63018603  1
  O  O35  1  0.21049895  0.75109405  0.64856190  1
  O  O36  1  0.28950105  0.25109405  0.85143810  1
  O  O37  1  0.31004475  0.03613790  0.86981397  1
  O  O38  1  0.16385546  0.39554515  0.45096246  1
  O  O39  1  0.33235949  0.35768461  0.66494820  1
  O  O40  1  0.14815322  0.05044458  0.10485646  1
  O  O41  1  0.15444294  0.43850509  0.22478757  1
  O  O42  1  0.30863426  0.79267702  0.43153799  1
  O  O43  1  0.19136574  0.29267702  0.06846201  1
  O  O44  1  0.34555706  0.93850509  0.27521243  1
  O  O45  1  0.50085627  0.41539020  0.89164864  1
  O  O46  1  0.50748384  0.86487662  0.87818420  1
  O  O47  1  0.35184678  0.55044458  0.39514354  1
  O  O48  1  0.37840174  0.13748483  0.57519463  1
  O  O49  1  0.33614454  0.89554515  0.04903754  1
  O  O50  1  0.58109348  0.25285092  0.76720931  1
  O  O51  1  0.56355580  0.64799883  0.63741023  1
  O  O52  1  0.43644420  0.35200117  0.36258977  1
  O  O53  1  0.41890652  0.74714908  0.23279069  1
  O  O54  1  0.66385546  0.10445485  0.95096246  1
  O  O55  1  0.62159826  0.86251517  0.42480537  1
  O  O56  1  0.64815322  0.44955542  0.60485646  1
  O  O57  1  0.49251616  0.13512338  0.12181580  1
  O  O58  1  0.49914373  0.58460980  0.10835136  1
  O  O59  1  0.65444294  0.06149491  0.72478757  1
  O  O60  1  0.80863426  0.70732298  0.93153799  1
  O  O61  1  0.69136574  0.20732298  0.56846201  1
  O  O62  1  0.84555706  0.56149491  0.77521243  1
  O  O63  1  0.85184678  0.94955542  0.89514354  1
  O  O64  1  0.66764051  0.64231539  0.33505180  1
  O  O65  1  0.83614454  0.60445485  0.54903754  1
  O  O66  1  0.68995525  0.96386210  0.13018603  1
  O  O67  1  0.71049895  0.74890595  0.14856190  1
  O  O68  1  0.78950105  0.24890595  0.35143810  1
  O  O69  1  0.81004475  0.46386210  0.36981397  1
  O  O70  1  0.93644420  0.14799883  0.86258977  1
  O  O71  1  0.91890652  0.75285092  0.73279069  1
  O  O72  1  0.83235949  0.14231539  0.16494820  1
  O  O73  1  0.00085627  0.08460980  0.39164864  1
  O  O74  1  0.00748384  0.63512338  0.37818420  1
  O  O75  1  0.87840174  0.36251517  0.07519463  1
