# generated using pymatgen
data_Li2CrSiO4
_symmetry_space_group_name_H-M   'P 1'
_cell_length_a   10.74434838
_cell_length_b   5.08006009
_cell_length_c   6.64017394
_cell_angle_alpha   89.99773626
_cell_angle_beta   90.00681687
_cell_angle_gamma   89.99601538
_symmetry_Int_Tables_number   1
_chemical_formula_structural   Li2CrSiO4
_chemical_formula_sum   'Li8 Cr4 Si4 O16'
_cell_volume   362.43354161
_cell_formula_units_Z   4
loop_
 _symmetry_equiv_pos_site_id
 _symmetry_equiv_pos_as_xyz
  1  'x, y, z'
loop_
 _atom_site_type_symbol
 _atom_site_label
 _atom_site_symmetry_multiplicity
 _atom_site_fract_x
 _atom_site_fract_y
 _atom_site_fract_z
 _atom_site_occupancy
  Li  Li0  1  0.07723568  0.79299788  0.86958162  1
  Li  Li1  1  0.16320781  0.19794014  0.11951745  1
  Li  Li2  1  0.33681272  0.69793765  0.61946264  1
  Li  Li3  1  0.42271782  0.29302539  0.36944216  1
  Li  Li4  1  0.57726628  0.70705502  0.86959481  1
  Li  Li5  1  0.66326389  0.30212808  0.11952302  1
  Li  Li6  1  0.83679772  0.80204719  0.61948154  1
  Li  Li7  1  0.92277496  0.20696624  0.36952253  1
  Cr  Cr8  1  0.16022088  0.20380118  0.61662403  1
  Cr  Cr9  1  0.33981145  0.70399037  0.11657316  1
  Cr  Cr10  1  0.66003247  0.29582117  0.61661339  1
  Cr  Cr11  1  0.83982210  0.79610860  0.11655758  1
  Si  Si12  1  0.08348373  0.69514082  0.36625889  1
  Si  Si13  1  0.41649156  0.19520717  0.86619675  1
  Si  Si14  1  0.58353030  0.80483038  0.36617609  1
  Si  Si15  1  0.91648303  0.30481893  0.86616576  1
  O  O16  1  0.06295834  0.20508231  0.87517139  1
  O  O17  1  0.08991034  0.36989659  0.35393748  1
  O  O18  1  0.15303182  0.79144920  0.57770976  1
  O  O19  1  0.15157515  0.81481661  0.16345855  1
  O  O20  1  0.34846472  0.31485700  0.66343474  1
  O  O21  1  0.34694034  0.29149514  0.07768021  1
  O  O22  1  0.41014918  0.86997660  0.85391319  1
  O  O23  1  0.43705432  0.70518425  0.37515972  1
  O  O24  1  0.56293621  0.29492249  0.87534832  1
  O  O25  1  0.58986754  0.13008972  0.35385656  1
  O  O26  1  0.65299728  0.70850833  0.57769526  1
  O  O27  1  0.65158316  0.68522884  0.16343857  1
  O  O28  1  0.84834807  0.18523066  0.66347923  1
  O  O29  1  0.84699623  0.20856394  0.07769975  1
  O  O30  1  0.91016747  0.63009294  0.85392326  1
  O  O31  1  0.93706742  0.79478915  0.37520660  1
