# generated using pymatgen
data_Mn(CO3)2
_symmetry_space_group_name_H-M   'P 1'
_cell_length_a   6.73246544
_cell_length_b   7.38030176
_cell_length_c   5.27276266
_cell_angle_alpha   90.00000000
_cell_angle_beta   68.32693117
_cell_angle_gamma   90.00000000
_symmetry_Int_Tables_number   1
_chemical_formula_structural   Mn(CO3)2
_chemical_formula_sum   'Mn2 C4 O12'
_cell_volume   243.46993462
_cell_formula_units_Z   2
loop_
 _symmetry_equiv_pos_site_id
 _symmetry_equiv_pos_as_xyz
  1  'x, y, z'
loop_
 _atom_site_type_symbol
 _atom_site_label
 _atom_site_symmetry_multiplicity
 _atom_site_fract_x
 _atom_site_fract_y
 _atom_site_fract_z
 _atom_site_occupancy
  Mn  Mn0  1  0.00000000  0.00000000  0.00000000  1
  Mn  Mn1  1  0.50000000  0.50000000  0.50000000  1
  C  C2  1  0.13913560  0.26472030  0.74273576  1
  C  C3  1  0.36086440  0.76472030  0.75726424  1
  C  C4  1  0.63913560  0.23527970  0.24273576  1
  C  C5  1  0.86086440  0.73527970  0.25726424  1
  O  O6  1  0.10925046  0.24969601  0.00058436  1
  O  O7  1  0.08062504  0.12389973  0.64068632  1
  O  O8  1  0.21329459  0.40719437  0.59959610  1
  O  O9  1  0.28670541  0.90719437  0.90040390  1
  O  O10  1  0.41937496  0.62389973  0.85931368  1
  O  O11  1  0.39074954  0.74969601  0.49941564  1
  O  O12  1  0.60925046  0.25030399  0.50058436  1
  O  O13  1  0.58062504  0.37610027  0.14068632  1
  O  O14  1  0.71329459  0.09280563  0.09959610  1
  O  O15  1  0.78670541  0.59280563  0.40040390  1
  O  O16  1  0.91937496  0.87610027  0.35931368  1
  O  O17  1  0.89074954  0.75030399  -0.00058436  1
