# generated using pymatgen
data_VNi3Sb2(PO4)6
_symmetry_space_group_name_H-M   'P 1'
_cell_length_a   8.82177137
_cell_length_b   8.65600520
_cell_length_c   8.65600497
_cell_angle_alpha   59.99999943
_cell_angle_beta   60.61966294
_cell_angle_gamma   60.61966338
_symmetry_Int_Tables_number   1
_chemical_formula_structural   VNi3Sb2(PO4)6
_chemical_formula_sum   'V1 Ni3 Sb2 P6 O24'
_cell_volume   471.71601565
_cell_formula_units_Z   1
loop_
 _symmetry_equiv_pos_site_id
 _symmetry_equiv_pos_as_xyz
  1  'x, y, z'
loop_
 _atom_site_type_symbol
 _atom_site_label
 _atom_site_symmetry_multiplicity
 _atom_site_fract_x
 _atom_site_fract_y
 _atom_site_fract_z
 _atom_site_occupancy
  V  V0  1  0.57077404  0.14307532  0.14307532  1
  Ni  Ni1  1  0.05800598  0.64733167  0.64733167  1
  Ni  Ni2  1  0.45785272  0.84738209  0.84738209  1
  Ni  Ni3  1  0.93919414  0.35360229  0.35360229  1
  Sb  Sb4  1  0.05682068  0.98105977  0.98105977  1
  Sb  Sb5  1  0.51352891  0.49549036  0.49549036  1
  P  P6  1  0.25071593  0.25169047  0.53514110  1
  P  P7  1  0.25071593  0.96245151  0.25169047  1
  P  P8  1  0.25071593  0.53514110  0.96245151  1
  P  P9  1  0.74089789  0.45973109  0.04514461  1
  P  P10  1  0.74089789  0.04514461  0.75422541  1
  P  P11  1  0.74089789  0.75422541  0.45973109  1
  O  O12  1  0.07097254  0.10820814  0.30868031  1
  O  O13  1  0.07097254  0.51214001  0.10820814  1
  O  O14  1  0.07097254  0.30868031  0.51214001  1
  O  O15  1  0.25093863  0.08243464  0.73126301  1
  O  O16  1  0.42396708  0.18397297  0.37790629  1
  O  O17  1  0.27689414  0.41293531  0.54427767  1
  O  O18  1  0.25093863  0.93536373  0.08243464  1
  O  O19  1  0.27689414  0.76589288  0.41293531  1
  O  O20  1  0.56637127  0.61664839  0.01883722  1
  O  O21  1  0.27689414  0.54427767  0.76589288  1
  O  O22  1  0.72886098  0.26524593  0.08245334  1
  O  O23  1  0.56637127  0.01883722  0.79814312  1
  O  O24  1  0.42396708  0.01415267  0.18397297  1
  O  O25  1  0.25093863  0.73126301  0.93536373  1
  O  O26  1  0.73556770  0.43124232  0.24371897  1
  O  O27  1  0.42396708  0.37790629  0.01415267  1
  O  O28  1  0.73556770  0.24371897  0.58947201  1
  O  O29  1  0.72886098  0.08245334  0.92343975  1
  O  O30  1  0.73556770  0.58947201  0.43124232  1
  O  O31  1  0.56637127  0.79814312  0.61664839  1
  O  O32  1  0.72886098  0.92343975  0.26524593  1
  O  O33  1  0.92275437  0.71569141  0.47109701  1
  O  O34  1  0.92275437  0.47109701  0.89045722  1
  O  O35  1  0.92275437  0.89045722  0.71569141  1
