# generated using pymatgen
data_LiTiP2O7
_symmetry_space_group_name_H-M   'P 1'
_cell_length_a   7.29385910
_cell_length_b   8.01056678
_cell_length_c   9.68414692
_cell_angle_alpha   90.00000000
_cell_angle_beta   110.55879024
_cell_angle_gamma   90.00000000
_symmetry_Int_Tables_number   1
_chemical_formula_structural   LiTiP2O7
_chemical_formula_sum   'Li4 Ti4 P8 O28'
_cell_volume   529.78875787
_cell_formula_units_Z   4
loop_
 _symmetry_equiv_pos_site_id
 _symmetry_equiv_pos_as_xyz
  1  'x, y, z'
loop_
 _atom_site_type_symbol
 _atom_site_label
 _atom_site_symmetry_multiplicity
 _atom_site_fract_x
 _atom_site_fract_y
 _atom_site_fract_z
 _atom_site_occupancy
  Li  Li0  1  0.29675473  0.02194641  0.78502140  1
  Li  Li1  1  0.29675473  0.47805359  0.28502140  1
  Li  Li2  1  0.70324527  0.52194641  0.71497860  1
  Li  Li3  1  0.70324527  0.97805359  0.21497960  1
  Ti  Ti4  1  0.26120993  0.49358550  0.74759136  1
  Ti  Ti5  1  0.26120993  0.00641450  0.24759136  1
  Ti  Ti6  1  0.73879007  0.99358550  0.75240864  1
  Ti  Ti7  1  0.73879007  0.50641450  0.25240864  1
  P  P8  1  0.08156257  0.24136979  0.95594973  1
  P  P9  1  0.08156257  0.25863021  0.45594973  1
  P  P10  1  0.33047439  0.78812034  0.54844632  1
  P  P11  1  0.66952561  0.28812034  0.95155368  1
  P  P12  1  0.33047439  0.71187966  0.04844632  1
  P  P13  1  0.66952561  0.21187966  0.45155368  1
  P  P14  1  0.91843743  0.74136979  0.54405027  1
  P  P15  1  0.91843743  0.75863021  0.04405027  1
  O  O16  1  0.03233898  0.08032944  0.86334262  1
  O  O17  1  0.19185336  0.36709623  0.89867405  1
  O  O18  1  0.03233898  0.41967056  0.36334262  1
  O  O19  1  0.12284102  0.83521610  0.56499801  1
  O  O20  1  0.31142020  0.70002341  0.88636019  1
  O  O21  1  0.18655331  0.28560669  0.62204885  1
  O  O22  1  0.19185336  0.13290377  0.39867405  1
  O  O23  1  0.38528101  0.60894083  0.60576581  1
  O  O24  1  0.12284102  0.66478390  0.06499801  1
  O  O25  1  0.54382719  0.42074615  0.84612881  1
  O  O26  1  0.31142020  0.79997659  0.38636019  1
  O  O27  1  0.18655331  0.21439331  0.12204885  1
  O  O28  1  0.45617281  0.92074615  0.65387119  1
  O  O29  1  0.61471899  0.10894083  0.89423419  1
  O  O30  1  0.38528101  0.89105917  0.10576581  1
  O  O31  1  0.54382719  0.07925385  0.34612881  1
  O  O32  1  0.81344669  0.78560669  0.87795115  1
  O  O33  1  0.68857980  0.20002341  0.61363981  1
  O  O34  1  0.45617281  0.57925385  0.15387119  1
  O  O35  1  0.87715898  0.33521610  0.93500199  1
  O  O36  1  0.61471899  0.39105917  0.39423419  1
  O  O37  1  0.80814664  0.86709623  0.60132595  1
  O  O38  1  0.81344669  0.71439331  0.37795115  1
  O  O39  1  0.68857980  0.29997659  0.11363981  1
  O  O40  1  0.87715898  0.16478390  0.43500199  1
  O  O41  1  0.96766102  0.58032944  0.63665738  1
  O  O42  1  0.80814664  0.63290377  0.10132595  1
  O  O43  1  0.96766102  0.91967056  0.13665738  1
