# generated using pymatgen
data_Li5Cr2Fe3(PO4)6
_symmetry_space_group_name_H-M   'P 1'
_cell_length_a   8.43117585
_cell_length_b   8.81815716
_cell_length_c   8.60434310
_cell_angle_alpha   60.94257814
_cell_angle_beta   62.22003778
_cell_angle_gamma   61.57224084
_symmetry_Int_Tables_number   1
_chemical_formula_structural   Li5Cr2Fe3(PO4)6
_chemical_formula_sum   'Li5 Cr2 Fe3 P6 O24'
_cell_volume   468.24979209
_cell_formula_units_Z   1
loop_
 _symmetry_equiv_pos_site_id
 _symmetry_equiv_pos_as_xyz
  1  'x, y, z'
loop_
 _atom_site_type_symbol
 _atom_site_label
 _atom_site_symmetry_multiplicity
 _atom_site_fract_x
 _atom_site_fract_y
 _atom_site_fract_z
 _atom_site_occupancy
  Li  Li0  1  0.75368027  0.14319337  0.35627572  1
  Li  Li1  1  0.19452080  0.84997786  0.66984596  1
  Li  Li2  1  0.66346916  0.18103772  0.85217671  1
  Li  Li3  1  0.85742514  0.67007868  0.18514384  1
  Li  Li4  1  0.84627106  0.83072369  0.83962103  1
  Cr  Cr5  1  0.00543032  0.99742064  0.99534385  1
  Cr  Cr6  1  0.49400700  0.50567062  0.49872268  1
  Fe  Fe7  1  0.14747901  0.14961417  0.14041230  1
  Fe  Fe8  1  0.35206591  0.35677238  0.35544486  1
  Fe  Fe9  1  0.64483777  0.65578773  0.65587882  1
  P  P10  1  0.05665814  0.75023123  0.45285850  1
  P  P11  1  0.44509791  0.04769167  0.75810881  1
  P  P12  1  0.75167202  0.45508254  0.05706374  1
  P  P13  1  0.25527180  0.53858510  0.95508939  1
  P  P14  1  0.55396869  0.96573021  0.25765864  1
  P  P15  1  0.94774178  0.25404938  0.53595132  1
  O  O16  1  0.10384172  0.33361691  0.46608293  1
  O  O17  1  0.33899237  0.48639599  0.10449771  1
  O  O18  1  0.05161059  0.91539589  0.26214239  1
  O  O19  1  0.52972217  0.10992846  0.32523516  1
  O  O20  1  0.03750020  0.81027662  0.59998253  1
  O  O21  1  0.25166936  0.59283387  0.42311817  1
  O  O22  1  0.24644923  0.06662903  0.91304657  1
  O  O23  1  0.43046071  0.23254369  0.59034903  1
  O  O24  1  0.19638497  0.38291086  0.98938574  1
  O  O25  1  0.59655406  0.41890789  0.25656905  1
  O  O26  1  0.09294395  0.72443955  0.94911362  1
  O  O27  1  0.38531679  0.01745407  0.19755926  1
  O  O28  1  0.60017201  0.01781061  0.82295786  1
  O  O29  1  0.90279349  0.25858492  0.07847956  1
  O  O30  1  0.40403941  0.57610738  0.75196884  1
  O  O31  1  0.81205605  0.60198627  0.03444334  1
  O  O32  1  0.57531467  0.76954002  0.40896592  1
  O  O33  1  0.74530088  0.94925711  0.09445282  1
  O  O34  1  0.74488599  0.40248134  0.57210326  1
  O  O35  1  0.96590770  0.18907867  0.38967852  1
  O  O36  1  0.48358759  0.88834756  0.70145689  1
  O  O37  1  0.95261344  0.09709823  0.72839102  1
  O  O38  1  0.68950937  0.49873933  0.89401431  1
  O  O39  1  0.89277555  0.68498873  0.50340832  1
