# generated using pymatgen
data_LiSbPO5
_symmetry_space_group_name_H-M   'P 1'
_cell_length_a   5.54281691
_cell_length_b   5.54293521
_cell_length_c   7.49339825
_cell_angle_alpha   73.82564700
_cell_angle_beta   73.82338022
_cell_angle_gamma   98.28886937
_symmetry_Int_Tables_number   1
_chemical_formula_structural   LiSbPO5
_chemical_formula_sum   'Li2 Sb2 P2 O10'
_cell_volume   206.12715772
_cell_formula_units_Z   2
loop_
 _symmetry_equiv_pos_site_id
 _symmetry_equiv_pos_as_xyz
  1  'x, y, z'
loop_
 _atom_site_type_symbol
 _atom_site_label
 _atom_site_symmetry_multiplicity
 _atom_site_fract_x
 _atom_site_fract_y
 _atom_site_fract_z
 _atom_site_occupancy
  Li  Li0  1  0.41260672  0.79181262  0.64420177  1
  Li  Li1  1  0.79182470  0.41261627  0.14418985  1
  Sb  Sb2  1  0.00944769  0.01384975  0.48974751  1
  Sb  Sb3  1  0.01384902  0.00944960  0.98974747  1
  P  P4  1  0.34035420  0.65255961  0.25245685  1
  P  P5  1  0.65251728  0.34029243  0.75249458  1
  O  O6  1  0.09971487  0.91358751  0.74052535  1
  O  O7  1  0.33039935  0.84717695  0.37001125  1
  O  O8  1  0.70287295  0.61879504  0.60681769  1
  O  O9  1  0.13833196  0.67345021  0.14221399  1
  O  O10  1  0.61876561  0.70286596  0.10683832  1
  O  O11  1  0.37374905  0.27470049  0.90269691  1
  O  O12  1  0.84717834  0.33040078  0.87000760  1
  O  O13  1  0.27469392  0.37371821  0.40270791  1
  O  O14  1  0.67343903  0.13832664  0.64222709  1
  O  O15  1  0.91359330  0.09972391  0.24050886  1
