# generated using pymatgen
data_Na8Nb5O14
_symmetry_space_group_name_H-M   'P 1'
_cell_length_a   10.82558153
_cell_length_b   8.66597466
_cell_length_c   8.75468887
_cell_angle_alpha   112.85615733
_cell_angle_beta   104.23407527
_cell_angle_gamma   100.44776676
_symmetry_Int_Tables_number   1
_chemical_formula_structural   Na8Nb5O14
_chemical_formula_sum   'Na16 Nb10 O28'
_cell_volume   697.46462317
_cell_formula_units_Z   2
loop_
 _symmetry_equiv_pos_site_id
 _symmetry_equiv_pos_as_xyz
  1  'x, y, z'
loop_
 _atom_site_type_symbol
 _atom_site_label
 _atom_site_symmetry_multiplicity
 _atom_site_fract_x
 _atom_site_fract_y
 _atom_site_fract_z
 _atom_site_occupancy
  Na  Na0  1  0.02014631  0.45921363  0.68297649  1
  Na  Na1  1  0.00000000  0.00000000  0.00000000  1
  Na  Na2  1  0.19624074  0.20696166  0.68676855  1
  Na  Na3  1  0.17547459  0.30501142  0.36697910  1
  Na  Na4  1  0.11626998  0.37055121  0.01936014  1
  Na  Na5  1  0.29622867  0.70371100  0.42122651  1
  Na  Na6  1  0.38848549  0.10684437  0.48203949  1
  Na  Na7  1  0.42814334  0.56775553  0.13523672  1
  Na  Na8  1  0.50000000  0.50000000  0.50000000  1
  Na  Na9  1  0.57185666  0.43224447  0.86476328  1
  Na  Na10  1  0.61151451  0.89315563  0.51796051  1
  Na  Na11  1  0.70377133  0.29628900  0.57877349  1
  Na  Na12  1  0.88373002  0.62944879  0.98063986  1
  Na  Na13  1  0.82452541  0.69498858  0.63302090  1
  Na  Na14  1  0.80375926  0.79303834  0.31323145  1
  Na  Na15  1  0.97985369  0.54078637  0.31702351  1
  Nb  Nb16  1  0.14192134  0.85253156  0.70549575  1
  Nb  Nb17  1  0.20944706  0.78015331  0.08504573  1
  Nb  Nb18  1  0.35688998  0.62520783  0.77383158  1
  Nb  Nb19  1  0.34451421  0.16937316  0.09923482  1
  Nb  Nb20  1  0.47120278  0.03199778  0.85987973  1
  Nb  Nb21  1  0.52879722  0.96800222  0.14012027  1
  Nb  Nb22  1  0.65548579  0.83062684  0.90076518  1
  Nb  Nb23  1  0.64311002  0.37479217  0.22616842  1
  Nb  Nb24  1  0.79055294  0.21984669  0.91495427  1
  Nb  Nb25  1  0.85807866  0.14746844  0.29450425  1
  O  O26  1  0.98482905  0.80759907  0.53203569  1
  O  O27  1  0.05861702  0.75536408  0.85980095  1
  O  O28  1  0.17883522  0.61848336  0.59217414  1
  O  O29  1  0.23514564  0.55745149  0.91015999  1
  O  O30  1  0.10644178  0.67104228  0.17734273  1
  O  O31  1  0.16488234  0.09703018  0.88728532  1
  O  O32  1  0.28661538  0.96814695  0.64419917  1
  O  O33  1  0.32708257  0.88190992  0.93336329  1
  O  O34  1  0.35453541  0.39358698  0.63879876  1
  O  O35  1  0.22181101  0.03431422  0.19882973  1
  O  O36  1  0.31261510  0.39826577  0.23503594  1
  O  O37  1  0.52641376  0.69514393  0.99355918  1
  O  O38  1  0.47315036  0.76369186  0.67641986  1
  O  O39  1  0.39554242  0.84493065  0.25468411  1
  O  O40  1  0.60445758  0.15506935  0.74531589  1
  O  O41  1  0.52684964  0.23630814  0.32358014  1
  O  O42  1  0.47358624  0.30485607  0.00644082  1
  O  O43  1  0.68738490  0.60173423  0.76496406  1
  O  O44  1  0.77818899  0.96568578  0.80117027  1
  O  O45  1  0.64546459  0.60641302  0.36120124  1
  O  O46  1  0.67291743  0.11809008  0.06663671  1
  O  O47  1  0.71338462  0.03185305  0.35580083  1
  O  O48  1  0.83511766  0.90296982  0.11271468  1
  O  O49  1  0.89355822  0.32895772  0.82265727  1
  O  O50  1  0.76485436  0.44254851  0.08984001  1
  O  O51  1  0.82116478  0.38151664  0.40782586  1
  O  O52  1  0.94138298  0.24463592  0.14019905  1
  O  O53  1  0.01517095  0.19240093  0.46796431  1
