# generated using pymatgen
data_LiCoCO4
_symmetry_space_group_name_H-M   'P 1'
_cell_length_a   8.22257554
_cell_length_b   8.34284803
_cell_length_c   5.79405823
_cell_angle_alpha   90.00000000
_cell_angle_beta   90.00000000
_cell_angle_gamma   119.52424953
_symmetry_Int_Tables_number   1
_chemical_formula_structural   LiCoCO4
_chemical_formula_sum   'Li4 Co4 C4 O16'
_cell_volume   345.85797254
_cell_formula_units_Z   4
loop_
 _symmetry_equiv_pos_site_id
 _symmetry_equiv_pos_as_xyz
  1  'x, y, z'
loop_
 _atom_site_type_symbol
 _atom_site_label
 _atom_site_symmetry_multiplicity
 _atom_site_fract_x
 _atom_site_fract_y
 _atom_site_fract_z
 _atom_site_occupancy
  Li  Li0  1  0.03462764  0.82648431  0.49993022  1
  Li  Li1  1  0.20814333  0.17351569  0.99993022  1
  Li  Li2  1  0.79185667  0.82648431  0.99993022  1
  Li  Li3  1  0.96537236  0.17351569  0.49993022  1
  Co  Co4  1  0.27591203  0.58022487  0.76710134  1
  Co  Co5  1  0.30431284  0.58022487  0.26710134  1
  Co  Co6  1  0.69568716  0.41977513  0.26710134  1
  Co  Co7  1  0.72408797  0.41977513  0.76710134  1
  C  C8  1  0.15489749  0.79713645  0.02498541  1
  C  C9  1  0.64223896  0.79713645  0.52498541  1
  C  C10  1  0.35776104  0.20286355  0.52498541  1
  C  C11  1  0.84510251  0.20286355  0.02498541  1
  O  O12  1  0.07997224  0.89799220  0.03815326  1
  O  O13  1  0.17731629  0.74143823  0.82054052  1
  O  O14  1  0.20711680  0.74921841  0.21368912  1
  O  O15  1  0.16204844  0.44505006  0.50209014  1
  O  O16  1  0.28300162  0.44505006  0.00209014  1
  O  O17  1  0.18197904  0.10200780  0.53815326  1
  O  O18  1  0.54210161  0.74921841  0.71368912  1
  O  O19  1  0.56412194  0.74143823  0.32054052  1
  O  O20  1  0.43587806  0.25856177  0.32054052  1
  O  O21  1  0.45789839  0.25078159  0.71368912  1
  O  O22  1  0.81801996  0.89799220  0.53815326  1
  O  O23  1  0.71699838  0.55494994  0.00209014  1
  O  O24  1  0.83795156  0.55494994  0.50209014  1
  O  O25  1  0.79288320  0.25078159  0.21368912  1
  O  O26  1  0.82268371  0.25856177  0.82054052  1
  O  O27  1  0.92002776  0.10200780  0.03815326  1
