# generated using pymatgen
data_LiLaNb4O12
_symmetry_space_group_name_H-M   'P 1'
_cell_length_a   7.96483947
_cell_length_b   9.79695545
_cell_length_c   11.30451185
_cell_angle_alpha   107.10212797
_cell_angle_beta   90.00000000
_cell_angle_gamma   66.01511079
_symmetry_Int_Tables_number   1
_chemical_formula_structural   LiLaNb4O12
_chemical_formula_sum   'Li3 La3 Nb12 O36'
_cell_volume   763.04865916
_cell_formula_units_Z   3
loop_
 _symmetry_equiv_pos_site_id
 _symmetry_equiv_pos_as_xyz
  1  'x, y, z'
loop_
 _atom_site_type_symbol
 _atom_site_label
 _atom_site_symmetry_multiplicity
 _atom_site_fract_x
 _atom_site_fract_y
 _atom_site_fract_z
 _atom_site_occupancy
  Li  Li0  1  0.83359128  0.33281745  0.33274448  1
  Li  Li1  1  0.33312610  0.33374780  0.83367475  1
  Li  Li2  1  0.16700548  0.66598905  0.66645847  1
  La  La3  1  0.66606717  0.66786667  0.66688755  1
  La  La4  1  0.33374310  0.33251381  0.33219488  1
  La  La5  1  0.00017578  0.99964844  0.00103389  1
  Nb  Nb6  1  0.91374985  0.67277596  0.41376756  1
  Nb  Nb7  1  0.75116375  0.99465387  0.25076021  1
  Nb  Nb8  1  0.91527922  0.66470770  0.92062761  1
  Nb  Nb9  1  0.42001308  0.66470770  0.92062761  1
  Nb  Nb10  1  0.74836645  0.00308961  0.74881127  1
  Nb  Nb11  1  0.58181869  0.33588628  0.08169890  1
  Nb  Nb12  1  0.58662518  0.32861098  0.58423064  1
  Nb  Nb13  1  0.25418239  0.99465387  0.25076021  1
  Nb  Nb14  1  0.41347419  0.67277596  0.41376756  1
  Nb  Nb15  1  0.08476383  0.32861098  0.58423064  1
  Nb  Nb16  1  0.08229603  0.33588628  0.08169890  1
  Nb  Nb17  1  0.24854394  0.00308961  0.74881127  1
  O  O18  1  0.83766587  0.84613907  0.07692289  1
  O  O19  1  0.83712028  0.83138631  0.83144638  1
  O  O20  1  0.83321839  0.83359012  0.33318494  1
  O  O21  1  0.99193369  0.51300748  0.74333321  1
  O  O22  1  0.83502706  0.81797705  0.59035308  1
  O  O23  1  0.82429018  0.35141963  0.58086378  1
  O  O24  1  0.84204633  0.31590633  0.08624712  1
  O  O25  1  0.66442782  0.67114537  0.90336507  1
  O  O26  1  0.67290906  0.65418289  0.42884868  1
  O  O27  1  0.50802169  0.98395661  0.75082844  1
  O  O28  1  0.99366893  0.01266314  0.23847027  1
  O  O29  1  0.34699589  0.81797705  0.59035308  1
  O  O30  1  0.49505883  0.51300748  0.74333321  1
  O  O31  1  0.67833602  0.15586766  0.92207600  1
  O  O32  1  0.33319149  0.83359012  0.33318494  1
  O  O33  1  0.33149241  0.83138631  0.83144638  1
  O  O34  1  0.66796082  0.16853408  0.16771797  1
  O  O35  1  0.49938246  0.49997119  0.50098943  1
  O  O36  1  0.50179719  0.48544696  0.25817641  1
  O  O37  1  0.65377193  0.18170775  0.40913364  1
  O  O38  1  0.31619507  0.84613907  0.07692289  1
  O  O39  1  0.65181072  0.17365263  0.67392610  1
  O  O40  1  0.49222761  0.49301207  0.99275926  1
  O  O41  1  0.48988580  0.02022741  0.25035199  1
  O  O42  1  0.33612391  0.32775217  0.09353006  1
  O  O43  1  0.17637474  0.64725053  0.42075732  1
  O  O44  1  0.15933415  0.68133071  0.91105084  1
  O  O45  1  0.32788159  0.34423683  0.57506627  1
  O  O46  1  0.00495666  0.99008768  0.76054613  1
  O  O47  1  0.01476032  0.49301207  0.99275926  1
  O  O48  1  0.17453565  0.17365263  0.67392610  1
  O  O49  1  0.16451933  0.18170775  0.40913364  1
  O  O50  1  0.01275486  0.48544696  0.25817641  1
  O  O51  1  0.00064635  0.49997119  0.50098943  1
  O  O52  1  0.16350510  0.16853408  0.16771797  1
  O  O53  1  0.16579632  0.15586766  0.92207600  1
