# generated using pymatgen
data_LiCo(CO3)2
_symmetry_space_group_name_H-M   'P 1'
_cell_length_a   8.34503566
_cell_length_b   6.11768233
_cell_length_c   5.47744304
_cell_angle_alpha   63.40144631
_cell_angle_beta   106.68259868
_cell_angle_gamma   97.37839830
_symmetry_Int_Tables_number   1
_chemical_formula_structural   LiCo(CO3)2
_chemical_formula_sum   'Li2 Co2 C4 O12'
_cell_volume   239.51653263
_cell_formula_units_Z   2
loop_
 _symmetry_equiv_pos_site_id
 _symmetry_equiv_pos_as_xyz
  1  'x, y, z'
loop_
 _atom_site_type_symbol
 _atom_site_label
 _atom_site_symmetry_multiplicity
 _atom_site_fract_x
 _atom_site_fract_y
 _atom_site_fract_z
 _atom_site_occupancy
  Li  Li0  1  0.35734462  0.13639908  0.43059375  1
  Li  Li1  1  0.85740899  0.36344539  0.31710885  1
  Co  Co2  1  0.99912811  0.98095858  0.00623890  1
  Co  Co3  1  0.49916903  0.51901052  0.73722454  1
  C  C4  1  0.21810358  0.59229879  0.34901214  1
  C  C5  1  0.28512067  0.11520307  0.87531289  1
  C  C6  1  0.71802915  0.90771876  0.69137473  1
  C  C7  1  0.78513271  0.38484437  0.74032112  1
  O  O8  1  0.05659209  0.65323063  0.21856134  1
  O  O9  1  0.22950686  0.07911859  0.09075492  1
  O  O10  1  0.19618727  0.06977308  0.67511112  1
  O  O11  1  0.30767966  0.51505356  0.25785587  1
  O  O12  1  0.27267703  0.61173250  0.58871295  1
  O  O13  1  0.44211793  0.19148104  0.88730784  1
  O  O14  1  0.55653688  0.84675795  0.62178562  1
  O  O15  1  0.69609740  0.43040257  0.49463914  1
  O  O16  1  0.72955271  0.42082829  0.91980813  1
  O  O17  1  0.80764974  0.98495242  0.52293933  1
  O  O18  1  0.77260166  0.88828288  0.95044409  1
  O  O19  1  0.94206593  0.30850993  0.82849771  1
