# generated using pymatgen
data_Li2Fe(PO4)2
_symmetry_space_group_name_H-M   'P 1'
_cell_length_a   8.32347787
_cell_length_b   10.72689318
_cell_length_c   8.26457138
_cell_angle_alpha   88.75301374
_cell_angle_beta   103.79645290
_cell_angle_gamma   89.65232470
_symmetry_Int_Tables_number   1
_chemical_formula_structural   Li2Fe(PO4)2
_chemical_formula_sum   'Li8 Fe4 P8 O32'
_cell_volume   716.39566126
_cell_formula_units_Z   4
loop_
 _symmetry_equiv_pos_site_id
 _symmetry_equiv_pos_as_xyz
  1  'x, y, z'
loop_
 _atom_site_type_symbol
 _atom_site_label
 _atom_site_symmetry_multiplicity
 _atom_site_fract_x
 _atom_site_fract_y
 _atom_site_fract_z
 _atom_site_occupancy
  Li  Li0  1  0.22214837  0.44532147  0.45098438  1
  Li  Li1  1  0.29352054  0.91817855  0.55231211  1
  Li  Li2  1  0.39960723  0.17263211  0.39148979  1
  Li  Li3  1  0.72163166  0.07212799  0.46101666  1
  Li  Li4  1  0.84768646  0.65799406  0.84456563  1
  Li  Li5  1  0.78083970  0.56537134  0.52923631  1
  Li  Li6  1  0.83946730  0.83884025  0.36170224  1
  Li  Li7  1  0.90868530  0.32579773  0.39213730  1
  Fe  Fe8  1  0.09814553  0.84027583  0.10000935  1
  Fe  Fe9  1  0.40979579  0.33638935  0.90833233  1
  Fe  Fe10  1  0.58494935  0.66438559  0.09761941  1
  Fe  Fe11  1  0.91141762  0.16048228  0.90764113  1
  P  P12  1  0.04144497  0.40804600  0.76236410  1
  P  P13  1  0.03266801  0.08067935  0.28891582  1
  P  P14  1  0.47700646  0.58477540  0.72138188  1
  P  P15  1  0.54219003  0.09439212  0.76677586  1
  P  P16  1  0.45462663  0.90780007  0.23692583  1
  P  P17  1  0.53067840  0.41434282  0.28452590  1
  P  P18  1  0.97422819  0.91472753  0.71918180  1
  P  P19  1  0.94507389  0.59753838  0.22779143  1
  O  O20  1  0.00185764  0.05190672  0.77655969  1
  O  O21  1  0.08424182  0.36373037  0.60187294  1
  O  O22  1  0.19993343  0.40167846  0.90959723  1
  O  O23  1  0.00695267  0.46449313  0.27450188  1
  O  O24  1  0.12303172  0.87013358  0.65689278  1
  O  O25  1  0.04437285  0.15388760  0.12587054  1
  O  O26  1  0.08556195  0.67587206  0.17806079  1
  O  O27  1  0.20096828  0.08282051  0.41199332  1
  O  O28  1  0.32216731  0.59791349  0.57798187  1
  O  O29  1  0.40967194  0.17754027  0.81660649  1
  O  O30  1  0.45567316  0.65786272  0.87674252  1
  O  O31  1  0.39275407  0.35938123  0.35901663  1
  O  O32  1  0.47569178  0.96179388  0.73627927  1
  O  O33  1  0.30407016  0.90574192  0.08007439  1
  O  O34  1  0.39548529  0.84975491  0.38381266  1
  O  O35  1  0.50223278  0.44267894  0.77118406  1
  O  O36  1  0.49276380  0.55434688  0.23083305  1
  O  O37  1  0.58109125  0.14195154  0.60235565  1
  O  O38  1  0.70175285  0.09730196  0.91132773  1
  O  O39  1  0.51887162  0.03931957  0.28140056  1
  O  O40  1  0.63400062  0.62696962  0.66952735  1
  O  O41  1  0.54108920  0.33878530  0.12749905  1
  O  O42  1  0.59827555  0.82709833  0.19557019  1
  O  O43  1  0.70003515  0.40601553  0.41032403  1
  O  O44  1  0.81954540  0.90516411  0.57549732  1
  O  O45  1  0.91141270  0.31956024  0.81250913  1
  O  O46  1  0.95622714  0.83239372  0.87548442  1
  O  O47  1  0.89488388  0.13754333  0.35837340  1
  O  O48  1  0.96375427  0.53867964  0.73743314  1
  O  O49  1  0.79530563  0.60457807  0.06492664  1
  O  O50  1  0.87805272  0.66022157  0.36412275  1
  O  O51  1  0.98913996  0.93962856  0.23737226  1
