# generated using pymatgen
data_Li3V3(FeO5)2
_symmetry_space_group_name_H-M   'P 1'
_cell_length_a   5.13496204
_cell_length_b   5.22030126
_cell_length_c   8.06419056
_cell_angle_alpha   110.05079935
_cell_angle_beta   100.05117996
_cell_angle_gamma   101.40869539
_symmetry_Int_Tables_number   1
_chemical_formula_structural   Li3V3(FeO5)2
_chemical_formula_sum   'Li3 V3 Fe2 O10'
_cell_volume   192.03701657
_cell_formula_units_Z   1
loop_
 _symmetry_equiv_pos_site_id
 _symmetry_equiv_pos_as_xyz
  1  'x, y, z'
loop_
 _atom_site_type_symbol
 _atom_site_label
 _atom_site_symmetry_multiplicity
 _atom_site_fract_x
 _atom_site_fract_y
 _atom_site_fract_z
 _atom_site_occupancy
  Li  Li0  1  0.18881374  0.92509594  0.40735484  1
  Li  Li1  1  0.50000000  0.50000000  0.50000000  1
  Li  Li2  1  0.81118626  0.07490406  0.59264516  1
  V  V3  1  0.00000000  0.50000000  0.00000000  1
  V  V4  1  0.31268217  0.11639349  0.11305764  1
  V  V5  1  0.68731783  0.88360651  0.88694236  1
  Fe  Fe6  1  0.10068300  0.68430309  0.68804220  1
  Fe  Fe7  1  0.89931700  0.31569691  0.31195780  1
  O  O8  1  0.04179310  0.08511631  0.86792294  1
  O  O9  1  0.33233397  0.73629233  0.94825256  1
  O  O10  1  0.11618242  0.30483333  0.52899820  1
  O  O11  1  0.21482200  0.47444445  0.22188658  1
  O  O12  1  0.48429660  0.87206993  0.67854077  1
  O  O13  1  0.51570340  0.12793007  0.32145923  1
  O  O14  1  0.78517800  0.52555555  0.77811342  1
  O  O15  1  0.88381758  0.69516667  0.47100180  1
  O  O16  1  0.66766603  0.26370767  0.05174744  1
  O  O17  1  0.95820690  0.91488369  0.13207706  1
