# generated using pymatgen
data_Li3FeSiO5
_symmetry_space_group_name_H-M   'P 1'
_cell_length_a   6.28107558
_cell_length_b   5.75705765
_cell_length_c   5.13058413
_cell_angle_alpha   106.49179363
_cell_angle_beta   75.96890945
_cell_angle_gamma   103.75959435
_symmetry_Int_Tables_number   1
_chemical_formula_structural   Li3FeSiO5
_chemical_formula_sum   'Li6 Fe2 Si2 O10'
_cell_volume   169.71191600
_cell_formula_units_Z   2
loop_
 _symmetry_equiv_pos_site_id
 _symmetry_equiv_pos_as_xyz
  1  'x, y, z'
loop_
 _atom_site_type_symbol
 _atom_site_label
 _atom_site_symmetry_multiplicity
 _atom_site_fract_x
 _atom_site_fract_y
 _atom_site_fract_z
 _atom_site_occupancy
  Li  Li0  1  0.99451059  0.75508834  0.51260219  1
  Li  Li1  1  0.39891838  0.55433271  0.29798625  1
  Li  Li2  1  0.39241331  0.04968432  0.31894707  1
  Li  Li3  1  0.60758669  0.95031568  0.68105293  1
  Li  Li4  1  0.60108162  0.44566729  0.70201375  1
  Li  Li5  1  0.00548941  0.24491166  0.48739781  1
  Fe  Fe6  1  0.22302030  0.65435355  0.89648808  1
  Fe  Fe7  1  0.77697970  0.34564645  0.10351192  1
  Si  Si8  1  0.21050529  0.15113574  0.89938359  1
  Si  Si9  1  0.78949471  0.84886426  0.10061641  1
  O  O10  1  0.28408145  0.88061452  0.64547531  1
  O  O11  1  0.28175321  0.33127521  0.64683242  1
  O  O12  1  0.09079637  0.95393861  0.15942169  1
  O  O13  1  0.47427732  0.24017317  0.99986198  1
  O  O14  1  0.11047368  0.42096415  0.16085595  1
  O  O15  1  0.88952632  0.57903585  0.83914405  1
  O  O16  1  0.52572268  0.75982683  0.00013802  1
  O  O17  1  0.90920363  0.04606139  0.84057831  1
  O  O18  1  0.71824679  0.66872479  0.35316758  1
  O  O19  1  0.71591855  0.11938548  0.35452469  1
