# generated using pymatgen
data_Li4Mn3Nb3(FeO8)2
_symmetry_space_group_name_H-M   'P 1'
_cell_length_a   6.24356611
_cell_length_b   6.11725825
_cell_length_c   9.80691329
_cell_angle_alpha   89.49099549
_cell_angle_beta   87.83059838
_cell_angle_gamma   118.88232761
_symmetry_Int_Tables_number   1
_chemical_formula_structural   Li4Mn3Nb3(FeO8)2
_chemical_formula_sum   'Li4 Mn3 Nb3 Fe2 O16'
_cell_volume   327.57708498
_cell_formula_units_Z   1
loop_
 _symmetry_equiv_pos_site_id
 _symmetry_equiv_pos_as_xyz
  1  'x, y, z'
loop_
 _atom_site_type_symbol
 _atom_site_label
 _atom_site_symmetry_multiplicity
 _atom_site_fract_x
 _atom_site_fract_y
 _atom_site_fract_z
 _atom_site_occupancy
  Li  Li0  1  0.34781633  0.67700664  0.90314665  1
  Li  Li1  1  0.99635430  0.99564268  0.00256614  1
  Li  Li2  1  0.03305681  0.01404403  0.48604225  1
  Li  Li3  1  0.67726836  0.34447945  0.38690140  1
  Mn  Mn4  1  0.17084478  0.83293834  0.21006244  1
  Mn  Mn5  1  0.15847394  0.33566813  0.20848588  1
  Mn  Mn6  1  0.34394214  0.17366605  0.71264602  1
  Nb  Nb7  1  0.65374087  0.82184219  0.21951263  1
  Nb  Nb8  1  0.83502796  0.66368645  0.71667124  1
  Nb  Nb9  1  0.83470535  0.16903767  0.71389865  1
  Fe  Fe10  1  0.29283121  0.65154015  0.47387491  1
  Fe  Fe11  1  0.64007321  0.31270210  0.00500564  1
  O  O12  1  0.15158803  0.82201757  0.59923137  1
  O  O13  1  0.03989895  0.54272003  0.34031915  1
  O  O14  1  0.34808651  0.69278041  0.10573114  1
  O  O15  1  0.98510954  0.97181618  0.30241848  1
  O  O16  1  0.98771084  0.99215040  0.81685783  1
  O  O17  1  0.14762468  0.32857131  0.59449005  1
  O  O18  1  0.49857074  0.96475591  0.35020017  1
  O  O19  1  0.48614548  0.53069719  0.35158087  1
  O  O20  1  0.31245274  0.13803912  0.09055199  1
  O  O21  1  0.69928293  0.85076949  0.60788258  1
  O  O22  1  0.54576384  0.49756523  0.84261646  1
  O  O23  1  0.54717460  0.04769850  0.84031505  1
  O  O24  1  0.70268172  0.35483692  0.60148127  1
  O  O25  1  0.78721021  0.64595396  0.09686258  1
  O  O26  1  0.97290374  0.48285467  0.83014047  1
  O  O27  1  0.80365720  0.14481620  0.09834569  1
