# generated using pymatgen
data_Li3Fe3(PO4)4
_symmetry_space_group_name_H-M   'P 1'
_cell_length_a   9.21324144
_cell_length_b   8.52776869
_cell_length_c   10.03660913
_cell_angle_alpha   105.36546572
_cell_angle_beta   108.15266097
_cell_angle_gamma   109.61331655
_symmetry_Int_Tables_number   1
_chemical_formula_structural   Li3Fe3(PO4)4
_chemical_formula_sum   'Li6 Fe6 P8 O32'
_cell_volume   642.87203469
_cell_formula_units_Z   2
loop_
 _symmetry_equiv_pos_site_id
 _symmetry_equiv_pos_as_xyz
  1  'x, y, z'
loop_
 _atom_site_type_symbol
 _atom_site_label
 _atom_site_symmetry_multiplicity
 _atom_site_fract_x
 _atom_site_fract_y
 _atom_site_fract_z
 _atom_site_occupancy
  Li  Li0  1  0.47260099  0.05184719  0.80068637  1
  Li  Li1  1  0.38697691  0.36166616  0.84945590  1
  Li  Li2  1  0.33611600  0.28373288  0.25649182  1
  Li  Li3  1  0.66388400  0.71626712  0.74350818  1
  Li  Li4  1  0.61302309  0.63833384  0.15054410  1
  Li  Li5  1  0.52739901  0.94815281  0.19931363  1
  Fe  Fe6  1  0.05160036  0.76715344  0.54488792  1
  Fe  Fe7  1  0.11327797  0.86143455  0.17751169  1
  Fe  Fe8  1  0.03763845  0.44583257  0.24277719  1
  Fe  Fe9  1  0.96236155  0.55416743  0.75722281  1
  Fe  Fe10  1  0.88672203  0.13856545  0.82248831  1
  Fe  Fe11  1  0.94839964  0.23284656  0.45511208  1
  P  P12  1  0.27245031  0.59249561  0.60929455  1
  P  P13  1  0.18659651  0.01112798  0.91629890  1
  P  P14  1  0.22316705  0.54166460  0.04084836  1
  P  P15  1  0.24975674  0.08326261  0.48909507  1
  P  P16  1  0.75024326  0.91673739  0.51090493  1
  P  P17  1  0.77683295  0.45833540  0.95915164  1
  P  P18  1  0.81340349  0.98887202  0.08370110  1
  P  P19  1  0.72754969  0.40750439  0.39070545  1
  O  O20  1  0.07378474  0.80444534  0.78790075  1
  O  O21  1  0.05472257  0.43485311  0.88062295  1
  O  O22  1  0.14065545  0.86607978  0.41242026  1
  O  O23  1  0.10270880  0.47956565  0.62567182  1
  O  O24  1  0.28440370  0.78642676  0.65034557  1
  O  O25  1  0.09913221  0.12055679  0.85172078  1
  O  O26  1  0.22032902  0.50487764  0.43315441  1
  O  O27  1  0.24929468  0.74173516  0.11447167  1
  O  O28  1  0.11967466  0.16129421  0.48497132  1
  O  O29  1  0.18458382  0.43346802  0.14024471  1
  O  O30  1  0.42876416  0.58206634  0.70315188  1
  O  O31  1  0.36826601  0.08165952  0.93757428  1
  O  O32  1  0.38062057  0.15636220  0.65322580  1
  O  O33  1  0.69156341  0.89378508  0.63742021  1
  O  O34  1  0.17231823  0.01722536  0.06764972  1
  O  O35  1  0.62548605  0.45912719  0.98640945  1
  O  O36  1  0.37451395  0.54087281  0.01359055  1
  O  O37  1  0.82768177  0.98277464  0.93235028  1
  O  O38  1  0.30843659  0.10621492  0.36257979  1
  O  O39  1  0.61937943  0.84363780  0.34677420  1
  O  O40  1  0.63173399  0.91834048  0.06242572  1
  O  O41  1  0.57123584  0.41793366  0.29684812  1
  O  O42  1  0.81541618  0.56653198  0.85975529  1
  O  O43  1  0.88032534  0.83870579  0.51502868  1
  O  O44  1  0.75070532  0.25826484  0.88552833  1
  O  O45  1  0.77967098  0.49512236  0.56684559  1
  O  O46  1  0.90086779  0.87944321  0.14827922  1
  O  O47  1  0.71559630  0.21357324  0.34965443  1
  O  O48  1  0.89729120  0.52043435  0.37432818  1
  O  O49  1  0.85934455  0.13392022  0.58757974  1
  O  O50  1  0.94527743  0.56514689  0.11937705  1
  O  O51  1  0.92621526  0.19555466  0.21209925  1
