# generated using pymatgen
data_Li3Fe5(PO4)6
_symmetry_space_group_name_H-M   'P 1'
_cell_length_a   9.11463686
_cell_length_b   8.40222423
_cell_length_c   8.85579623
_cell_angle_alpha   105.23321539
_cell_angle_beta   115.74876152
_cell_angle_gamma   112.86687164
_symmetry_Int_Tables_number   1
_chemical_formula_structural   Li3Fe5(PO4)6
_chemical_formula_sum   'Li3 Fe5 P6 O24'
_cell_volume   480.77204011
_cell_formula_units_Z   1
loop_
 _symmetry_equiv_pos_site_id
 _symmetry_equiv_pos_as_xyz
  1  'x, y, z'
loop_
 _atom_site_type_symbol
 _atom_site_label
 _atom_site_symmetry_multiplicity
 _atom_site_fract_x
 _atom_site_fract_y
 _atom_site_fract_z
 _atom_site_occupancy
  Li  Li0  1  0.31853666  0.51779982  0.01866975  1
  Li  Li1  1  0.70615844  0.65017735  0.70296579  1
  Li  Li2  1  0.06483351  0.82848300  0.53886996  1
  Fe  Fe3  1  0.82368375  0.54049531  0.98049588  1
  Fe  Fe4  1  0.55300798  0.96113887  0.31457634  1
  Fe  Fe5  1  0.22706909  0.24208881  0.18972545  1
  Fe  Fe6  1  0.49500085  0.02160413  0.81371988  1
  Fe  Fe7  1  0.99765529  0.30996359  0.54719389  1
  P  P8  1  0.84498449  0.09888036  0.76914315  1
  P  P9  1  0.65566573  0.37202928  0.24517189  1
  P  P10  1  0.72937752  0.88836057  0.11807799  1
  P  P11  1  0.34544926  0.24705226  0.59556643  1
  P  P12  1  0.24474011  0.63840421  0.35925487  1
  P  P13  1  0.14310163  0.74239701  0.88491606  1
  O  O14  1  0.90298735  0.09998298  0.30166575  1
  O  O15  1  0.62734241  0.28804749  0.04638807  1
  O  O16  1  0.82439552  0.11953550  0.58623541  1
  O  O17  1  0.70860153  0.25552687  0.35322252  1
  O  O18  1  0.81229845  0.76842661  0.07786325  1
  O  O19  1  0.45029058  0.32715735  0.19189912  1
  O  O20  1  0.72850954  0.17911581  0.81029590  1
  O  O21  1  0.81412360  0.59400698  0.37510670  1
  O  O22  1  0.27078306  0.16247440  0.37909499  1
  O  O23  1  0.31045156  0.07517907  0.63714275  1
  O  O24  1  0.58401633  0.77980919  0.16295896  1
  O  O25  1  0.40683855  0.73606260  0.33253679  1
  O  O26  1  0.20518492  0.43238512  0.32930927  1
  O  O27  1  0.94135371  0.66138402  0.85600544  1
  O  O28  1  0.57230348  0.41703329  0.72694148  1
  O  O29  1  0.24826206  0.34132954  0.65369507  1
  O  O30  1  0.30928292  0.89110559  0.10921042  1
  O  O31  1  0.76153402  0.88522530  0.71479985  1
  O  O32  1  0.30919725  0.75871523  0.56495062  1
  O  O33  1  0.05078718  0.60584891  0.20494669  1
  O  O34  1  0.61228669  0.90639559  0.94414336  1
  O  O35  1  0.07340275  0.24332665  0.94523292  1
  O  O36  1  0.14286429  0.55106344  0.80689164  1
  O  O37  1  0.18363893  0.86198690  0.78896571  1
