# generated using pymatgen
data_Li9Fe4(SiO5)4
_symmetry_space_group_name_H-M   'P 1'
_cell_length_a   5.01298194
_cell_length_b   5.61780856
_cell_length_c   16.18383592
_cell_angle_alpha   90.28761006
_cell_angle_beta   89.97821339
_cell_angle_gamma   89.63947435
_symmetry_Int_Tables_number   1
_chemical_formula_structural   Li9Fe4(SiO5)4
_chemical_formula_sum   'Li9 Fe4 Si4 O20'
_cell_volume   455.75394475
_cell_formula_units_Z   1
loop_
 _symmetry_equiv_pos_site_id
 _symmetry_equiv_pos_as_xyz
  1  'x, y, z'
loop_
 _atom_site_type_symbol
 _atom_site_label
 _atom_site_symmetry_multiplicity
 _atom_site_fract_x
 _atom_site_fract_y
 _atom_site_fract_z
 _atom_site_occupancy
  Li  Li0  1  0.99376225  0.66178405  0.59854417  1
  Li  Li1  1  0.99815283  0.16579720  0.90886078  1
  Li  Li2  1  0.00114473  0.17134658  0.30086470  1
  Li  Li3  1  0.99726046  0.65873100  0.00214477  1
  Li  Li4  1  0.49846823  0.33711145  0.40291779  1
  Li  Li5  1  0.50242830  0.83071860  0.09196450  1
  Li  Li6  1  0.51008286  0.82499726  0.69614859  1
  Li  Li7  1  0.49732248  0.33865460  0.99733335  1
  Li  Li8  1  0.50175339  0.83565729  0.50614564  1
  Fe  Fe9  1  0.00058496  0.16856330  0.70240033  1
  Fe  Fe10  1  0.00747674  0.66699680  0.80158382  1
  Fe  Fe11  1  0.50256310  0.33333698  0.19921492  1
  Fe  Fe12  1  0.50403765  0.83614932  0.30071367  1
  Si  Si13  1  0.00490754  0.16781100  0.09630441  1
  Si  Si14  1  0.00850213  0.67111874  0.40015685  1
  Si  Si15  1  0.49968211  0.33794463  0.59864650  1
  Si  Si16  1  0.50760595  0.83042096  0.90340452  1
  O  O17  1  0.05835903  0.33644849  0.80118662  1
  O  O18  1  0.10704699  0.84229358  0.70623651  1
  O  O19  1  0.12122842  0.40521065  0.38052634  1
  O  O20  1  0.11040419  0.89478115  0.08082871  1
  O  O21  1  0.10292943  0.32308881  0.01691292  1
  O  O22  1  0.11618422  0.75343502  0.49100981  1
  O  O23  1  0.13280607  0.26065492  0.18510253  1
  O  O24  1  0.13301647  0.85227203  0.32981023  1
  O  O25  1  0.17413827  0.34423272  0.61903330  1
  O  O26  1  0.17555770  0.81622065  0.89503944  1
  O  O27  1  0.55603243  0.66327649  0.20235702  1
  O  O28  1  0.60805492  0.16121524  0.29474870  1
  O  O29  1  0.60914997  0.60951302  0.60147217  1
  O  O30  1  0.60888958  0.10359119  0.91838605  1
  O  O31  1  0.53105475  0.19348531  0.51044222  1
  O  O32  1  0.60580247  0.67411272  0.98271474  1
  O  O33  1  0.63701399  0.16237612  0.66981586  1
  O  O34  1  0.63461476  0.73632192  0.81413863  1
  O  O35  1  0.67321273  0.18213727  0.10535746  1
  O  O36  1  0.67653089  0.68670394  0.39421943  1
