# generated using pymatgen
data_Li3MnP2
_symmetry_space_group_name_H-M   'P 1'
_cell_length_a   5.77873116
_cell_length_b   11.53727636
_cell_length_c   11.59473205
_cell_angle_alpha   90.00000000
_cell_angle_beta   90.00000000
_cell_angle_gamma   90.00000000
_symmetry_Int_Tables_number   1
_chemical_formula_structural   Li3MnP2
_chemical_formula_sum   'Li24 Mn8 P16'
_cell_volume   773.03027494
_cell_formula_units_Z   8
loop_
 _symmetry_equiv_pos_site_id
 _symmetry_equiv_pos_as_xyz
  1  'x, y, z'
loop_
 _atom_site_type_symbol
 _atom_site_label
 _atom_site_symmetry_multiplicity
 _atom_site_fract_x
 _atom_site_fract_y
 _atom_site_fract_z
 _atom_site_occupancy
  Li  Li0  1  0.00204571  0.00000323  0.00257422  1
  Li  Li1  1  0.00176230  0.25007811  0.99915324  1
  Li  Li2  1  0.99823770  0.25007811  0.50084676  1
  Li  Li3  1  0.99518312  0.75072237  0.99527868  1
  Li  Li4  1  0.00481688  0.75072237  0.50472132  1
  Li  Li5  1  0.50000000  0.74465067  0.25000000  1
  Li  Li6  1  0.50495808  0.25086467  0.99840709  1
  Li  Li7  1  0.50481688  0.99927763  0.99527868  1
  Li  Li8  1  0.49504192  0.25086467  0.50159291  1
  Li  Li9  1  0.50000000  0.50554278  0.25000000  1
  Li  Li10  1  0.49795429  0.74999677  0.00257422  1
  Li  Li11  1  0.50176230  0.49992189  0.50084676  1
  Li  Li12  1  0.49823770  0.49992189  0.99915324  1
  Li  Li13  1  0.50000000  0.49951433  0.75000000  1
  Li  Li14  1  0.50204571  0.74999677  0.49742578  1
  Li  Li15  1  0.50000000  0.00025648  0.75000000  1
  Li  Li16  1  0.49518312  0.99927763  0.50472132  1
  Li  Li17  1  0.00000000  0.24445722  0.25000000  1
  Li  Li18  1  0.00495808  0.49913533  0.50159291  1
  Li  Li19  1  0.99504192  0.49913533  0.99840709  1
  Li  Li20  1  0.00000000  0.25048567  0.75000000  1
  Li  Li21  1  0.00000000  0.00534933  0.25000000  1
  Li  Li22  1  0.99795429  0.00000323  0.49742578  1
  Li  Li23  1  0.00000000  0.74974352  0.75000000  1
  Mn  Mn24  1  0.50000000  0.25574099  0.25000000  1
  Mn  Mn25  1  0.50000000  0.25004667  0.75000000  1
  Mn  Mn26  1  0.50000000  0.75001340  0.75000000  1
  Mn  Mn27  1  0.50000000  0.99394743  0.25000000  1
  Mn  Mn28  1  0.00000000  0.49425901  0.25000000  1
  Mn  Mn29  1  0.00000000  0.49995333  0.75000000  1
  Mn  Mn30  1  0.00000000  0.75605257  0.25000000  1
  Mn  Mn31  1  0.00000000  -0.00001340  0.75000000  1
  P  P32  1  0.28351101  0.12499265  0.13663758  1
  P  P33  1  0.24630122  0.12446117  0.63604128  1
  P  P34  1  0.21648899  0.62500735  0.13663758  1
  P  P35  1  0.25369878  0.62553883  0.63604128  1
  P  P36  1  0.25000000  0.37500000  0.36278430  1
  P  P37  1  0.25000000  0.37500000  0.86455693  1
  P  P38  1  0.25000000  0.87500000  0.36317117  1
  P  P39  1  0.25000000  0.87500000  0.86389232  1
  P  P40  1  0.71648899  0.12499265  0.36336242  1
  P  P41  1  0.75000000  0.37500000  0.13721570  1
  P  P42  1  0.75369878  0.12446117  0.86395872  1
  P  P43  1  0.75000000  0.37500000  0.63544307  1
  P  P44  1  0.78351101  0.62500735  0.36336242  1
  P  P45  1  0.75000000  0.87500000  0.13682883  1
  P  P46  1  0.74630122  0.62553883  0.86395872  1
  P  P47  1  0.75000000  0.87500000  0.63610768  1
