# generated using pymatgen
data_Li2Ti2Mn5O12
_symmetry_space_group_name_H-M   'P 1'
_cell_length_a   5.09140969
_cell_length_b   9.11311506
_cell_length_c   10.36222404
_cell_angle_alpha   90.00000309
_cell_angle_beta   101.73592817
_cell_angle_gamma   89.99999516
_symmetry_Int_Tables_number   1
_chemical_formula_structural   Li2Ti2Mn5O12
_chemical_formula_sum   'Li4 Ti4 Mn10 O24'
_cell_volume   470.74196035
_cell_formula_units_Z   2
loop_
 _symmetry_equiv_pos_site_id
 _symmetry_equiv_pos_as_xyz
  1  'x, y, z'
loop_
 _atom_site_type_symbol
 _atom_site_label
 _atom_site_symmetry_multiplicity
 _atom_site_fract_x
 _atom_site_fract_y
 _atom_site_fract_z
 _atom_site_occupancy
  Li  Li0  1  0.75448938  0.08350343  0.51615619  1
  Li  Li1  1  0.50460991  0.42405595  0.74582170  1
  Li  Li2  1  0.74551062  0.58350343  0.98384381  1
  Li  Li3  1  0.99539009  0.92405595  0.75417830  1
  Ti  Ti4  1  0.01198249  0.24998261  0.75799296  1
  Ti  Ti5  1  0.49194135  0.25078776  0.24321226  1
  Ti  Ti6  1  0.00805865  0.75078776  0.25678774  1
  Ti  Ti7  1  0.48801751  0.74998261  0.74200704  1
  Mn  Mn8  1  0.00209398  0.08323150  0.25981066  1
  Mn  Mn9  1  0.49493906  0.07487159  0.74556238  1
  Mn  Mn10  1  0.25502730  0.27620012  0.51400912  1
  Mn  Mn11  1  0.00463534  0.41918665  0.24749742  1
  Mn  Mn12  1  0.74393773  0.24499919  0.98868534  1
  Mn  Mn13  1  0.00506094  0.57487159  0.75443762  1
  Mn  Mn14  1  0.49790602  0.58323150  0.24018934  1
  Mn  Mn15  1  0.24497270  0.77620012  0.98599088  1
  Mn  Mn16  1  0.75606227  0.74499919  0.51131466  1
  Mn  Mn17  1  0.49536466  0.91918665  0.25250258  1
  O  O18  1  0.13096044  0.10285046  0.63913527  1
  O  O19  1  0.37097105  0.11074488  0.36100441  1
  O  O20  1  0.37216539  0.22501243  0.85517369  1
  O  O21  1  0.13348196  0.26275966  0.14281195  1
  O  O22  1  0.63413868  0.08588646  0.15428266  1
  O  O23  1  0.84898421  0.09706141  0.85406921  1
  O  O24  1  0.11435030  0.40990072  0.65325866  1
  O  O25  1  0.62508224  0.22528535  0.63952024  1
  O  O26  1  0.37233236  0.41961066  0.34493117  1
  O  O27  1  0.87357403  0.23628308  0.36304306  1
  O  O28  1  0.65120515  0.39702521  0.13756296  1
  O  O29  1  0.88216847  0.41144588  0.85793016  1
  O  O30  1  0.12902895  0.61074488  0.13899559  1
  O  O31  1  0.36903956  0.60285046  0.86086473  1
  O  O32  1  0.12783461  0.72501243  0.64482631  1
  O  O33  1  0.65101579  0.59706141  0.64593079  1
  O  O34  1  0.36651804  0.76275966  0.35718805  1
  O  O35  1  0.86586132  0.58588646  0.34571734  1
  O  O36  1  0.12766864  0.91961066  0.15506883  1
  O  O37  1  0.87491776  0.72528535  0.86047976  1
  O  O38  1  0.38564970  0.90990072  0.84674134  1
  O  O39  1  0.62642597  0.73628308  0.13695694  1
  O  O40  1  0.61783153  0.91144588  0.64206984  1
  O  O41  1  0.84879485  0.89702521  0.36243704  1
