# generated using pymatgen
data_LiFeSiO4
_symmetry_space_group_name_H-M   'P 1'
_cell_length_a   5.42022883
_cell_length_b   10.22395978
_cell_length_c   6.16756085
_cell_angle_alpha   90.00000000
_cell_angle_beta   90.00000000
_cell_angle_gamma   79.84322084
_symmetry_Int_Tables_number   1
_chemical_formula_structural   LiFeSiO4
_chemical_formula_sum   'Li4 Fe4 Si4 O16'
_cell_volume   336.42668672
_cell_formula_units_Z   4
loop_
 _symmetry_equiv_pos_site_id
 _symmetry_equiv_pos_as_xyz
  1  'x, y, z'
loop_
 _atom_site_type_symbol
 _atom_site_label
 _atom_site_symmetry_multiplicity
 _atom_site_fract_x
 _atom_site_fract_y
 _atom_site_fract_z
 _atom_site_occupancy
  Li  Li0  1  0.25583665  0.27906209  0.58027424  1
  Li  Li1  1  0.24416335  0.22093791  0.08027424  1
  Li  Li2  1  0.75583665  0.77906209  0.91972576  1
  Li  Li3  1  0.74416335  0.72093791  0.41972576  1
  Fe  Fe4  1  0.16145187  0.89517757  0.64911048  1
  Fe  Fe5  1  0.33854813  0.60482243  0.14910948  1
  Fe  Fe6  1  0.66145187  0.39517757  0.85088952  1
  Fe  Fe7  1  0.83854813  0.10482243  0.35089052  1
  Si  Si8  1  0.25376169  0.63061038  0.63841512  1
  Si  Si9  1  0.24623831  0.86938962  0.13841512  1
  Si  Si10  1  0.75376169  0.13061038  0.86158488  1
  Si  Si11  1  0.74623831  0.36938962  0.36158488  1
  O  O12  1  0.98483163  0.73965840  0.66009238  1
  O  O13  1  0.05489290  0.75889907  0.12943932  1
  O  O14  1  0.24811613  0.54026224  0.42075885  1
  O  O15  1  0.31629168  0.53156532  0.85355589  1
  O  O16  1  0.18370832  0.96843468  0.35355589  1
  O  O17  1  0.25188387  0.95973776  0.92075885  1
  O  O18  1  0.48483163  0.23965840  0.83990762  1
  O  O19  1  0.55489290  0.25889907  0.37056068  1
  O  O20  1  0.44510710  0.74110093  0.62943932  1
  O  O21  1  0.51516837  0.76034160  0.16009238  1
  O  O22  1  0.74811613  0.04026224  0.07924115  1
  O  O23  1  0.81629168  0.03156532  0.64644411  1
  O  O24  1  0.68370832  0.46843468  0.14644411  1
  O  O25  1  0.75188387  0.45973776  0.57924115  1
  O  O26  1  0.94510710  0.24110093  0.87056068  1
  O  O27  1  0.01516837  0.26034160  0.33990762  1
