# generated using pymatgen
data_Lu2S3
_symmetry_space_group_name_H-M   'P 1'
_cell_length_a   13.90487289
_cell_length_b   7.10182658
_cell_length_c   7.88941846
_cell_angle_alpha   122.44334261
_cell_angle_beta   151.79177373
_cell_angle_gamma   52.49974522
_symmetry_Int_Tables_number   1
_chemical_formula_structural   Lu2S3
_chemical_formula_sum   'Lu4 S6'
_cell_volume   292.15410382
_cell_formula_units_Z   2
loop_
 _symmetry_equiv_pos_site_id
 _symmetry_equiv_pos_as_xyz
  1  'x, y, z'
loop_
 _atom_site_type_symbol
 _atom_site_label
 _atom_site_symmetry_multiplicity
 _atom_site_fract_x
 _atom_site_fract_y
 _atom_site_fract_z
 _atom_site_occupancy
  Lu  Lu0  1  0.26774610  0.26951888  0.21290121  1
  Lu  Lu1  1  0.73225390  0.73048112  0.78709879  1
  Lu  Lu2  1  0.05484490  0.76951888  0.78709880  1
  Lu  Lu3  1  0.94515510  0.23048112  0.21290120  1
  S  S4  1  0.36473347  0.81115253  0.10752305  1
  S  S5  1  0.93503346  0.25000000  0.87006693  1
  S  S6  1  0.74278958  0.68884747  0.10752305  1
  S  S7  1  0.63526653  0.18884747  0.89247695  1
  S  S8  1  0.06496654  0.75000000  0.12993307  1
  S  S9  1  0.25721042  0.31115253  0.89247695  1
