# generated using pymatgen
data_FeOF
_symmetry_space_group_name_H-M   'P 1'
_cell_length_a   9.63839171
_cell_length_b   14.39802185
_cell_length_c   3.14268683
_cell_angle_alpha   90.00000000
_cell_angle_beta   90.00000000
_cell_angle_gamma   90.15620409
_symmetry_Int_Tables_number   1
_chemical_formula_structural   FeOF
_chemical_formula_sum   'Fe12 O12 F12'
_cell_volume   436.12089264
_cell_formula_units_Z   12
loop_
 _symmetry_equiv_pos_site_id
 _symmetry_equiv_pos_as_xyz
  1  'x, y, z'
loop_
 _atom_site_type_symbol
 _atom_site_label
 _atom_site_symmetry_multiplicity
 _atom_site_fract_x
 _atom_site_fract_y
 _atom_site_fract_z
 _atom_site_occupancy
  Fe  Fe0  1  0.00007364  0.99918436  0.00000000  1
  Fe  Fe1  1  0.01325178  0.32626212  0.00000000  1
  Fe  Fe2  1  0.00632123  0.67166214  0.00000000  1
  Fe  Fe3  1  0.22614205  0.15832863  0.50000000  1
  Fe  Fe4  1  0.27659973  0.50342392  0.50000000  1
  Fe  Fe5  1  0.22459183  0.83523884  0.50000000  1
  Fe  Fe6  1  0.49795678  0.34100511  0.00000000  1
  Fe  Fe7  1  0.51708673  0.99792992  0.00000000  1
  Fe  Fe8  1  0.50653356  0.65999621  0.00000000  1
  Fe  Fe9  1  0.75052321  0.14808276  0.50000000  1
  Fe  Fe10  1  0.72952290  0.49821692  0.50000000  1
  Fe  Fe11  1  0.75733462  0.85258177  0.50000000  1
  O  O12  1  0.09909216  0.27090979  0.50000000  1
  O  O13  1  0.09444818  0.93709158  0.50000000  1
  O  O14  1  0.14792979  0.09986364  0.00000000  1
  O  O15  1  0.15089622  0.76880055  0.00000000  1
  O  O16  1  0.34608599  0.57023059  0.00000000  1
  O  O17  1  0.40019500  0.39438024  0.50000000  1
  O  O18  1  0.59230076  0.93400231  0.50000000  1
  O  O19  1  0.60129348  0.60482217  0.50000000  1
  O  O20  1  0.65161557  0.10233568  0.00000000  1
  O  O21  1  0.65722873  0.43192803  0.00000000  1
  O  O22  1  0.85172345  0.89960958  0.00000000  1
  O  O23  1  0.90530574  0.06308433  0.50000000  1
  F  F24  1  0.09453641  0.59418852  0.50000000  1
  F  F25  1  0.14897358  0.43867626  0.00000000  1
  F  F26  1  0.34886740  0.22552240  0.00000000  1
  F  F27  1  0.34383622  0.90128463  0.00000000  1
  F  F28  1  0.39797462  0.06462698  0.50000000  1
  F  F29  1  0.40725974  0.73707551  0.50000000  1
  F  F30  1  0.59891287  0.26647551  0.50000000  1
  F  F31  1  0.65624732  0.77120605  0.00000000  1
  F  F32  1  0.84688516  0.23571109  0.00000000  1
  F  F33  1  0.85344707  0.56535504  0.00000000  1
  F  F34  1  0.90778499  0.40100277  0.50000000  1
  F  F35  1  0.89122349  0.72990203  0.50000000  1
