# generated using pymatgen
data_Ca3Zr17O37
_symmetry_space_group_name_H-M   'P 1'
_cell_length_a   3.64856016
_cell_length_b   3.64848072
_cell_length_c   73.82089948
_cell_angle_alpha   60.37868885
_cell_angle_beta   60.37836675
_cell_angle_gamma   59.99788442
_symmetry_Int_Tables_number   1
_chemical_formula_structural   Ca3Zr17O37
_chemical_formula_sum   'Ca3 Zr17 O37'
_cell_volume   698.79875325
_cell_formula_units_Z   1
loop_
 _symmetry_equiv_pos_site_id
 _symmetry_equiv_pos_as_xyz
  1  'x, y, z'
loop_
 _atom_site_type_symbol
 _atom_site_label
 _atom_site_symmetry_multiplicity
 _atom_site_fract_x
 _atom_site_fract_y
 _atom_site_fract_z
 _atom_site_occupancy
  Ca  Ca0  1  0.00862956  0.00864531  0.04870722  1
  Ca  Ca1  1  0.01268492  0.01267855  0.09809882  1
  Ca  Ca2  1  0.02723442  0.02716763  0.94592116  1
  Zr  Zr3  1  0.00184121  0.00147232  0.99974771  1
  Zr  Zr4  1  0.97884348  0.97870164  0.15318367  1
  Zr  Zr5  1  0.98515570  0.98530843  0.20221572  1
  Zr  Zr6  1  0.98743493  0.98746580  0.25188182  1
  Zr  Zr7  1  0.98849546  0.98850437  0.30172436  1
  Zr  Zr8  1  0.98854965  0.98856438  0.35171577  1
  Zr  Zr9  1  0.98884511  0.98886132  0.40167157  1
  Zr  Zr10  1  0.98922203  0.98925395  0.45161295  1
  Zr  Zr11  1  0.98963523  0.98968154  0.50154998  1
  Zr  Zr12  1  0.98988830  0.98989819  0.55151512  1
  Zr  Zr13  1  0.99020001  0.99017949  0.60147141  1
  Zr  Zr14  1  0.99008752  0.99006563  0.65148857  1
  Zr  Zr15  1  0.99041803  0.99041539  0.70143719  1
  Zr  Zr16  1  0.99101838  0.99101842  0.75134703  1
  Zr  Zr17  1  0.99365263  0.99361708  0.80095393  1
  Zr  Zr18  1  0.99887449  0.99877441  0.85017656  1
  Zr  Zr19  1  0.00157644  0.00152057  0.89976809  1
  O  O20  1  0.74893402  0.74893464  0.03766368  1
  O  O21  1  0.75715023  0.75714910  0.08643002  1
  O  O22  1  0.25079283  0.25076123  0.16238350  1
  O  O23  1  0.25417350  0.25422116  0.21187049  1
  O  O24  1  0.76023736  0.76033678  0.13595967  1
  O  O25  1  0.25347157  0.25347936  0.26197791  1
  O  O26  1  0.75060367  0.75046161  0.18742072  1
  O  O27  1  0.75183712  0.75183766  0.23722477  1
  O  O28  1  0.25397445  0.25398180  0.31190251  1
  O  O29  1  0.25416190  0.25416686  0.36187451  1
  O  O30  1  0.75271654  0.75273124  0.28709119  1
  O  O31  1  0.75356211  0.75357213  0.33696483  1
  O  O32  1  0.25448902  0.25450211  0.41182480  1
  O  O33  1  0.75417539  0.75418541  0.38687308  1
  O  O34  1  0.25463365  0.25467840  0.46179929  1
  O  O35  1  0.25501266  0.25507298  0.51174103  1
  O  O36  1  0.75435406  0.75439058  0.43684329  1
  O  O37  1  0.75460297  0.75468110  0.48680186  1
  O  O38  1  0.25513274  0.25514581  0.56172731  1
  O  O39  1  0.75481300  0.75484317  0.53677448  1
  O  O40  1  0.25552002  0.25548905  0.61167325  1
  O  O41  1  0.75514821  0.75513751  0.58672806  1
  O  O42  1  0.25523931  0.25519914  0.66171613  1
  O  O43  1  0.75508551  0.75504322  0.63674020  1
  O  O44  1  0.25585273  0.25584027  0.71162194  1
  O  O45  1  0.25674018  0.25674317  0.76148813  1
  O  O46  1  0.75522765  0.75520625  0.68671726  1
  O  O47  1  0.75556817  0.75557846  0.73666416  1
  O  O48  1  0.26006216  0.26002068  0.81099317  1
  O  O49  1  0.75691223  0.75689857  0.78646443  1
  O  O50  1  0.26899387  0.26890675  0.85965698  1
  O  O51  1  0.28649384  0.28644033  0.90702864  1
  O  O52  1  0.76165116  0.76157234  0.83575945  1
  O  O53  1  0.20738361  0.20745694  0.96888681  1
  O  O54  1  0.76963155  0.76958226  0.88455748  1
  O  O55  1  0.77696348  0.77688832  0.93346422  1
  O  O56  1  0.64641004  0.64706916  0.00300210  1
