# generated using pymatgen
data_Li2VO2F
_symmetry_space_group_name_H-M   'P 1'
_cell_length_a   6.03039537
_cell_length_b   5.19696553
_cell_length_c   7.35928452
_cell_angle_alpha   90.26054135
_cell_angle_beta   89.98357212
_cell_angle_gamma   90.01321208
_symmetry_Int_Tables_number   1
_chemical_formula_structural   Li2VO2F
_chemical_formula_sum   'Li8 V4 O8 F4'
_cell_volume   230.63578734
_cell_formula_units_Z   4
loop_
 _symmetry_equiv_pos_site_id
 _symmetry_equiv_pos_as_xyz
  1  'x, y, z'
loop_
 _atom_site_type_symbol
 _atom_site_label
 _atom_site_symmetry_multiplicity
 _atom_site_fract_x
 _atom_site_fract_y
 _atom_site_fract_z
 _atom_site_occupancy
  Li  Li0  1  0.98119487  0.64800215  0.85726418  1
  Li  Li1  1  0.98000640  0.35049586  0.14747185  1
  Li  Li2  1  0.24099376  0.83876675  0.14551029  1
  Li  Li3  1  0.24578325  0.16951095  0.84883861  1
  Li  Li4  1  0.51915286  0.33083810  0.13577612  1
  Li  Li5  1  0.51944212  0.65364022  0.85676318  1
  Li  Li6  1  0.75524333  0.19437826  0.85721991  1
  Li  Li7  1  0.75945241  0.81604979  0.13475519  1
  V  V8  1  0.00007001  0.99537736  0.50040263  1
  V  V9  1  0.24559527  0.49492892  0.50641111  1
  V  V10  1  0.49980116  0.01260763  0.50512505  1
  V  V11  1  0.75581352  0.49475869  0.50642979  1
  O  O12  1  0.00217303  0.32311634  0.65423106  1
  O  O13  1  0.00169576  0.65821912  0.35386855  1
  O  O14  1  0.25487854  0.83360910  0.64390764  1
  O  O15  1  0.25464280  0.16914607  0.35216184  1
  O  O16  1  0.49925171  0.34715974  0.65127566  1
  O  O17  1  0.74327679  0.83066337  0.64359816  1
  O  O18  1  0.74818622  0.16735257  0.35458717  1
  O  O19  1  0.74904146  0.50121540  0.00326130  1
  F  F20  1  0.00655852  0.99923513  0.99948881  1
  F  F21  1  0.24986846  0.50152850  0.00292769  1
  F  F22  1  0.49765602  0.67130214  0.33884791  1
  F  F23  1  0.49018372  0.99809683  0.99987928  1
