# generated using pymatgen
data_Li2Fe2Si2O7
_symmetry_space_group_name_H-M   'P 1'
_cell_length_a   5.38521285
_cell_length_b   5.39237944
_cell_length_c   8.07134703
_cell_angle_alpha   90.93505217
_cell_angle_beta   88.37642282
_cell_angle_gamma   119.93783779
_symmetry_Int_Tables_number   1
_chemical_formula_structural   Li2Fe2Si2O7
_chemical_formula_sum   'Li2 Fe2 Si2 O7'
_cell_volume   203.02798529
_cell_formula_units_Z   1
loop_
 _symmetry_equiv_pos_site_id
 _symmetry_equiv_pos_as_xyz
  1  'x, y, z'
loop_
 _atom_site_type_symbol
 _atom_site_label
 _atom_site_symmetry_multiplicity
 _atom_site_fract_x
 _atom_site_fract_y
 _atom_site_fract_z
 _atom_site_occupancy
  Li  Li0  1  0.33627320  0.66499423  0.21316701  1
  Li  Li1  1  0.66342494  0.33473670  0.78713686  1
  Fe  Fe2  1  0.33074698  0.66773055  0.77241209  1
  Fe  Fe3  1  0.66909120  0.33187196  0.22750048  1
  Si  Si4  1  0.00093641  0.99894082  0.29598911  1
  Si  Si5  1  0.99915937  0.00130316  0.70385649  1
  O  O6  1  0.29043942  0.00431086  0.76480273  1
  O  O7  1  0.99504959  0.29000210  0.77100974  1
  O  O8  1  0.00074225  0.00165044  0.50007562  1
  O  O9  1  0.29045486  0.28982873  0.22881226  1
  O  O10  1  0.70944350  0.70979971  0.77028313  1
  O  O11  1  0.00468544  0.70960678  0.22990831  1
  O  O12  1  0.70935384  0.99522298  0.23504716  1
