# generated using pymatgen
data_LiMnF4
_symmetry_space_group_name_H-M   'P 1'
_cell_length_a   7.69717097
_cell_length_b   5.44152394
_cell_length_c   3.88240412
_cell_angle_alpha   110.90003603
_cell_angle_beta   90.00000000
_cell_angle_gamma   90.00000000
_symmetry_Int_Tables_number   1
_chemical_formula_structural   LiMnF4
_chemical_formula_sum   'Li2 Mn2 F8'
_cell_volume   151.91276035
_cell_formula_units_Z   2
loop_
 _symmetry_equiv_pos_site_id
 _symmetry_equiv_pos_as_xyz
  1  'x, y, z'
loop_
 _atom_site_type_symbol
 _atom_site_label
 _atom_site_symmetry_multiplicity
 _atom_site_fract_x
 _atom_site_fract_y
 _atom_site_fract_z
 _atom_site_occupancy
  Li  Li0  1  0.25000000  0.46149875  0.73074937  1
  Li  Li1  1  0.75000000  0.53850125  0.26925063  1
  Mn  Mn2  1  0.00000000  0.00000000  0.00000000  1
  Mn  Mn3  1  0.50000000  0.00000000  0.00000000  1
  F  F4  1  0.00000000  0.00000000  0.50000000  1
  F  F5  1  0.08492484  0.33868019  0.16933959  1
  F  F6  1  0.25000000  0.83705217  0.91852659  1
  F  F7  1  0.41507516  0.33868019  0.16933959  1
  F  F8  1  0.50000000  0.00000000  0.50000000  1
  F  F9  1  0.58492484  0.66131981  0.83066041  1
  F  F10  1  0.75000000  0.16294783  0.08147341  1
  F  F11  1  0.91507516  0.66131981  0.83066041  1
