# generated using pymatgen
data_LiFe2OF5
_symmetry_space_group_name_H-M   'P 1'
_cell_length_a   5.43191760
_cell_length_b   5.43179149
_cell_length_c   9.05684186
_cell_angle_alpha   99.36850455
_cell_angle_beta   80.62681021
_cell_angle_gamma   62.82480075
_symmetry_Int_Tables_number   1
_chemical_formula_structural   LiFe2OF5
_chemical_formula_sum   'Li2 Fe4 O2 F10'
_cell_volume   225.82652563
_cell_formula_units_Z   2
loop_
 _symmetry_equiv_pos_site_id
 _symmetry_equiv_pos_as_xyz
  1  'x, y, z'
loop_
 _atom_site_type_symbol
 _atom_site_label
 _atom_site_symmetry_multiplicity
 _atom_site_fract_x
 _atom_site_fract_y
 _atom_site_fract_z
 _atom_site_occupancy
  Li  Li0  1  0.54500515  0.70539849  0.91048985  1
  Li  Li1  1  0.77698171  0.97283801  0.44457554  1
  Fe  Fe2  1  0.03749548  0.21218157  0.92496434  1
  Fe  Fe3  1  0.37811299  0.87200356  0.24413013  1
  Fe  Fe4  1  0.71195894  0.53846934  0.57702180  1
  Fe  Fe5  1  0.95910754  0.79076867  0.08259321  1
  O  O6  1  0.18907113  0.99170809  0.07597531  1
  O  O7  1  0.73527589  0.58386418  0.07600350  1
  F  F8  1  0.03564540  0.18418078  0.41334844  1
  F  F9  1  0.14234311  0.67252231  0.25352572  1
  F  F10  1  0.25705546  0.42853329  0.92753053  1
  F  F11  1  0.60501050  0.08047925  0.25344174  1
  F  F12  1  0.51342437  0.33754571  0.57805577  1
  F  F13  1  0.37772141  0.87530585  0.75997554  1
  F  F14  1  0.55145043  0.72941545  0.41336769  1
  F  F15  1  0.86226796  0.38427565  0.75998758  1
  F  F16  1  0.90821947  0.74172575  0.57825299  1
  F  F17  1  0.81548704  0.99834504  0.92764432  1
