# generated using pymatgen
data_Co2O3F
_symmetry_space_group_name_H-M   'P 1'
_cell_length_a   4.51973451
_cell_length_b   4.51973451
_cell_length_c   14.76485973
_cell_angle_alpha   90.00000000
_cell_angle_beta   90.00000000
_cell_angle_gamma   94.28181494
_symmetry_Int_Tables_number   1
_chemical_formula_structural   Co2O3F
_chemical_formula_sum   'Co10 O15 F5'
_cell_volume   300.77470747
_cell_formula_units_Z   5
loop_
 _symmetry_equiv_pos_site_id
 _symmetry_equiv_pos_as_xyz
  1  'x, y, z'
loop_
 _atom_site_type_symbol
 _atom_site_label
 _atom_site_symmetry_multiplicity
 _atom_site_fract_x
 _atom_site_fract_y
 _atom_site_fract_z
 _atom_site_occupancy
  Co  Co0  1  -0.00065322  0.00065322  0.00061655  1
  Co  Co1  1  0.99438402  0.00561598  0.20000000  1
  Co  Co2  1  -0.00065322  0.00065322  0.39938345  1
  Co  Co3  1  0.01482671  0.98517329  0.59985839  1
  Co  Co4  1  0.01482671  0.98517329  0.80014161  1
  Co  Co5  1  0.53070463  0.46929537  0.10005574  1
  Co  Co6  1  0.47207525  0.52792475  0.49992765  1
  Co  Co7  1  0.53070463  0.46929537  0.29994426  1
  Co  Co8  1  0.47207525  0.52792475  0.90007235  1
  Co  Co9  1  0.48181417  0.51818583  0.70000000  1
  O  O10  1  0.18619661  0.81380339  0.49626246  1
  O  O11  1  0.20555674  0.79444326  0.70000000  1
  O  O12  1  0.18619661  0.81380339  0.90373754  1
  O  O13  1  0.30635800  0.30615106  0.00008220  1
  O  O14  1  0.31052711  0.29564905  0.20000000  1
  O  O15  1  0.30176457  0.31311934  0.60061533  1
  O  O16  1  0.30176457  0.31311934  0.79938467  1
  O  O17  1  0.30635800  0.30615106  0.39991780  1
  O  O18  1  0.69384894  0.69364200  0.00008220  1
  O  O19  1  0.70435095  0.68947289  0.20000000  1
  O  O20  1  0.69384894  0.69364200  0.39991780  1
  O  O21  1  0.68688066  0.69823543  0.60061533  1
  O  O22  1  0.68688066  0.69823543  0.79938467  1
  O  O23  1  0.81957137  0.18042863  0.10359151  1
  O  O24  1  0.81957137  0.18042863  0.29640849  1
  F  F25  1  0.19888403  0.80111597  0.10676860  1
  F  F26  1  0.19888403  0.80111597  0.29323140  1
  F  F27  1  0.79442933  0.20557067  0.50286810  1
  F  F28  1  0.79442933  0.20557067  0.89713190  1
  F  F29  1  0.79359426  0.20640574  0.70000000  1
