# generated using pymatgen
data_Li4CoO4
_symmetry_space_group_name_H-M   'P 1'
_cell_length_a   6.24268548
_cell_length_b   6.24275551
_cell_length_c   4.76992008
_cell_angle_alpha   89.99993559
_cell_angle_beta   90.00009005
_cell_angle_gamma   89.99924905
_symmetry_Int_Tables_number   1
_chemical_formula_structural   Li4CoO4
_chemical_formula_sum   'Li8 Co2 O8'
_cell_volume   185.89122266
_cell_formula_units_Z   2
loop_
 _symmetry_equiv_pos_site_id
 _symmetry_equiv_pos_as_xyz
  1  'x, y, z'
loop_
 _atom_site_type_symbol
 _atom_site_label
 _atom_site_symmetry_multiplicity
 _atom_site_fract_x
 _atom_site_fract_y
 _atom_site_fract_z
 _atom_site_occupancy
  Li  Li0  1  0.04929409  0.95073157  0.75001211  1
  Li  Li1  1  0.25000420  0.25000802  0.18615122  1
  Li  Li2  1  0.25000587  0.25001681  0.68612420  1
  Li  Li3  1  0.45072865  0.54929427  0.75000332  1
  Li  Li4  1  0.54929719  0.04929477  0.24999228  1
  Li  Li5  1  0.75000905  0.75000923  0.31385943  1
  Li  Li6  1  0.75002214  0.75000120  0.81388405  1
  Li  Li7  1  0.95073125  0.45073341  0.24999475  1
  Co  Co8  1  0.24998859  0.74999886  0.25000789  1
  Co  Co9  1  0.75000715  0.25000420  0.75000902  1
  O  O10  1  0.99827679  0.23776575  0.94631918  1
  O  O11  1  0.23776333  0.50174312  0.44631294  1
  O  O12  1  0.26225855  0.99829133  0.44632645  1
  O  O13  1  0.50173174  0.26225529  0.94631955  1
  O  O14  1  0.49829977  0.76225810  0.05368799  1
  O  O15  1  0.76225044  0.00172880  0.55368883  1
  O  O16  1  0.73776662  0.49827807  0.55368174  1
  O  O17  1  0.00174758  0.73776120  0.05369906  1
