# generated using pymatgen
data_Li9Mn4(BO3)8
_symmetry_space_group_name_H-M   'P 1'
_cell_length_a   5.28091285
_cell_length_b   8.72878493
_cell_length_c   9.81036830
_cell_angle_alpha   90.28307285
_cell_angle_beta   93.22414488
_cell_angle_gamma   90.07314825
_symmetry_Int_Tables_number   1
_chemical_formula_structural   Li9Mn4(BO3)8
_chemical_formula_sum   'Li9 Mn4 B8 O24'
_cell_volume   451.49642128
_cell_formula_units_Z   1
loop_
 _symmetry_equiv_pos_site_id
 _symmetry_equiv_pos_as_xyz
  1  'x, y, z'
loop_
 _atom_site_type_symbol
 _atom_site_label
 _atom_site_symmetry_multiplicity
 _atom_site_fract_x
 _atom_site_fract_y
 _atom_site_fract_z
 _atom_site_occupancy
  Li  Li0  1  0.18687288  0.65499952  0.63054308  1
  Li  Li1  1  0.17449574  0.98155826  0.10922438  1
  Li  Li2  1  0.31509649  0.15725208  0.86825450  1
  Li  Li3  1  0.32490844  0.48406335  0.38831780  1
  Li  Li4  1  0.67738519  0.51988566  0.61245858  1
  Li  Li5  1  0.67077470  0.83325841  0.12234828  1
  Li  Li6  1  0.82221600  0.01709248  0.87689067  1
  Li  Li7  1  0.81203564  0.35722435  0.36892998  1
  Li  Li8  1  0.85969211  0.02604445  0.34394982  1
  Mn  Mn9  1  0.13244481  0.30892123  0.12925864  1
  Mn  Mn10  1  0.36870805  0.80078823  0.37427729  1
  Mn  Mn11  1  0.62756297  0.19678265  0.62383560  1
  Mn  Mn12  1  0.87267803  0.69502201  0.87206432  1
  B  B13  1  0.17478347  0.31521344  0.61537543  1
  B  B14  1  0.15841832  0.65389054  0.12910339  1
  B  B15  1  0.32464669  0.81904714  0.88149077  1
  B  B16  1  0.33810741  0.15291634  0.36845067  1
  B  B17  1  0.65962549  0.84696876  0.63091652  1
  B  B18  1  0.67330028  0.18316676  0.12537757  1
  B  B19  1  0.83995553  0.34739209  0.86936079  1
  B  B20  1  0.82756303  0.68127373  0.38222719  1
  O  O21  1  0.06686401  0.30939599  0.93723028  1
  O  O22  1  0.08653600  0.66436832  0.40549142  1
  O  O23  1  0.16404427  0.93791816  0.90412267  1
  O  O24  1  0.22508296  0.67635251  0.84253867  1
  O  O25  1  0.19649733  0.28177204  0.32587943  1
  O  O26  1  0.22744424  0.01412616  0.34967167  1
  O  O27  1  0.27497833  0.17278951  0.65296693  1
  O  O28  1  0.33817750  0.43304905  0.59567907  1
  O  O29  1  0.25321733  0.51188847  0.15675406  1
  O  O30  1  0.30687774  0.77761306  0.17595584  1
  O  O31  1  0.42840392  0.81152031  0.56850387  1
  O  O32  1  0.41433308  0.17197372  0.09695369  1
  O  O33  1  0.58520636  0.83310593  0.90355119  1
  O  O34  1  0.58636364  0.17468270  0.42515952  1
  O  O35  1  0.68740105  0.22480245  0.82102155  1
  O  O36  1  0.75445791  0.49110567  0.83921041  1
  O  O37  1  0.66742910  0.56277988  0.40262363  1
  O  O38  1  0.72997968  0.82451495  0.34321168  1
  O  O39  1  0.75390965  0.99146396  0.65456535  1
  O  O40  1  0.81461733  0.72571299  0.67724278  1
  O  O41  1  0.77851964  0.32597273  0.15854595  1
  O  O42  1  0.82481175  0.05626895  0.12257380  1
  O  O43  1  0.91519793  0.33019393  0.59257150  1
  O  O44  1  0.92607296  0.68437407  0.06361975  1
