# generated using pymatgen
data_Li5Fe(SiO4)2
_symmetry_space_group_name_H-M   'P 1'
_cell_length_a   9.84877809
_cell_length_b   14.22353777
_cell_length_c   9.81325089
_cell_angle_alpha   90.00000000
_cell_angle_beta   90.00000000
_cell_angle_gamma   90.00000000
_symmetry_Int_Tables_number   1
_chemical_formula_structural   Li5Fe(SiO4)2
_chemical_formula_sum   'Li40 Fe8 Si16 O64'
_cell_volume   1374.68402195
_cell_formula_units_Z   8
loop_
 _symmetry_equiv_pos_site_id
 _symmetry_equiv_pos_as_xyz
  1  'x, y, z'
loop_
 _atom_site_type_symbol
 _atom_site_label
 _atom_site_symmetry_multiplicity
 _atom_site_fract_x
 _atom_site_fract_y
 _atom_site_fract_z
 _atom_site_occupancy
  Li  Li0  1  0.02461779  0.50698512  0.72370561  1
  Li  Li1  1  0.02461779  0.99301488  0.72370561  1
  Li  Li2  1  0.00482430  0.10945975  0.52233485  1
  Li  Li3  1  0.00482430  0.39054025  0.52233485  1
  Li  Li4  1  0.25746871  0.75000000  0.98087771  1
  Li  Li5  1  0.18921853  0.75000000  0.55918139  1
  Li  Li6  1  0.21790132  0.63508367  0.25150223  1
  Li  Li7  1  0.21790132  0.86491633  0.25150223  1
  Li  Li8  1  0.22882461  0.62007379  0.74707095  1
  Li  Li9  1  0.22882461  0.87992621  0.74707095  1
  Li  Li10  1  0.27117539  0.12007379  0.24707095  1
  Li  Li11  1  0.27117539  0.37992621  0.24707095  1
  Li  Li12  1  0.28209868  0.36491633  0.75150223  1
  Li  Li13  1  0.28209868  0.13508367  0.75150223  1
  Li  Li14  1  0.31078147  0.25000000  0.05918139  1
  Li  Li15  1  0.24253129  0.25000000  0.48087771  1
  Li  Li16  1  0.49517570  0.60945975  0.02233485  1
  Li  Li17  1  0.49517570  0.89054025  0.02233485  1
  Li  Li18  1  0.47538221  0.00698512  0.22370561  1
  Li  Li19  1  0.47538221  0.49301488  0.22370561  1
  Li  Li20  1  0.52461779  0.50698512  0.77629439  1
  Li  Li21  1  0.52461779  0.99301488  0.77629439  1
  Li  Li22  1  0.50482430  0.10945975  0.97766515  1
  Li  Li23  1  0.50482430  0.39054025  0.97766515  1
  Li  Li24  1  0.75746871  0.75000000  0.51912229  1
  Li  Li25  1  0.68921853  0.75000000  0.94081861  1
  Li  Li26  1  0.71790132  0.63508367  0.24849777  1
  Li  Li27  1  0.71790132  0.86491633  0.24849777  1
  Li  Li28  1  0.72882461  0.87992621  0.75292905  1
  Li  Li29  1  0.72882461  0.62007379  0.75292905  1
  Li  Li30  1  0.77117539  0.12007379  0.25292905  1
  Li  Li31  1  0.77117539  0.37992621  0.25292905  1
  Li  Li32  1  0.78209868  0.13508367  0.74849777  1
  Li  Li33  1  0.78209868  0.36491633  0.74849777  1
  Li  Li34  1  0.81078147  0.25000000  0.44081861  1
  Li  Li35  1  0.74253129  0.25000000  0.01912229  1
  Li  Li36  1  0.99517570  0.89054025  0.47766515  1
  Li  Li37  1  0.99517570  0.60945975  0.47766515  1
  Li  Li38  1  0.97538221  0.00698512  0.27629439  1
  Li  Li39  1  0.97538221  0.49301488  0.27629439  1
  Fe  Fe40  1  0.00659178  0.13058771  0.00728822  1
  Fe  Fe41  1  0.00659178  0.36941229  0.00728822  1
  Fe  Fe42  1  0.49340822  0.63058771  0.50728822  1
  Fe  Fe43  1  0.49340822  0.86941229  0.50728822  1
  Fe  Fe44  1  0.50659178  0.13058771  0.49271178  1
  Fe  Fe45  1  0.50659178  0.36941229  0.49271178  1
  Fe  Fe46  1  0.99340822  0.63058771  0.99271178  1
  Fe  Fe47  1  0.99340822  0.86941229  0.99271178  1
  Si  Si48  1  0.01642827  0.25000000  0.72335485  1
  Si  Si49  1  0.02176855  0.25000000  0.27533287  1
  Si  Si50  1  0.25917984  0.00581361  0.99782892  1
  Si  Si51  1  0.25917984  0.49418639  0.99782892  1
  Si  Si52  1  0.24082016  0.50581361  0.49782892  1
  Si  Si53  1  0.24082016  0.99418639  0.49782892  1
  Si  Si54  1  0.47823145  0.75000000  0.77533287  1
  Si  Si55  1  0.48357173  0.75000000  0.22335485  1
  Si  Si56  1  0.51642827  0.25000000  0.77664515  1
  Si  Si57  1  0.52176855  0.25000000  0.22466713  1
  Si  Si58  1  0.75917984  0.00581361  0.50217108  1
  Si  Si59  1  0.75917984  0.49418639  0.50217108  1
  Si  Si60  1  0.74082016  0.99418639  0.00217108  1
  Si  Si61  1  0.74082016  0.50581361  0.00217108  1
  Si  Si62  1  0.97823145  0.75000000  0.72466713  1
  Si  Si63  1  0.98357173  0.75000000  0.27664515  1
  O  O64  1  0.97702093  0.25000000  0.10246569  1
  O  O65  1  0.01193440  0.65547515  0.17662642  1
  O  O66  1  0.01193440  0.84452485  0.17662642  1
  O  O67  1  0.04690442  0.84606861  0.66534495  1
  O  O68  1  0.04690442  0.65393139  0.66534495  1
  O  O69  1  0.10641632  0.75000000  0.38703776  1
  O  O70  1  0.13223897  0.55325355  0.91904120  1
  O  O71  1  0.13223897  0.94674645  0.91904120  1
  O  O72  1  0.13060659  0.53134598  0.38144360  1
  O  O73  1  0.13060659  0.96865402  0.38144360  1
  O  O74  1  0.16790933  0.25000000  0.66091879  1
  O  O75  1  0.17583668  0.05073811  0.62409993  1
  O  O76  1  0.17583668  0.44926189  0.62409993  1
  O  O77  1  0.18737718  0.25000000  0.29138535  1
  O  O78  1  0.18512915  0.10374209  0.05951319  1
  O  O79  1  0.18512915  0.39625791  0.05951319  1
  O  O80  1  0.31487085  0.60374209  0.55951319  1
  O  O81  1  0.31487085  0.89625791  0.55951319  1
  O  O82  1  0.31262282  0.75000000  0.79138535  1
  O  O83  1  0.32416332  0.55073811  0.12409993  1
  O  O84  1  0.32416332  0.94926189  0.12409993  1
  O  O85  1  0.33209067  0.75000000  0.16091879  1
  O  O86  1  0.36939341  0.03134598  0.88144360  1
  O  O87  1  0.36939341  0.46865402  0.88144360  1
  O  O88  1  0.36776103  0.05325355  0.41904120  1
  O  O89  1  0.36776103  0.44674645  0.41904120  1
  O  O90  1  0.39358368  0.25000000  0.88703776  1
  O  O91  1  0.45309558  0.34606861  0.16534495  1
  O  O92  1  0.45309558  0.15393139  0.16534495  1
  O  O93  1  0.48806560  0.34452485  0.67662642  1
  O  O94  1  0.48806560  0.15547515  0.67662642  1
  O  O95  1  0.52297907  0.75000000  0.60246569  1
  O  O96  1  0.47702093  0.25000000  0.39753431  1
  O  O97  1  0.51193440  0.65547515  0.32337358  1
  O  O98  1  0.51193440  0.84452485  0.32337358  1
  O  O99  1  0.54690442  0.65393139  0.83465505  1
  O  O100  1  0.54690442  0.84606861  0.83465505  1
  O  O101  1  0.60641632  0.75000000  0.11296224  1
  O  O102  1  0.63223897  0.94674645  0.58095880  1
  O  O103  1  0.63223897  0.55325355  0.58095880  1
  O  O104  1  0.63060659  0.96865402  0.11855640  1
  O  O105  1  0.63060659  0.53134598  0.11855640  1
  O  O106  1  0.66790933  0.25000000  0.83908121  1
  O  O107  1  0.67583668  0.05073811  0.87590007  1
  O  O108  1  0.67583668  0.44926189  0.87590007  1
  O  O109  1  0.68737718  0.25000000  0.20861465  1
  O  O110  1  0.68512915  0.10374209  0.44048681  1
  O  O111  1  0.68512915  0.39625791  0.44048681  1
  O  O112  1  0.81487085  0.89625791  0.94048681  1
  O  O113  1  0.81487085  0.60374209  0.94048681  1
  O  O114  1  0.81262282  0.75000000  0.70861465  1
  O  O115  1  0.82416332  0.55073811  0.37590007  1
  O  O116  1  0.82416332  0.94926189  0.37590007  1
  O  O117  1  0.83209067  0.75000000  0.33908121  1
  O  O118  1  0.86939341  0.03134598  0.61855640  1
  O  O119  1  0.86939341  0.46865402  0.61855640  1
  O  O120  1  0.86776103  0.05325355  0.08095880  1
  O  O121  1  0.86776103  0.44674645  0.08095880  1
  O  O122  1  0.89358368  0.25000000  0.61296224  1
  O  O123  1  0.95309558  0.15393139  0.33465505  1
  O  O124  1  0.95309558  0.34606861  0.33465505  1
  O  O125  1  0.98806560  0.15547515  0.82337358  1
  O  O126  1  0.98806560  0.34452485  0.82337358  1
  O  O127  1  0.02297907  0.75000000  0.89753431  1
