# generated using pymatgen
data_LiCoCO4
_symmetry_space_group_name_H-M   'P 1'
_cell_length_a   6.58637924
_cell_length_b   5.26563691
_cell_length_c   10.61178272
_cell_angle_alpha   90.00000000
_cell_angle_beta   98.25408298
_cell_angle_gamma   90.00000000
_symmetry_Int_Tables_number   1
_chemical_formula_structural   LiCoCO4
_chemical_formula_sum   'Li4 Co4 C4 O16'
_cell_volume   364.21995898
_cell_formula_units_Z   4
loop_
 _symmetry_equiv_pos_site_id
 _symmetry_equiv_pos_as_xyz
  1  'x, y, z'
loop_
 _atom_site_type_symbol
 _atom_site_label
 _atom_site_symmetry_multiplicity
 _atom_site_fract_x
 _atom_site_fract_y
 _atom_site_fract_z
 _atom_site_occupancy
  Li  Li0  1  0.11666020  0.34543689  0.79406541  1
  Li  Li1  1  0.11666020  0.15456311  0.29406541  1
  Li  Li2  1  0.88333980  0.84543689  0.70593459  1
  Li  Li3  1  0.88333980  0.65456311  0.20593459  1
  Co  Co4  1  0.51014036  0.14752771  0.84598282  1
  Co  Co5  1  0.48985964  0.64752771  0.65401718  1
  Co  Co6  1  0.51014036  0.35247229  0.34598282  1
  Co  Co7  1  0.48985964  0.85247229  0.15401718  1
  C  C8  1  0.20518905  0.81789260  0.92643990  1
  C  C9  1  0.20518905  0.68210740  0.42643990  1
  C  C10  1  0.79481095  0.31789260  0.57356010  1
  C  C11  1  0.79481095  0.18210740  0.07356010  1
  O  O12  1  0.07954146  0.70407569  0.84439274  1
  O  O13  1  0.07954146  0.79592431  0.34439274  1
  O  O14  1  0.25620617  0.05825128  0.91094536  1
  O  O15  1  0.25620617  0.44174872  0.41094536  1
  O  O16  1  0.28873529  0.79706485  0.52986006  1
  O  O17  1  0.38693372  0.36929256  0.73021125  1
  O  O18  1  0.28873529  0.70293515  0.02986006  1
  O  O19  1  0.38693372  0.13070744  0.23021125  1
  O  O20  1  0.61306628  0.86929256  0.76978875  1
  O  O21  1  0.71126471  0.29706485  0.97013994  1
  O  O22  1  0.61306628  0.63070744  0.26978875  1
  O  O23  1  0.71126471  0.20293515  0.47013994  1
  O  O24  1  0.74379383  0.55825128  0.58905464  1
  O  O25  1  0.74379383  0.94174872  0.08905464  1
  O  O26  1  0.92045854  0.20407569  0.65560726  1
  O  O27  1  0.92045854  0.29592431  0.15560726  1
