# generated using pymatgen
data_Li2VO2F
_symmetry_space_group_name_H-M   'P 1'
_cell_length_a   3.00351255
_cell_length_b   13.15031979
_cell_length_c   7.36353267
_cell_angle_alpha   89.82274942
_cell_angle_beta   90.02488902
_cell_angle_gamma   96.62513176
_symmetry_Int_Tables_number   1
_chemical_formula_structural   Li2VO2F
_chemical_formula_sum   'Li10 V5 O10 F5'
_cell_volume   288.89502931
_cell_formula_units_Z   5
loop_
 _symmetry_equiv_pos_site_id
 _symmetry_equiv_pos_as_xyz
  1  'x, y, z'
loop_
 _atom_site_type_symbol
 _atom_site_label
 _atom_site_symmetry_multiplicity
 _atom_site_fract_x
 _atom_site_fract_y
 _atom_site_fract_z
 _atom_site_occupancy
  Li  Li0  1  0.47724133  0.95448202  0.14106280  1
  Li  Li1  1  0.07819071  0.15450161  0.13592346  1
  Li  Li2  1  0.26344764  0.52680671  0.15998257  1
  Li  Li3  1  0.32822871  0.65685221  0.84796314  1
  Li  Li4  1  0.12778960  0.25690721  0.86812451  1
  Li  Li5  1  0.66134368  0.32259679  0.14328958  1
  Li  Li6  1  0.86354446  0.72695130  0.15247541  1
  Li  Li7  1  0.93240870  0.86596088  0.84615006  1
  Li  Li8  1  0.54353299  0.08763667  0.85547728  1
  Li  Li9  1  0.72788176  0.45584854  0.84095127  1
  V  V10  1  0.00638953  0.00384844  0.50741495  1
  V  V11  1  0.20190879  0.40109296  0.49788960  1
  V  V12  1  0.39372291  0.79051437  0.51805317  1
  V  V13  1  0.59818434  0.20333031  0.49775335  1
  V  V14  1  0.80036401  0.59704484  0.50106073  1
  O  O15  1  0.47000003  0.92510926  0.63878849  1
  O  O16  1  0.26717943  0.53552657  0.65315888  1
  O  O17  1  0.05995289  0.13317691  0.64789541  1
  O  O18  1  0.13484458  0.26844942  0.35168497  1
  O  O19  1  0.33790068  0.67061547  0.35043821  1
  O  O20  1  0.67131698  0.33744759  0.64340790  1
  O  O21  1  0.86796805  0.73063898  0.66002285  1
  O  O22  1  0.73567355  0.47175832  0.34566217  1
  O  O23  1  0.52019155  0.06060095  0.35405484  1
  O  O24  1  0.60116395  0.20205218  0.00150584  1
  F  F25  1  0.99448077  0.98997613  0.99256389  1
  F  F26  1  0.20472770  0.40926266  0.99878749  1
  F  F27  1  0.39901484  0.79792810  0.00453655  1
  F  F28  1  0.93023409  0.86101154  0.34104437  1
  F  F29  1  0.80107377  0.60207106  0.00287326  1
