# generated using pymatgen
data_Li2Co2(SiO3)3
_symmetry_space_group_name_H-M   'P 1'
_cell_length_a   12.40588740
_cell_length_b   9.63144413
_cell_length_c   6.15880099
_cell_angle_alpha   90.00000000
_cell_angle_beta   90.00000000
_cell_angle_gamma   90.00000000
_symmetry_Int_Tables_number   1
_chemical_formula_structural   Li2Co2(SiO3)3
_chemical_formula_sum   'Li8 Co8 Si12 O36'
_cell_volume   735.89426044
_cell_formula_units_Z   4
loop_
 _symmetry_equiv_pos_site_id
 _symmetry_equiv_pos_as_xyz
  1  'x, y, z'
loop_
 _atom_site_type_symbol
 _atom_site_label
 _atom_site_symmetry_multiplicity
 _atom_site_fract_x
 _atom_site_fract_y
 _atom_site_fract_z
 _atom_site_occupancy
  Li  Li0  1  0.08731190  0.55725113  0.14885277  1
  Li  Li1  1  0.08731190  0.94274887  0.14885277  1
  Li  Li2  1  0.41268810  0.05725113  0.64885277  1
  Li  Li3  1  0.41268810  0.44274887  0.64885277  1
  Li  Li4  1  0.58731190  0.55725113  0.35114723  1
  Li  Li5  1  0.58731190  0.94274887  0.35114723  1
  Li  Li6  1  0.91268810  0.05725113  0.85114723  1
  Li  Li7  1  0.91268810  0.44274887  0.85114723  1
  Co  Co8  1  0.16438833  0.50005930  0.70000006  1
  Co  Co9  1  0.16438833  -0.00005930  0.70000006  1
  Co  Co10  1  0.33561167  0.00005930  0.20000006  1
  Co  Co11  1  0.33561167  0.49994070  0.20000006  1
  Co  Co12  1  0.66438833  0.50005930  0.79999994  1
  Co  Co13  1  0.66438833  -0.00005930  0.79999994  1
  Co  Co14  1  0.83561167  0.00005930  0.29999994  1
  Co  Co15  1  0.83561167  0.49994070  0.29999994  1
  Si  Si16  1  0.03850019  0.75000000  0.54232782  1
  Si  Si17  1  0.07771411  0.25000000  0.02358021  1
  Si  Si18  1  0.21170089  0.25000000  0.42465791  1
  Si  Si19  1  0.28829911  0.75000000  0.92465791  1
  Si  Si20  1  0.42228589  0.75000000  0.52358021  1
  Si  Si21  1  0.46149981  0.25000000  0.04232782  1
  Si  Si22  1  0.53850019  0.75000000  0.95767218  1
  Si  Si23  1  0.57771411  0.25000000  0.47641979  1
  Si  Si24  1  0.71170089  0.25000000  0.07534209  1
  Si  Si25  1  0.78829911  0.75000000  0.57534209  1
  Si  Si26  1  0.92228589  0.75000000  0.97641979  1
  Si  Si27  1  0.96149981  0.25000000  0.45767218  1
  O  O28  1  0.02911373  0.75000000  0.81188768  1
  O  O29  1  0.06948082  0.10106760  0.90291735  1
  O  O30  1  0.06948082  0.39893240  0.90291735  1
  O  O31  1  0.09822286  0.60849002  0.46446875  1
  O  O32  1  0.09822286  0.89150998  0.46446875  1
  O  O33  1  0.09059445  0.25000000  0.53137203  1
  O  O34  1  0.22849884  0.60408499  0.99178543  1
  O  O35  1  0.22849884  0.89591501  0.99178543  1
  O  O36  1  0.19301857  0.25000000  0.16027045  1
  O  O37  1  0.30698143  0.75000000  0.66027045  1
  O  O38  1  0.27150116  0.10408499  0.49178543  1
  O  O39  1  0.27150116  0.39591501  0.49178543  1
  O  O40  1  0.40940555  0.75000000  0.03137203  1
  O  O41  1  0.40177714  0.10849002  0.96446875  1
  O  O42  1  0.40177714  0.39150998  0.96446875  1
  O  O43  1  0.43051918  0.60106760  0.40291735  1
  O  O44  1  0.43051918  0.89893240  0.40291735  1
  O  O45  1  0.47088627  0.25000000  0.31188768  1
  O  O46  1  0.52911373  0.75000000  0.68811232  1
  O  O47  1  0.56948082  0.10106760  0.59708265  1
  O  O48  1  0.56948082  0.39893240  0.59708265  1
  O  O49  1  0.59822286  0.60849002  0.03553125  1
  O  O50  1  0.59822286  0.89150998  0.03553125  1
  O  O51  1  0.59059445  0.25000000  0.96862797  1
  O  O52  1  0.72849884  0.60408499  0.50821457  1
  O  O53  1  0.72849884  0.89591501  0.50821457  1
  O  O54  1  0.69301857  0.25000000  0.33972955  1
  O  O55  1  0.80698143  0.75000000  0.83972955  1
  O  O56  1  0.77150116  0.10408499  0.00821457  1
  O  O57  1  0.77150116  0.39591501  0.00821457  1
  O  O58  1  0.90940555  0.75000000  0.46862797  1
  O  O59  1  0.90177714  0.10849002  0.53553125  1
  O  O60  1  0.90177714  0.39150998  0.53553125  1
  O  O61  1  0.93051918  0.60106760  0.09708265  1
  O  O62  1  0.93051918  0.89893240  0.09708265  1
  O  O63  1  0.97088627  0.25000000  0.18811232  1
