# generated using pymatgen
data_LiCo2(CO3)3
_symmetry_space_group_name_H-M   'P 1'
_cell_length_a   7.39989235
_cell_length_b   7.59058806
_cell_length_c   7.54647082
_cell_angle_alpha   110.20906914
_cell_angle_beta   108.21464767
_cell_angle_gamma   108.13941407
_symmetry_Int_Tables_number   1
_chemical_formula_structural   LiCo2(CO3)3
_chemical_formula_sum   'Li2 Co4 C6 O18'
_cell_volume   333.44192562
_cell_formula_units_Z   2
loop_
 _symmetry_equiv_pos_site_id
 _symmetry_equiv_pos_as_xyz
  1  'x, y, z'
loop_
 _atom_site_type_symbol
 _atom_site_label
 _atom_site_symmetry_multiplicity
 _atom_site_fract_x
 _atom_site_fract_y
 _atom_site_fract_z
 _atom_site_occupancy
  Li  Li0  1  0.36059961  0.63822286  0.89562756  1
  Li  Li1  1  0.83198782  0.27458624  0.57249682  1
  Co  Co2  1  0.04165479  0.54375630  0.17022359  1
  Co  Co3  1  0.15835732  0.03705742  0.53336909  1
  Co  Co4  1  0.42913438  0.42504811  0.44632775  1
  Co  Co5  1  0.53352824  0.15956610  0.03622993  1
  C  C6  1  0.16930187  0.25842873  0.93378580  1
  C  C7  1  0.23371716  0.91665471  0.15522850  1
  C  C8  1  0.38190282  0.79600040  0.58533388  1
  C  C9  1  0.60895120  0.39582552  0.80618427  1
  C  C10  1  0.79575391  0.58076750  0.39517753  1
  C  C11  1  0.92291673  0.17549988  0.23939473  1
  O  O12  1  0.10952009  0.40843383  0.94698063  1
  O  O13  1  0.05569440  0.74441190  0.06991480  1
  O  O14  1  0.05934217  0.08309879  0.75953796  1
  O  O15  1  0.39242120  0.97717491  0.70209089  1
  O  O16  1  0.07779515  0.34708156  0.27481186  1
  O  O17  1  0.33359435  0.74054494  0.38548920  1
  O  O18  1  0.42100196  0.68153719  0.66575625  1
  O  O19  1  0.41601662  0.37432813  0.76431914  1
  O  O20  1  0.35242894  0.91855813  0.05828181  1
  O  O21  1  0.28857945  0.08398157  0.32679267  1
  O  O22  1  0.34452110  0.29801019  0.08972825  1
  O  O23  1  0.71810749  0.38715094  0.97644192  1
  O  O24  1  0.68417712  0.41788547  0.68038308  1
  O  O25  1  0.69168086  0.66324772  0.46247758  1
  O  O26  1  0.74517919  0.38063418  0.34195739  1
  O  O27  1  0.96029538  0.69083062  0.37450451  1
  O  O28  1  0.75021748  0.06143584  0.05636963  1
  O  O29  1  0.94202920  0.12433531  0.38777099  1
