# generated using pymatgen
data_Li3V2(O2F)2
_symmetry_space_group_name_H-M   'P 1'
_cell_length_a   5.97683422
_cell_length_b   6.03120820
_cell_length_c   15.16973264
_cell_angle_alpha   95.14707319
_cell_angle_beta   79.61718810
_cell_angle_gamma   120.56638798
_symmetry_Int_Tables_number   1
_chemical_formula_structural   Li3V2(O2F)2
_chemical_formula_sum   'Li12 V8 O16 F8'
_cell_volume   463.13298810
_cell_formula_units_Z   4
loop_
 _symmetry_equiv_pos_site_id
 _symmetry_equiv_pos_as_xyz
  1  'x, y, z'
loop_
 _atom_site_type_symbol
 _atom_site_label
 _atom_site_symmetry_multiplicity
 _atom_site_fract_x
 _atom_site_fract_y
 _atom_site_fract_z
 _atom_site_occupancy
  Li  Li0  1  0.06382269  0.85903256  0.16427975  1
  Li  Li1  1  0.07333483  0.28932325  0.16365561  1
  Li  Li2  1  0.20368524  0.67015592  0.28736797  1
  Li  Li3  1  0.33307192  0.83400207  0.66374028  1
  Li  Li4  1  0.50161752  0.52448710  0.04367385  1
  Li  Li5  1  0.56608908  0.32692226  0.17577609  1
  Li  Li6  1  0.32392939  0.33491668  0.66653152  1
  Li  Li7  1  0.50210695  0.99921921  0.04546572  1
  Li  Li8  1  0.67090317  0.66966285  0.29949241  1
  Li  Li9  1  0.83568948  0.84916753  0.66660343  1
  Li  Li10  1  0.98244202  0.49718880  0.02609762  1
  Li  Li11  1  0.67740897  0.14424260  0.29546690  1
  V  V12  1  0.24296204  0.49728463  0.49695278  1
  V  V13  1  0.24772017  0.00094741  0.49250436  1
  V  V14  1  0.41679014  0.66890713  0.83509101  1
  V  V15  1  0.74693587  0.49835003  0.50865377  1
  V  V16  1  0.41909035  0.16679165  0.83201558  1
  V  V17  1  0.74708096  0.99882127  0.50214457  1
  V  V18  1  0.91440133  0.66409519  0.83006082  1
  V  V19  1  0.91972681  0.16963992  0.83331071  1
  O  O20  1  0.06546253  0.68211014  0.57233043  1
  O  O21  1  0.22805649  0.82097282  0.89649501  1
  O  O22  1  0.44489968  0.82949182  0.42984509  1
  O  O23  1  0.12348894  0.49601447  0.75940404  1
  O  O24  1  0.06258243  0.16635860  0.57146898  1
  O  O25  1  0.45093599  0.34306228  0.43637753  1
  O  O26  1  0.20330792  0.32802220  0.89928782  1
  O  O27  1  0.11851965  0.00195817  0.75630363  1
  O  O28  1  0.53311752  0.66481565  0.57745798  1
  O  O29  1  0.71950671  0.83908002  0.89921871  1
  O  O30  1  0.95293991  0.83104604  0.43603574  1
  O  O31  1  0.60102863  0.51108273  0.76038680  1
  O  O32  1  0.52662447  0.15094872  0.57156011  1
  O  O33  1  0.96036394  0.34223931  0.43650476  1
  O  O34  1  0.72386353  0.33172654  0.89781397  1
  O  O35  1  0.62751457  0.99541153  0.75995522  1
  F  F36  1  0.28528322  0.65945663  0.07598564  1
  F  F37  1  0.37136264  0.49163042  0.24574726  1
  F  F38  1  0.31376771  0.17773551  0.08918975  1
  F  F39  1  0.36971039  0.00132729  0.24890023  1
  F  F40  1  0.80302579  0.64848919  0.08797321  1
  F  F41  1  0.86414471  0.49512256  0.25525569  1
  F  F42  1  0.80143328  0.19843312  0.09121222  1
  F  F43  1  0.87691543  0.99697218  0.24973444  1
