# generated using pymatgen
data_LiVPO5
_symmetry_space_group_name_H-M   'P 1'
_cell_length_a   6.66981791
_cell_length_b   9.13305729
_cell_length_c   7.76349329
_cell_angle_alpha   90.00000000
_cell_angle_beta   91.04450036
_cell_angle_gamma   90.00000000
_symmetry_Int_Tables_number   1
_chemical_formula_structural   LiVPO5
_chemical_formula_sum   'Li4 V4 P4 O20'
_cell_volume   472.84104997
_cell_formula_units_Z   4
loop_
 _symmetry_equiv_pos_site_id
 _symmetry_equiv_pos_as_xyz
  1  'x, y, z'
loop_
 _atom_site_type_symbol
 _atom_site_label
 _atom_site_symmetry_multiplicity
 _atom_site_fract_x
 _atom_site_fract_y
 _atom_site_fract_z
 _atom_site_occupancy
  Li  Li0  1  0.54161084  0.74538256  0.79244475  1
  Li  Li1  1  0.54161084  0.75461744  0.29244475  1
  Li  Li2  1  0.45838916  0.24538256  0.70755525  1
  Li  Li3  1  0.45838916  0.25461744  0.20755525  1
  V  V4  1  0.11911833  0.52863799  0.82363554  1
  V  V5  1  0.11911833  0.97136201  0.32363554  1
  V  V6  1  0.88088167  0.02863799  0.67636446  1
  V  V7  1  0.88088167  0.47136201  0.17636446  1
  P  P8  1  0.14441011  0.20395240  0.99188351  1
  P  P9  1  0.14441011  0.29604760  0.49188351  1
  P  P10  1  0.85558989  0.70395240  0.50811649  1
  P  P11  1  0.85558989  0.79604760  0.00811649  1
  O  O12  1  0.01599724  0.63058282  0.62089969  1
  O  O13  1  0.01599724  0.86941718  0.12089969  1
  O  O14  1  0.07611211  0.12603342  0.51456652  1
  O  O15  1  0.07611211  0.37396658  0.01456652  1
  O  O16  1  0.14068453  0.35612431  0.67850682  1
  O  O17  1  0.14068453  0.14387569  0.17850682  1
  O  O18  1  0.34168134  0.60073828  0.86139018  1
  O  O19  1  0.34168134  0.89926172  0.36139018  1
  O  O20  1  0.36084821  0.20084787  0.93481749  1
  O  O21  1  0.36084821  0.29915213  0.43481749  1
  O  O22  1  0.63915179  0.70084787  0.56518251  1
  O  O23  1  0.63915179  0.79915213  0.06518251  1
  O  O24  1  0.65831866  0.10073828  0.63860982  1
  O  O25  1  0.65831866  0.39926172  0.13860982  1
  O  O26  1  0.85931547  0.85612431  0.82149318  1
  O  O27  1  0.85931547  0.64387569  0.32149318  1
  O  O28  1  0.92388789  0.62603342  0.98543348  1
  O  O29  1  0.92388789  0.87396658  0.48543348  1
  O  O30  1  0.98400276  0.13058282  0.87910031  1
  O  O31  1  0.98400276  0.36941718  0.37910031  1
