# generated using pymatgen
data_Li4Co(SiO3)3
_symmetry_space_group_name_H-M   'P 1'
_cell_length_a   6.28626328
_cell_length_b   10.08281616
_cell_length_c   6.28626328
_cell_angle_alpha   88.90126243
_cell_angle_beta   72.46749783
_cell_angle_gamma   91.09873757
_symmetry_Int_Tables_number   1
_chemical_formula_structural   Li4Co(SiO3)3
_chemical_formula_sum   'Li8 Co2 Si6 O18'
_cell_volume   379.73451653
_cell_formula_units_Z   2
loop_
 _symmetry_equiv_pos_site_id
 _symmetry_equiv_pos_as_xyz
  1  'x, y, z'
loop_
 _atom_site_type_symbol
 _atom_site_label
 _atom_site_symmetry_multiplicity
 _atom_site_fract_x
 _atom_site_fract_y
 _atom_site_fract_z
 _atom_site_occupancy
  Li  Li0  1  0.37959812  0.20522338  0.80759288  1
  Li  Li1  1  0.18193084  0.79275141  0.46388632  1
  Li  Li2  1  0.54989664  0.50000000  0.54989664  1
  Li  Li3  1  0.99327714  0.50000000  0.99327714  1
  Li  Li4  1  0.63337274  0.00000000  0.63337274  1
  Li  Li5  1  0.99600167  0.00000000  0.99600167  1
  Li  Li6  1  0.46388632  0.20724859  0.18193084  1
  Li  Li7  1  0.80759288  0.79477662  0.37959812  1
  Co  Co8  1  0.81537381  0.25627622  0.83052710  1
  Co  Co9  1  0.83052710  0.74372378  0.81537381  1
  Si  Si10  1  0.33646446  0.75024296  0.88616925  1
  Si  Si11  1  0.06837607  0.49552114  0.48000260  1
  Si  Si12  1  0.13370246  0.05517220  0.50995634  1
  Si  Si13  1  0.50995634  0.94482780  0.13370246  1
  Si  Si14  1  0.48000260  0.50447886  0.06837607  1
  Si  Si15  1  0.88616925  0.24975704  0.33646446  1
  O  O16  1  0.13655559  0.79484680  0.79658076  1
  O  O17  1  0.31115345  0.58632112  0.94819128  1
  O  O18  1  0.11782675  0.12110945  0.74539192  1
  O  O19  1  0.03042002  0.41243200  0.71083974  1
  O  O20  1  0.50558873  0.05982323  0.95273173  1
  O  O21  1  0.49525616  0.35744811  0.96756435  1
  O  O22  1  0.12602040  0.17769820  0.32537089  1
  O  O23  1  0.57429024  0.78196045  0.69767134  1
  O  O24  1  0.34856632  0.50000000  0.34856632  1
  O  O25  1  0.39551588  0.00000000  0.39551588  1
  O  O26  1  0.69767134  0.21803955  0.57429024  1
  O  O27  1  0.32537089  0.82230180  0.12602040  1
  O  O28  1  0.96756435  0.64255189  0.49525616  1
  O  O29  1  0.95273173  0.94017677  0.50558873  1
  O  O30  1  0.71083974  0.58756800  0.03042002  1
  O  O31  1  0.74539192  0.87889055  0.11782675  1
  O  O32  1  0.94819128  0.41367888  0.31115345  1
  O  O33  1  0.79658076  0.20515320  0.13655559  1
