# generated using pymatgen
data_LiVP3HO10
_symmetry_space_group_name_H-M   'P 1'
_cell_length_a   6.39796258
_cell_length_b   6.39796258
_cell_length_c   6.35060410
_cell_angle_alpha   72.44509899
_cell_angle_beta   107.55490101
_cell_angle_gamma   94.66897263
_symmetry_Int_Tables_number   1
_chemical_formula_structural   LiVP3HO10
_chemical_formula_sum   'Li1 V1 P3 H1 O10'
_cell_volume   236.29279586
_cell_formula_units_Z   1
loop_
 _symmetry_equiv_pos_site_id
 _symmetry_equiv_pos_as_xyz
  1  'x, y, z'
loop_
 _atom_site_type_symbol
 _atom_site_label
 _atom_site_symmetry_multiplicity
 _atom_site_fract_x
 _atom_site_fract_y
 _atom_site_fract_z
 _atom_site_occupancy
  Li  Li0  1  0.00519514  0.00519514  0.50000000  1
  V  V1  1  0.66438615  0.66438615  0.00000000  1
  P  P2  1  0.19899051  0.55532814  0.10040469  1
  P  P3  1  0.57039673  0.57039673  0.50000000  1
  P  P4  1  0.55532814  0.19899051  0.89959531  1
  H  H5  1  0.24502065  0.24502065  0.00000000  1
  O  O6  1  0.33833888  0.66780276  0.94093782  1
  O  O7  1  0.67330606  0.98194513  0.97878337  1
  O  O8  1  0.60757561  0.72078642  0.64929571  1
  O  O9  1  0.31625438  0.59509081  0.35306582  1
  O  O10  1  0.30479478  0.18771986  0.85930970  1
  O  O11  1  0.18771986  0.30479478  0.14069030  1
  O  O12  1  0.59509081  0.31625438  0.64693418  1
  O  O13  1  0.72078642  0.60757561  0.35070429  1
  O  O14  1  0.98194513  0.67330606  0.02121663  1
  O  O15  1  0.66780276  0.33833888  0.05906218  1
