# generated using pymatgen
data_Li5V(PO4)3
_symmetry_space_group_name_H-M   'P 1'
_cell_length_a   8.56546252
_cell_length_b   8.58421610
_cell_length_c   8.51153491
_cell_angle_alpha   62.22763303
_cell_angle_beta   62.65724061
_cell_angle_gamma   62.66639912
_symmetry_Int_Tables_number   1
_chemical_formula_structural   Li5V(PO4)3
_chemical_formula_sum   'Li10 V2 P6 O24'
_cell_volume   467.33529683
_cell_formula_units_Z   2
loop_
 _symmetry_equiv_pos_site_id
 _symmetry_equiv_pos_as_xyz
  1  'x, y, z'
loop_
 _atom_site_type_symbol
 _atom_site_label
 _atom_site_symmetry_multiplicity
 _atom_site_fract_x
 _atom_site_fract_y
 _atom_site_fract_z
 _atom_site_occupancy
  Li  Li0  1  0.10110371  0.79927721  0.49039000  1
  Li  Li1  1  0.99500211  0.41632067  0.57990144  1
  Li  Li2  1  0.41858953  0.57992124  0.99443090  1
  Li  Li3  1  0.41062999  0.40926311  0.39959003  1
  Li  Li4  1  0.27287557  0.25439347  0.26210126  1
  Li  Li5  1  0.58681162  0.59588376  0.59655574  1
  Li  Li6  1  0.73434429  0.72309375  0.74699861  1
  Li  Li7  1  0.90244456  0.50354280  0.20170302  1
  Li  Li8  1  0.50490788  0.10185182  0.79944378  1
  Li  Li9  1  0.57101682  0.99093364  0.41252931  1
  V  V10  1  0.10969207  0.11314188  0.09898477  1
  V  V11  1  0.88879542  0.89949762  0.89442066  1
  P  P12  1  0.00148544  0.71104605  0.28864498  1
  P  P13  1  0.49801310  0.81040578  0.19157411  1
  P  P14  1  0.19314512  0.51102358  0.80659693  1
  P  P15  1  0.28897619  0.99835516  0.71457472  1
  P  P16  1  0.70980965  0.28517513  0.00129527  1
  P  P17  1  0.80652745  0.19904787  0.49733620  1
  O  O18  1  0.13098742  0.91263254  0.80204136  1
  O  O19  1  0.09350881  0.85776989  0.22797722  1
  O  O20  1  0.14355187  0.51794056  0.28981084  1
  O  O21  1  0.47997131  0.85121693  0.70721580  1
  O  O22  1  0.21527666  0.48781896  0.62896020  1
  O  O23  1  0.54402554  0.79011114  0.35420260  1
  O  O24  1  0.15284058  0.34966038  0.99835273  1
  O  O25  1  0.65009566  0.85572188  0.99136418  1
  O  O26  1  0.45938244  0.64513440  0.21123661  1
  O  O27  1  0.35596577  0.54715293  0.79714330  1
  O  O28  1  0.98882594  0.17162361  0.33011981  1
  O  O29  1  0.85524407  0.00395172  0.65150301  1
  O  O30  1  0.25291239  0.09762841  0.84883356  1
  O  O31  1  0.90041046  0.76447315  0.14933294  1
  O  O32  1  0.86383422  0.70521492  0.48609440  1
  O  O33  1  0.28437189  0.14121115  0.52179432  1
  O  O34  1  0.52568657  0.28556416  0.15829712  1
  O  O35  1  0.70546599  0.47737424  0.85504075  1
  O  O36  1  0.33317609  0.00032570  0.16448107  1
  O  O37  1  0.00006810  0.66827373  0.83986108  1
  O  O38  1  0.79318430  0.37353379  0.51802954  1
  O  O39  1  0.62728996  0.21015737  0.48777617  1
  O  O40  1  0.87242068  0.21497790  0.07852179  1
  O  O41  1  0.75925375  0.14389400  0.90675689  1
