# generated using pymatgen
data_Li2VO2F
_symmetry_space_group_name_H-M   'P 1'
_cell_length_a   6.02185483
_cell_length_b   6.01777326
_cell_length_c   7.94044662
_cell_angle_alpha   101.07646342
_cell_angle_beta   67.70488609
_cell_angle_gamma   120.03694880
_symmetry_Int_Tables_number   1
_chemical_formula_structural   Li2VO2F
_chemical_formula_sum   'Li8 V4 O8 F4'
_cell_volume   230.48016409
_cell_formula_units_Z   4
loop_
 _symmetry_equiv_pos_site_id
 _symmetry_equiv_pos_as_xyz
  1  'x, y, z'
loop_
 _atom_site_type_symbol
 _atom_site_label
 _atom_site_symmetry_multiplicity
 _atom_site_fract_x
 _atom_site_fract_y
 _atom_site_fract_z
 _atom_site_occupancy
  Li  Li0  1  0.12894994  0.84852213  0.13803579  1
  Li  Li1  1  0.08923768  0.33348912  0.15498544  1
  Li  Li2  1  0.58163624  0.84859707  0.13795538  1
  Li  Li3  1  0.58259355  0.30217565  0.13719833  1
  Li  Li4  1  0.41582431  0.68825493  0.85649528  1
  Li  Li5  1  0.41736215  0.15584216  0.85745717  1
  Li  Li6  1  0.90703984  0.66535644  0.85147184  1
  Li  Li7  1  0.88118069  0.15593784  0.85732287  1
  V  V8  1  0.23971200  0.49640586  0.50659506  1
  V  V9  1  0.25187732  0.00043801  0.49651657  1
  V  V10  1  0.75005215  0.49648228  0.50656617  1
  V  V11  1  0.74942942  0.00747850  0.50843140  1
  O  O12  1  0.15305064  0.65888691  0.35281958  1
  O  O13  1  0.15133705  0.16975676  0.35330580  1
  O  O14  1  0.34416445  0.83112988  0.64494678  1
  O  O15  1  0.34676179  0.33786894  0.64418782  1
  O  O16  1  0.50059858  0.99841434  0.99730990  1
  O  O17  1  0.84207244  0.83131785  0.64481269  1
  O  O18  1  0.66483286  0.16964439  0.35329879  1
  O  O19  1  0.83946739  0.33687934  0.65756821  1
  F  F20  1  0.99833200  0.50086097  0.00291093  1
  F  F21  1  0.99871932  0.99824585  0.00101727  1
  F  F22  1  0.50005951  0.50095083  0.00303373  1
  F  F23  1  0.66566868  0.66706494  0.33575722  1
