# generated using pymatgen
data_V3Cr3(TeO8)2
_symmetry_space_group_name_H-M   'P 1'
_cell_length_a   5.98350224
_cell_length_b   6.01294177
_cell_length_c   9.24748252
_cell_angle_alpha   90.24807711
_cell_angle_beta   90.89412004
_cell_angle_gamma   119.70592703
_symmetry_Int_Tables_number   1
_chemical_formula_structural   V3Cr3(TeO8)2
_chemical_formula_sum   'V3 Cr3 Te2 O16'
_cell_volume   288.92235703
_cell_formula_units_Z   1
loop_
 _symmetry_equiv_pos_site_id
 _symmetry_equiv_pos_as_xyz
  1  'x, y, z'
loop_
 _atom_site_type_symbol
 _atom_site_label
 _atom_site_symmetry_multiplicity
 _atom_site_fract_x
 _atom_site_fract_y
 _atom_site_fract_z
 _atom_site_occupancy
  V  V0  1  0.66100691  0.82976407  0.22373949  1
  V  V1  1  0.83429093  0.66394476  0.71506466  1
  V  V2  1  0.82395995  0.17068149  0.71681547  1
  Cr  Cr3  1  0.17334472  0.83132568  0.20765722  1
  Cr  Cr4  1  0.17310334  0.34151567  0.20784173  1
  Cr  Cr5  1  0.34078675  0.17367221  0.70517781  1
  Te  Te6  1  0.32611207  0.66396279  0.48942456  1
  Te  Te7  1  0.66105336  0.33040289  0.99136024  1
  O  O8  1  0.17214211  0.82912962  0.59470172  1
  O  O9  1  0.04658811  0.52473570  0.33878604  1
  O  O10  1  0.35574948  0.67712360  0.10904539  1
  O  O11  1  0.99095920  0.99612656  0.29841247  1
  O  O12  1  0.99873375  0.01421878  0.79624412  1
  O  O13  1  0.16771671  0.34532289  0.59317214  1
  O  O14  1  0.48043917  0.95480859  0.34662743  1
  O  O15  1  0.48324403  0.52472381  0.34756381  1
  O  O16  1  0.34142546  0.16894203  0.09558792  1
  O  O17  1  0.64821875  0.82470081  0.59792383  1
  O  O18  1  0.51904652  0.47316672  0.84438204  1
  O  O19  1  0.52414620  0.04401989  0.84152310  1
  O  O20  1  0.67902338  0.32903956  0.60736474  1
  O  O21  1  0.82268416  0.65041572  0.09885476  1
  O  O22  1  0.95397026  0.46893351  0.84944346  1
  O  O23  1  0.82225666  0.16952364  0.09900584  1
