# generated using pymatgen
data_LiMnP3HO10
_symmetry_space_group_name_H-M   'P 1'
_cell_length_a   6.25348033
_cell_length_b   6.25348033
_cell_length_c   6.50410513
_cell_angle_alpha   72.68492732
_cell_angle_beta   107.31507268
_cell_angle_gamma   94.14872858
_symmetry_Int_Tables_number   1
_chemical_formula_structural   LiMnP3HO10
_chemical_formula_sum   'Li1 Mn1 P3 H1 O10'
_cell_volume   231.78224745
_cell_formula_units_Z   1
loop_
 _symmetry_equiv_pos_site_id
 _symmetry_equiv_pos_as_xyz
  1  'x, y, z'
loop_
 _atom_site_type_symbol
 _atom_site_label
 _atom_site_symmetry_multiplicity
 _atom_site_fract_x
 _atom_site_fract_y
 _atom_site_fract_z
 _atom_site_occupancy
  Li  Li0  1  0.00119927  0.00119927  0.50000000  1
  Mn  Mn1  1  0.66462943  0.66462943  0.00000000  1
  P  P2  1  0.20041001  0.55495228  0.10516569  1
  P  P3  1  0.57172056  0.57172056  0.50000000  1
  P  P4  1  0.55495228  0.20041001  0.89483431  1
  H  H5  1  0.23997712  0.23997712  0.00000000  1
  O  O6  1  0.34292406  0.67205902  0.94962864  1
  O  O7  1  0.68267289  0.98021591  0.98247468  1
  O  O8  1  0.59820875  0.72915809  0.64035344  1
  O  O9  1  0.31194314  0.59361754  0.35066757  1
  O  O10  1  0.29910363  0.19013731  0.85655633  1
  O  O11  1  0.19013731  0.29910363  0.14344367  1
  O  O12  1  0.59361754  0.31194314  0.64933243  1
  O  O13  1  0.72915809  0.59820875  0.35964656  1
  O  O14  1  0.98021591  0.68267289  0.01752532  1
  O  O15  1  0.67205902  0.34292406  0.05037136  1
