# generated using pymatgen
data_Mn3OF6
_symmetry_space_group_name_H-M   'P 1'
_cell_length_a   6.62645671
_cell_length_b   5.94582576
_cell_length_c   8.08164465
_cell_angle_alpha   106.44800875
_cell_angle_beta   70.21555449
_cell_angle_gamma   95.01076765
_symmetry_Int_Tables_number   1
_chemical_formula_structural   Mn3OF6
_chemical_formula_sum   'Mn6 O2 F12'
_cell_volume   287.34561180
_cell_formula_units_Z   2
loop_
 _symmetry_equiv_pos_site_id
 _symmetry_equiv_pos_as_xyz
  1  'x, y, z'
loop_
 _atom_site_type_symbol
 _atom_site_label
 _atom_site_symmetry_multiplicity
 _atom_site_fract_x
 _atom_site_fract_y
 _atom_site_fract_z
 _atom_site_occupancy
  Mn  Mn0  1  0.28117039  0.35485719  0.06568591  1
  Mn  Mn1  1  0.14607001  0.92953604  0.78143666  1
  Mn  Mn2  1  0.43172283  0.77984932  0.35163652  1
  Mn  Mn3  1  0.56827717  0.22015068  0.64836348  1
  Mn  Mn4  1  0.85392999  0.07046396  0.21856334  1
  Mn  Mn5  1  0.71882961  0.64514281  0.93431409  1
  O  O6  1  0.61060065  0.90090230  0.15128443  1
  O  O7  1  0.38939935  0.09909770  0.84871557  1
  F  F8  1  0.01267651  0.76957743  0.99515835  1
  F  F9  1  0.19027932  0.65224722  0.25378500  1
  F  F10  1  0.13786750  0.16755421  0.24535477  1
  F  F11  1  0.30503183  0.65993369  0.56384631  1
  F  F12  1  0.30513684  0.09484819  0.55863602  1
  F  F13  1  0.56776328  0.45776060  0.12800289  1
  F  F14  1  0.43223672  0.54223940  0.87199711  1
  F  F15  1  0.69486316  0.90515181  0.44136398  1
  F  F16  1  0.69496817  0.34006631  0.43615369  1
  F  F17  1  0.86213250  0.83244579  0.75464523  1
  F  F18  1  0.80972068  0.34775278  0.74621500  1
  F  F19  1  0.98732349  0.23042257  0.00484165  1
