# generated using pymatgen
data_Co2C2O7
_symmetry_space_group_name_H-M   'P 1'
_cell_length_a   8.52784463
_cell_length_b   8.51276951
_cell_length_c   8.24876594
_cell_angle_alpha   89.56861667
_cell_angle_beta   89.99999986
_cell_angle_gamma   59.94140640
_symmetry_Int_Tables_number   1
_chemical_formula_structural   Co2C2O7
_chemical_formula_sum   'Co6 C6 O21'
_cell_volume   518.27064542
_cell_formula_units_Z   3
loop_
 _symmetry_equiv_pos_site_id
 _symmetry_equiv_pos_as_xyz
  1  'x, y, z'
loop_
 _atom_site_type_symbol
 _atom_site_label
 _atom_site_symmetry_multiplicity
 _atom_site_fract_x
 _atom_site_fract_y
 _atom_site_fract_z
 _atom_site_occupancy
  Co  Co0  1  0.99872876  0.00136632  0.28441909  1
  Co  Co1  1  0.00009509  0.99863368  0.71558091  1
  Co  Co2  1  0.33323363  0.33264729  0.82454121  1
  Co  Co3  1  0.33423698  0.33155113  0.25899643  1
  Co  Co4  1  0.66588092  0.66735271  0.17545879  1
  Co  Co5  1  0.66578811  0.66844887  0.74100357  1
  C  C6  1  0.99936916  0.33898742  0.26624284  1
  C  C7  1  0.33730572  0.66312359  0.26727085  1
  C  C8  1  0.66360279  0.99830213  0.26624009  1
  C  C9  1  0.33835558  0.66101258  0.73375716  1
  C  C10  1  0.00042931  0.33687641  0.73272915  1
  C  C11  1  0.66190493  0.00169787  0.73375991  1
  O  O12  1  0.99893680  0.00000000  0.50000000  1
  O  O13  1  0.06789642  0.16999972  0.77997428  1
  O  O14  1  0.16365436  0.26186990  0.32411969  1
  O  O15  1  0.09671875  0.41506445  0.73995758  1
  O  O16  1  0.33192873  0.33223127  0.04079438  1
  O  O17  1  0.26354351  0.57255683  0.32350726  1
  O  O18  1  0.48780033  0.09457617  0.74434319  1
  O  O19  1  0.17240849  0.75899868  0.78166344  1
  O  O20  1  0.23789614  0.83000028  0.22002572  1
  O  O21  1  0.41967450  0.48682056  0.74323279  1
  O  O22  1  0.57558133  0.16251089  0.32299868  1
  O  O23  1  0.75984810  0.07014676  0.78031102  1
  O  O24  1  0.42552426  0.73813010  0.67588031  1
  O  O25  1  0.51178319  0.58493555  0.26004242  1
  O  O26  1  0.66416100  0.66776873  0.95920562  1
  O  O27  1  0.83610033  0.42744317  0.67649274  1
  O  O28  1  0.58237650  0.90542383  0.25565681  1
  O  O29  1  0.93140817  0.24100132  0.21833656  1
  O  O30  1  0.90649606  0.51317944  0.25676721  1
  O  O31  1  0.73809221  0.83748911  0.67700132  1
  O  O32  1  0.82999486  0.92985324  0.21968898  1
