# generated using pymatgen
data_LiMn2OF3
_symmetry_space_group_name_H-M   'P 1'
_cell_length_a   6.30654742
_cell_length_b   6.38275893
_cell_length_c   9.09758199
_cell_angle_alpha   90.00000000
_cell_angle_beta   90.00000000
_cell_angle_gamma   90.00000000
_symmetry_Int_Tables_number   1
_chemical_formula_structural   LiMn2OF3
_chemical_formula_sum   'Li4 Mn8 O4 F12'
_cell_volume   366.20653149
_cell_formula_units_Z   4
loop_
 _symmetry_equiv_pos_site_id
 _symmetry_equiv_pos_as_xyz
  1  'x, y, z'
loop_
 _atom_site_type_symbol
 _atom_site_label
 _atom_site_symmetry_multiplicity
 _atom_site_fract_x
 _atom_site_fract_y
 _atom_site_fract_z
 _atom_site_occupancy
  Li  Li0  1  0.00000000  0.96668178  0.02001846  1
  Li  Li1  1  0.50000000  0.03331822  0.22998154  1
  Li  Li2  1  0.50000000  0.53331822  0.52001846  1
  Li  Li3  1  0.00000000  0.46668178  0.72998154  1
  Mn  Mn4  1  0.25000000  0.50000000  0.12500000  1
  Mn  Mn5  1  0.75000000  0.50000000  0.12500000  1
  Mn  Mn6  1  0.00000000  0.25540217  0.38998278  1
  Mn  Mn7  1  0.00000000  0.75540217  0.36001722  1
  Mn  Mn8  1  0.75000000  0.00000000  0.62500000  1
  Mn  Mn9  1  0.25000000  0.00000000  0.62500000  1
  Mn  Mn10  1  0.50000000  0.24459783  0.88998278  1
  Mn  Mn11  1  0.50000000  0.74459783  0.86001722  1
  O  O12  1  0.00000000  0.70179623  0.13884241  1
  O  O13  1  0.50000000  0.29820377  0.11115759  1
  O  O14  1  0.50000000  0.79820377  0.63884241  1
  O  O15  1  0.00000000  0.20179623  0.61115759  1
  F  F16  1  0.00000000  0.23703623  0.14855401  1
  F  F17  1  0.50000000  0.76296377  0.10144599  1
  F  F18  1  0.24456640  0.00043920  0.36819133  1
  F  F19  1  0.75543360  0.00043920  0.36819133  1
  F  F20  1  0.24456640  0.50043920  0.38180867  1
  F  F21  1  0.75543360  0.50043920  0.38180867  1
  F  F22  1  0.50000000  0.26296377  0.64855401  1
  F  F23  1  0.00000000  0.73703623  0.60144599  1
  F  F24  1  0.74456640  0.49956080  0.86819133  1
  F  F25  1  0.25543360  0.49956080  0.86819133  1
  F  F26  1  0.25543360  0.99956080  0.88180867  1
  F  F27  1  0.74456640  0.99956080  0.88180867  1
