# generated using pymatgen
data_LiV3F10
_symmetry_space_group_name_H-M   'P 1'
_cell_length_a   7.45816020
_cell_length_b   6.56416126
_cell_length_c   7.88364985
_cell_angle_alpha   89.98623262
_cell_angle_beta   90.00030773
_cell_angle_gamma   90.00013277
_symmetry_Int_Tables_number   1
_chemical_formula_structural   LiV3F10
_chemical_formula_sum   'Li2 V6 F20'
_cell_volume   385.95641477
_cell_formula_units_Z   2
loop_
 _symmetry_equiv_pos_site_id
 _symmetry_equiv_pos_as_xyz
  1  'x, y, z'
loop_
 _atom_site_type_symbol
 _atom_site_label
 _atom_site_symmetry_multiplicity
 _atom_site_fract_x
 _atom_site_fract_y
 _atom_site_fract_z
 _atom_site_occupancy
  Li  Li0  1  0.50002636  0.18281503  0.25016031  1
  Li  Li1  1  0.50002775  0.81718595  0.74983937  1
  V  V2  1  0.99985917  -0.00000033  0.49999857  1
  V  V3  1  0.00012015  -0.00000030  0.00000114  1
  V  V4  1  0.26509836  0.50000218  0.49999619  1
  V  V5  1  0.26531238  0.50000497  0.99999791  1
  V  V6  1  0.73469160  0.50000094  0.50000137  1
  V  V7  1  0.73486892  0.49999553  0.00000139  1
  F  F8  1  0.00001483  0.03869026  0.74998091  1
  F  F9  1  0.00001561  0.96130644  0.25001762  1
  F  F10  1  0.00010560  0.50000019  0.00000351  1
  F  F11  1  0.19888086  0.19859813  0.02909159  1
  F  F12  1  0.19888380  0.80140062  0.97090794  1
  F  F13  1  0.19861677  0.19865126  0.47120083  1
  F  F14  1  0.19861559  0.80135452  0.52879811  1
  F  F15  1  0.26885946  0.54782592  0.24998772  1
  F  F16  1  0.26885607  0.45217546  0.75000646  1
  F  F17  1  0.49989445  0.33389082  0.44975891  1
  F  F18  1  0.49990019  0.66610942  0.55024008  1
  F  F19  1  0.50011806  0.33382294  0.05033298  1
  F  F20  1  0.50012033  0.66617760  0.94966729  1
  F  F21  1  0.73111858  0.45214769  0.75000438  1
  F  F22  1  0.73111256  0.54785609  0.24999797  1
  F  F23  1  0.80134789  0.19860632  0.02874589  1
  F  F24  1  0.80135679  0.80139144  0.97125683  1
  F  F25  1  0.80114709  0.19863202  0.47081717  1
  F  F26  1  0.80114961  0.80136009  0.52918499  1
  F  F27  1  0.99988315  0.49999881  0.50000257  1
