# generated using pymatgen
data_Li4Mn3Nb3(SnO8)2
_symmetry_space_group_name_H-M   'P 1'
_cell_length_a   6.28910546
_cell_length_b   6.13513051
_cell_length_c   10.07127282
_cell_angle_alpha   90.00160784
_cell_angle_beta   88.67276209
_cell_angle_gamma   119.19286523
_symmetry_Int_Tables_number   1
_chemical_formula_structural   Li4Mn3Nb3(SnO8)2
_chemical_formula_sum   'Li4 Mn3 Nb3 Sn2 O16'
_cell_volume   339.11734226
_cell_formula_units_Z   1
loop_
 _symmetry_equiv_pos_site_id
 _symmetry_equiv_pos_as_xyz
  1  'x, y, z'
loop_
 _atom_site_type_symbol
 _atom_site_label
 _atom_site_symmetry_multiplicity
 _atom_site_fract_x
 _atom_site_fract_y
 _atom_site_fract_z
 _atom_site_occupancy
  Li  Li0  1  0.34218976  0.67111804  0.90795544  1
  Li  Li1  1  0.00510509  0.00256114  0.99627252  1
  Li  Li2  1  0.00926269  0.00465027  0.48340481  1
  Li  Li3  1  0.68951168  0.34476823  0.39273678  1
  Mn  Mn4  1  0.16955779  0.82928831  0.21072636  1
  Mn  Mn5  1  0.16951538  0.34027646  0.21071802  1
  Mn  Mn6  1  0.33292502  0.16647294  0.71404319  1
  Nb  Nb7  1  0.65864770  0.82927843  0.21679764  1
  Nb  Nb8  1  0.82435785  0.65824594  0.71303024  1
  Nb  Nb9  1  0.82439504  0.16621855  0.71303377  1
  Sn  Sn10  1  0.31871696  0.65939767  0.48192130  1
  Sn  Sn11  1  0.64934475  0.32460482  0.99905860  1
  O  O12  1  0.14090737  0.81753369  0.60021158  1
  O  O13  1  0.04511450  0.52258567  0.34986853  1
  O  O14  1  0.37280675  0.68639614  0.10198434  1
  O  O15  1  0.97789152  0.98895722  0.30337134  1
  O  O16  1  0.98699734  0.99353682  0.81283866  1
  O  O17  1  0.14092724  0.32339038  0.60019915  1
  O  O18  1  0.50628093  0.97017828  0.34859931  1
  O  O19  1  0.50627885  0.53609312  0.34861006  1
  O  O20  1  0.31575192  0.15789558  0.08440451  1
  O  O21  1  0.65911960  0.82960860  0.60418486  1
  O  O22  1  0.54224649  0.49904466  0.83954625  1
  O  O23  1  0.54223851  0.04324894  0.83954600  1
  O  O24  1  0.67910848  0.33957670  0.59950288  1
  O  O25  1  0.81497318  0.66213592  0.09744703  1
  O  O26  1  0.96086187  0.48046056  0.84038878  1
  O  O27  1  0.81496676  0.15277791  0.09743603  1
