# generated using pymatgen
data_Li6MnO6
_symmetry_space_group_name_H-M   'P 1'
_cell_length_a   5.78081177
_cell_length_b   5.43492565
_cell_length_c   5.78187547
_cell_angle_alpha   121.75431654
_cell_angle_beta   119.84778230
_cell_angle_gamma   58.13931804
_symmetry_Int_Tables_number   1
_chemical_formula_structural   Li6MnO6
_chemical_formula_sum   'Li6 Mn1 O6'
_cell_volume   124.96292585
_cell_formula_units_Z   1
loop_
 _symmetry_equiv_pos_site_id
 _symmetry_equiv_pos_as_xyz
  1  'x, y, z'
loop_
 _atom_site_type_symbol
 _atom_site_label
 _atom_site_symmetry_multiplicity
 _atom_site_fract_x
 _atom_site_fract_y
 _atom_site_fract_z
 _atom_site_occupancy
  Li  Li0  1  0.28493586  0.28538659  0.49296505  1
  Li  Li1  1  0.07846253  0.71378156  0.28608477  1
  Li  Li2  1  0.49514068  0.70905907  0.92225227  1
  Li  Li3  1  0.50485932  0.29094093  0.07774773  1
  Li  Li4  1  0.92153747  0.28621844  0.71391523  1
  Li  Li5  1  0.71506414  0.71461341  0.50703495  1
  Mn  Mn6  1  0.00000000  0.00000000  0.00000000  1
  O  O7  1  0.09350038  0.75712451  0.64800905  1
  O  O8  1  0.20133509  0.24441473  0.09051066  1
  O  O9  1  0.64610480  0.23871568  0.79468168  1
  O  O10  1  0.35389520  0.76128432  0.20531832  1
  O  O11  1  0.79866491  0.75558527  0.90948934  1
  O  O12  1  0.90649962  0.24287549  0.35199095  1
