# generated using pymatgen
data_Rb2LiV(PO4)2
_symmetry_space_group_name_H-M   'P 1'
_cell_length_a   7.29474319
_cell_length_b   9.69228064
_cell_length_c   12.73858298
_cell_angle_alpha   89.99992128
_cell_angle_beta   90.00052248
_cell_angle_gamma   90.00017836
_symmetry_Int_Tables_number   1
_chemical_formula_structural   Rb2LiV(PO4)2
_chemical_formula_sum   'Rb8 Li4 V4 P8 O32'
_cell_volume   900.65218784
_cell_formula_units_Z   4
loop_
 _symmetry_equiv_pos_site_id
 _symmetry_equiv_pos_as_xyz
  1  'x, y, z'
loop_
 _atom_site_type_symbol
 _atom_site_label
 _atom_site_symmetry_multiplicity
 _atom_site_fract_x
 _atom_site_fract_y
 _atom_site_fract_z
 _atom_site_occupancy
  Rb  Rb0  1  0.76770447  0.30619719  0.90144955  1
  Rb  Rb1  1  0.80825963  0.91065219  0.09081875  1
  Rb  Rb2  1  0.69174579  0.08934267  0.59082864  1
  Rb  Rb3  1  0.73230015  0.69380129  0.40144921  1
  Rb  Rb4  1  0.26770325  0.19379974  0.09855525  1
  Rb  Rb5  1  0.30824852  0.58934434  0.90917374  1
  Rb  Rb6  1  0.19174902  0.41065502  0.40917589  1
  Rb  Rb7  1  0.23229580  0.80619968  0.59855107  1
  Li  Li8  1  0.86989405  0.62110776  0.99464966  1
  Li  Li9  1  0.63009550  0.37887775  0.49464441  1
  Li  Li10  1  0.36990432  0.87888694  0.00535226  1
  Li  Li11  1  0.13008744  0.12112220  0.50535005  1
  V  V12  1  0.75213920  0.25005644  0.30049573  1
  V  V13  1  0.74786096  0.74993649  0.80049084  1
  V  V14  1  0.25213135  0.24993883  0.69951161  1
  V  V15  1  0.24786367  0.75006074  0.19950491  1
  P  P16  1  0.98196740  0.47390058  0.15056376  1
  P  P17  1  0.91902945  0.48794759  0.67249131  1
  P  P18  1  0.58097623  0.51205814  0.17250727  1
  P  P19  1  0.51803795  0.52609929  0.65054974  1
  P  P20  1  0.48196492  0.02610293  0.84944311  1
  P  P21  1  0.41902205  0.01205075  0.32750469  1
  P  P22  1  0.08097009  0.98794736  0.82749941  1
  P  P23  1  0.01803292  0.97390213  0.34943879  1
  O  O24  1  0.98777298  0.84739002  0.81117635  1
  O  O25  1  0.97450376  0.57177330  0.57724499  1
  O  O26  1  0.97369111  0.96155893  0.46644759  1
  O  O27  1  0.93842799  0.33159684  0.19913143  1
  O  O28  1  0.90883898  0.56685122  0.77724319  1
  O  O29  1  0.88004998  0.05360824  0.28339269  1
  O  O30  1  0.82596081  0.28833637  0.43241373  1
  O  O31  1  0.79526402  0.56921003  0.15191173  1
  O  O32  1  0.70474289  0.43079032  0.65190203  1
  O  O33  1  0.67403933  0.71164421  0.93240587  1
  O  O34  1  0.61994656  0.94639059  0.78340267  1
  O  O35  1  0.59116165  0.43315595  0.27725128  1
  O  O36  1  0.56157810  0.66840713  0.69911957  1
  O  O37  1  0.52630134  0.03844471  0.96645448  1
  O  O38  1  0.52550342  0.42821829  0.07725151  1
  O  O39  1  0.51223221  0.15260397  0.31117934  1
  O  O40  1  0.48778159  0.65261605  0.18882636  1
  O  O41  1  0.47448200  0.92821242  0.42275401  1
  O  O42  1  0.47369957  0.53843904  0.53354384  1
  O  O43  1  0.43843085  0.16840901  0.80087441  1
  O  O44  1  0.40883220  0.93315191  0.22275277  1
  O  O45  1  0.38005680  0.44638996  0.71659835  1
  O  O46  1  0.32594925  0.21165924  0.56759307  1
  O  O47  1  0.29525796  0.93079714  0.84809022  1
  O  O48  1  0.20473697  0.06921322  0.34809131  1
  O  O49  1  0.17404320  0.78835286  0.06758652  1
  O  O50  1  0.11995372  0.55361019  0.21660178  1
  O  O51  1  0.09114886  0.06685189  0.72275555  1
  O  O52  1  0.06157734  0.83159629  0.30086954  1
  O  O53  1  0.02630180  0.46155629  0.03355012  1
  O  O54  1  0.02550158  0.07178362  0.92275485  1
  O  O55  1  0.01222702  0.34738869  0.68882821  1
