# generated using pymatgen
data_Sr(SbO3)2
_symmetry_space_group_name_H-M   'P 1'
_cell_length_a   7.30746002
_cell_length_b   7.30746028
_cell_length_c   14.57934915
_cell_angle_alpha   60.09355916
_cell_angle_beta   60.09355801
_cell_angle_gamma   60.96489253
_symmetry_Int_Tables_number   1
_chemical_formula_structural   Sr(SbO3)2
_chemical_formula_sum   'Sr4 Sb8 O24'
_cell_volume   555.19432888
_cell_formula_units_Z   4
loop_
 _symmetry_equiv_pos_site_id
 _symmetry_equiv_pos_as_xyz
  1  'x, y, z'
loop_
 _atom_site_type_symbol
 _atom_site_label
 _atom_site_symmetry_multiplicity
 _atom_site_fract_x
 _atom_site_fract_y
 _atom_site_fract_z
 _atom_site_occupancy
  Sr  Sr0  1  0.18150877  0.46501993  0.21762621  1
  Sr  Sr1  1  0.46501993  0.18150877  0.71762621  1
  Sr  Sr2  1  0.53498007  0.81849123  0.28237379  1
  Sr  Sr3  1  0.81849123  0.53498007  0.78237379  1
  Sb  Sb4  1  0.00000000  0.00000000  0.00000000  1
  Sb  Sb5  1  0.00000000  0.50000000  0.00000000  1
  Sb  Sb6  1  0.00000000  0.00000000  0.50000000  1
  Sb  Sb7  1  0.50000000  0.00000000  0.00000000  1
  Sb  Sb8  1  0.99292419  0.00707581  0.25000000  1
  Sb  Sb9  1  0.00000000  0.50000000  0.50000000  1
  Sb  Sb10  1  0.50000000  0.00000000  0.50000000  1
  Sb  Sb11  1  0.00707581  0.99292419  0.75000000  1
  O  O12  1  0.09150505  0.67791381  0.02911978  1
  O  O13  1  0.10885261  0.05466185  0.33412684  1
  O  O14  1  0.08120422  0.68227458  0.33795082  1
  O  O15  1  0.67384152  0.04453927  0.05555275  1
  O  O16  1  0.31772542  0.91879578  0.16204918  1
  O  O17  1  0.04453927  0.67384152  0.55555275  1
  O  O18  1  0.32448948  0.32444994  0.46242952  1
  O  O19  1  0.05466185  0.10885261  0.83412684  1
  O  O20  1  0.67555006  0.67551052  0.03757048  1
  O  O21  1  0.66839076  0.05591311  0.33297226  1
  O  O22  1  0.05591311  0.66839076  0.83297226  1
  O  O23  1  0.32208619  0.90849495  0.47088022  1
  O  O24  1  0.94408689  0.33160924  0.16702774  1
  O  O25  1  0.67791381  0.09150505  0.52911978  1
  O  O26  1  0.33160924  0.94408689  0.66702774  1
  O  O27  1  0.32444994  0.32448948  0.96242952  1
  O  O28  1  0.67551052  0.67555006  0.53757048  1
  O  O29  1  0.94533815  0.89114739  0.16587316  1
  O  O30  1  0.95546073  0.32615848  0.44444725  1
  O  O31  1  0.68227458  0.08120422  0.83795082  1
  O  O32  1  0.32615848  0.95546073  0.94444725  1
  O  O33  1  0.91879578  0.31772542  0.66204918  1
  O  O34  1  0.90849495  0.32208619  0.97088022  1
  O  O35  1  0.89114739  0.94533815  0.66587316  1
