# generated using pymatgen
data_Cr4CuO12
_symmetry_space_group_name_H-M   'P 1'
_cell_length_a   6.73129137
_cell_length_b   6.73129063
_cell_length_c   5.75965513
_cell_angle_alpha   75.62267528
_cell_angle_beta   104.37731936
_cell_angle_gamma   95.61705506
_symmetry_Int_Tables_number   1
_chemical_formula_structural   Cr4CuO12
_chemical_formula_sum   'Cr4 Cu1 O12'
_cell_volume   244.69855462
_cell_formula_units_Z   1
loop_
 _symmetry_equiv_pos_site_id
 _symmetry_equiv_pos_as_xyz
  1  'x, y, z'
loop_
 _atom_site_type_symbol
 _atom_site_label
 _atom_site_symmetry_multiplicity
 _atom_site_fract_x
 _atom_site_fract_y
 _atom_site_fract_z
 _atom_site_occupancy
  Cr  Cr0  1  0.20494476  0.61074950  0.76728756  1
  Cr  Cr1  1  0.38937224  0.80138727  0.27115332  1
  Cr  Cr2  1  0.61074950  0.20494476  0.73271244  1
  Cr  Cr3  1  0.80138727  0.38937224  0.22884668  1
  Cu  Cu4  1  0.91144164  0.91144164  0.25000000  1
  O  O5  1  0.03035373  0.77933035  0.64013269  1
  O  O6  1  0.09651407  0.38700887  0.80819442  1
  O  O7  1  0.20395099  0.96133329  0.18891932  1
  O  O8  1  0.35803622  0.63136531  0.55737521  1
  O  O9  1  0.38700887  0.09651407  0.69180558  1
  O  O10  1  0.35365228  0.64609822  0.04980534  1
  O  O11  1  0.63136531  0.35803622  0.94262479  1
  O  O12  1  0.62182878  0.91072547  0.30015713  1
  O  O13  1  0.64609822  0.35365228  0.45019466  1
  O  O14  1  0.77933035  0.03035373  0.85986731  1
  O  O15  1  0.91072547  0.62182878  0.19984287  1
  O  O16  1  0.96133329  0.20395099  0.31108068  1
