# generated using pymatgen
data_V2O2F3
_symmetry_space_group_name_H-M   'P 1'
_cell_length_a   3.73645062
_cell_length_b   5.36337968
_cell_length_c   9.96346415
_cell_angle_alpha   90.00000000
_cell_angle_beta   90.00000000
_cell_angle_gamma   69.61480393
_symmetry_Int_Tables_number   1
_chemical_formula_structural   V2O2F3
_chemical_formula_sum   'V4 O4 F6'
_cell_volume   187.16306054
_cell_formula_units_Z   2
loop_
 _symmetry_equiv_pos_site_id
 _symmetry_equiv_pos_as_xyz
  1  'x, y, z'
loop_
 _atom_site_type_symbol
 _atom_site_label
 _atom_site_symmetry_multiplicity
 _atom_site_fract_x
 _atom_site_fract_y
 _atom_site_fract_z
 _atom_site_occupancy
  V  V0  1  0.14460192  0.71079616  0.05907972  1
  V  V1  1  0.14460192  0.71079616  0.44092028  1
  V  V2  1  0.85539808  0.28920384  0.94092028  1
  V  V3  1  0.85539808  0.28920384  0.55907972  1
  O  O4  1  0.32655208  0.34689583  0.53845413  1
  O  O5  1  0.32655208  0.34689583  0.96154587  1
  O  O6  1  0.67344792  0.65310417  0.03845413  1
  O  O7  1  0.67344792  0.65310417  0.46154587  1
  F  F8  1  0.03891604  0.92216691  0.88275633  1
  F  F9  1  0.03891604  0.92216691  0.61724367  1
  F  F10  1  0.20659214  0.58681472  0.25000000  1
  F  F11  1  0.79340786  0.41318528  0.75000000  1
  F  F12  1  0.96108396  0.07783309  0.11724367  1
  F  F13  1  0.96108396  0.07783309  0.38275633  1
