# generated using pymatgen
data_Co2O3F
_symmetry_space_group_name_H-M   'P 1'
_cell_length_a   4.38733521
_cell_length_b   4.38733521
_cell_length_c   11.80426082
_cell_angle_alpha   90.00000000
_cell_angle_beta   90.00000000
_cell_angle_gamma   92.76961090
_symmetry_Int_Tables_number   1
_chemical_formula_structural   Co2O3F
_chemical_formula_sum   'Co8 O12 F4'
_cell_volume   226.95138585
_cell_formula_units_Z   4
loop_
 _symmetry_equiv_pos_site_id
 _symmetry_equiv_pos_as_xyz
  1  'x, y, z'
loop_
 _atom_site_type_symbol
 _atom_site_label
 _atom_site_symmetry_multiplicity
 _atom_site_fract_x
 _atom_site_fract_y
 _atom_site_fract_z
 _atom_site_occupancy
  Co  Co0  1  0.00000000  0.00000000  0.00000000  1
  Co  Co1  1  0.98880816  0.01119184  0.25000000  1
  Co  Co2  1  0.00000000  0.00000000  0.50000000  1
  Co  Co3  1  0.01119184  0.98880816  0.75000000  1
  Co  Co4  1  0.52361668  0.47638332  0.12496324  1
  Co  Co5  1  0.47638332  0.52361668  0.62496324  1
  Co  Co6  1  0.52361668  0.47638332  0.37503676  1
  Co  Co7  1  0.47638332  0.52361668  0.87503676  1
  O  O8  1  0.19475836  0.80524164  0.62472397  1
  O  O9  1  0.19475836  0.80524164  0.87527603  1
  O  O10  1  0.30812856  0.30812856  0.00000000  1
  O  O11  1  0.31512682  0.29353439  0.25000000  1
  O  O12  1  0.29353439  0.31512682  0.75000000  1
  O  O13  1  0.30812856  0.30812856  0.50000000  1
  O  O14  1  0.69187144  0.69187144  0.00000000  1
  O  O15  1  0.70646561  0.68487318  0.25000000  1
  O  O16  1  0.69187144  0.69187144  0.50000000  1
  O  O17  1  0.68487318  0.70646561  0.75000000  1
  O  O18  1  0.80524164  0.19475836  0.12472397  1
  O  O19  1  0.80524164  0.19475836  0.37527603  1
  F  F20  1  0.21162222  0.78837778  0.12936069  1
  F  F21  1  0.21162222  0.78837778  0.37063931  1
  F  F22  1  0.78837778  0.21162222  0.62936069  1
  F  F23  1  0.78837778  0.21162222  0.87063931  1
