# generated using pymatgen
data_LiVPO5
_symmetry_space_group_name_H-M   'P 1'
_cell_length_a   4.88363155
_cell_length_b   6.21693730
_cell_length_c   6.39300649
_cell_angle_alpha   86.90443774
_cell_angle_beta   89.99965954
_cell_angle_gamma   90.00053697
_symmetry_Int_Tables_number   1
_chemical_formula_structural   LiVPO5
_chemical_formula_sum   'Li2 V2 P2 O10'
_cell_volume   193.81632855
_cell_formula_units_Z   2
loop_
 _symmetry_equiv_pos_site_id
 _symmetry_equiv_pos_as_xyz
  1  'x, y, z'
loop_
 _atom_site_type_symbol
 _atom_site_label
 _atom_site_symmetry_multiplicity
 _atom_site_fract_x
 _atom_site_fract_y
 _atom_site_fract_z
 _atom_site_occupancy
  Li  Li0  1  0.91751448  0.92373027  0.02498591  1
  Li  Li1  1  0.08247878  0.42374195  0.52498524  1
  V  V2  1  0.24498768  0.75361743  0.74922777  1
  V  V3  1  0.75506685  0.25362174  0.24923308  1
  P  P4  1  0.47600094  0.74809395  0.24970370  1
  P  P5  1  0.52393821  0.24808909  0.74969027  1
  O  O6  1  0.67207348  0.93904656  0.28275385  1
  O  O7  1  0.28971565  0.80036422  0.05751498  1
  O  O8  1  0.90658408  0.75687739  0.75866223  1
  O  O9  1  0.29496366  0.70009094  0.44411720  1
  O  O10  1  0.65802656  0.55559495  0.19993089  1
  O  O11  1  0.32792114  0.43902702  0.78274626  1
  O  O12  1  0.71029649  0.30037129  0.55750726  1
  O  O13  1  0.09338117  0.25688482  0.25866172  1
  O  O14  1  0.70504002  0.20009262  0.94413570  1
  O  O15  1  0.34199981  0.05560474  0.69992392  1
