# generated using pymatgen
data_Sr6Ta2O11
_symmetry_space_group_name_H-M   'P 1'
_cell_length_a   12.11623546
_cell_length_b   12.10135008
_cell_length_c   14.82721880
_cell_angle_alpha   35.29678153
_cell_angle_beta   35.19784721
_cell_angle_gamma   59.95907168
_symmetry_Int_Tables_number   1
_chemical_formula_structural   Sr6Ta2O11
_chemical_formula_sum   'Sr12 Ta4 O22'
_cell_volume   627.29946822
_cell_formula_units_Z   2
loop_
 _symmetry_equiv_pos_site_id
 _symmetry_equiv_pos_as_xyz
  1  'x, y, z'
loop_
 _atom_site_type_symbol
 _atom_site_label
 _atom_site_symmetry_multiplicity
 _atom_site_fract_x
 _atom_site_fract_y
 _atom_site_fract_z
 _atom_site_occupancy
  Sr  Sr0  1  0.02793249  0.50127116  0.22142896  1
  Sr  Sr1  1  0.97019340  -0.00001953  0.52981050  1
  Sr  Sr2  1  0.00003053  0.50003076  0.49996261  1
  Sr  Sr3  1  0.97328406  -0.00002662  0.27736543  1
  Sr  Sr4  1  0.52980637  0.00001758  0.47019071  1
  Sr  Sr5  1  0.52664232  0.49871069  0.22397751  1
  Sr  Sr6  1  0.97335406  0.50128999  0.77602599  1
  Sr  Sr7  1  0.49996923  0.49996947  0.50003707  1
  Sr  Sr8  1  0.02790001  -0.00003150  0.72274913  1
  Sr  Sr9  1  0.47210050  0.00002594  0.27725355  1
  Sr  Sr10  1  0.47206971  0.49872624  0.77857057  1
  Sr  Sr11  1  0.52671376  0.00002246  0.72263932  1
  Ta  Ta12  1  0.97260426  0.00000436  0.02738079  1
  Ta  Ta13  1  0.00000965  0.50001712  -0.00000924  1
  Ta  Ta14  1  0.52739697  -0.00000279  0.97261730  1
  Ta  Ta15  1  0.49998731  0.49998113  0.00001328  1
  O  O16  1  0.00777107  0.26536858  0.22685881  1
  O  O17  1  0.27311550  0.26534736  0.22689418  1
  O  O18  1  0.27178040  0.50000185  0.22823416  1
  O  O19  1  0.49226905  0.26542664  0.24235364  1
  O  O20  1  0.38312390  0.78231042  0.11685695  1
  O  O21  1  0.19640622  0.00000529  0.80358152  1
  O  O22  1  0.30359379  -0.00000313  0.19641708  1
  O  O23  1  0.11688058  0.21769220  0.88313770  1
  O  O24  1  0.60079390  0.78224385  0.11694115  1
  O  O25  1  0.75756317  0.26531955  0.24250818  1
  O  O26  1  0.00773211  0.73457435  0.75764520  1
  O  O27  1  0.22822077  0.49999883  0.77176509  1
  O  O28  1  0.77180819  0.50005679  0.22819228  1
  O  O29  1  0.22688357  0.73465323  0.77310586  1
  O  O30  1  0.68147363  0.78230587  0.31848984  1
  O  O31  1  0.60085497  0.21777825  0.68143593  1
  O  O32  1  0.81852696  0.21769535  0.68150873  1
  O  O33  1  0.89914415  0.78222322  0.31856382  1
  O  O34  1  0.49222758  0.73463220  0.77314268  1
  O  O35  1  0.72819219  0.49994612  0.77180446  1
  O  O36  1  0.74243836  0.73467974  0.75749047  1
  O  O37  1  0.89920527  0.21775698  0.88305876  1
