# generated using pymatgen
data_Cr2O5F2
_symmetry_space_group_name_H-M   'P 1'
_cell_length_a   8.27050038
_cell_length_b   8.27050038
_cell_length_c   9.67630905
_cell_angle_alpha   90.00000000
_cell_angle_beta   90.00000000
_cell_angle_gamma   90.00000000
_symmetry_Int_Tables_number   1
_chemical_formula_structural   Cr2O5F2
_chemical_formula_sum   'Cr8 O20 F8'
_cell_volume   661.87092354
_cell_formula_units_Z   4
loop_
 _symmetry_equiv_pos_site_id
 _symmetry_equiv_pos_as_xyz
  1  'x, y, z'
loop_
 _atom_site_type_symbol
 _atom_site_label
 _atom_site_symmetry_multiplicity
 _atom_site_fract_x
 _atom_site_fract_y
 _atom_site_fract_z
 _atom_site_occupancy
  Cr  Cr0  1  0.09067168  0.33648728  0.85994193  1
  Cr  Cr1  1  0.16351272  0.40932832  0.35994193  1
  Cr  Cr2  1  0.33648728  0.90932832  0.14005807  1
  Cr  Cr3  1  0.40932832  0.83648728  0.64005807  1
  Cr  Cr4  1  0.59067168  0.16351272  0.64005807  1
  Cr  Cr5  1  0.66351272  0.09067168  0.14005807  1
  Cr  Cr6  1  0.83648728  0.59067168  0.35994193  1
  Cr  Cr7  1  0.90932832  0.66351272  0.85994193  1
  O  O8  1  0.00000000  0.50000000  0.26897082  1
  O  O9  1  0.00000000  0.50000000  0.76897082  1
  O  O10  1  0.02488491  0.71609386  0.98405194  1
  O  O11  1  0.10849004  0.19094434  0.75458776  1
  O  O12  1  0.21609386  0.52488491  0.48405194  1
  O  O13  1  0.19094434  0.89150996  0.24541224  1
  O  O14  1  0.30905566  0.39150996  0.25458776  1
  O  O15  1  0.28390614  0.02488491  0.01594806  1
  O  O16  1  0.39150996  0.69094434  0.74541224  1
  O  O17  1  0.47511509  0.21609386  0.51594806  1
  O  O18  1  0.50000000  0.00000000  0.23102918  1
  O  O19  1  0.50000000  0.00000000  0.73102918  1
  O  O20  1  0.52488491  0.78390614  0.51594806  1
  O  O21  1  0.60849004  0.30905566  0.74541224  1
  O  O22  1  0.71609386  0.97511509  0.01594806  1
  O  O23  1  0.69094434  0.60849004  0.25458776  1
  O  O24  1  0.80905566  0.10849004  0.24541224  1
  O  O25  1  0.78390614  0.47511509  0.48405194  1
  O  O26  1  0.89150996  0.80905566  0.75458776  1
  O  O27  1  0.97511509  0.28390614  0.98405194  1
  F  F28  1  0.09982763  0.22399363  0.42305603  1
  F  F29  1  0.22399363  0.90017237  0.57694397  1
  F  F30  1  0.27600637  0.40017237  0.92305603  1
  F  F31  1  0.40017237  0.72399363  0.07694397  1
  F  F32  1  0.59982763  0.27600637  0.07694397  1
  F  F33  1  0.72399363  0.59982763  0.92305603  1
  F  F34  1  0.77600637  0.09982763  0.57694397  1
  F  F35  1  0.90017237  0.77600637  0.42305603  1
