# generated using pymatgen
data_LiMnF5
_symmetry_space_group_name_H-M   'P 1'
_cell_length_a   5.47296779
_cell_length_b   5.47296779
_cell_length_c   11.49210785
_cell_angle_alpha   90.00000000
_cell_angle_beta   90.00000000
_cell_angle_gamma   90.00000000
_symmetry_Int_Tables_number   1
_chemical_formula_structural   LiMnF5
_chemical_formula_sum   'Li4 Mn4 F20'
_cell_volume   344.22743241
_cell_formula_units_Z   4
loop_
 _symmetry_equiv_pos_site_id
 _symmetry_equiv_pos_as_xyz
  1  'x, y, z'
loop_
 _atom_site_type_symbol
 _atom_site_label
 _atom_site_symmetry_multiplicity
 _atom_site_fract_x
 _atom_site_fract_y
 _atom_site_fract_z
 _atom_site_occupancy
  Li  Li0  1  0.05390498  0.31543441  0.84643044  1
  Li  Li1  1  0.31543441  0.94609502  0.59643044  1
  Li  Li2  1  0.68456559  0.05390498  0.09643044  1
  Li  Li3  1  0.94609502  0.68456559  0.34643044  1
  Mn  Mn4  1  0.18470903  0.48071409  0.11713583  1
  Mn  Mn5  1  0.48071409  0.81529097  0.86713583  1
  Mn  Mn6  1  0.51928591  0.18470903  0.36713583  1
  Mn  Mn7  1  0.81529097  0.51928591  0.61713583  1
  F  F8  1  0.00218017  0.72867836  0.18091455  1
  F  F9  1  0.01875694  0.76947815  0.64796383  1
  F  F10  1  0.01145845  0.51595592  0.98530834  1
  F  F11  1  0.28248124  0.42988846  0.28628821  1
  F  F12  1  0.27132164  0.00218017  0.43091455  1
  F  F13  1  0.23052185  0.01875694  0.89796383  1
  F  F14  1  0.27940974  0.58374348  0.81148779  1
  F  F15  1  0.48404408  0.01145845  0.23530834  1
  F  F16  1  0.58374348  0.72059026  0.56148779  1
  F  F17  1  0.42988846  0.71751876  0.03628821  1
  F  F18  1  0.57011154  0.28248124  0.53628821  1
  F  F19  1  0.41625652  0.27940974  0.06148779  1
  F  F20  1  0.51595592  0.98854155  0.73530834  1
  F  F21  1  0.72059026  0.41625652  0.31148779  1
  F  F22  1  0.76947815  0.98124306  0.39796383  1
  F  F23  1  0.72867836  0.99781983  0.93091455  1
  F  F24  1  0.71751876  0.57011154  0.78628821  1
  F  F25  1  0.98854155  0.48404408  0.48530834  1
  F  F26  1  0.98124306  0.23052185  0.14796383  1
  F  F27  1  0.99781983  0.27132164  0.68091455  1
