# generated using pymatgen
data_Li4Nb3Fe2Ni3O16
_symmetry_space_group_name_H-M   'P 1'
_cell_length_a   6.07131350
_cell_length_b   6.05225962
_cell_length_c   9.74961510
_cell_angle_alpha   89.63209457
_cell_angle_beta   91.61762209
_cell_angle_gamma   120.00959714
_symmetry_Int_Tables_number   1
_chemical_formula_structural   Li4Nb3Fe2Ni3O16
_chemical_formula_sum   'Li4 Nb3 Fe2 Ni3 O16'
_cell_volume   310.08875801
_cell_formula_units_Z   1
loop_
 _symmetry_equiv_pos_site_id
 _symmetry_equiv_pos_as_xyz
  1  'x, y, z'
loop_
 _atom_site_type_symbol
 _atom_site_label
 _atom_site_symmetry_multiplicity
 _atom_site_fract_x
 _atom_site_fract_y
 _atom_site_fract_z
 _atom_site_occupancy
  Li  Li0  1  0.32934204  0.67045557  0.88378927  1
  Li  Li1  1  0.94674473  0.97152236  0.98559598  1
  Li  Li2  1  0.98898482  0.99371256  0.50352998  1
  Li  Li3  1  0.66390080  0.33427641  0.40395800  1
  Nb  Nb4  1  0.17077626  0.83231132  0.21538959  1
  Nb  Nb5  1  0.17114165  0.33561792  0.21321217  1
  Nb  Nb6  1  0.34681842  0.16996478  0.71724721  1
  Fe  Fe7  1  0.35721976  0.67154068  0.50641522  1
  Fe  Fe8  1  0.69909736  0.35347277  0.97435397  1
  Ni  Ni9  1  0.65716280  0.82921895  0.21275670  1
  Ni  Ni10  1  0.82904564  0.66083899  0.71222200  1
  Ni  Ni11  1  0.83756464  0.17497035  0.71291495  1
  O  O12  1  0.20202896  0.85727079  0.59515715  1
  O  O13  1  0.02755774  0.51168407  0.33099858  1
  O  O14  1  0.31129906  0.65763891  0.09914852  1
  O  O15  1  0.00546255  0.00201393  0.31612850  1
  O  O16  1  0.00143177  0.98180332  0.80414557  1
  O  O17  1  0.18392860  0.33494752  0.59843000  1
  O  O18  1  0.46863422  0.95754465  0.34108671  1
  O  O19  1  0.46669115  0.50908664  0.34007223  1
  O  O20  1  0.31600129  0.15841055  0.10423946  1
  O  O21  1  0.68282764  0.82741688  0.60077888  1
  O  O22  1  0.49974097  0.46751337  0.84895482  1
  O  O23  1  0.51782588  0.04129391  0.84735175  1
  O  O24  1  0.66718149  0.34979966  0.60611377  1
  O  O25  1  0.84344860  0.67121910  0.10100922  1
  O  O26  1  0.96169283  0.49883646  0.83518553  1
  O  O27  1  0.84644430  0.17591958  0.09765427  1
