# generated using pymatgen
data_VO2F
_symmetry_space_group_name_H-M   'P 1'
_cell_length_a   5.27755470
_cell_length_b   11.12151288
_cell_length_c   5.42334236
_cell_angle_alpha   77.51677585
_cell_angle_beta   93.04429222
_cell_angle_gamma   104.29870572
_symmetry_Int_Tables_number   1
_chemical_formula_structural   VO2F
_chemical_formula_sum   'V6 O12 F6'
_cell_volume   301.16647586
_cell_formula_units_Z   6
loop_
 _symmetry_equiv_pos_site_id
 _symmetry_equiv_pos_as_xyz
  1  'x, y, z'
loop_
 _atom_site_type_symbol
 _atom_site_label
 _atom_site_symmetry_multiplicity
 _atom_site_fract_x
 _atom_site_fract_y
 _atom_site_fract_z
 _atom_site_occupancy
  V  V0  1  0.80237858  0.67089386  0.21001251  1
  V  V1  1  0.71883544  0.34103054  0.29547715  1
  V  V2  1  0.50000000  0.00000000  0.50000000  1
  V  V3  1  0.28116456  0.65896946  0.70452285  1
  V  V4  1  0.00000000  0.00000000  0.00000000  1
  V  V5  1  0.19762142  0.32910614  0.78998749  1
  O  O6  1  0.00977830  0.16984569  0.92435991  1
  O  O7  1  0.98067535  0.36438534  0.12858040  1
  O  O8  1  0.65271891  0.16926530  0.42203211  1
  O  O9  1  0.66520063  0.49958562  0.24114713  1
  O  O10  1  0.76383651  0.97852669  0.73702943  1
  O  O11  1  0.66102557  0.69841949  0.44427495  1
  O  O12  1  0.23616349  0.02147331  0.26297057  1
  O  O13  1  0.33897443  0.30158051  0.55572505  1
  O  O14  1  0.33479937  0.50041438  0.75885287  1
  O  O15  1  0.34728109  0.83073470  0.57796789  1
  O  O16  1  0.01932465  0.63561466  0.87141960  1
  O  O17  1  0.99022170  0.83015431  0.07564009  1
  F  F18  1  0.88615073  0.36984280  0.61527345  1
  F  F19  1  0.45587637  0.29802229  0.04721298  1
  F  F20  1  0.29765941  0.03034824  0.77025575  1
  F  F21  1  0.70234059  0.96965176  0.22974425  1
  F  F22  1  0.54412363  0.70197771  0.95278702  1
  F  F23  1  0.11384927  0.63015720  0.38472655  1
