# generated using pymatgen
data_Nb2Pb3O8
_symmetry_space_group_name_H-M   'P 1'
_cell_length_a   15.34007797
_cell_length_b   10.84602343
_cell_length_c   7.67507505
_cell_angle_alpha   89.97750609
_cell_angle_beta   59.94088859
_cell_angle_gamma   44.94206769
_symmetry_Int_Tables_number   1
_chemical_formula_structural   Nb2Pb3O8
_chemical_formula_sum   'Nb6 Pb9 O24'
_cell_volume   636.40419142
_cell_formula_units_Z   3
loop_
 _symmetry_equiv_pos_site_id
 _symmetry_equiv_pos_as_xyz
  1  'x, y, z'
loop_
 _atom_site_type_symbol
 _atom_site_label
 _atom_site_symmetry_multiplicity
 _atom_site_fract_x
 _atom_site_fract_y
 _atom_site_fract_z
 _atom_site_occupancy
  Nb  Nb0  1  0.99069641  0.00901117  0.00036175  1
  Nb  Nb1  1  0.50001393  0.99567151  0.99093649  1
  Nb  Nb2  1  0.50739594  0.99484960  0.48303756  1
  Nb  Nb3  1  0.74795982  0.00380111  0.50885951  1
  Nb  Nb4  1  0.74933347  0.50141303  0.99884884  1
  Nb  Nb5  1  0.99846329  0.00707303  0.49381541  1
  Pb  Pb6  1  0.02087352  0.48123699  0.98995985  1
  Pb  Pb7  1  0.01454316  0.48329572  0.48025943  1
  Pb  Pb8  1  0.24913466  0.00202372  0.50370345  1
  Pb  Pb9  1  0.24817715  0.50300403  0.00232259  1
  Pb  Pb10  1  0.25000624  0.50142874  0.49873066  1
  Pb  Pb11  1  0.24969068  0.00286728  0.99228349  1
  Pb  Pb12  1  0.48580660  0.52138087  0.01288096  1
  Pb  Pb13  1  0.47784925  0.52396712  0.53085699  1
  Pb  Pb14  1  0.74881888  0.00105133  0.99938696  1
  O  O15  1  0.98376407  0.34553197  0.76206503  1
  O  O16  1  0.29768957  0.08496183  0.24612275  1
  O  O17  1  0.29314329  0.32752981  0.17276877  1
  O  O18  1  0.29937719  0.08193465  0.66358247  1
  O  O19  1  0.50584581  0.06058921  0.24475252  1
  O  O20  1  0.20391855  0.67657565  0.26220060  1
  O  O21  1  0.29131857  0.32745445  0.74615885  1
  O  O22  1  0.99264093  0.94214636  0.75812820  1
  O  O23  1  0.19841449  0.92066307  0.34573175  1
  O  O24  1  0.20707951  0.67534822  0.82900488  1
  O  O25  1  0.19682066  0.92392075  0.76663466  1
  O  O26  1  0.51429649  0.31675235  0.73322423  1
  O  O27  1  0.51166538  0.65759880  0.23421736  1
  O  O28  1  0.82509039  0.04388206  0.23697279  1
  O  O29  1  0.82611862  0.30127035  0.10612598  1
  O  O30  1  0.82357367  0.04460652  0.61878282  1
  O  O31  1  0.00198191  0.04590822  0.24839169  1
  O  O32  1  0.66861445  0.70356394  0.26299698  1
  O  O33  1  0.82266759  0.30097088  0.74653819  1
  O  O34  1  0.49392005  0.95744989  0.75584838  1
  O  O35  1  0.67332897  0.95726945  0.38938957  1
  O  O36  1  0.67157621  0.70380867  0.89715291  1
  O  O37  1  0.67364917  0.95860035  0.76840692  1
  O  O38  1  0.98322844  0.68558229  0.26519075  1
