# generated using pymatgen
data_Fe2O3F
_symmetry_space_group_name_H-M   'P 1'
_cell_length_a   4.68685534
_cell_length_b   9.40899173
_cell_length_c   2.99982121
_cell_angle_alpha   90.00019056
_cell_angle_beta   90.00002727
_cell_angle_gamma   89.99156527
_symmetry_Int_Tables_number   1
_chemical_formula_structural   Fe2O3F
_chemical_formula_sum   'Fe4 O6 F2'
_cell_volume   132.28786351
_cell_formula_units_Z   2
loop_
 _symmetry_equiv_pos_site_id
 _symmetry_equiv_pos_as_xyz
  1  'x, y, z'
loop_
 _atom_site_type_symbol
 _atom_site_label
 _atom_site_symmetry_multiplicity
 _atom_site_fract_x
 _atom_site_fract_y
 _atom_site_fract_z
 _atom_site_occupancy
  Fe  Fe0  1  0.96656163  0.99549444  0.99999878  1
  Fe  Fe1  1  0.03416431  0.49028195  0.00000726  1
  Fe  Fe2  1  0.53419751  0.25971226  0.50001417  1
  Fe  Fe3  1  0.46605855  0.75444357  0.49998519  1
  O  O4  1  0.21657799  0.39790677  0.50000906  1
  O  O5  1  0.16168452  0.90370718  0.49999320  1
  O  O6  1  0.30717363  0.65139346  0.99998624  1
  O  O7  1  0.66099162  0.84651520  0.99998802  1
  O  O8  1  0.71625577  0.35190523  0.00001507  1
  O  O9  1  0.80915859  0.09911034  0.50000354  1
  F  F10  1  0.31432160  0.15224455  0.00000804  1
  F  F11  1  0.81285228  0.59728505  0.49999141  1
