# generated using pymatgen
data_LiY3WO8
_symmetry_space_group_name_H-M   'P 1'
_cell_length_a   6.29210792
_cell_length_b   6.29205500
_cell_length_c   6.15228708
_cell_angle_alpha   89.99699117
_cell_angle_beta   89.99726335
_cell_angle_gamma   54.47750063
_symmetry_Int_Tables_number   1
_chemical_formula_structural   LiY3WO8
_chemical_formula_sum   'Li1 Y3 W1 O8'
_cell_volume   198.23922948
_cell_formula_units_Z   1
loop_
 _symmetry_equiv_pos_site_id
 _symmetry_equiv_pos_as_xyz
  1  'x, y, z'
loop_
 _atom_site_type_symbol
 _atom_site_label
 _atom_site_symmetry_multiplicity
 _atom_site_fract_x
 _atom_site_fract_y
 _atom_site_fract_z
 _atom_site_occupancy
  Li  Li0  1  0.49997850  0.50002302  0.00000415  1
  Y  Y1  1  0.00002797  0.49999454  0.74160789  1
  Y  Y2  1  0.50000130  0.99997767  0.25838759  1
  Y  Y3  1  0.50008422  0.49991382  0.50000517  1
  W  W4  1  0.00000863  -0.00000142  0.00000280  1
  O  O5  1  0.17604530  0.17624308  0.00011302  1
  O  O6  1  0.30458748  0.30415589  0.50017401  1
  O  O7  1  0.21767144  0.72478753  0.78553840  1
  O  O8  1  0.27520502  0.78233059  0.21446784  1
  O  O9  1  0.72468690  0.21762822  0.21444727  1
  O  O10  1  0.78237527  0.27531314  0.78556054  1
  O  O11  1  0.69584581  0.69540797  0.49982348  1
  O  O12  1  0.82375017  0.82395795  0.99988485  1
