# generated using pymatgen
data_Li4VO3F2
_symmetry_space_group_name_H-M   'P 1'
_cell_length_a   5.41868760
_cell_length_b   5.41868760
_cell_length_c   7.98627708
_cell_angle_alpha   81.73267255
_cell_angle_beta   98.26732745
_cell_angle_gamma   113.57683658
_symmetry_Int_Tables_number   1
_chemical_formula_structural   Li4VO3F2
_chemical_formula_sum   'Li8 V2 O6 F4'
_cell_volume   211.72200840
_cell_formula_units_Z   2
loop_
 _symmetry_equiv_pos_site_id
 _symmetry_equiv_pos_as_xyz
  1  'x, y, z'
loop_
 _atom_site_type_symbol
 _atom_site_label
 _atom_site_symmetry_multiplicity
 _atom_site_fract_x
 _atom_site_fract_y
 _atom_site_fract_z
 _atom_site_occupancy
  Li  Li0  1  0.37077256  0.97349139  0.63462346  1
  Li  Li1  1  0.02650861  0.62922744  0.13462346  1
  Li  Li2  1  0.25397292  0.43070497  0.55819711  1
  Li  Li3  1  0.56929503  0.74602708  0.05819711  1
  Li  Li4  1  0.43070497  0.25397292  0.94180289  1
  Li  Li5  1  0.74602708  0.56929503  0.44180289  1
  Li  Li6  1  0.97349139  0.37077256  0.86537654  1
  Li  Li7  1  0.62922744  0.02650861  0.36537654  1
  V  V8  1  0.83900853  0.83900853  0.75000000  1
  V  V9  1  0.16099147  0.16099147  0.25000000  1
  O  O10  1  0.57892938  0.76570196  0.57024669  1
  O  O11  1  0.23429804  0.42107062  0.07024669  1
  O  O12  1  0.13741003  0.13741003  0.75000000  1
  O  O13  1  0.86258997  0.86258997  0.25000000  1
  O  O14  1  0.76570196  0.57892938  0.92975331  1
  O  O15  1  0.42107062  0.23429804  0.42975331  1
  F  F16  1  0.02532495  0.63617166  0.64924716  1
  F  F17  1  0.36382834  0.97467505  0.14924716  1
  F  F18  1  0.63617166  0.02532495  0.85075284  1
  F  F19  1  0.97467505  0.36382834  0.35075284  1
