# generated using pymatgen
data_LiFe2(BO3)2
_symmetry_space_group_name_H-M   'P 1'
_cell_length_a   5.28081752
_cell_length_b   9.03417895
_cell_length_c   11.28320577
_cell_angle_alpha   113.18386588
_cell_angle_beta   77.88852939
_cell_angle_gamma   90.38081789
_symmetry_Int_Tables_number   1
_chemical_formula_structural   LiFe2(BO3)2
_chemical_formula_sum   'Li4 Fe8 B8 O24'
_cell_volume   482.08302526
_cell_formula_units_Z   4
loop_
 _symmetry_equiv_pos_site_id
 _symmetry_equiv_pos_as_xyz
  1  'x, y, z'
loop_
 _atom_site_type_symbol
 _atom_site_label
 _atom_site_symmetry_multiplicity
 _atom_site_fract_x
 _atom_site_fract_y
 _atom_site_fract_z
 _atom_site_occupancy
  Li  Li0  1  0.17285232  0.16129656  0.34243845  1
  Li  Li1  1  0.35549683  0.29841727  0.60121806  1
  Li  Li2  1  0.60490629  0.04460173  0.08251181  1
  Li  Li3  1  0.91845548  0.43618838  0.85049738  1
  Fe  Fe4  1  0.40661215  0.25883438  0.86579789  1
  Fe  Fe5  1  0.09210930  0.23734653  0.12387593  1
  Fe  Fe6  1  0.84157461  0.12978136  0.61213743  1
  Fe  Fe7  1  0.66210646  0.35817769  0.37776673  1
  Fe  Fe8  1  0.34876616  0.65268078  0.63067188  1
  Fe  Fe9  1  0.15225744  0.83997274  0.36067968  1
  Fe  Fe10  1  0.90204127  0.78223141  0.86711484  1
  Fe  Fe11  1  0.60650846  0.71525556  0.12057143  1
  B  B12  1  0.63655992  0.01988234  0.37303747  1
  B  B13  1  0.88134601  0.11588859  0.87790757  1
  B  B14  1  0.16062048  0.51654571  0.37347501  1
  B  B15  1  0.41217490  0.59244042  0.86432746  1
  B  B16  1  0.85914836  0.48264538  0.62887066  1
  B  B17  1  0.61428686  0.38142764  0.11617626  1
  B  B18  1  0.34240505  0.97692980  0.61889962  1
  B  B19  1  0.09118411  0.90343243  0.12682436  1
  O  O20  1  0.11213469  0.15268351  0.92306883  1
  O  O21  1  0.44163943  0.13266323  0.66741215  1
  O  O22  1  0.21685931  0.04669890  0.13968445  1
  O  O23  1  0.50172199  0.16230657  0.39416138  1
  O  O24  1  0.88607848  0.02770918  0.40234738  1
  O  O25  1  0.79055776  0.21926112  0.82603846  1
  O  O26  1  0.28948681  0.45110865  0.85654285  1
  O  O27  1  0.06445657  0.36029749  0.32113127  1
  O  O28  1  0.71181589  0.27114237  0.16087956  1
  O  O29  1  0.61718112  0.47222800  0.59262323  1
  O  O30  1  0.97979106  0.35079278  0.63202246  1
  O  O31  1  0.38930788  0.33858045  0.06583354  1
  O  O32  1  0.64628605  0.61672427  0.90305264  1
  O  O33  1  0.36430106  0.52878791  0.43455202  1
  O  O34  1  0.29458870  0.70030370  0.82855616  1
  O  O35  1  0.97248258  0.62901707  0.66021505  1
  O  O36  1  0.73763793  0.50973948  0.11347151  1
  O  O37  1  0.20446081  0.79483180  0.16338991  1
  O  O38  1  0.13620495  0.96458458  0.55797842  1
  O  O39  1  0.44882779  0.85436545  0.63633061  1
  O  O40  1  0.05148701  0.64035580  0.35743576  1
  O  O41  1  0.74693441  0.99519689  0.89299815  1
  O  O42  1  0.52665623  0.87453599  0.33054981  1
  O  O43  1  0.85978606  0.88286812  0.08643945  1
