# generated using pymatgen
data_Li4Fe(OF)2
_symmetry_space_group_name_H-M   'P 1'
_cell_length_a   3.71492582
_cell_length_b   5.59299269
_cell_length_c   5.31762512
_cell_angle_alpha   88.06914950
_cell_angle_beta   110.45483095
_cell_angle_gamma   70.62287986
_symmetry_Int_Tables_number   1
_chemical_formula_structural   Li4Fe(OF)2
_chemical_formula_sum   'Li4 Fe1 O2 F2'
_cell_volume   96.24713108
_cell_formula_units_Z   1
loop_
 _symmetry_equiv_pos_site_id
 _symmetry_equiv_pos_as_xyz
  1  'x, y, z'
loop_
 _atom_site_type_symbol
 _atom_site_label
 _atom_site_symmetry_multiplicity
 _atom_site_fract_x
 _atom_site_fract_y
 _atom_site_fract_z
 _atom_site_occupancy
  Li  Li0  1  0.38844682  0.47274023  0.24137797  1
  Li  Li1  1  0.18841068  0.15593910  0.52582253  1
  Li  Li2  1  0.81381618  0.85230109  0.47461005  1
  Li  Li3  1  0.60860570  0.53308659  0.74891096  1
  Fe  Fe4  1  0.00193774  0.00229177  -0.00006192  1
  O  O5  1  0.72585143  0.19065128  0.63545799  1
  O  O6  1  0.27879280  0.81157341  0.36439395  1
  F  F7  1  0.90665936  0.35756020  0.16416386  1
  F  F8  1  0.09595928  0.64443832  0.83359960  1
