# generated using pymatgen
data_Li3V2(O2F)2
_symmetry_space_group_name_H-M   'P 1'
_cell_length_a   5.96284031
_cell_length_b   6.01056855
_cell_length_c   15.19611725
_cell_angle_alpha   95.94489567
_cell_angle_beta   78.51311368
_cell_angle_gamma   119.87764396
_symmetry_Int_Tables_number   1
_chemical_formula_structural   Li3V2(O2F)2
_chemical_formula_sum   'Li12 V8 O16 F8'
_cell_volume   462.77865403
_cell_formula_units_Z   4
loop_
 _symmetry_equiv_pos_site_id
 _symmetry_equiv_pos_as_xyz
  1  'x, y, z'
loop_
 _atom_site_type_symbol
 _atom_site_label
 _atom_site_symmetry_multiplicity
 _atom_site_fract_x
 _atom_site_fract_y
 _atom_site_fract_z
 _atom_site_occupancy
  Li  Li0  1  0.07078482  0.85880356  0.16456172  1
  Li  Li1  1  0.06462879  0.28384084  0.16524119  1
  Li  Li2  1  0.19539353  0.66972507  0.29121476  1
  Li  Li3  1  0.33320076  0.84108554  0.66487813  1
  Li  Li4  1  0.50329037  0.52832026  0.04805201  1
  Li  Li5  1  0.56301412  0.32098028  0.17464229  1
  Li  Li6  1  0.50055312  0.00238179  0.04095176  1
  Li  Li7  1  0.66330776  0.66689194  0.29627677  1
  Li  Li8  1  0.85183452  0.84726867  0.66501348  1
  Li  Li9  1  0.98550682  0.49569146  0.02665243  1
  Li  Li10  1  0.66407532  0.14241253  0.29608801  1
  Li  Li11  1  0.83855457  0.33932919  0.66899114  1
  V  V12  1  0.24960333  0.49801325  0.49951599  1
  V  V13  1  0.25029410  0.00476085  0.49886419  1
  V  V14  1  0.42121306  0.66402756  0.82437394  1
  V  V15  1  0.74525152  0.50084431  0.50793022  1
  V  V16  1  0.41140149  0.17027715  0.83618783  1
  V  V17  1  0.75406548  0.00154560  0.49375934  1
  V  V18  1  0.91403988  0.67017236  0.83877897  1
  V  V19  1  0.91687358  0.16456703  0.82971845  1
  O  O20  1  0.05485340  0.67563604  0.57985901  1
  O  O21  1  0.22656326  0.83653265  0.89673160  1
  O  O22  1  0.44098515  0.82703103  0.42949294  1
  O  O23  1  0.10534123  0.50729379  0.76078132  1
  O  O24  1  0.04478872  0.16770110  0.57259961  1
  O  O25  1  0.44413997  0.33158129  0.43597440  1
  O  O26  1  0.22814142  0.32851179  0.89571436  1
  O  O27  1  0.11890928  0.98518913  0.76083619  1
  O  O28  1  0.53713941  0.67456446  0.57176986  1
  O  O29  1  0.71857342  0.82308703  0.89681264  1
  O  O30  1  0.96483096  0.83053857  0.43720821  1
  O  O31  1  0.63411828  0.49574409  0.75969336  1
  O  O32  1  0.53652868  0.15232144  0.57084314  1
  O  O33  1  0.96551533  0.35338351  0.43720951  1
  O  O34  1  0.71422985  0.33244054  0.90147270  1
  O  O35  1  0.61953154  0.00854645  0.75438705  1
  F  F36  1  0.28607257  0.66526431  0.07539114  1
  F  F37  1  0.36642138  0.49034103  0.24463429  1
  F  F38  1  0.31243062  0.18054057  0.08962108  1
  F  F39  1  0.36394900  0.99660005  0.24685912  1
  F  F40  1  0.80688657  0.65094204  0.08831669  1
  F  F41  1  0.85932621  0.49084454  0.25464832  1
  F  F42  1  0.79916275  0.19506008  0.08896002  1
  F  F43  1  0.87134203  0.99603125  0.25182278  1
