# generated using pymatgen
data_Mn12O5F19
_symmetry_space_group_name_H-M   'P 1'
_cell_length_a   5.43067347
_cell_length_b   5.27247417
_cell_length_c   15.59969013
_cell_angle_alpha   93.35871518
_cell_angle_beta   96.19489506
_cell_angle_gamma   81.44648851
_symmetry_Int_Tables_number   1
_chemical_formula_structural   Mn12O5F19
_chemical_formula_sum   'Mn12 O5 F19'
_cell_volume   438.70864808
_cell_formula_units_Z   1
loop_
 _symmetry_equiv_pos_site_id
 _symmetry_equiv_pos_as_xyz
  1  'x, y, z'
loop_
 _atom_site_type_symbol
 _atom_site_label
 _atom_site_symmetry_multiplicity
 _atom_site_fract_x
 _atom_site_fract_y
 _atom_site_fract_z
 _atom_site_occupancy
  Mn  Mn0  1  0.01288827  0.07001520  0.99390316  1
  Mn  Mn1  1  0.00237834  0.53409003  0.14940666  1
  Mn  Mn2  1  0.03091630  0.03712595  0.32740518  1
  Mn  Mn3  1  0.01681456  0.47527524  0.48322714  1
  Mn  Mn4  1  0.93578149  0.01059418  0.66836323  1
  Mn  Mn5  1  0.05049418  0.55959851  0.82321356  1
  Mn  Mn6  1  0.51182548  0.96446590  0.16525700  1
  Mn  Mn7  1  0.47123504  0.44293474  0.01352671  1
  Mn  Mn8  1  0.43035463  0.49848662  0.66660964  1
  Mn  Mn9  1  0.51968988  0.00670997  0.50377405  1
  Mn  Mn10  1  0.44448725  0.45828653  0.34359255  1
  Mn  Mn11  1  0.47701248  0.95369246  0.82768684  1
  O  O12  1  0.20934157  0.77254885  0.72699228  1
  O  O13  1  0.20298926  0.32884728  0.07337608  1
  O  O14  1  0.25690156  0.23125942  0.41987936  1
  O  O15  1  0.64031163  0.21310385  0.61563936  1
  O  O16  1  0.66682571  0.63187191  0.09430058  1
  F  F17  1  0.17733437  0.29427699  0.24268656  1
  F  F18  1  0.17813108  0.82291619  0.09143175  1
  F  F19  1  0.13563535  0.26018533  0.59466036  1
  F  F20  1  0.13034207  0.72270311  0.40453162  1
  F  F21  1  0.26836154  0.24811615  0.91463862  1
  F  F22  1  0.35847069  0.78161912  0.26102022  1
  F  F23  1  0.38270789  0.68949727  0.56321445  1
  F  F24  1  0.31835364  0.73960033  0.91652911  1
  F  F25  1  0.39481344  0.30344396  0.76443607  1
  F  F26  1  0.73944838  0.35797962  0.93541298  1
  F  F27  1  0.68578267  0.24079809  0.26091792  1
  F  F28  1  0.65415232  0.69831807  0.42157481  1
  F  F29  1  0.70982707  0.72512141  0.73667154  1
  F  F30  1  0.77638427  0.20037978  0.43278502  1
  F  F31  1  0.71130082  0.12868203  0.07865598  1
  F  F32  1  0.91794796  0.21809778  0.77291577  1
  F  F33  1  0.88153955  0.76792994  0.57028865  1
  F  F34  1  0.82704460  0.83948417  0.90065704  1
  F  F35  1  0.87217365  0.77194405  0.24082213  1
