# generated using pymatgen
data_Na2V2O5
_symmetry_space_group_name_H-M   'P 1'
_cell_length_a   12.44444686
_cell_length_b   5.44023023
_cell_length_c   8.71149403
_cell_angle_alpha   90.00000000
_cell_angle_beta   102.41085712
_cell_angle_gamma   90.00000000
_symmetry_Int_Tables_number   1
_chemical_formula_structural   Na2V2O5
_chemical_formula_sum   'Na8 V8 O20'
_cell_volume   575.99177134
_cell_formula_units_Z   4
loop_
 _symmetry_equiv_pos_site_id
 _symmetry_equiv_pos_as_xyz
  1  'x, y, z'
loop_
 _atom_site_type_symbol
 _atom_site_label
 _atom_site_symmetry_multiplicity
 _atom_site_fract_x
 _atom_site_fract_y
 _atom_site_fract_z
 _atom_site_occupancy
  Na  Na0  1  0.03109645  0.69725358  0.85271913  1
  Na  Na1  1  0.05735319  0.26803350  0.61515422  1
  Na  Na2  1  0.44264681  0.76803350  0.38484578  1
  Na  Na3  1  0.53109645  0.80274642  0.85271913  1
  Na  Na4  1  0.46890355  0.19725358  0.14728087  1
  Na  Na5  1  0.55735319  0.23196650  0.61515422  1
  Na  Na6  1  0.94264681  0.73196650  0.38484578  1
  Na  Na7  1  0.96890355  0.30274642  0.14728087  1
  V  V8  1  0.22614800  0.80100228  0.60235774  1
  V  V9  1  0.32638877  0.66659222  0.97779836  1
  V  V10  1  0.17361123  0.16659222  0.02220164  1
  V  V11  1  0.27385200  0.30100228  0.39764226  1
  V  V12  1  0.72614800  0.69899772  0.60235774  1
  V  V13  1  0.82638877  0.83340778  0.97779836  1
  V  V14  1  0.67361123  0.33340778  0.02220164  1
  V  V15  1  0.77385200  0.19899772  0.39764226  1
  O  O16  1  0.06064908  0.26795930  0.88661737  1
  O  O17  1  0.09137625  0.71219908  0.60378426  1
  O  O18  1  0.29796458  0.34082546  0.99574429  1
  O  O19  1  0.22638094  0.13324244  0.55920385  1
  O  O20  1  0.16075878  0.24249077  0.22608078  1
  O  O21  1  0.33924122  0.74249077  0.77391922  1
  O  O22  1  0.27361906  0.63324244  0.44079615  1
  O  O23  1  0.20203542  0.84082546  0.00425571  1
  O  O24  1  0.40862375  0.21219908  0.39621574  1
  O  O25  1  0.56064908  0.23204070  0.88661737  1
  O  O26  1  0.43935092  0.76795930  0.11338263  1
  O  O27  1  0.59137625  0.78780092  0.60378426  1
  O  O28  1  0.79796458  0.15917454  0.99574429  1
  O  O29  1  0.72638094  0.36675756  0.55920385  1
  O  O30  1  0.66075878  0.25750923  0.22608078  1
  O  O31  1  0.83924122  0.75750923  0.77391922  1
  O  O32  1  0.77361906  0.86675756  0.44079615  1
  O  O33  1  0.70203542  0.65917454  0.00425571  1
  O  O34  1  0.90862375  0.28780092  0.39621574  1
  O  O35  1  0.93935092  0.73204070  0.11338263  1
