# generated using pymatgen
data_Li12Cr5O16
_symmetry_space_group_name_H-M   'P 1'
_cell_length_a   5.83926189
_cell_length_b   5.85296669
_cell_length_c   9.65833262
_cell_angle_alpha   89.89856793
_cell_angle_beta   90.12712307
_cell_angle_gamma   120.13336201
_symmetry_Int_Tables_number   1
_chemical_formula_structural   Li12Cr5O16
_chemical_formula_sum   'Li12 Cr5 O16'
_cell_volume   285.48310246
_cell_formula_units_Z   1
loop_
 _symmetry_equiv_pos_site_id
 _symmetry_equiv_pos_as_xyz
  1  'x, y, z'
loop_
 _atom_site_type_symbol
 _atom_site_label
 _atom_site_symmetry_multiplicity
 _atom_site_fract_x
 _atom_site_fract_y
 _atom_site_fract_z
 _atom_site_occupancy
  Li  Li0  1  0.01299645  0.00937706  0.07573275  1
  Li  Li1  1  0.17258699  0.34727345  0.73566612  1
  Li  Li2  1  0.37983626  0.21418660  0.95740962  1
  Li  Li3  1  0.36249691  0.16002215  0.23751899  1
  Li  Li4  1  0.20701922  0.37098395  0.49046703  1
  Li  Li5  1  0.66645055  0.35499374  0.74550726  1
  Li  Li6  1  0.82941020  0.20904853  0.96286517  1
  Li  Li7  1  0.36126673  0.68085669  0.25132291  1
  Li  Li8  1  0.17887143  0.84385966  0.46381238  1
  Li  Li9  1  0.82466354  0.15952540  0.23440246  1
  Li  Li10  1  0.82724815  0.65533963  0.95689569  1
  Li  Li11  1  0.71105229  0.84819539  0.45946905  1
  Cr  Cr12  1  0.17529992  0.84287015  0.72511412  1
  Cr  Cr13  1  0.67190816  0.84361469  0.72570590  1
  Cr  Cr14  1  0.66609298  0.30106082  0.48773216  1
  Cr  Cr15  1  0.34060760  0.66390481  0.98659738  1
  Cr  Cr16  1  0.84744031  0.63060281  0.23792099  1
  O  O17  1  0.34310331  0.16115151  0.60211473  1
  O  O18  1  0.03634583  0.54362622  0.85287388  1
  O  O19  1  0.52528205  0.02083177  0.36900624  1
  O  O20  1  0.18344661  0.35786054  0.08140016  1
  O  O21  1  0.83381636  0.17551958  0.60193314  1
  O  O22  1  0.50869895  0.53385991  0.85217046  1
  O  O23  1  0.54462134  0.49455862  0.36051130  1
  O  O24  1  0.16724160  0.81096824  0.11094346  1
  O  O25  1  0.33858987  0.69488267  0.61835783  1
  O  O26  1  0.69330277  0.37849938  0.11565790  1
  O  O27  1  0.49618524  0.99370170  0.85180608  1
  O  O28  1  0.99097465  0.49301942  0.35743143  1
  O  O29  1  0.83913659  0.67120254  0.60828283  1
  O  O30  1  0.65420094  0.83562928  0.09235398  1
  O  O31  1  0.98537902  0.95282116  0.30973789  1
  O  O32  1  0.01001919  0.99568691  0.83607269  1
