# generated using pymatgen
data_Li6V2O5F2
_symmetry_space_group_name_H-M   'P 1'
_cell_length_a   5.89980787
_cell_length_b   5.90582138
_cell_length_c   9.98269883
_cell_angle_alpha   82.17461072
_cell_angle_beta   91.74494752
_cell_angle_gamma   60.98684702
_symmetry_Int_Tables_number   1
_chemical_formula_structural   Li6V2O5F2
_chemical_formula_sum   'Li12 V4 O10 F4'
_cell_volume   299.47232184
_cell_formula_units_Z   2
loop_
 _symmetry_equiv_pos_site_id
 _symmetry_equiv_pos_as_xyz
  1  'x, y, z'
loop_
 _atom_site_type_symbol
 _atom_site_label
 _atom_site_symmetry_multiplicity
 _atom_site_fract_x
 _atom_site_fract_y
 _atom_site_fract_z
 _atom_site_occupancy
  Li  Li0  1  0.20503680  0.86664071  0.08996252  1
  Li  Li1  1  0.47487254  0.86082539  0.60322651  1
  Li  Li2  1  0.91451182  0.88502131  0.57715230  1
  Li  Li3  1  0.68369673  0.87027740  0.09540576  1
  Li  Li4  1  0.33605108  0.58684970  0.89389325  1
  Li  Li5  1  0.08117736  0.58633920  0.39625306  1
  Li  Li6  1  0.91882264  0.41366080  0.60374694  1
  Li  Li7  1  0.66394892  0.41315030  0.10610675  1
  Li  Li8  1  0.31630327  0.12972260  0.90459424  1
  Li  Li9  1  0.08548818  0.11497869  0.42284770  1
  Li  Li10  1  0.52512746  0.13917461  0.39677349  1
  Li  Li11  1  0.79496320  0.13335929  0.91003748  1
  V  V12  1  0.79734270  0.61996844  0.87811700  1
  V  V13  1  0.55478321  0.61561085  0.37539054  1
  V  V14  1  0.44521679  0.38438915  0.62460946  1
  V  V15  1  0.20265730  0.38003156  0.12188300  1
  O  O16  1  0.50017853  0.75848426  0.97839885  1
  O  O17  1  0.73911680  0.75694793  0.47068560  1
  O  O18  1  0.26404251  0.73165348  0.50691558  1
  O  O19  1  0.64948035  0.48178885  0.74914767  1
  O  O20  1  0.99760026  0.73656438  0.99138980  1
  O  O21  1  0.00239974  0.26343562  0.00861020  1
  O  O22  1  0.35051965  0.51821115  0.25085233  1
  O  O23  1  0.73595749  0.26834652  0.49308442  1
  O  O24  1  0.26088320  0.24305207  0.52931440  1
  O  O25  1  0.49982147  0.24151574  0.02160115  1
  F  F26  1  0.13395865  0.49921435  0.75690434  1
  F  F27  1  0.86604135  0.50078565  0.24309566  1
  F  F28  1  0.65427434  0.99572549  0.74366365  1
  F  F29  1  0.34572566  0.00427451  0.25633635  1
