# generated using pymatgen
data_V3O2F5
_symmetry_space_group_name_H-M   'P 1'
_cell_length_a   5.11329705
_cell_length_b   16.81532254
_cell_length_c   4.92194432
_cell_angle_alpha   89.99911601
_cell_angle_beta   89.99982189
_cell_angle_gamma   89.99881936
_symmetry_Int_Tables_number   1
_chemical_formula_structural   V3O2F5
_chemical_formula_sum   'V12 O8 F20'
_cell_volume   423.19733251
_cell_formula_units_Z   4
loop_
 _symmetry_equiv_pos_site_id
 _symmetry_equiv_pos_as_xyz
  1  'x, y, z'
loop_
 _atom_site_type_symbol
 _atom_site_label
 _atom_site_symmetry_multiplicity
 _atom_site_fract_x
 _atom_site_fract_y
 _atom_site_fract_z
 _atom_site_occupancy
  V  V0  1  0.05935214  0.74999103  0.94850742  1
  V  V1  1  0.12275378  0.59753983  0.54870371  1
  V  V2  1  0.12277452  0.90244521  0.54868360  1
  V  V3  1  0.37721483  0.09752790  0.04867738  1
  V  V4  1  0.37721975  0.40249165  0.04866235  1
  V  V5  1  0.44066134  0.25000350  0.44847832  1
  V  V6  1  0.55934905  0.74998490  0.55150828  1
  V  V7  1  0.62278137  0.90244530  0.95132508  1
  V  V8  1  0.62275219  0.59753746  0.95132176  1
  V  V9  1  0.87721216  0.09752888  0.45130778  1
  V  V10  1  0.87721592  0.40248870  0.45131695  1
  V  V11  1  0.94066255  0.25000558  0.05150658  1
  O  O12  1  0.16038564  0.17296792  0.28612172  1
  O  O13  1  0.16045854  0.32704133  0.28612707  1
  O  O14  1  0.33962270  0.82703290  0.78614963  1
  O  O15  1  0.33955577  0.67295412  0.78618321  1
  O  O16  1  0.66045429  0.32704194  0.21383958  1
  O  O17  1  0.66038663  0.17296878  0.21385465  1
  O  O18  1  0.83955318  0.67295512  0.71386138  1
  O  O19  1  0.83961681  0.82703345  0.71386035  1
  F  F20  1  0.05014240  0.11352318  0.81669301  1
  F  F21  1  0.05018243  0.38648411  0.81668173  1
  F  F22  1  0.17060113  0.02573614  0.32483335  1
  F  F23  1  0.17065610  0.47427611  0.32483961  1
  F  F24  1  0.22287626  0.74999381  0.32041033  1
  F  F25  1  0.27705704  0.25000514  0.82034914  1
  F  F26  1  0.32935416  0.52572629  0.82484588  1
  F  F27  1  0.32944615  0.97425433  0.82483449  1
  F  F28  1  0.44982933  0.61353413  0.31670099  1
  F  F29  1  0.44986314  0.88646541  0.31669033  1
  F  F30  1  0.55018202  0.38648475  0.68330117  1
  F  F31  1  0.55013854  0.11352406  0.68329243  1
  F  F32  1  0.67060008  0.02573647  0.17516513  1
  F  F33  1  0.67065632  0.47428233  0.17514401  1
  F  F34  1  0.72288719  0.74999480  0.17959833  1
  F  F35  1  0.77706354  0.25000708  0.67963528  1
  F  F36  1  0.82943983  0.97425355  0.67517835  1
  F  F37  1  0.82935264  0.52573131  0.67516929  1
  F  F38  1  0.94986420  0.88646861  0.18331774  1
  F  F39  1  0.94982433  0.61353287  0.18332258  1
