# generated using pymatgen
data_Li2VOF4
_symmetry_space_group_name_H-M   'P 1'
_cell_length_a   6.74449182
_cell_length_b   3.73525920
_cell_length_c   14.70810437
_cell_angle_alpha   90.00000000
_cell_angle_beta   90.79933724
_cell_angle_gamma   90.00000000
_symmetry_Int_Tables_number   1
_chemical_formula_structural   Li2VOF4
_chemical_formula_sum   'Li8 V4 O4 F16'
_cell_volume   370.49675954
_cell_formula_units_Z   4
loop_
 _symmetry_equiv_pos_site_id
 _symmetry_equiv_pos_as_xyz
  1  'x, y, z'
loop_
 _atom_site_type_symbol
 _atom_site_label
 _atom_site_symmetry_multiplicity
 _atom_site_fract_x
 _atom_site_fract_y
 _atom_site_fract_z
 _atom_site_occupancy
  Li  Li0  1  0.05696064  0.25000000  0.12887685  1
  Li  Li1  1  0.17461335  0.25000000  0.73419160  1
  Li  Li2  1  0.32370131  0.75000000  0.22945259  1
  Li  Li3  1  0.42654340  0.75000000  0.64259223  1
  Li  Li4  1  0.56480576  0.25000000  0.36783698  1
  Li  Li5  1  0.68750148  0.25000000  0.75686203  1
  Li  Li6  1  0.81191179  0.75000000  0.25534771  1
  Li  Li7  1  0.94281877  0.75000000  0.86473469  1
  V  V8  1  0.10880675  0.25000000  0.42747886  1
  V  V9  1  0.40245935  0.75000000  0.93317840  1
  V  V10  1  0.59741621  0.25000000  0.06795569  1
  V  V11  1  0.87680453  0.75000000  0.56795881  1
  O  O12  1  0.06976299  0.75000000  0.45147387  1
  O  O13  1  0.44651983  0.25000000  0.95417798  1
  O  O14  1  0.55190397  0.75000000  0.04981576  1
  O  O15  1  0.66698797  0.75000000  0.50920235  1
  F  F16  1  0.05623330  0.75000000  0.18722654  1
  F  F17  1  0.13059921  0.75000000  0.64548845  1
  F  F18  1  0.15400519  0.75000000  0.98321979  1
  F  F19  1  0.23928438  0.25000000  0.31872805  1
  F  F20  1  0.25631848  0.75000000  0.82158745  1
  F  F21  1  0.35842075  0.25000000  0.48136846  1
  F  F22  1  0.36529025  0.25000000  0.14306986  1
  F  F23  1  0.44180725  0.25000000  0.69156889  1
  F  F24  1  0.55263016  0.75000000  0.30695097  1
  F  F25  1  0.63562611  0.75000000  0.86240447  1
  F  F26  1  0.74457545  0.25000000  0.18185088  1
  F  F27  1  0.74775669  0.75000000  0.68563205  1
  F  F28  1  0.84612770  0.25000000  0.01970488  1
  F  F29  1  0.86337382  0.25000000  0.35917644  1
  F  F30  1  0.95412431  0.25000000  0.55880490  1
  F  F31  1  0.94431186  0.25000000  0.81208349  1
