# generated using pymatgen
data_KBiF4
_symmetry_space_group_name_H-M   'P 1'
_cell_length_a   4.46407468
_cell_length_b   4.46407413
_cell_length_c   18.17006828
_cell_angle_alpha   55.15754689
_cell_angle_beta   55.15755076
_cell_angle_gamma   52.70544031
_symmetry_Int_Tables_number   1
_chemical_formula_structural   KBiF4
_chemical_formula_sum   'K2 Bi2 F8'
_cell_volume   221.91352864
_cell_formula_units_Z   2
loop_
 _symmetry_equiv_pos_site_id
 _symmetry_equiv_pos_as_xyz
  1  'x, y, z'
loop_
 _atom_site_type_symbol
 _atom_site_label
 _atom_site_symmetry_multiplicity
 _atom_site_fract_x
 _atom_site_fract_y
 _atom_site_fract_z
 _atom_site_occupancy
  K  K0  1  0.96423098  0.96423098  0.00220219  1
  K  K1  1  0.97417615  0.97417615  0.25837578  1
  Bi  Bi2  1  0.93088782  0.93088782  0.50480383  1
  Bi  Bi3  1  0.96291461  0.96291462  0.76160245  1
  F  F4  1  0.75255932  0.75255932  0.17945189  1
  F  F5  1  0.31684027  0.31684027  0.59215856  1
  F  F6  1  0.52870723  0.52870723  0.40321091  1
  F  F7  1  0.75270628  0.75270628  0.45470974  1
  F  F8  1  0.26891020  0.26891020  0.82215048  1
  F  F9  1  0.58145351  0.58145351  0.63848158  1
  F  F10  1  0.70211060  0.70211060  0.74673102  1
  F  F11  1  0.76450303  0.76450303  0.92512156  1
