# generated using pymatgen
data_LiVP2O7
_symmetry_space_group_name_H-M   'P 1'
_cell_length_a   5.10355961
_cell_length_b   8.61187190
_cell_length_c   6.83021366
_cell_angle_alpha   90.00000000
_cell_angle_beta   109.49459935
_cell_angle_gamma   90.00000000
_symmetry_Int_Tables_number   1
_chemical_formula_structural   LiVP2O7
_chemical_formula_sum   'Li2 V2 P4 O14'
_cell_volume   282.98674126
_cell_formula_units_Z   2
loop_
 _symmetry_equiv_pos_site_id
 _symmetry_equiv_pos_as_xyz
  1  'x, y, z'
loop_
 _atom_site_type_symbol
 _atom_site_label
 _atom_site_symmetry_multiplicity
 _atom_site_fract_x
 _atom_site_fract_y
 _atom_site_fract_z
 _atom_site_occupancy
  Li  Li0  1  0.22435202  0.48655612  0.76778166  1
  Li  Li1  1  0.77564798  0.98655612  0.23221834  1
  V  V2  1  0.19667806  0.85221417  0.68500974  1
  V  V3  1  0.80332194  0.35221417  0.31499026  1
  P  P4  1  0.38862314  0.18903013  0.52776660  1
  P  P5  1  0.17756104  0.78373294  0.05791963  1
  P  P6  1  0.82243896  0.28373294  0.94208037  1
  P  P7  1  0.61137686  0.68903013  0.47223340  1
  O  O8  1  0.04819374  0.32104045  0.85771777  1
  O  O9  1  0.10837390  0.67558790  0.86766270  1
  O  O10  1  0.23221292  0.03619061  0.50909886  1
  O  O11  1  0.20127226  0.33585017  0.48717848  1
  O  O12  1  0.41973294  0.69174998  0.60555996  1
  O  O13  1  0.68927124  0.42549283  0.02369541  1
  O  O14  1  0.57253602  0.19534370  0.76734823  1
  O  O15  1  0.42746398  0.69534370  0.23265177  1
  O  O16  1  0.31072876  0.92549283  0.97630459  1
  O  O17  1  0.58026706  0.19174998  0.39444004  1
  O  O18  1  0.79872774  0.83585017  0.51282152  1
  O  O19  1  0.76778708  0.53619061  0.49090114  1
  O  O20  1  0.89162610  0.17558790  0.13233730  1
  O  O21  1  0.95180626  0.82104045  0.14228223  1
