# generated using pymatgen
data_Li9Ti7Cr6O30
_symmetry_space_group_name_H-M   'P 1'
_cell_length_a   5.08726747
_cell_length_b   5.08639342
_cell_length_c   23.31239876
_cell_angle_alpha   89.99693596
_cell_angle_beta   89.89891441
_cell_angle_gamma   60.02825361
_symmetry_Int_Tables_number   1
_chemical_formula_structural   Li9Ti7Cr6O30
_chemical_formula_sum   'Li9 Ti7 Cr6 O30'
_cell_volume   522.55837775
_cell_formula_units_Z   1
loop_
 _symmetry_equiv_pos_site_id
 _symmetry_equiv_pos_as_xyz
  1  'x, y, z'
loop_
 _atom_site_type_symbol
 _atom_site_label
 _atom_site_symmetry_multiplicity
 _atom_site_fract_x
 _atom_site_fract_y
 _atom_site_fract_z
 _atom_site_occupancy
  Li  Li0  1  0.00102658  0.99823099  0.91331943  1
  Li  Li1  1  0.00071415  0.99943536  0.08291635  1
  Li  Li2  1  0.66448537  0.66964408  0.85820077  1
  Li  Li3  1  0.33159155  0.33439447  0.53464091  1
  Li  Li4  1  0.00012504  0.99934037  0.62625585  1
  Li  Li5  1  0.66523809  0.66823849  0.45689242  1
  Li  Li6  1  0.33391934  0.33274968  0.14324435  1
  Li  Li7  1  0.66745480  0.66602688  0.20846517  1
  Li  Li8  1  0.00199240  0.99801512  0.38157360  1
  Ti  Ti9  1  0.66732472  0.66575116  0.71188376  1
  Ti  Ti10  1  0.33271797  0.33293005  0.68962567  1
  Ti  Ti11  1  0.66782565  0.66612836  0.98195971  1
  Ti  Ti12  1  0.33449920  0.33232000  0.28764673  1
  Ti  Ti13  1  0.66837227  0.66573985  0.31675342  1
  Ti  Ti14  1  0.33483826  0.33240429  0.00525001  1
  Ti  Ti15  1  0.66777812  0.66599473  0.10722672  1
  Cr  Cr16  1  0.99883350  0.00035394  0.50239407  1
  Cr  Cr17  1  -0.00018115  0.99877173  0.78978228  1
  Cr  Cr18  1  0.33381100  0.33284658  0.87689361  1
  Cr  Cr19  1  0.33378611  0.33357309  0.41378924  1
  Cr  Cr20  1  0.66536956  0.66746382  0.58871738  1
  Cr  Cr21  1  0.00071470  0.99941961  0.20304989  1
  O  O22  1  0.66885189  0.00153903  0.74432194  1
  O  O23  1  0.95232507  0.33216055  0.14898121  1
  O  O24  1  0.95340461  0.33405615  0.54922679  1
  O  O25  1  0.60837346  0.01400432  0.94295916  1
  O  O26  1  0.60791997  0.01672989  0.35233662  1
  O  O27  1  0.66551463  0.28975126  0.45361054  1
  O  O28  1  0.66501790  0.29030277  0.84623912  1
  O  O29  1  0.98479030  0.61922356  0.64956004  1
  O  O30  1  0.98512425  0.62746810  0.04362580  1
  O  O31  1  0.66544773  0.34122835  0.25457151  1
  O  O32  1  0.99495505  0.66292722  0.25458069  1
  O  O33  1  0.28258645  0.04738029  0.84623111  1
  O  O34  1  0.62917385  0.38629762  0.04366942  1
  O  O35  1  0.28686779  0.04539399  0.45352872  1
  O  O36  1  0.61912228  0.39573986  0.64955660  1
  O  O37  1  0.37653309  0.60596433  0.35228548  1
  O  O38  1  0.37869648  0.60636608  0.94316955  1
  O  O39  1  0.70974295  0.95685228  0.54920149  1
  O  O40  1  0.71631944  0.95116921  0.14904979  1
  O  O41  1  0.00226081  0.32879374  0.74425603  1
  O  O42  1  0.01763733  0.37645765  0.94299498  1
  O  O43  1  0.32841278  0.66873754  0.74427022  1
  O  O44  1  0.32987962  0.71365541  0.54923965  1
  O  O45  1  0.01896596  0.37443500  0.35228898  1
  O  O46  1  0.33329097  0.71487700  0.14901453  1
  O  O47  1  0.39568778  0.98439653  0.64961227  1
  O  O48  1  0.04181410  0.67361740  0.84702142  1
  O  O49  1  0.38858012  0.98337962  0.04369841  1
  O  O50  1  0.04274229  0.66893705  0.45337280  1
  O  O51  1  0.34335283  0.99286855  0.25460182  1
