# generated using pymatgen
data_Na5Mn7O16
_symmetry_space_group_name_H-M   'P 1'
_cell_length_a   6.19546108
_cell_length_b   6.20147319
_cell_length_c   10.87699962
_cell_angle_alpha   93.26075662
_cell_angle_beta   71.81799624
_cell_angle_gamma   123.13029978
_symmetry_Int_Tables_number   1
_chemical_formula_structural   Na5Mn7O16
_chemical_formula_sum   'Na5 Mn7 O16'
_cell_volume   329.08197124
_cell_formula_units_Z   1
loop_
 _symmetry_equiv_pos_site_id
 _symmetry_equiv_pos_as_xyz
  1  'x, y, z'
loop_
 _atom_site_type_symbol
 _atom_site_label
 _atom_site_symmetry_multiplicity
 _atom_site_fract_x
 _atom_site_fract_y
 _atom_site_fract_z
 _atom_site_occupancy
  Na  Na0  1  0.82339214  0.23651053  0.43633513  1
  Na  Na1  1  0.11375665  0.30658334  0.08278833  1
  Na  Na2  1  0.00467551  0.00561126  0.49991771  1
  Na  Na3  1  0.88744242  0.69530677  0.91623979  1
  Na  Na4  1  0.17210153  0.75759914  0.56182031  1
  Mn  Mn5  1  0.49998130  0.00053455  0.99978082  1
  Mn  Mn6  1  0.49787159  0.27703371  0.23534362  1
  Mn  Mn7  1  0.49828563  0.76513383  0.23694607  1
  Mn  Mn8  1  0.49992407  0.23410527  0.76265431  1
  Mn  Mn9  1  0.00935957  0.23104522  0.76451727  1
  Mn  Mn10  1  0.98923950  0.76888762  0.23494325  1
  Mn  Mn11  1  0.50107154  0.72273033  0.76426007  1
  O  O12  1  0.68431079  0.11251507  0.12825512  1
  O  O13  1  0.27945349  0.10391900  0.11779823  1
  O  O14  1  0.74818763  0.08494943  0.66114410  1
  O  O15  1  0.73895889  0.43564787  0.32962954  1
  O  O16  1  0.74117842  0.62370007  0.13361291  1
  O  O17  1  0.28502383  0.41027698  0.32320036  1
  O  O18  1  0.74046792  0.31165442  0.87128686  1
  O  O19  1  0.76871073  0.89430739  0.32200596  1
  O  O20  1  0.22887651  0.10514691  0.67686377  1
  O  O21  1  0.71351910  0.58882466  0.67768584  1
  O  O22  1  0.25917036  0.68903479  0.12846656  1
  O  O23  1  0.26042150  0.56446405  0.66995653  1
  O  O24  1  0.25626730  0.37537132  0.86592329  1
  O  O25  1  0.25052581  0.91511131  0.33819699  1
  O  O26  1  0.71938346  0.89612984  0.88150664  1
  O  O27  1  0.31572980  0.88871231  0.87108962  1
