# generated using pymatgen
data_Li6NiOF6
_symmetry_space_group_name_H-M   'P 1'
_cell_length_a   4.96554356
_cell_length_b   10.62207433
_cell_length_c   2.96457653
_cell_angle_alpha   98.03468491
_cell_angle_beta   53.29090641
_cell_angle_gamma   103.52436395
_symmetry_Int_Tables_number   1
_chemical_formula_structural   Li6NiOF6
_chemical_formula_sum   'Li6 Ni1 O1 F6'
_cell_volume   121.87858677
_cell_formula_units_Z   1
loop_
 _symmetry_equiv_pos_site_id
 _symmetry_equiv_pos_as_xyz
  1  'x, y, z'
loop_
 _atom_site_type_symbol
 _atom_site_label
 _atom_site_symmetry_multiplicity
 _atom_site_fract_x
 _atom_site_fract_y
 _atom_site_fract_z
 _atom_site_occupancy
  Li  Li0  1  0.56760037  0.13513222  0.00010089  1
  Li  Li1  1  0.14888325  0.29772446  0.00039023  1
  Li  Li2  1  0.71323710  0.42648430  0.00040973  1
  Li  Li3  1  0.28676290  0.57351570  0.99959027  1
  Li  Li4  1  0.85111675  0.70227554  0.99960977  1
  Li  Li5  1  0.43239963  0.86486778  0.99989911  1
  Ni  Ni6  1  0.00000000  0.00000000  0.00000000  1
  O  O7  1  0.50000000  0.00000000  0.50000000  1
  F  F8  1  0.07470014  0.14938424  0.50005324  1
  F  F9  1  0.64617646  0.29241178  0.50049700  1
  F  F10  1  0.21512224  0.43035143  0.50009754  1
  F  F11  1  0.78487776  0.56964857  0.49990246  1
  F  F12  1  0.35382354  0.70758822  0.49950300  1
  F  F13  1  0.92529986  0.85061576  0.49994676  1
