# generated using pymatgen
data_LiAgF4
_symmetry_space_group_name_H-M   'P 1'
_cell_length_a   7.75370970
_cell_length_b   8.13192529
_cell_length_c   5.48991919
_cell_angle_alpha   90.00000000
_cell_angle_beta   71.70707627
_cell_angle_gamma   90.00000000
_symmetry_Int_Tables_number   1
_chemical_formula_structural   LiAgF4
_chemical_formula_sum   'Li4 Ag4 F16'
_cell_volume   328.66048036
_cell_formula_units_Z   4
loop_
 _symmetry_equiv_pos_site_id
 _symmetry_equiv_pos_as_xyz
  1  'x, y, z'
loop_
 _atom_site_type_symbol
 _atom_site_label
 _atom_site_symmetry_multiplicity
 _atom_site_fract_x
 _atom_site_fract_y
 _atom_site_fract_z
 _atom_site_occupancy
  Li  Li0  1  0.14170782  0.25000000  0.42146719  1
  Li  Li1  1  0.44842859  0.75000000  0.97548120  1
  Li  Li2  1  0.55157141  0.25000000  0.02451880  1
  Li  Li3  1  0.85829218  0.75000000  0.57853281  1
  Ag  Ag4  1  0.00000000  0.00000000  0.00000000  1
  Ag  Ag5  1  0.00000000  0.50000000  0.00000000  1
  Ag  Ag6  1  0.50000000  0.00000000  0.50000000  1
  Ag  Ag7  1  0.50000000  0.50000000  0.50000000  1
  F  F8  1  0.01215103  0.59236159  0.31976701  1
  F  F9  1  0.01215103  0.90763841  0.31976701  1
  F  F10  1  0.27916537  0.57194232  0.81668515  1
  F  F11  1  0.27916537  0.92805768  0.81668515  1
  F  F12  1  0.07523306  0.25000000  0.10554231  1
  F  F13  1  0.50841228  0.25000000  0.69104022  1
  F  F14  1  0.36310957  0.40695664  0.27855430  1
  F  F15  1  0.36310957  0.09304336  0.27855430  1
  F  F16  1  0.63689043  0.59304336  0.72144570  1
  F  F17  1  0.63689043  0.90695664  0.72144570  1
  F  F18  1  0.49158772  0.75000000  0.30895978  1
  F  F19  1  0.92476694  0.75000000  0.89445769  1
  F  F20  1  0.72083463  0.07194232  0.18331485  1
  F  F21  1  0.72083463  0.42805768  0.18331485  1
  F  F22  1  0.98784897  0.09236159  0.68023299  1
  F  F23  1  0.98784897  0.40763841  0.68023299  1
