# generated using pymatgen
data_Li8VCo3(PO4)6
_symmetry_space_group_name_H-M   'P 1'
_cell_length_a   8.93200813
_cell_length_b   8.94123616
_cell_length_c   8.62753273
_cell_angle_alpha   58.74488400
_cell_angle_beta   58.84278192
_cell_angle_gamma   60.06138285
_symmetry_Int_Tables_number   1
_chemical_formula_structural   Li8VCo3(PO4)6
_chemical_formula_sum   'Li8 V1 Co3 P6 O24'
_cell_volume   478.35230722
_cell_formula_units_Z   1
loop_
 _symmetry_equiv_pos_site_id
 _symmetry_equiv_pos_as_xyz
  1  'x, y, z'
loop_
 _atom_site_type_symbol
 _atom_site_label
 _atom_site_symmetry_multiplicity
 _atom_site_fract_x
 _atom_site_fract_y
 _atom_site_fract_z
 _atom_site_occupancy
  Li  Li0  1  0.98262491  0.98293200  0.05232887  1
  Li  Li1  1  0.29281638  0.83561292  0.21716740  1
  Li  Li2  1  0.83633978  0.65540296  0.21730421  1
  Li  Li3  1  0.65470930  0.29344607  0.21626950  1
  Li  Li4  1  0.50850422  0.50771141  0.47602142  1
  Li  Li5  1  0.33181465  0.71601674  0.80307274  1
  Li  Li6  1  0.14778247  0.32885169  0.80417869  1
  Li  Li7  1  0.71615104  0.14963954  0.80249130  1
  V  V8  1  0.14625256  0.14555439  0.56289708  1
  Co  Co9  1  0.65257224  0.64949404  0.04760379  1
  Co  Co10  1  0.85205896  0.85231948  0.44351076  1
  Co  Co11  1  0.35397098  0.35454884  0.93726265  1
  P  P12  1  0.54505568  0.95398600  0.24694951  1
  P  P13  1  0.25375651  0.54537777  0.24747340  1
  P  P14  1  0.95324490  0.25326296  0.24772429  1
  P  P15  1  0.04789058  0.75779935  0.74503166  1
  P  P16  1  0.75766225  0.44935942  0.74418733  1
  P  P17  1  0.44893721  0.04881073  0.74570219  1
  O  O18  1  0.74151613  0.90774619  0.23842570  1
  O  O19  1  0.53127098  0.77515419  0.26950070  1
  O  O20  1  0.11194760  0.74113478  0.23936976  1
  O  O21  1  0.30484782  0.52466421  0.05883849  1
  O  O22  1  0.42408670  0.53193201  0.26946843  1
  O  O23  1  0.11246562  0.30296062  0.05875880  1
  O  O24  1  0.01085795  0.81706248  0.56621637  1
  O  O25  1  0.77494036  0.42410576  0.26872037  1
  O  O26  1  0.08674755  0.91206098  0.74927170  1
  O  O27  1  0.52465467  0.11256357  0.05829760  1
  O  O28  1  0.81938006  0.60447524  0.56386016  1
  O  O29  1  0.18070566  0.38455483  0.42533518  1
  O  O30  1  0.46266717  0.88317156  0.93555531  1
  O  O31  1  0.90648281  0.11195311  0.23945841  1
  O  O32  1  0.23214336  0.59554848  0.74199245  1
  O  O33  1  0.88257565  0.71971141  0.93614486  1
  O  O34  1  0.00833687  0.18000068  0.42580354  1
  O  O35  1  0.59525008  0.43145837  0.73997035  1
  O  O36  1  0.38566102  0.00956341  0.42490902  1
  O  O37  1  0.71914853  0.46326914  0.93427371  1
  O  O38  1  0.91208355  0.25168088  0.75053573  1
  O  O39  1  0.43127370  0.23362476  0.74042978  1
  O  O40  1  0.60449660  0.01213640  0.56605600  1
  O  O41  1  0.25132995  0.08636060  0.75057380  1
