# generated using pymatgen
data_Li3NiO2F
_symmetry_space_group_name_H-M   'P 1'
_cell_length_a   8.56910760
_cell_length_b   9.52206571
_cell_length_c   3.61602282
_cell_angle_alpha   90.00305518
_cell_angle_beta   90.06133265
_cell_angle_gamma   89.99236642
_symmetry_Int_Tables_number   1
_chemical_formula_structural   Li3NiO2F
_chemical_formula_sum   'Li12 Ni4 O8 F4'
_cell_volume   295.05140015
_cell_formula_units_Z   4
loop_
 _symmetry_equiv_pos_site_id
 _symmetry_equiv_pos_as_xyz
  1  'x, y, z'
loop_
 _atom_site_type_symbol
 _atom_site_label
 _atom_site_symmetry_multiplicity
 _atom_site_fract_x
 _atom_site_fract_y
 _atom_site_fract_z
 _atom_site_occupancy
  Li  Li0  1  0.09982996  0.33766444  0.50099125  1
  Li  Li1  1  0.14532354  0.57750201  0.00019287  1
  Li  Li2  1  0.15729007  0.16990305  0.00114203  1
  Li  Li3  1  0.34265047  0.66989038  0.49871283  1
  Li  Li4  1  0.35463844  0.07748438  0.49968395  1
  Li  Li5  1  0.40024904  0.83768840  0.99888112  1
  Li  Li6  1  0.60015701  0.16213638  0.00200911  1
  Li  Li7  1  0.64182242  0.92296836  0.49565178  1
  Li  Li8  1  0.65851307  0.33002108  0.50149548  1
  Li  Li9  1  0.84154152  0.83002564  0.99848081  1
  Li  Li10  1  0.85834689  0.42298346  0.00420735  1
  Li  Li11  1  0.89979517  0.66206742  0.49786538  1
  Ni  Ni12  1  0.11971631  0.89706737  0.49701687  1
  Ni  Ni13  1  0.37996050  0.39702283  0.00326491  1
  Ni  Ni14  1  0.61893458  0.60107262  0.99115139  1
  Ni  Ni15  1  0.88118485  0.10136370  0.50976674  1
  O  O16  1  0.10269647  0.11134970  0.50118593  1
  O  O17  1  0.16377572  0.37762985  0.00149966  1
  O  O18  1  0.33606680  0.87762307  0.49841092  1
  O  O19  1  0.39741197  0.61123882  0.99869918  1
  O  O20  1  0.60156829  0.38752482  0.00125033  1
  O  O21  1  0.66557397  0.12275059  0.50205789  1
  O  O22  1  0.83459284  0.62265806  0.99784801  1
  O  O23  1  0.89835941  0.88766117  0.49875715  1
  F  F24  1  0.11978053  0.65252593  0.49976634  1
  F  F25  1  0.38016446  0.15254862  0.00016050  1
  F  F26  1  0.61945916  0.84977278  0.99509112  1
  F  F27  1  0.88059657  0.34985509  0.50475909  1
