# generated using pymatgen
data_LiVOF2
_symmetry_space_group_name_H-M   'P 1'
_cell_length_a   5.60799087
_cell_length_b   5.64447725
_cell_length_c   23.43865022
_cell_angle_alpha   89.78660122
_cell_angle_beta   89.88773591
_cell_angle_gamma   60.23061262
_symmetry_Int_Tables_number   1
_chemical_formula_structural   LiVOF2
_chemical_formula_sum   'Li12 V12 O12 F24'
_cell_volume   644.01468659
_cell_formula_units_Z   12
loop_
 _symmetry_equiv_pos_site_id
 _symmetry_equiv_pos_as_xyz
  1  'x, y, z'
loop_
 _atom_site_type_symbol
 _atom_site_label
 _atom_site_symmetry_multiplicity
 _atom_site_fract_x
 _atom_site_fract_y
 _atom_site_fract_z
 _atom_site_occupancy
  Li  Li0  1  0.99287382  0.67255294  0.62513167  1
  Li  Li1  1  0.32264643  0.00957725  0.62668261  1
  Li  Li2  1  0.33655461  0.99288823  0.12394217  1
  Li  Li3  1  0.35060292  0.66589144  0.37314470  1
  Li  Li4  1  0.33381597  0.66663804  0.87504178  1
  Li  Li5  1  0.99304860  0.33249085  0.87507544  1
  Li  Li6  1  0.99663245  0.66019186  0.12399241  1
  Li  Li7  1  0.67239657  0.33233210  0.12366489  1
  Li  Li8  1  0.65994569  0.34131071  0.62627654  1
  Li  Li9  1  0.65934732  0.99520356  0.87559394  1
  Li  Li10  1  0.67484195  0.99672525  0.37355124  1
  Li  Li11  1  0.00630435  0.33160987  0.37404875  1
  V  V12  1  0.68109169  0.66719896  0.99683343  1
  V  V13  1  0.66754896  0.64700738  0.24410469  1
  V  V14  1  0.00111503  0.98390772  0.73656511  1
  V  V15  1  0.66940694  0.70012522  0.73921038  1
  V  V16  1  0.64863437  0.68462168  0.50049829  1
  V  V17  1  0.31866028  0.34956725  0.51450935  1
  V  V18  1  0.33569139  0.36365499  0.26172750  1
  V  V19  1  0.00393531  0.98151165  0.23530883  1
  V  V20  1  0.32761998  0.32191680  0.76201979  1
  V  V21  1  0.34672245  0.33385310  0.01452889  1
  V  V22  1  0.96554671  0.00200157  0.98835498  1
  V  V23  1  0.03373573  0.96656151  0.48843979  1
  O  O24  1  0.70357944  0.97769205  0.78420511  1
  O  O25  1  0.60899852  0.02927995  0.96470664  1
  O  O26  1  0.98135653  0.69256637  0.03378840  1
  O  O27  1  0.01625100  0.62601421  0.21649501  1
  O  O28  1  0.32218766  0.98604292  0.53544563  1
  O  O29  1  0.32689748  0.03572457  0.71450155  1
  O  O30  1  0.32226553  0.71875034  0.28429851  1
  O  O31  1  0.36869811  0.61093733  0.46530675  1
  O  O32  1  0.70499776  0.32878787  0.03288212  1
  O  O33  1  0.96746355  0.70641810  0.53371720  1
  O  O34  1  0.64251173  0.33557010  0.21478426  1
  O  O35  1  0.03878176  0.62500485  0.71395427  1
  F  F36  1  0.65839856  0.67074082  0.63811369  1
  F  F37  1  0.68545236  0.66494413  0.37709465  1
  F  F38  1  0.01035192  0.99531752  0.39871871  1
  F  F39  1  0.00786752  0.98995821  0.14557610  1
  F  F40  1  0.66046494  0.66847473  0.13068082  1
  F  F41  1  0.66775489  0.65714680  0.88592179  1
  F  F42  1  0.98518437  0.30073280  0.28957962  1
  F  F43  1  0.33033522  0.70721074  0.78931696  1
  F  F44  1  0.01528897  0.35238627  0.46143199  1
  F  F45  1  0.34315694  0.63129575  0.96043451  1
  F  F46  1  0.71809776  0.31210511  0.54033977  1
  F  F47  1  0.62353928  0.35717496  0.71283015  1
  F  F48  1  0.33814638  0.32268091  0.10309951  1
  F  F49  1  0.32161863  0.33872993  0.85107457  1
  F  F50  1  0.99587804  0.99926432  0.89697893  1
  F  F51  1  0.98208338  0.01040163  0.64494470  1
  F  F52  1  0.33122621  0.34245618  0.60314188  1
  F  F53  1  0.34021648  0.33397877  0.35174418  1
  F  F54  1  0.70265663  0.97280666  0.28862619  1
  F  F55  1  0.62102811  0.03713295  0.46031119  1
  F  F56  1  0.95455205  0.32735149  0.78880127  1
  F  F57  1  0.04122080  0.33608090  0.96010235  1
  F  F58  1  0.31103311  0.96660921  0.03842768  1
  F  F59  1  0.35174085  0.03288761  0.21037617  1
