# generated using pymatgen
data_Li6V5SbO12
_symmetry_space_group_name_H-M   'P 1'
_cell_length_a   5.29284026
_cell_length_b   5.29284001
_cell_length_c   10.44835584
_cell_angle_alpha   86.25530123
_cell_angle_beta   93.74470007
_cell_angle_gamma   61.90683994
_symmetry_Int_Tables_number   1
_chemical_formula_structural   Li6V5SbO12
_chemical_formula_sum   'Li6 V5 Sb1 O12'
_cell_volume   256.12646852
_cell_formula_units_Z   1
loop_
 _symmetry_equiv_pos_site_id
 _symmetry_equiv_pos_as_xyz
  1  'x, y, z'
loop_
 _atom_site_type_symbol
 _atom_site_label
 _atom_site_symmetry_multiplicity
 _atom_site_fract_x
 _atom_site_fract_y
 _atom_site_fract_z
 _atom_site_occupancy
  Li  Li0  1  0.11565737  0.55142136  0.28382226  1
  Li  Li1  1  0.21705471  0.78294529  0.71017323  1
  Li  Li2  1  0.55136817  0.11571597  0.71618814  1
  Li  Li3  1  0.44857864  0.88434263  0.28382226  1
  Li  Li4  1  0.78284138  0.21715862  0.28982682  1
  Li  Li5  1  0.88428403  0.44863183  0.71618814  1
  V  V6  1  0.17083230  0.17091172  0.50003254  1
  V  V7  1  0.49995993  0.50004007  0.50001702  1
  V  V8  1  0.82908828  0.82916770  0.50003254  1
  V  V9  1  0.34106684  0.34095906  -0.00005239  1
  V  V10  1  0.65904094  0.65893316  -0.00005239  1
  Sb  Sb11  1  -0.00010530  0.00010530  -0.00012724  1
  O  O12  1  0.02192496  0.65287250  0.10204146  1
  O  O13  1  0.18630119  0.46765097  0.61312423  1
  O  O14  1  0.46758157  0.18637502  0.38687951  1
  O  O15  1  0.13051770  0.86948230  0.39243536  1
  O  O16  1  0.28869619  0.71130381  0.89293613  1
  O  O17  1  0.65311522  0.02177889  0.89800870  1
  O  O18  1  0.34712750  0.97807504  0.10204146  1
  O  O19  1  0.71144335  0.28855665  0.10708390  1
  O  O20  1  0.86940892  0.13059108  0.60756588  1
  O  O21  1  0.53234903  0.81369881  0.61312423  1
  O  O22  1  0.81362498  0.53241843  0.38687951  1
  O  O23  1  0.97822111  0.34688478  0.89800870  1
