# generated using pymatgen
data_LiV3(O2F)2
_symmetry_space_group_name_H-M   'P 1'
_cell_length_a   5.17852483
_cell_length_b   5.67122732
_cell_length_c   5.17535849
_cell_angle_alpha   118.44053069
_cell_angle_beta   60.99671389
_cell_angle_gamma   118.95180891
_symmetry_Int_Tables_number   1
_chemical_formula_structural   LiV3(O2F)2
_chemical_formula_sum   'Li1 V3 O4 F2'
_cell_volume   110.37355127
_cell_formula_units_Z   1
loop_
 _symmetry_equiv_pos_site_id
 _symmetry_equiv_pos_as_xyz
  1  'x, y, z'
loop_
 _atom_site_type_symbol
 _atom_site_label
 _atom_site_symmetry_multiplicity
 _atom_site_fract_x
 _atom_site_fract_y
 _atom_site_fract_z
 _atom_site_occupancy
  Li  Li0  1  0.83057851  0.59965157  0.89216192  1
  V  V1  1  0.16250214  0.42276463  0.13771034  1
  V  V2  1  0.66852895  0.98956298  0.64597360  1
  V  V3  1  0.37486726  0.06201574  0.34449823  1
  O  O4  1  0.06384100  0.20760201  0.41055719  1
  O  O5  1  0.50744777  0.75282501  0.28658539  1
  O  O6  1  0.76213024  0.23106549  0.05412128  1
  O  O7  1  0.44259890  0.25049240  0.75463512  1
  F  F8  1  0.26088678  0.74654607  0.92764563  1
  F  F9  1  0.92661945  0.73747510  0.54610831  1
