# generated using pymatgen
data_CoSbO4
_symmetry_space_group_name_H-M   'P 1'
_cell_length_a   5.94394393
_cell_length_b   5.94394351
_cell_length_c   6.29201855
_cell_angle_alpha   58.10983736
_cell_angle_beta   58.10984552
_cell_angle_gamma   88.71940762
_symmetry_Int_Tables_number   1
_chemical_formula_structural   CoSbO4
_chemical_formula_sum   'Co2 Sb2 O8'
_cell_volume   149.74988896
_cell_formula_units_Z   2
loop_
 _symmetry_equiv_pos_site_id
 _symmetry_equiv_pos_as_xyz
  1  'x, y, z'
loop_
 _atom_site_type_symbol
 _atom_site_label
 _atom_site_symmetry_multiplicity
 _atom_site_fract_x
 _atom_site_fract_y
 _atom_site_fract_z
 _atom_site_occupancy
  Co  Co0  1  0.00000000  0.50000000  0.50000000  1
  Co  Co1  1  0.50000000  0.00000000  0.00000000  1
  Sb  Sb2  1  0.00000000  0.00000000  0.50000000  1
  Sb  Sb3  1  0.00000000  0.00000000  0.00000000  1
  O  O4  1  0.75076253  0.77964285  0.98438823  1
  O  O5  1  0.23939976  0.76150849  0.45557661  1
  O  O6  1  0.76150849  0.23939976  0.95557661  1
  O  O7  1  0.77964285  0.75076253  0.48438823  1
  O  O8  1  0.22035715  0.24923747  0.51561177  1
  O  O9  1  0.23849151  0.76060024  0.04442339  1
  O  O10  1  0.76060024  0.23849151  0.54442339  1
  O  O11  1  0.24923747  0.22035715  0.01561177  1
