# generated using pymatgen
data_Li7V(O2F)2
_symmetry_space_group_name_H-M   'P 1'
_cell_length_a   5.43401472
_cell_length_b   5.95056174
_cell_length_c   9.54286100
_cell_angle_alpha   103.11217290
_cell_angle_beta   87.91239047
_cell_angle_gamma   63.11849843
_symmetry_Int_Tables_number   1
_chemical_formula_structural   Li7V(O2F)2
_chemical_formula_sum   'Li14 V2 O8 F4'
_cell_volume   264.59965257
_cell_formula_units_Z   2
loop_
 _symmetry_equiv_pos_site_id
 _symmetry_equiv_pos_as_xyz
  1  'x, y, z'
loop_
 _atom_site_type_symbol
 _atom_site_label
 _atom_site_symmetry_multiplicity
 _atom_site_fract_x
 _atom_site_fract_y
 _atom_site_fract_z
 _atom_site_occupancy
  Li  Li0  1  0.14881742  0.36484624  0.75000105  1
  Li  Li1  1  0.16738719  0.37699147  0.06916146  1
  Li  Li2  1  0.52951885  0.03926851  0.18720198  1
  Li  Li3  1  0.97035601  0.94910851  0.31522169  1
  Li  Li4  1  0.32401966  0.60175925  0.44615033  1
  Li  Li5  1  0.37158873  0.63237695  0.74926751  1
  Li  Li6  1  0.36727403  0.64389131  0.10759378  1
  Li  Li7  1  0.62822364  0.35403365  0.88393501  1
  Li  Li8  1  0.68079555  0.37557784  0.24703349  1
  Li  Li9  1  0.69583101  0.34107244  0.54706282  1
  Li  Li10  1  0.98729676  0.03991872  0.66999151  1
  Li  Li11  1  0.46419815  0.99766486  0.82661022  1
  Li  Li12  1  0.80356555  0.64529578  0.95852525  1
  Li  Li13  1  0.86861149  0.62477527  0.59436413  1
  V  V14  1  0.00166219  0.99960858  0.99910330  1
  V  V15  1  0.45731498  0.04249829  0.51083780  1
  O  O16  1  0.03010316  0.24357971  0.88857690  1
  O  O17  1  0.06595458  0.25664481  0.56218491  1
  O  O18  1  0.56709451  0.21799715  0.38092416  1
  O  O19  1  0.53817685  0.24283396  0.69824411  1
  O  O20  1  0.57801706  0.25209496  0.05607997  1
  O  O21  1  0.42329830  0.75876234  0.94292601  1
  O  O22  1  0.47374250  0.75693051  0.60330627  1
  O  O23  1  0.96839772  0.76512338  0.11008764  1
  F  F24  1  0.07160301  0.20389654  0.19028418  1
  F  F25  1  0.41842593  0.75433017  0.30297563  1
  F  F26  1  0.93964504  0.79605899  0.47518327  1
  F  F27  1  0.95877616  0.75270182  0.79453960  1
