# generated using pymatgen
data_LiFePO4
_symmetry_space_group_name_H-M   'P 1'
_cell_length_a   4.95881326
_cell_length_b   5.41392026
_cell_length_c   6.33191463
_cell_angle_alpha   87.13871767
_cell_angle_beta   90.00000000
_cell_angle_gamma   62.74388388
_symmetry_Int_Tables_number   1
_chemical_formula_structural   LiFePO4
_chemical_formula_sum   'Li2 Fe2 P2 O8'
_cell_volume   150.87772893
_cell_formula_units_Z   2
loop_
 _symmetry_equiv_pos_site_id
 _symmetry_equiv_pos_as_xyz
  1  'x, y, z'
loop_
 _atom_site_type_symbol
 _atom_site_label
 _atom_site_symmetry_multiplicity
 _atom_site_fract_x
 _atom_site_fract_y
 _atom_site_fract_z
 _atom_site_occupancy
  Li  Li0  1  0.67583852  0.64833597  0.74876755  1
  Li  Li1  1  0.32417449  0.35166403  0.25123245  1
  Fe  Fe2  1  0.95617077  0.00000000  0.50000000  1
  Fe  Fe3  1  0.98270799  0.00000000  0.00000000  1
  P  P4  1  0.69421358  0.62531238  0.24446910  1
  P  P5  1  0.31952596  0.37468762  0.75553090  1
  O  O6  1  0.20437804  0.70352814  0.74141349  1
  O  O7  1  0.76776470  0.73661680  0.44400897  1
  O  O8  1  0.78700537  0.73139822  0.04070271  1
  O  O9  1  0.34741342  0.71453346  0.23389750  1
  O  O10  1  0.06194688  0.28546654  0.76610250  1
  O  O11  1  0.51840260  0.26860178  0.95929729  1
  O  O12  1  0.50438151  0.26338320  0.55599103  1
  O  O13  1  0.90790618  0.29647186  0.25858651  1
