# generated using pymatgen
data_Li4CrCo3O8
_symmetry_space_group_name_H-M   'P 1'
_cell_length_a   5.88242250
_cell_length_b   5.87710280
_cell_length_c   5.89039656
_cell_angle_alpha   90.05920432
_cell_angle_beta   119.87470306
_cell_angle_gamma   119.92533013
_symmetry_Int_Tables_number   1
_chemical_formula_structural   Li4CrCo3O8
_chemical_formula_sum   'Li4 Cr1 Co3 O8'
_cell_volume   144.35574644
_cell_formula_units_Z   1
loop_
 _symmetry_equiv_pos_site_id
 _symmetry_equiv_pos_as_xyz
  1  'x, y, z'
loop_
 _atom_site_type_symbol
 _atom_site_label
 _atom_site_symmetry_multiplicity
 _atom_site_fract_x
 _atom_site_fract_y
 _atom_site_fract_z
 _atom_site_occupancy
  Li  Li0  1  0.00003462  0.50002789  0.50001187  1
  Li  Li1  1  0.50003513  0.50001403  0.49999949  1
  Li  Li2  1  0.00005914  0.00004757  0.50002286  1
  Li  Li3  1  0.50005291  0.00004826  0.50000281  1
  Cr  Cr4  1  -0.00030849  -0.00023874  0.99988764  1
  Co  Co5  1  0.00006015  0.50000302  -0.00000774  1
  Co  Co6  1  0.49995843  0.49992491  0.00003687  1
  Co  Co7  1  0.50002163  0.00008846  0.00005622  1
  O  O8  1  0.01471376  0.75809521  0.77318667  1
  O  O9  1  0.48712284  0.74343247  0.23048020  1
  O  O10  1  0.51655280  0.75845554  0.77454502  1
  O  O11  1  0.01461544  0.25711142  0.77370336  1
  O  O12  1  0.98543835  0.74291165  0.22635478  1
  O  O13  1  0.48334398  0.24149992  0.22535675  1
  O  O14  1  0.51298954  0.25665441  0.76955147  1
  O  O15  1  0.98532177  0.24192298  0.22681473  1
