# generated using pymatgen
data_Li5MnO3F
_symmetry_space_group_name_H-M   'P 1'
_cell_length_a   7.03464023
_cell_length_b   6.35478743
_cell_length_c   9.51022441
_cell_angle_alpha   90.00000000
_cell_angle_beta   90.00000000
_cell_angle_gamma   90.00000000
_symmetry_Int_Tables_number   1
_chemical_formula_structural   Li5MnO3F
_chemical_formula_sum   'Li20 Mn4 O12 F4'
_cell_volume   425.14167981
_cell_formula_units_Z   4
loop_
 _symmetry_equiv_pos_site_id
 _symmetry_equiv_pos_as_xyz
  1  'x, y, z'
loop_
 _atom_site_type_symbol
 _atom_site_label
 _atom_site_symmetry_multiplicity
 _atom_site_fract_x
 _atom_site_fract_y
 _atom_site_fract_z
 _atom_site_occupancy
  Li  Li0  1  0.07469187  0.99943815  0.38292295  1
  Li  Li1  1  0.04044049  0.49326452  0.37602366  1
  Li  Li2  1  0.04044049  0.00673548  0.87602366  1
  Li  Li3  1  0.07469187  0.50056185  0.88292295  1
  Li  Li4  1  0.25000000  0.75609836  0.10674211  1
  Li  Li5  1  0.25000000  0.74390164  0.60674211  1
  Li  Li6  1  0.42530813  0.99943815  0.38292295  1
  Li  Li7  1  0.45955951  0.49326452  0.37602366  1
  Li  Li8  1  0.45955951  0.00673548  0.87602366  1
  Li  Li9  1  0.42530813  0.50056185  0.88292295  1
  Li  Li10  1  0.54044049  0.99326452  0.12397634  1
  Li  Li11  1  0.57469187  0.00056185  0.61707705  1
  Li  Li12  1  0.57469187  0.49943815  0.11707705  1
  Li  Li13  1  0.54044049  0.50673548  0.62397634  1
  Li  Li14  1  0.75000000  0.25609836  0.39325789  1
  Li  Li15  1  0.75000000  0.24390164  0.89325789  1
  Li  Li16  1  0.92530813  0.00056185  0.61707705  1
  Li  Li17  1  0.95955951  0.99326452  0.12397634  1
  Li  Li18  1  0.95955951  0.50673548  0.62397634  1
  Li  Li19  1  0.92530813  0.49943815  0.11707705  1
  Mn  Mn20  1  0.25000000  0.24368979  0.09716544  1
  Mn  Mn21  1  0.25000000  0.25631021  0.59716544  1
  Mn  Mn22  1  0.75000000  0.74368979  0.40283456  1
  Mn  Mn23  1  0.75000000  0.75631021  0.90283456  1
  O  O24  1  0.99525098  0.25446830  0.99888121  1
  O  O25  1  0.99525098  0.24553170  0.49888121  1
  O  O26  1  0.25000000  0.99859909  0.22893844  1
  O  O27  1  0.25000000  0.50140091  0.72893844  1
  O  O28  1  0.50474902  0.25446830  0.99888121  1
  O  O29  1  0.50474902  0.24553170  0.49888121  1
  O  O30  1  0.49525098  0.74553170  0.00111879  1
  O  O31  1  0.49525098  0.75446830  0.50111879  1
  O  O32  1  0.75000000  0.00140091  0.77106156  1
  O  O33  1  0.75000000  0.49859909  0.27106156  1
  O  O34  1  0.00474902  0.75446830  0.50111879  1
  O  O35  1  0.00474902  0.74553170  0.00111879  1
  F  F36  1  0.25000000  0.99049569  0.74176831  1
  F  F37  1  0.25000000  0.50950431  0.24176831  1
  F  F38  1  0.75000000  0.00950431  0.25823169  1
  F  F39  1  0.75000000  0.49049569  0.75823169  1
