# generated using pymatgen
data_MnF3
_symmetry_space_group_name_H-M   'P 1'
_cell_length_a   5.24184166
_cell_length_b   5.24184166
_cell_length_c   4.77170278
_cell_angle_alpha   89.55632070
_cell_angle_beta   90.44367930
_cell_angle_gamma   64.41129344
_symmetry_Int_Tables_number   1
_chemical_formula_structural   MnF3
_chemical_formula_sum   'Mn2 F6'
_cell_volume   118.23940438
_cell_formula_units_Z   2
loop_
 _symmetry_equiv_pos_site_id
 _symmetry_equiv_pos_as_xyz
  1  'x, y, z'
loop_
 _atom_site_type_symbol
 _atom_site_label
 _atom_site_symmetry_multiplicity
 _atom_site_fract_x
 _atom_site_fract_y
 _atom_site_fract_z
 _atom_site_occupancy
  Mn  Mn0  1  0.66985816  0.66990077  0.50000825  1
  Mn  Mn1  1  0.33009923  0.33014184  0.50000825  1
  F  F2  1  0.64956045  0.97752846  0.28446251  1
  F  F3  1  0.02247154  0.35043955  0.28446251  1
  F  F4  1  0.37964857  0.62035143  0.28181772  1
  F  F5  1  0.62035117  0.37964883  0.71816356  1
  F  F6  1  0.97751849  0.64959360  0.71552760  1
  F  F7  1  0.35040640  0.02248151  0.71552760  1
