# generated using pymatgen
data_LiVF3
_symmetry_space_group_name_H-M   'P 1'
_cell_length_a   5.85796493
_cell_length_b   5.85798660
_cell_length_c   5.89149084
_cell_angle_alpha   90.00000000
_cell_angle_beta   90.00000000
_cell_angle_gamma   59.99926547
_symmetry_Int_Tables_number   1
_chemical_formula_structural   LiVF3
_chemical_formula_sum   'Li2 V2 F6'
_cell_volume   175.08452618
_cell_formula_units_Z   2
loop_
 _symmetry_equiv_pos_site_id
 _symmetry_equiv_pos_as_xyz
  1  'x, y, z'
loop_
 _atom_site_type_symbol
 _atom_site_label
 _atom_site_symmetry_multiplicity
 _atom_site_fract_x
 _atom_site_fract_y
 _atom_site_fract_z
 _atom_site_occupancy
  Li  Li0  1  0.33331436  0.33334330  0.25000000  1
  Li  Li1  1  0.66665441  0.66667448  0.75000000  1
  V  V2  1  0.99999057  0.00000277  0.00002429  1
  V  V3  1  0.99999057  0.00000277  0.49997571  1
  F  F4  1  0.15218406  0.15223266  0.25000000  1
  F  F5  1  0.15219441  0.69558681  0.25000000  1
  F  F6  1  0.30442656  0.84778586  0.75000000  1
  F  F7  1  0.69555553  0.15222130  0.25000000  1
  F  F8  1  0.84777798  0.30445092  0.75000000  1
  F  F9  1  0.84775556  0.84779915  0.75000000  1
