# generated using pymatgen
data_ZnC2(SN)2
_symmetry_space_group_name_H-M   'P 1'
_cell_length_a   7.81311473
_cell_length_b   7.89048643
_cell_length_c   10.64569792
_cell_angle_alpha   73.95580911
_cell_angle_beta   70.79432102
_cell_angle_gamma   87.13456682
_symmetry_Int_Tables_number   1
_chemical_formula_structural   ZnC2(SN)2
_chemical_formula_sum   'Zn4 C8 S8 N8'
_cell_volume   595.02558180
_cell_formula_units_Z   4
loop_
 _symmetry_equiv_pos_site_id
 _symmetry_equiv_pos_as_xyz
  1  'x, y, z'
loop_
 _atom_site_type_symbol
 _atom_site_label
 _atom_site_symmetry_multiplicity
 _atom_site_fract_x
 _atom_site_fract_y
 _atom_site_fract_z
 _atom_site_occupancy
  Zn  Zn0  1  0.68377579  0.40190549  0.82503783  1
  Zn  Zn1  1  0.78267339  0.06509451  0.30828004  1
  Zn  Zn2  1  0.21732661  0.93490549  0.69171996  1
  Zn  Zn3  1  0.31622421  0.59809451  0.17496217  1
  C  C4  1  0.56847905  0.11238542  0.10847186  1
  C  C5  1  0.87230564  0.70672366  0.87853536  1
  C  C6  1  0.00241327  0.25640320  0.61765427  1
  C  C7  1  0.60387418  0.41966704  0.30908185  1
  C  C8  1  0.12769436  0.29327634  0.12146464  1
  C  C9  1  0.99758673  0.74359680  0.38234573  1
  C  C10  1  0.43152095  0.88761458  0.89152814  1
  C  C11  1  0.39612582  0.58033296  0.69091815  1
  S  S12  1  0.72589392  0.31280849  0.40237230  1
  S  S13  1  0.83223061  0.82706976  0.48533631  1
  S  S14  1  0.02932835  0.13224941  0.09700617  1
  S  S15  1  0.52850229  0.97162098  0.26186365  1
  S  S16  1  0.97067165  0.86775059  0.90299383  1
  S  S17  1  0.47149771  0.02837902  0.73813635  1
  S  S18  1  0.27410608  0.68719151  0.59762770  1
  S  S19  1  0.16776939  0.17293024  0.51466369  1
  N  N20  1  0.88081592  0.31816938  0.68780368  1
  N  N21  1  0.48554934  0.50241255  0.75607250  1
  N  N22  1  0.51445066  0.49758745  0.24392750  1
  N  N23  1  0.20420577  0.40891743  0.13415535  1
  N  N24  1  0.40531307  0.78965596  0.00240724  1
  N  N25  1  0.11918408  0.68183062  0.31219632  1
  N  N26  1  0.59468693  0.21034404  0.99759276  1
  N  N27  1  0.79579423  0.59108257  0.86584465  1
