# generated using pymatgen
data_SbP2O7
_symmetry_space_group_name_H-M   'P 1'
_cell_length_a   5.08265314
_cell_length_b   8.98999899
_cell_length_c   11.82858794
_cell_angle_alpha   90.00000000
_cell_angle_beta   88.00973888
_cell_angle_gamma   90.00000000
_symmetry_Int_Tables_number   1
_chemical_formula_structural   SbP2O7
_chemical_formula_sum   'Sb4 P8 O28'
_cell_volume   540.15817000
_cell_formula_units_Z   4
loop_
 _symmetry_equiv_pos_site_id
 _symmetry_equiv_pos_as_xyz
  1  'x, y, z'
loop_
 _atom_site_type_symbol
 _atom_site_label
 _atom_site_symmetry_multiplicity
 _atom_site_fract_x
 _atom_site_fract_y
 _atom_site_fract_z
 _atom_site_occupancy
  Sb  Sb0  1  0.67739627  0.77352119  0.72168787  1
  Sb  Sb1  1  0.32260373  0.22647781  0.27831213  1
  Sb  Sb2  1  0.82260373  0.27352219  0.77831213  1
  Sb  Sb3  1  0.17739627  0.72647881  0.22168787  1
  P  P4  1  0.21547760  0.53985833  0.66438908  1
  P  P5  1  0.32102135  0.28129785  0.97749452  1
  P  P6  1  0.71547760  0.96014167  0.16438908  1
  P  P7  1  0.17897865  0.78129785  0.52250548  1
  P  P8  1  0.67897865  0.71870215  0.02250548  1
  P  P9  1  0.28452240  0.03985833  0.83561092  1
  P  P10  1  0.78452240  0.46014167  0.33561092  1
  P  P11  1  0.82102135  0.21870215  0.47749452  1
  O  O12  1  0.49900161  0.42974682  0.29491002  1
  O  O13  1  0.87294850  0.64545298  0.10191319  1
  O  O14  1  0.83484491  0.62750790  0.33485743  1
  O  O15  1  0.51147626  0.87125611  0.23187738  1
  O  O16  1  0.26902490  0.31223331  0.10238793  1
  O  O17  1  0.76902490  0.18776669  0.60238793  1
  O  O18  1  0.48852374  0.12874389  0.76812262  1
  O  O19  1  0.78217268  0.39978815  0.46401317  1
  O  O20  1  0.99900161  0.07025318  0.79491002  1
  O  O21  1  0.98852374  0.37125611  0.26812262  1
  O  O22  1  0.12705150  0.35454702  0.89808681  1
  O  O23  1  0.50099839  0.57025318  0.70508998  1
  O  O24  1  0.23097510  0.81223331  0.39761207  1
  O  O25  1  0.33484491  0.87249210  0.83485743  1
  O  O26  1  0.16515509  0.37249210  0.66514257  1
  O  O27  1  0.88953416  0.82009200  0.55824237  1
  O  O28  1  0.71782732  0.89978815  0.03598683  1
  O  O29  1  0.73097510  0.68776669  0.89761207  1
  O  O30  1  0.62705150  0.14545298  0.39808681  1
  O  O31  1  0.11046584  0.17990800  0.44175763  1
  O  O32  1  0.21782732  0.60021185  0.53598683  1
  O  O33  1  0.37294850  0.85454702  0.60191319  1
  O  O34  1  0.00099839  0.92974682  0.20508998  1
  O  O35  1  0.61046584  0.32009200  0.94175763  1
  O  O36  1  0.66515509  0.12750790  0.16514257  1
  O  O37  1  0.01147626  0.62874389  0.73187738  1
  O  O38  1  0.28217268  0.10021185  0.96401317  1
  O  O39  1  0.38953416  0.67990800  0.05824237  1
