# generated using pymatgen
data_Ba6Ca11I34
_symmetry_space_group_name_H-M   'P 1'
_cell_length_a   11.57552807
_cell_length_b   14.90644817
_cell_length_c   15.04720908
_cell_angle_alpha   81.82438786
_cell_angle_beta   70.77797686
_cell_angle_gamma   71.77072756
_symmetry_Int_Tables_number   1
_chemical_formula_structural   Ba6Ca11I34
_chemical_formula_sum   'Ba6 Ca11 I34'
_cell_volume   2326.37695553
_cell_formula_units_Z   1
loop_
 _symmetry_equiv_pos_site_id
 _symmetry_equiv_pos_as_xyz
  1  'x, y, z'
loop_
 _atom_site_type_symbol
 _atom_site_label
 _atom_site_symmetry_multiplicity
 _atom_site_fract_x
 _atom_site_fract_y
 _atom_site_fract_z
 _atom_site_occupancy
  Ba  Ba0  1  0.34197976  0.34105639  0.02633938  1
  Ba  Ba1  1  0.23497435  0.65953773  0.32205547  1
  Ba  Ba2  1  0.40171340  0.06676630  0.77389041  1
  Ba  Ba3  1  0.59828660  0.93323370  0.22610959  1
  Ba  Ba4  1  0.76502565  0.34046227  0.67794453  1
  Ba  Ba5  1  0.65802024  0.65894361  0.97366062  1
  Ca  Ca6  1  0.00000000  0.00000000  0.50000000  1
  Ca  Ca7  1  0.19451310  0.99769308  0.18572561  1
  Ca  Ca8  1  0.10548947  0.75209955  0.01438207  1
  Ca  Ca9  1  0.27655009  0.26165315  0.38023810  1
  Ca  Ca10  1  0.19251662  0.49141146  0.70358663  1
  Ca  Ca11  1  0.31263911  0.75494574  0.69521807  1
  Ca  Ca12  1  0.68736089  0.24505426  0.30478193  1
  Ca  Ca13  1  0.80748338  0.50858854  0.29641337  1
  Ca  Ca14  1  0.72344991  0.73834685  0.61976190  1
  Ca  Ca15  1  0.89451053  0.24790045  0.98561793  1
  Ca  Ca16  1  0.80548690  0.00230692  0.81427439  1
  I  I17  1  0.16645332  0.12534406  0.00601290  1
  I  I18  1  0.10529009  0.40140610  0.26108254  1
  I  I19  1  0.10118489  0.15644944  0.53051680  1
  I  I20  1  0.35205738  0.13482911  0.20454452  1
  I  I21  1  0.04937978  0.84873133  0.19717683  1
  I  I22  1  0.07415163  0.37628866  0.88514949  1
  I  I23  1  0.17776669  0.38860132  0.55037215  1
  I  I24  1  0.34559707  0.61142777  0.06925037  1
  I  I25  1  0.44898638  0.38750701  0.25796719  1
  I  I26  1  0.04301836  0.87482583  0.67790589  1
  I  I27  1  0.52401571  0.11269870  0.41770779  1
  I  I28  1  0.16929724  0.62920601  0.84830492  1
  I  I29  1  0.27486762  0.88611114  0.36427685  1
  I  I30  1  0.31476259  0.62664232  0.54147792  1
  I  I31  1  0.45972852  0.87618887  0.07415164  1
  I  I32  1  0.74756077  0.11791701  0.13325310  1
  I  I33  1  0.43782696  0.35397118  0.75804208  1
  I  I34  1  0.56217304  0.64602882  0.24195792  1
  I  I35  1  0.25243923  0.88208299  0.86674690  1
  I  I36  1  0.54027148  0.12381113  0.92584836  1
  I  I37  1  0.68523741  0.37335768  0.45852208  1
  I  I38  1  0.72513238  0.11388886  0.63572315  1
  I  I39  1  0.83070276  0.37079399  0.15169508  1
  I  I40  1  0.47598429  0.88730130  0.58229221  1
  I  I41  1  0.95698164  0.12517417  0.32209411  1
  I  I42  1  0.55101362  0.61249299  0.74203281  1
  I  I43  1  0.65440293  0.38857223  0.93074963  1
  I  I44  1  0.82223331  0.61139868  0.44962785  1
  I  I45  1  0.92584837  0.62371134  0.11485051  1
  I  I46  1  0.95062022  0.15126867  0.80282317  1
  I  I47  1  0.64794262  0.86517089  0.79545548  1
  I  I48  1  0.89881511  0.84355056  0.46948320  1
  I  I49  1  0.89470991  0.59859390  0.73891746  1
  I  I50  1  0.83354668  0.87465594  0.99398710  1
