# generated using pymatgen
data_Li11V12(CoO8)4
_symmetry_space_group_name_H-M   'P 1'
_cell_length_a   8.32889049
_cell_length_b   8.41712544
_cell_length_c   8.33218916
_cell_angle_alpha   89.86487087
_cell_angle_beta   89.99560584
_cell_angle_gamma   90.14089567
_symmetry_Int_Tables_number   1
_chemical_formula_structural   Li11V12(CoO8)4
_chemical_formula_sum   'Li11 V12 Co4 O32'
_cell_volume   584.12736119
_cell_formula_units_Z   1
loop_
 _symmetry_equiv_pos_site_id
 _symmetry_equiv_pos_as_xyz
  1  'x, y, z'
loop_
 _atom_site_type_symbol
 _atom_site_label
 _atom_site_symmetry_multiplicity
 _atom_site_fract_x
 _atom_site_fract_y
 _atom_site_fract_z
 _atom_site_occupancy
  Li  Li0  1  0.87404968  0.12481456  0.12414733  1
  Li  Li1  1  0.24133243  0.25211743  0.74783915  1
  Li  Li2  1  0.88182997  0.36917561  0.37543851  1
  Li  Li3  1  0.62861011  0.36955272  0.12037267  1
  Li  Li4  1  0.87322345  0.61761573  0.62862915  1
  Li  Li5  1  0.13170704  0.62498342  0.38179092  1
  Li  Li6  1  0.61816091  0.62501607  0.86811331  1
  Li  Li7  1  0.37874824  0.63243071  0.12318442  1
  Li  Li8  1  0.87034931  0.88069050  0.87866983  1
  Li  Li9  1  0.12567460  0.88057634  0.13223935  1
  Li  Li10  1  0.49789048  0.99776889  0.49115948  1
  V  V11  1  0.37439576  0.11858279  0.12871175  1
  V  V12  1  0.62244845  0.12501946  0.87243208  1
  V  V13  1  0.87897684  0.13179307  0.62460120  1
  V  V14  1  0.12985919  0.36649949  0.11582053  1
  V  V15  1  0.37478464  0.36368615  0.38749820  1
  V  V16  1  0.62636793  0.36539287  0.62712611  1
  V  V17  1  0.87141728  0.62502082  0.12148373  1
  V  V18  1  0.12932824  0.62092342  0.86666703  1
  V  V19  1  0.61651652  0.62902220  0.37928855  1
  V  V20  1  0.37704193  0.88462222  0.87622804  1
  V  V21  1  0.13735505  0.88618862  0.62483242  1
  V  V22  1  0.86577532  0.88340016  0.38014220  1
  Co  Co23  1  0.12728715  0.12496298  0.37726271  1
  Co  Co24  1  0.87992314  0.37042398  0.87356589  1
  Co  Co25  1  0.37576593  0.62497207  0.62586259  1
  Co  Co26  1  0.62331268  0.87959381  0.12970030  1
  O  O27  1  0.89552734  0.12832749  0.38781504  1
  O  O28  1  0.11666081  0.11572158  0.60959590  1
  O  O29  1  0.38037011  0.12087315  0.88840213  1
  O  O30  1  0.61607079  0.11427216  0.11133910  1
  O  O31  1  0.86150315  0.13579477  0.86636066  1
  O  O32  1  0.63852715  0.12913622  0.63046213  1
  O  O33  1  0.35967308  0.13428346  0.36649702  1
  O  O34  1  0.13758529  0.12168492  0.14553037  1
  O  O35  1  0.87373374  0.35662852  0.63578694  1
  O  O36  1  0.64846056  0.37115055  0.86545087  1
  O  O37  1  0.37507948  0.35479455  0.14321728  1
  O  O38  1  0.13707026  0.35929735  0.35754088  1
  O  O39  1  0.37835394  0.38098733  0.60564234  1
  O  O40  1  0.61587687  0.38785394  0.38068172  1
  O  O41  1  0.88663493  0.37734684  0.11071091  1
  O  O42  1  0.11538024  0.38961194  0.87966536  1
  O  O43  1  0.62744820  0.60682294  0.61122960  1
  O  O44  1  0.38923211  0.60570839  0.36735927  1
  O  O45  1  0.11660148  0.62097406  0.10886610  1
  O  O46  1  0.88472175  0.60697947  0.88111284  1
  O  O47  1  0.63099550  0.64288151  0.13450201  1
  O  O48  1  0.85884344  0.62889881  0.36640406  1
  O  O49  1  0.11724524  0.64436119  0.63921820  1
  O  O50  1  0.36121215  0.64311748  0.87743294  1
  O  O51  1  0.62964690  0.86028017  0.36479836  1
  O  O52  1  0.86049593  0.87257684  0.13670487  1
  O  O53  1  0.13044161  0.86204977  0.86575218  1
  O  O54  1  0.35562708  0.86899633  0.62827452  1
  O  O55  1  0.10746346  0.89075568  0.38709327  1
  O  O56  1  0.89301719  0.89539493  0.62498396  1
  O  O57  1  0.61545965  0.87890888  0.89829165  1
  O  O58  1  0.38549831  0.89361772  0.12334604  1
