# generated using pymatgen
data_Na2W3O10
_symmetry_space_group_name_H-M   'P 1'
_cell_length_a   7.95814563
_cell_length_b   7.98290777
_cell_length_c   8.59650820
_cell_angle_alpha   80.55299048
_cell_angle_beta   90.00000000
_cell_angle_gamma   60.10255687
_symmetry_Int_Tables_number   1
_chemical_formula_structural   Na2W3O10
_chemical_formula_sum   'Na4 W6 O20'
_cell_volume   464.88622216
_cell_formula_units_Z   2
loop_
 _symmetry_equiv_pos_site_id
 _symmetry_equiv_pos_as_xyz
  1  'x, y, z'
loop_
 _atom_site_type_symbol
 _atom_site_label
 _atom_site_symmetry_multiplicity
 _atom_site_fract_x
 _atom_site_fract_y
 _atom_site_fract_z
 _atom_site_occupancy
  Na  Na0  1  0.78569945  0.64082553  0.65025637  1
  Na  Na1  1  0.57347503  0.64082553  0.15025637  1
  Na  Na2  1  0.42652497  0.35917447  0.84974363  1
  Na  Na3  1  0.21430055  0.35917447  0.34974363  1
  W  W4  1  0.19638043  0.77459921  0.51392994  1
  W  W5  1  0.02902035  0.77459921  0.01392994  1
  W  W6  1  0.97097965  0.22540079  0.98607006  1
  W  W7  1  0.80361957  0.22540079  0.48607006  1
  W  W8  1  0.30865057  0.00000000  0.75000000  1
  W  W9  1  0.69134943  0.00000000  0.25000000  1
  O  O10  1  0.11815816  0.95106945  0.90940928  1
  O  O11  1  0.50357425  0.87954551  0.90147423  1
  O  O12  1  0.93077239  0.95106945  0.40940928  1
  O  O13  1  0.61688025  0.87954551  0.40147423  1
  O  O14  1  0.37929447  0.74653752  0.67833477  1
  O  O15  1  0.93810775  0.72822286  0.84861557  1
  O  O16  1  0.87416702  0.74653752  0.17833477  1
  O  O17  1  0.33367039  0.72822286  0.34861557  1
  O  O18  1  0.17162690  0.56527808  0.57772271  1
  O  O19  1  0.26309602  0.56527808  0.07772271  1
  O  O20  1  0.73690398  0.43472192  0.92227729  1
  O  O21  1  0.82837310  0.43472192  0.42227729  1
  O  O22  1  0.66632961  0.27177714  0.65138443  1
  O  O23  1  0.12583298  0.25346248  0.82166523  1
  O  O24  1  0.06189225  0.27177714  0.15138443  1
  O  O25  1  0.62070553  0.25346248  0.32166523  1
  O  O26  1  0.38311975  0.12045449  0.59852577  1
  O  O27  1  0.06922761  0.04893055  0.59059072  1
  O  O28  1  0.49642575  0.12045449  0.09852577  1
  O  O29  1  0.88184184  0.04893055  0.09059072  1
