# generated using pymatgen
data_LiNi(PO3)4
_symmetry_space_group_name_H-M   'P 1'
_cell_length_a   7.40780930
_cell_length_b   9.16796770
_cell_length_c   8.85412082
_cell_angle_alpha   114.71739055
_cell_angle_beta   114.72891885
_cell_angle_gamma   66.17120720
_symmetry_Int_Tables_number   1
_chemical_formula_structural   LiNi(PO3)4
_chemical_formula_sum   'Li2 Ni2 P8 O24'
_cell_volume   476.63284832
_cell_formula_units_Z   2
loop_
 _symmetry_equiv_pos_site_id
 _symmetry_equiv_pos_as_xyz
  1  'x, y, z'
loop_
 _atom_site_type_symbol
 _atom_site_label
 _atom_site_symmetry_multiplicity
 _atom_site_fract_x
 _atom_site_fract_y
 _atom_site_fract_z
 _atom_site_occupancy
  Li  Li0  1  0.83085286  0.75000000  0.75000000  1
  Li  Li1  1  0.16914714  0.25000000  0.25000000  1
  Ni  Ni2  1  0.29048140  0.75000000  0.75000000  1
  Ni  Ni3  1  0.70951860  0.25000000  0.25000000  1
  P  P4  1  0.97056526  0.89370544  0.17643820  1
  P  P5  1  0.57052493  0.83807620  0.12764973  1
  P  P6  1  0.28095140  0.66192380  0.37235027  1
  P  P7  1  0.68783250  0.60629456  0.32356180  1
  P  P8  1  0.31216750  0.39370544  0.67643820  1
  P  P9  1  0.71904860  0.33807620  0.62764973  1
  P  P10  1  0.42947507  0.16192380  0.87235027  1
  P  P11  1  0.02943474  0.10629456  0.82356180  1
  O  O12  1  0.40381803  0.95783562  0.20323430  1
  O  O13  1  0.77346736  0.90192238  0.21781241  1
  O  O14  1  0.99120662  0.78028683  0.00435403  1
  O  O15  1  0.15489585  0.84124420  0.33816334  1
  O  O16  1  0.05009156  0.91989448  0.77878766  1
  O  O17  1  0.65797772  0.65875580  0.16183666  1
  O  O18  1  0.76714042  0.71971317  0.49564597  1
  O  O19  1  0.38924127  0.70988944  0.57057457  1
  O  O20  1  0.52855714  0.79011056  0.92942543  1
  O  O21  1  0.45757732  0.59807762  0.28218759  1
  O  O22  1  0.15841934  0.54216438  0.29676570  1
  O  O23  1  0.19119838  0.58010552  0.72121234  1
  O  O24  1  0.80880162  0.41989448  0.27878766  1
  O  O25  1  0.84158066  0.45783562  0.70323430  1
  O  O26  1  0.54242268  0.40192238  0.71781241  1
  O  O27  1  0.47144286  0.20988944  0.07057457  1
  O  O28  1  0.61075873  0.29011056  0.42942543  1
  O  O29  1  0.23285958  0.28028683  0.50435403  1
  O  O30  1  0.34202228  0.34124420  0.83816334  1
  O  O31  1  0.94990844  0.08010552  0.22121234  1
  O  O32  1  0.84510415  0.15875580  0.66183666  1
  O  O33  1  0.00879338  0.21971317  0.99564597  1
  O  O34  1  0.22653264  0.09807762  0.78218759  1
  O  O35  1  0.59618197  0.04216438  0.79676570  1
