# generated using pymatgen
data_BaCa2I6
_symmetry_space_group_name_H-M   'P 1'
_cell_length_a   9.39660532
_cell_length_b   10.37662530
_cell_length_c   16.10074130
_cell_angle_alpha   90.00000000
_cell_angle_beta   82.22411403
_cell_angle_gamma   90.00000000
_symmetry_Int_Tables_number   1
_chemical_formula_structural   BaCa2I6
_chemical_formula_sum   'Ba4 Ca8 I24'
_cell_volume   1555.46815939
_cell_formula_units_Z   4
loop_
 _symmetry_equiv_pos_site_id
 _symmetry_equiv_pos_as_xyz
  1  'x, y, z'
loop_
 _atom_site_type_symbol
 _atom_site_label
 _atom_site_symmetry_multiplicity
 _atom_site_fract_x
 _atom_site_fract_y
 _atom_site_fract_z
 _atom_site_occupancy
  Ba  Ba0  1  0.18337572  0.81975043  0.91276516  1
  Ba  Ba1  1  0.31662428  0.31975043  0.58723484  1
  Ba  Ba2  1  0.68337572  0.68024957  0.41276516  1
  Ba  Ba3  1  0.81662428  0.18024957  0.08723484  1
  Ca  Ca4  1  0.10083453  0.84794408  0.57512768  1
  Ca  Ca5  1  0.17657267  0.45984271  0.22684169  1
  Ca  Ca6  1  0.32342733  0.95984271  0.27315831  1
  Ca  Ca7  1  0.39916547  0.34794408  0.92487232  1
  Ca  Ca8  1  0.60083453  0.65205592  0.07512768  1
  Ca  Ca9  1  0.67657267  0.04015729  0.72684169  1
  Ca  Ca10  1  0.82342733  0.54015729  0.77315831  1
  Ca  Ca11  1  0.89916547  0.15205592  0.42487232  1
  I  I12  1  0.13732826  0.15419686  0.94425770  1
  I  I13  1  0.08551003  0.16276865  0.22482796  1
  I  I14  1  0.01739991  0.85029928  0.37568109  1
  I  I15  1  0.18521902  0.53609230  0.03795339  1
  I  I16  1  0.12042259  0.39096557  0.41705147  1
  I  I17  1  0.15106676  0.47644707  0.77442895  1
  I  I18  1  0.34893324  0.97644707  0.72557105  1
  I  I19  1  0.31478098  0.03609230  0.46204661  1
  I  I20  1  0.37957741  0.89096557  0.08294853  1
  I  I21  1  0.48260009  0.35029928  0.12431891  1
  I  I22  1  0.41448997  0.66276865  0.27517204  1
  I  I23  1  0.36267174  0.65419686  0.55574230  1
  I  I24  1  0.63732826  0.34580314  0.44425770  1
  I  I25  1  0.58551003  0.33723135  0.72482796  1
  I  I26  1  0.51739991  0.64970072  0.87568109  1
  I  I27  1  0.62042259  0.10903443  0.91705147  1
  I  I28  1  0.68521902  0.96390770  0.53795339  1
  I  I29  1  0.65106676  0.02355293  0.27442895  1
  I  I30  1  0.84893324  0.52355293  0.22557105  1
  I  I31  1  0.87957741  0.60903443  0.58294853  1
  I  I32  1  0.81478098  0.46390770  0.96204661  1
  I  I33  1  0.98260009  0.14970072  0.62431891  1
  I  I34  1  0.91448997  0.83723135  0.77517204  1
  I  I35  1  0.86267174  0.84580314  0.05574230  1
