# generated using pymatgen
data_Li10Cu4S9
_symmetry_space_group_name_H-M   'P 1'
_cell_length_a   11.59163042
_cell_length_b   11.59163042
_cell_length_c   5.65913865
_cell_angle_alpha   90.00000000
_cell_angle_beta   90.00000000
_cell_angle_gamma   90.00000000
_symmetry_Int_Tables_number   1
_chemical_formula_structural   Li10Cu4S9
_chemical_formula_sum   'Li20 Cu8 S18'
_cell_volume   760.39523413
_cell_formula_units_Z   2
loop_
 _symmetry_equiv_pos_site_id
 _symmetry_equiv_pos_as_xyz
  1  'x, y, z'
loop_
 _atom_site_type_symbol
 _atom_site_label
 _atom_site_symmetry_multiplicity
 _atom_site_fract_x
 _atom_site_fract_y
 _atom_site_fract_z
 _atom_site_occupancy
  Li  Li0  1  0.06502123  0.39861173  0.46538956  1
  Li  Li1  1  0.06502123  0.10138827  0.46538956  1
  Li  Li2  1  0.10138827  0.06502123  0.96538956  1
  Li  Li3  1  0.10138827  0.43497877  0.96538956  1
  Li  Li4  1  0.25000000  0.25000000  0.42353618  1
  Li  Li5  1  0.25000000  0.25000000  0.92353618  1
  Li  Li6  1  0.39861173  0.06502123  0.96538956  1
  Li  Li7  1  0.39861173  0.43497877  0.96538956  1
  Li  Li8  1  0.43497877  0.10138827  0.46538956  1
  Li  Li9  1  0.43497877  0.39861173  0.46538956  1
  Li  Li10  1  0.56502123  0.60138827  0.53461044  1
  Li  Li11  1  0.56502123  0.89861173  0.53461044  1
  Li  Li12  1  0.60138827  0.56502123  0.03461044  1
  Li  Li13  1  0.60138827  0.93497877  0.03461044  1
  Li  Li14  1  0.75000000  0.75000000  0.07646382  1
  Li  Li15  1  0.75000000  0.75000000  0.57646382  1
  Li  Li16  1  0.89861173  0.93497877  0.03461044  1
  Li  Li17  1  0.89861173  0.56502123  0.03461044  1
  Li  Li18  1  0.93497877  0.60138827  0.53461044  1
  Li  Li19  1  0.93497877  0.89861173  0.53461044  1
  Cu  Cu20  1  0.09555261  0.75000000  0.00641548  1
  Cu  Cu21  1  0.25000000  0.90444739  0.49358452  1
  Cu  Cu22  1  0.25000000  0.59555261  0.49358452  1
  Cu  Cu23  1  0.40444739  0.75000000  0.00641548  1
  Cu  Cu24  1  0.59555261  0.25000000  0.99358452  1
  Cu  Cu25  1  0.75000000  0.09555261  0.50641548  1
  Cu  Cu26  1  0.75000000  0.40444739  0.50641548  1
  Cu  Cu27  1  0.90444739  0.25000000  0.99358452  1
  S  S28  1  0.08970501  0.58970501  0.25000000  1
  S  S29  1  0.08970501  0.91029499  0.25000000  1
  S  S30  1  0.08324029  0.25000000  0.17422437  1
  S  S31  1  0.25000000  0.75000000  0.75000000  1
  S  S32  1  0.25000000  0.08324029  0.67422437  1
  S  S33  1  0.25000000  0.41675971  0.67422437  1
  S  S34  1  0.41675971  0.25000000  0.17422437  1
  S  S35  1  0.41029499  0.58970501  0.25000000  1
  S  S36  1  0.41029499  0.91029499  0.25000000  1
  S  S37  1  0.58970501  0.08970501  0.75000000  1
  S  S38  1  0.58970501  0.41029499  0.75000000  1
  S  S39  1  0.58324029  0.75000000  0.82577563  1
  S  S40  1  0.75000000  0.91675971  0.32577563  1
  S  S41  1  0.75000000  0.25000000  0.25000000  1
  S  S42  1  0.75000000  0.58324029  0.32577563  1
  S  S43  1  0.91675971  0.75000000  0.82577563  1
  S  S44  1  0.91029499  0.08970501  0.75000000  1
  S  S45  1  0.91029499  0.41029499  0.75000000  1
