# generated using pymatgen
data_Li2Mn2OF6
_symmetry_space_group_name_H-M   'P 1'
_cell_length_a   5.73346756
_cell_length_b   6.79242783
_cell_length_c   6.79242783
_cell_angle_alpha   87.41463046
_cell_angle_beta   95.28141623
_cell_angle_gamma   95.28141623
_symmetry_Int_Tables_number   1
_chemical_formula_structural   Li2Mn2OF6
_chemical_formula_sum   'Li4 Mn4 O2 F12'
_cell_volume   262.10507365
_cell_formula_units_Z   2
loop_
 _symmetry_equiv_pos_site_id
 _symmetry_equiv_pos_as_xyz
  1  'x, y, z'
loop_
 _atom_site_type_symbol
 _atom_site_label
 _atom_site_symmetry_multiplicity
 _atom_site_fract_x
 _atom_site_fract_y
 _atom_site_fract_z
 _atom_site_occupancy
  Li  Li0  1  0.32940775  0.52621587  0.76365219  1
  Li  Li1  1  0.17059225  0.23634781  0.47378413  1
  Li  Li2  1  0.82940775  0.76365219  0.52621587  1
  Li  Li3  1  0.67059225  0.47378413  0.23634781  1
  Mn  Mn4  1  0.01481946  0.74697695  0.01762914  1
  Mn  Mn5  1  0.98518054  0.25302305  0.98237086  1
  Mn  Mn6  1  0.51481946  0.01762914  0.74697695  1
  Mn  Mn7  1  0.48518054  0.98237086  0.25302305  1
  O  O8  1  0.25000000  0.96501804  0.03498196  1
  O  O9  1  0.75000000  0.03498196  0.96501804  1
  F  F10  1  0.04777047  0.73050435  0.74615547  1
  F  F11  1  0.01944950  0.29058209  0.70896057  1
  F  F12  1  0.98055050  0.70941791  0.29103943  1
  F  F13  1  0.95222953  0.26949565  0.25384453  1
  F  F14  1  0.27843779  0.98659866  0.52347311  1
  F  F15  1  0.22156221  0.47652689  0.01340134  1
  F  F16  1  0.54777047  0.74615547  0.73050435  1
  F  F17  1  0.48055050  0.29103943  0.70941791  1
  F  F18  1  0.51944950  0.70896057  0.29058209  1
  F  F19  1  0.45222953  0.25384453  0.26949565  1
  F  F20  1  0.77843779  0.52347311  0.98659866  1
  F  F21  1  0.72156221  0.01340134  0.47652689  1
