# generated using pymatgen
data_LiVSiO4
_symmetry_space_group_name_H-M   'P 1'
_cell_length_a   9.36837324
_cell_length_b   5.57673504
_cell_length_c   6.39358353
_cell_angle_alpha   105.91800449
_cell_angle_beta   103.90915874
_cell_angle_gamma   79.88332881
_symmetry_Int_Tables_number   1
_chemical_formula_structural   LiVSiO4
_chemical_formula_sum   'Li4 V4 Si4 O16'
_cell_volume   309.64338618
_cell_formula_units_Z   4
loop_
 _symmetry_equiv_pos_site_id
 _symmetry_equiv_pos_as_xyz
  1  'x, y, z'
loop_
 _atom_site_type_symbol
 _atom_site_label
 _atom_site_symmetry_multiplicity
 _atom_site_fract_x
 _atom_site_fract_y
 _atom_site_fract_z
 _atom_site_occupancy
  Li  Li0  1  0.11675968  0.30169168  0.37902991  1
  Li  Li1  1  0.23031935  0.79469301  0.43508984  1
  Li  Li2  1  0.76968065  0.20530699  0.56491016  1
  Li  Li3  1  0.88324032  0.69830832  0.62097009  1
  V  V4  1  0.20827377  0.72514984  0.93080569  1
  V  V5  1  0.42332670  0.22213218  0.16699614  1
  V  V6  1  0.57667330  0.77786782  0.83300386  1
  V  V7  1  0.79172623  0.27485016  0.06919431  1
  Si  Si8  1  0.09086485  0.18272298  0.82594730  1
  Si  Si9  1  0.46062176  0.31509309  0.70735170  1
  Si  Si10  1  0.53937824  0.68490691  0.29264830  1
  Si  Si11  1  0.90913515  0.81727702  0.17405270  1
  O  O12  1  0.12797658  0.39251896  0.71875519  1
  O  O13  1  0.10925771  0.88348163  0.67834403  1
  O  O14  1  0.08023438  0.75810118  0.14130524  1
  O  O15  1  0.20783152  0.14756653  0.06125700  1
  O  O16  1  0.44188380  0.11705819  0.84242075  1
  O  O17  1  0.38929353  0.61391007  0.79095475  1
  O  O18  1  0.38279966  0.21793379  0.45126347  1
  O  O19  1  0.36296555  0.62825193  0.22711404  1
  O  O20  1  0.63703445  0.37174807  0.77288596  1
  O  O21  1  0.61720034  0.78206621  0.54873653  1
  O  O22  1  0.61070647  0.38608993  0.20904525  1
  O  O23  1  0.55811620  0.88294181  0.15757925  1
  O  O24  1  0.79216848  0.85243347  0.93874300  1
  O  O25  1  0.91976562  0.24189882  0.85869476  1
  O  O26  1  0.89074229  0.11651837  0.32165597  1
  O  O27  1  0.87202342  0.60748104  0.28124481  1
