# generated using pymatgen
data_Li4MnOF5
_symmetry_space_group_name_H-M   'P 1'
_cell_length_a   5.92398419
_cell_length_b   5.88614475
_cell_length_c   12.90041104
_cell_angle_alpha   89.88298008
_cell_angle_beta   89.94186130
_cell_angle_gamma   60.21106505
_symmetry_Int_Tables_number   1
_chemical_formula_structural   Li4MnOF5
_chemical_formula_sum   'Li12 Mn3 O3 F15'
_cell_volume   390.38925057
_cell_formula_units_Z   3
loop_
 _symmetry_equiv_pos_site_id
 _symmetry_equiv_pos_as_xyz
  1  'x, y, z'
loop_
 _atom_site_type_symbol
 _atom_site_label
 _atom_site_symmetry_multiplicity
 _atom_site_fract_x
 _atom_site_fract_y
 _atom_site_fract_z
 _atom_site_occupancy
  Li  Li0  1  0.99450089  0.33241443  0.78843770  1
  Li  Li1  1  0.98808901  0.33327046  0.48486405  1
  Li  Li2  1  0.33450483  0.00021757  0.62546398  1
  Li  Li3  1  0.31750035  0.00169220  0.32697751  1
  Li  Li4  1  0.99876217  0.66808841  0.62546398  1
  Li  Li5  1  0.66663300  0.00538941  0.79195885  1
  Li  Li6  1  0.01576665  0.65255855  0.32697751  1
  Li  Li7  1  0.66663300  0.01098321  0.48613195  1
  Li  Li8  1  0.66663300  0.99978472  0.17054793  1
  Li  Li9  1  0.33876611  0.66028232  0.78843770  1
  Li  Li10  1  0.34517799  0.65472547  0.48486405  1
  Li  Li11  1  0.66663300  0.35147156  0.32609919  1
  Mn  Mn12  1  0.00031054  0.66784350  0.98053028  1
  Mn  Mn13  1  0.66663300  0.33671695  0.98069104  1
  Mn  Mn14  1  0.33295646  0.00152004  0.98053028  1
  O  O15  1  0.99994917  0.32812062  0.97087677  1
  O  O16  1  0.33331683  0.66143680  0.97087677  1
  O  O17  1  0.66663300  0.99509489  0.96228937  1
  F  F18  1  0.04826364  0.33268358  0.64903682  1
  F  F19  1  0.32496996  0.99988726  0.82745104  1
  F  F20  1  0.33892890  0.00066567  0.48055191  1
  F  F21  1  0.00121057  0.33404065  0.32707383  1
  F  F22  1  0.36158241  0.00065435  0.12368390  1
  F  F23  1  0.00829704  0.65822422  0.82745104  1
  F  F24  1  0.99433810  0.67296058  0.48055191  1
  F  F25  1  0.97168459  0.69560276  0.12368390  1
  F  F26  1  0.66663300  0.95117594  0.65241469  1
  F  F27  1  0.66663300  0.99924417  0.31292910  1
  F  F28  1  0.28500336  0.71431322  0.64903682  1
  F  F29  1  0.66663300  0.34079642  0.82657303  1
  F  F30  1  0.66663300  0.33018669  0.47753391  1
  F  F31  1  0.33205643  0.66861722  0.32707383  1
  F  F32  1  0.66663300  0.30644917  0.12386135  1
