# generated using pymatgen
data_LiVSiO4
_symmetry_space_group_name_H-M   'P 1'
_cell_length_a   4.86250887
_cell_length_b   9.45856797
_cell_length_c   5.54478949
_cell_angle_alpha   90.00000000
_cell_angle_beta   90.00000000
_cell_angle_gamma   90.00000000
_symmetry_Int_Tables_number   1
_chemical_formula_structural   LiVSiO4
_chemical_formula_sum   'Li4 V4 Si4 O16'
_cell_volume   255.01801341
_cell_formula_units_Z   4
loop_
 _symmetry_equiv_pos_site_id
 _symmetry_equiv_pos_as_xyz
  1  'x, y, z'
loop_
 _atom_site_type_symbol
 _atom_site_label
 _atom_site_symmetry_multiplicity
 _atom_site_fract_x
 _atom_site_fract_y
 _atom_site_fract_z
 _atom_site_occupancy
  Li  Li0  1  0.05667359  0.61118152  0.25000000  1
  Li  Li1  1  0.44332641  0.11118152  0.25000000  1
  Li  Li2  1  0.55667359  0.88881848  0.75000000  1
  Li  Li3  1  0.94332641  0.38881848  0.75000000  1
  V  V4  1  0.01957166  0.72405433  0.75000000  1
  V  V5  1  0.48042834  0.22405433  0.75000000  1
  V  V6  1  0.51957166  0.77594567  0.25000000  1
  V  V7  1  0.98042834  0.27594567  0.25000000  1
  Si  Si8  1  0.00000000  0.00000000  0.00000000  1
  Si  Si9  1  0.00000000  0.00000000  0.50000000  1
  Si  Si10  1  0.50000000  0.50000000  0.50000000  1
  Si  Si11  1  0.50000000  0.50000000  0.00000000  1
  O  O12  1  0.27571382  0.43341772  0.25000000  1
  O  O13  1  0.30348882  0.66042053  0.99544168  1
  O  O14  1  0.30348882  0.66042053  0.50455832  1
  O  O15  1  0.18720794  0.92656196  0.75000000  1
  O  O16  1  0.31279206  0.42656196  0.75000000  1
  O  O17  1  0.19651118  0.16042053  0.99544168  1
  O  O18  1  0.19651118  0.16042053  0.50455832  1
  O  O19  1  0.22428618  0.93341772  0.25000000  1
  O  O20  1  0.77571382  0.06658228  0.75000000  1
  O  O21  1  0.80348882  0.83957947  0.49544168  1
  O  O22  1  0.80348882  0.83957947  0.00455832  1
  O  O23  1  0.68720794  0.57343804  0.25000000  1
  O  O24  1  0.81279206  0.07343804  0.25000000  1
  O  O25  1  0.69651118  0.33957847  0.49544168  1
  O  O26  1  0.69651118  0.33957847  0.00455832  1
  O  O27  1  0.72428618  0.56658228  0.75000000  1
