# generated using pymatgen
data_Li2Si2NiO6
_symmetry_space_group_name_H-M   'P 1'
_cell_length_a   9.59919782
_cell_length_b   4.72675199
_cell_length_c   5.40131185
_cell_angle_alpha   90.00000000
_cell_angle_beta   87.89981344
_cell_angle_gamma   90.00000000
_symmetry_Int_Tables_number   1
_chemical_formula_structural   Li2Si2NiO6
_chemical_formula_sum   'Li4 Si4 Ni2 O12'
_cell_volume   244.90924813
_cell_formula_units_Z   2
loop_
 _symmetry_equiv_pos_site_id
 _symmetry_equiv_pos_as_xyz
  1  'x, y, z'
loop_
 _atom_site_type_symbol
 _atom_site_label
 _atom_site_symmetry_multiplicity
 _atom_site_fract_x
 _atom_site_fract_y
 _atom_site_fract_z
 _atom_site_occupancy
  Li  Li0  1  0.32343145  0.81333331  0.32609666  1
  Li  Li1  1  0.47679623  0.29776039  0.15945227  1
  Li  Li2  1  0.52320377  0.79776039  0.84054773  1
  Li  Li3  1  0.67656855  0.31333331  0.67390334  1
  Si  Si4  1  0.18141311  0.77518940  0.85466353  1
  Si  Si5  1  0.34599419  0.28015184  0.68642101  1
  Si  Si6  1  0.65400581  0.78015184  0.31357899  1
  Si  Si7  1  0.81858689  0.27518940  0.14533647  1
  Ni  Ni8  1  0.11265133  0.39040179  0.37177652  1
  Ni  Ni9  1  0.88734867  0.89040179  0.62822348  1
  O  O10  1  0.06236126  0.68773431  0.65892547  1
  O  O11  1  0.16584954  0.68459117  0.13868522  1
  O  O12  1  0.21683900  0.11957962  0.84639786  1
  O  O13  1  0.32792795  0.63201396  0.72437985  1
  O  O14  1  0.31581243  0.22239636  0.39571938  1
  O  O15  1  0.49400882  0.20114886  0.79673166  1
  O  O16  1  0.50599118  0.70114886  0.20326834  1
  O  O17  1  0.68418757  0.72239636  0.60428062  1
  O  O18  1  0.67207205  0.13201396  0.27562015  1
  O  O19  1  0.78316100  0.61957962  0.15360214  1
  O  O20  1  0.83415046  0.18459117  0.86131478  1
  O  O21  1  0.93763874  0.18773431  0.34107453  1
