# generated using pymatgen
data_KLiSb3O8
_symmetry_space_group_name_H-M   'P 1'
_cell_length_a   7.64739162
_cell_length_b   6.48632972
_cell_length_c   7.69557259
_cell_angle_alpha   101.49313007
_cell_angle_beta   93.96040589
_cell_angle_gamma   77.37970714
_symmetry_Int_Tables_number   1
_chemical_formula_structural   KLiSb3O8
_chemical_formula_sum   'K2 Li2 Sb6 O16'
_cell_volume   364.90523228
_cell_formula_units_Z   2
loop_
 _symmetry_equiv_pos_site_id
 _symmetry_equiv_pos_as_xyz
  1  'x, y, z'
loop_
 _atom_site_type_symbol
 _atom_site_label
 _atom_site_symmetry_multiplicity
 _atom_site_fract_x
 _atom_site_fract_y
 _atom_site_fract_z
 _atom_site_occupancy
  K  K0  1  0.97141526  0.81004076  0.00019704  1
  K  K1  1  0.98637268  0.30877838  0.02445593  1
  Li  Li2  1  0.78052685  0.44039813  0.50612246  1
  Li  Li3  1  0.52496124  0.81302048  0.77800891  1
  Sb  Sb4  1  0.81566605  0.92021666  0.49180937  1
  Sb  Sb5  1  0.48618721  0.17109493  0.16637338  1
  Sb  Sb6  1  0.49184946  0.66748922  0.17214809  1
  Sb  Sb7  1  0.52310143  0.31590195  0.80460703  1
  Sb  Sb8  1  0.17896006  0.09312308  0.52502031  1
  Sb  Sb9  1  0.18054592  0.58313578  0.52245135  1
  O  O10  1  0.96114647  0.08066345  0.36940618  1
  O  O11  1  0.97127391  0.63335909  0.35469856  1
  O  O12  1  0.64882111  0.93092138  0.27681031  1
  O  O13  1  0.60671409  0.39395181  0.29460694  1
  O  O14  1  0.34490536  0.95817726  0.06429814  1
  O  O15  1  0.34810493  0.40699917  0.02579358  1
  O  O16  1  0.71190845  0.21869756  0.62579952  1
  O  O17  1  0.71718528  0.74942308  0.61482666  1
  O  O18  1  0.28342400  0.27551478  0.37215613  1
  O  O19  1  0.29634010  0.78304433  0.41165304  1
  O  O20  1  0.64766639  0.10081824  0.95568213  1
  O  O21  1  0.64550512  0.54567749  0.94193486  1
  O  O22  1  0.38078948  0.09245704  0.69856048  1
  O  O23  1  0.38085307  0.56507821  0.69965003  1
  O  O24  1  0.05384304  0.90354838  0.66050678  1
  O  O25  1  0.06193304  0.39807034  0.64242279  1
