# generated using pymatgen
data_LiMn3(O2F)2
_symmetry_space_group_name_H-M   'P 1'
_cell_length_a   5.06725663
_cell_length_b   5.55258159
_cell_length_c   5.30969176
_cell_angle_alpha   120.11544356
_cell_angle_beta   60.10154330
_cell_angle_gamma   114.13466731
_symmetry_Int_Tables_number   1
_chemical_formula_structural   LiMn3(O2F)2
_chemical_formula_sum   'Li1 Mn3 O4 F2'
_cell_volume   109.49015492
_cell_formula_units_Z   1
loop_
 _symmetry_equiv_pos_site_id
 _symmetry_equiv_pos_as_xyz
  1  'x, y, z'
loop_
 _atom_site_type_symbol
 _atom_site_label
 _atom_site_symmetry_multiplicity
 _atom_site_fract_x
 _atom_site_fract_y
 _atom_site_fract_z
 _atom_site_occupancy
  Li  Li0  1  0.61926611  0.90741476  0.62726802  1
  Mn  Mn1  1  0.15762412  0.44063331  0.14904274  1
  Mn  Mn2  1  0.38370893  0.07570101  0.34672623  1
  Mn  Mn3  1  0.83311692  0.51320729  0.85038344  1
  O  O4  1  0.08458765  0.27719295  0.46103861  1
  O  O5  1  0.53374479  0.73326246  0.22478446  1
  O  O6  1  0.78623759  0.27936881  0.06177364  1
  O  O7  1  0.43815593  0.25118315  0.74056157  1
  F  F8  1  0.23980198  0.79336992  0.96880762  1
  F  F9  1  0.92375598  0.72866534  0.56961267  1
