# generated using pymatgen
data_LiVSiO4
_symmetry_space_group_name_H-M   'P 1'
_cell_length_a   8.57676539
_cell_length_b   5.41809898
_cell_length_c   8.24555094
_cell_angle_alpha   90.00000000
_cell_angle_beta   105.36958441
_cell_angle_gamma   90.00000000
_symmetry_Int_Tables_number   1
_chemical_formula_structural   LiVSiO4
_chemical_formula_sum   'Li4 V4 Si4 O16'
_cell_volume   369.46524729
_cell_formula_units_Z   4
loop_
 _symmetry_equiv_pos_site_id
 _symmetry_equiv_pos_as_xyz
  1  'x, y, z'
loop_
 _atom_site_type_symbol
 _atom_site_label
 _atom_site_symmetry_multiplicity
 _atom_site_fract_x
 _atom_site_fract_y
 _atom_site_fract_z
 _atom_site_occupancy
  Li  Li0  1  0.07280122  0.85281028  0.96973692  1
  Li  Li1  1  0.29288719  0.33864414  0.51010376  1
  Li  Li2  1  0.57280122  0.14718972  0.96973692  1
  Li  Li3  1  0.79288719  0.66135586  0.51010376  1
  V  V4  1  0.20634648  0.34035543  0.86645384  1
  V  V5  1  0.38147919  0.83139044  0.36280524  1
  V  V6  1  0.70634648  0.65964457  0.86645384  1
  V  V7  1  0.88147919  0.16860956  0.36280524  1
  Si  Si8  1  0.00646988  0.66917837  0.24603487  1
  Si  Si9  1  0.33018107  0.83625348  0.74060269  1
  Si  Si10  1  0.50646988  0.33082163  0.24603487  1
  Si  Si11  1  0.83018107  0.16374652  0.74060269  1
  O  O12  1  0.00985114  0.17990562  0.87805785  1
  O  O13  1  0.04091555  0.38480746  0.31484193  1
  O  O14  1  0.19850516  0.69162165  0.82194319  1
  O  O15  1  0.27944141  0.12966447  0.70467819  1
  O  O16  1  0.17281292  0.78525993  0.21253430  1
  O  O17  1  0.34123757  0.69464778  0.56779007  1
  O  O18  1  0.50985114  0.82009438  0.87805785  1
  O  O19  1  0.43686056  0.17653158  0.38526369  1
  O  O20  1  0.38401066  0.29079586  0.05795347  1
  O  O21  1  0.54091555  0.61519254  0.31484193  1
  O  O22  1  0.69850516  0.30837835  0.82194319  1
  O  O23  1  0.77944141  0.87033553  0.70467819  1
  O  O24  1  0.67281292  0.21474007  0.21253430  1
  O  O25  1  0.84123757  0.30535222  0.56779007  1
  O  O26  1  0.93686056  0.82346842  0.38526369  1
  O  O27  1  0.88401066  0.70920414  0.05795347  1
