# generated using pymatgen
data_Li8Cr3TeO12
_symmetry_space_group_name_H-M   'P 1'
_cell_length_a   5.02900139
_cell_length_b   5.04750014
_cell_length_c   8.58375321
_cell_angle_alpha   89.99996557
_cell_angle_beta   90.00025323
_cell_angle_gamma   89.51760672
_symmetry_Int_Tables_number   1
_chemical_formula_structural   Li8Cr3TeO12
_chemical_formula_sum   'Li8 Cr3 Te1 O12'
_cell_volume   217.88128373
_cell_formula_units_Z   1
loop_
 _symmetry_equiv_pos_site_id
 _symmetry_equiv_pos_as_xyz
  1  'x, y, z'
loop_
 _atom_site_type_symbol
 _atom_site_label
 _atom_site_symmetry_multiplicity
 _atom_site_fract_x
 _atom_site_fract_y
 _atom_site_fract_z
 _atom_site_occupancy
  Li  Li0  1  0.00000113  0.50000202  0.58368147  1
  Li  Li1  1  0.00000012  0.49999983  0.29226611  1
  Li  Li2  1  0.49999823  0.49999831  0.25541377  1
  Li  Li3  1  0.49999633  0.49999036  0.91940721  1
  Li  Li4  1  0.00000536  0.00001005  0.44843658  1
  Li  Li5  1  0.00000505  0.00000420  0.73245144  1
  Li  Li6  1  0.50000021  0.99999420  0.07660661  1
  Li  Li7  1  0.50000345  0.99999400  0.75578002  1
  Cr  Cr8  1  0.50002652  0.49999977  0.59485248  1
  Cr  Cr9  1  0.50000080  0.00000624  0.42690817  1
  Cr  Cr10  1  0.99999103  0.49999751  0.90500445  1
  Te  Te11  1  0.00000038  0.00000188  0.09795125  1
  O  O12  1  0.23672251  0.84664561  0.25239027  1
  O  O13  1  0.21880861  0.83224218  0.93312689  1
  O  O14  1  0.27442296  0.82693795  0.58484101  1
  O  O15  1  0.71579323  0.66483663  0.43404320  1
  O  O16  1  0.77969303  0.68358271  0.08351385  1
  O  O17  1  0.74048261  0.64845929  0.75388116  1
  O  O18  1  0.25950725  0.35154619  0.75387993  1
  O  O19  1  0.22029965  0.31642699  0.08351361  1
  O  O20  1  0.28421290  0.33515910  0.43404081  1
  O  O21  1  0.72557875  0.17306096  0.58484455  1
  O  O22  1  0.78118103  0.16776075  0.93312766  1
  O  O23  1  0.76327786  0.15335227  0.25239149  1
