# generated using pymatgen
data_Ti10O11
_symmetry_space_group_name_H-M   'P 1'
_cell_length_a   32.78106553
_cell_length_b   22.46350389
_cell_length_c   10.42604457
_cell_angle_alpha   29.14859579
_cell_angle_beta   30.50524418
_cell_angle_gamma   6.56425015
_symmetry_Int_Tables_number   1
_chemical_formula_structural   Ti10O11
_chemical_formula_sum   'Ti20 O22'
_cell_volume   424.96117705
_cell_formula_units_Z   2
loop_
 _symmetry_equiv_pos_site_id
 _symmetry_equiv_pos_as_xyz
  1  'x, y, z'
loop_
 _atom_site_type_symbol
 _atom_site_label
 _atom_site_symmetry_multiplicity
 _atom_site_fract_x
 _atom_site_fract_y
 _atom_site_fract_z
 _atom_site_occupancy
  Ti  Ti0  1  0.09087687  0.00002971  0.00003254  1
  Ti  Ti1  1  0.09087573  0.00008550  0.49999223  1
  Ti  Ti2  1  0.28147659  0.99266470  0.99791185  1
  Ti  Ti3  1  0.16573624  0.01523690  0.50522854  1
  Ti  Ti4  1  0.33573110  0.03500453  0.99257033  1
  Ti  Ti5  1  0.26964722  0.01322622  0.50431480  1
  Ti  Ti6  1  0.47067616  0.98180073  0.00818561  1
  Ti  Ti7  1  0.33133249  0.04280135  0.49653236  1
  Ti  Ti8  1  0.51221376  0.04796859  0.98583514  1
  Ti  Ti9  1  0.49273433  0.93917155  0.52695941  1
  Ti  Ti10  1  0.66961386  0.95204177  0.01410412  1
  Ti  Ti11  1  0.52397397  0.03575822  0.49307495  1
  Ti  Ti12  1  0.71124000  0.01805320  0.99180507  1
  Ti  Ti13  1  0.65782046  0.96428259  0.50690225  1
  Ti  Ti14  1  0.84602063  0.96506270  0.00750838  1
  Ti  Ti15  1  0.68922821  0.06063120  0.47296534  1
  Ti  Ti16  1  0.90036741  0.00727324  0.00215222  1
  Ti  Ti17  1  0.85052704  0.95713469  0.50348477  1
  Ti  Ti18  1  0.91225015  0.98666230  0.49569806  1
  Ti  Ti19  1  0.01583328  0.98511660  0.49474613  1
  O  O20  1  0.00777508  0.56816124  0.21072039  1
  O  O21  1  0.16742435  0.44590038  0.28353267  1
  O  O22  1  0.01451017  0.55393784  0.71645006  1
  O  O23  1  0.23886936  0.48105132  0.24594217  1
  O  O24  1  0.17408747  0.43178213  0.78924055  1
  O  O25  1  0.31345233  0.51201800  0.24195999  1
  O  O26  1  0.19553613  0.55830608  0.71294214  1
  O  O27  1  0.40448334  0.50841799  0.23459665  1
  O  O28  1  0.33781637  0.46754710  0.76859657  1
  O  O29  1  0.51829670  0.47376958  0.26123962  1
  O  O30  1  0.40407399  0.50470447  0.74721477  1
  O  O31  1  0.59332596  0.49625883  0.24648416  1
  O  O32  1  0.50728458  0.49046319  0.75043709  1
  O  O33  1  0.67448049  0.50959074  0.24959003  1
  O  O34  1  0.58842801  0.50379400  0.75362962  1
  O  O35  1  0.77779717  0.49523348  0.25279054  1
  O  O36  1  0.66355254  0.52615889  0.73882268  1
  O  O37  1  0.84391876  0.53264463  0.23123229  1
  O  O38  1  0.77724853  0.49169244  0.76541520  1
  O  O39  1  0.98626160  0.44171787  0.28709549  1
  O  O40  1  0.86841798  0.48791676  0.75800664  1
  O  O41  1  0.94296558  0.51892674  0.75405659  1
