# generated using pymatgen
data_Li2DyPCO7
_symmetry_space_group_name_H-M   'P 1'
_cell_length_a   9.13956315
_cell_length_b   6.76341064
_cell_length_c   4.92255095
_cell_angle_alpha   90.00000000
_cell_angle_beta   86.63694041
_cell_angle_gamma   90.00000000
_symmetry_Int_Tables_number   1
_chemical_formula_structural   Li2DyPCO7
_chemical_formula_sum   'Li4 Dy2 P2 C2 O14'
_cell_volume   303.76158628
_cell_formula_units_Z   2
loop_
 _symmetry_equiv_pos_site_id
 _symmetry_equiv_pos_as_xyz
  1  'x, y, z'
loop_
 _atom_site_type_symbol
 _atom_site_label
 _atom_site_symmetry_multiplicity
 _atom_site_fract_x
 _atom_site_fract_y
 _atom_site_fract_z
 _atom_site_occupancy
  Li  Li0  1  0.19899249  0.01842166  0.19959797  1
  Li  Li1  1  0.19899249  0.48157834  0.19959797  1
  Li  Li2  1  0.80100751  0.51842166  0.80040203  1
  Li  Li3  1  0.80100751  0.98157834  0.80040203  1
  Dy  Dy4  1  0.36579315  0.75000000  0.73844344  1
  Dy  Dy5  1  0.63420685  0.25000000  0.26155656  1
  P  P6  1  0.40521402  0.25000000  0.72835160  1
  P  P7  1  0.59478598  0.75000000  0.27164840  1
  C  C8  1  0.06482452  0.75000000  0.74237467  1
  C  C9  1  0.93517548  0.25000000  0.25762533  1
  O  O10  1  0.07361681  0.25000000  0.27035660  1
  O  O11  1  0.12931571  0.75000000  0.97332327  1
  O  O12  1  0.15396872  0.75000000  0.52121386  1
  O  O13  1  0.33461757  0.06448668  0.86263051  1
  O  O14  1  0.33461757  0.43551332  0.86263051  1
  O  O15  1  0.42434468  0.75000000  0.23852090  1
  O  O16  1  0.39040912  0.25000000  0.41515558  1
  O  O17  1  0.60959088  0.75000000  0.58484442  1
  O  O18  1  0.57565532  0.25000000  0.76147910  1
  O  O19  1  0.66538243  0.56448668  0.13736949  1
  O  O20  1  0.66538243  0.93551332  0.13736949  1
  O  O21  1  0.84603128  0.25000000  0.47878614  1
  O  O22  1  0.87068429  0.25000000  0.02667673  1
  O  O23  1  0.92638319  0.75000000  0.72964340  1
