# generated using pymatgen
data_Mg6CoSn
_symmetry_space_group_name_H-M   'P 1'
_cell_length_a   6.12778362
_cell_length_b   6.12778315
_cell_length_c   4.86215689
_cell_angle_alpha   90.00000000
_cell_angle_beta   90.00000000
_cell_angle_gamma   119.34182444
_symmetry_Int_Tables_number   1
_chemical_formula_structural   Mg6CoSn
_chemical_formula_sum   'Mg6 Co1 Sn1'
_cell_volume   159.15075552
_cell_formula_units_Z   1
loop_
 _symmetry_equiv_pos_site_id
 _symmetry_equiv_pos_as_xyz
  1  'x, y, z'
loop_
 _atom_site_type_symbol
 _atom_site_label
 _atom_site_symmetry_multiplicity
 _atom_site_fract_x
 _atom_site_fract_y
 _atom_site_fract_z
 _atom_site_occupancy
  Mg  Mg0  1  0.16348897  0.82858154  0.25000000  1
  Mg  Mg1  1  0.67141846  0.33651103  0.25000000  1
  Mg  Mg2  1  0.66637184  0.83362816  0.25000000  1
  Mg  Mg3  1  0.32676025  0.65158264  0.75000000  1
  Mg  Mg4  1  0.84841736  0.17323975  0.75000000  1
  Mg  Mg5  1  0.83166611  0.66833389  0.75000000  1
  Co  Co6  1  0.16581544  0.33418456  0.25000000  1
  Sn  Sn7  1  0.32606156  0.17393844  0.75000000  1
