# generated using pymatgen
data_Li2TmPCO7
_symmetry_space_group_name_H-M   'P 1'
_cell_length_a   8.96827333
_cell_length_b   6.74673191
_cell_length_c   4.90168460
_cell_angle_alpha   90.00000000
_cell_angle_beta   87.18458201
_cell_angle_gamma   90.00000000
_symmetry_Int_Tables_number   1
_chemical_formula_structural   Li2TmPCO7
_chemical_formula_sum   'Li4 Tm2 P2 C2 O14'
_cell_volume   296.22596540
_cell_formula_units_Z   2
loop_
 _symmetry_equiv_pos_site_id
 _symmetry_equiv_pos_as_xyz
  1  'x, y, z'
loop_
 _atom_site_type_symbol
 _atom_site_label
 _atom_site_symmetry_multiplicity
 _atom_site_fract_x
 _atom_site_fract_y
 _atom_site_fract_z
 _atom_site_occupancy
  Li  Li0  1  0.20610012  0.01323465  0.20736995  1
  Li  Li1  1  0.20610012  0.48676535  0.20736995  1
  Li  Li2  1  0.79389988  0.51323465  0.79263005  1
  Li  Li3  1  0.79389988  0.98676535  0.79263005  1
  Tm  Tm4  1  0.35863468  0.75000000  0.75061641  1
  Tm  Tm5  1  0.64136532  0.25000000  0.24938359  1
  P  P6  1  0.41135190  0.25000000  0.72108338  1
  P  P7  1  0.58864810  0.75000000  0.27891662  1
  C  C8  1  0.05741408  0.75000000  0.73939390  1
  C  C9  1  0.94258592  0.25000000  0.26060610  1
  O  O10  1  0.08321858  0.25000000  0.28032970  1
  O  O11  1  0.12152625  0.75000000  0.97434587  1
  O  O12  1  0.15055082  0.75000000  0.52169762  1
  O  O13  1  0.33672659  0.06420759  0.84980692  1
  O  O14  1  0.33672659  0.43579241  0.84980692  1
  O  O15  1  0.41596400  0.75000000  0.23167808  1
  O  O16  1  0.40189268  0.25000000  0.40519092  1
  O  O17  1  0.59810732  0.75000000  0.59480908  1
  O  O18  1  0.58403600  0.25000000  0.76832192  1
  O  O19  1  0.66327341  0.56420759  0.15019308  1
  O  O20  1  0.66327341  0.93579241  0.15019308  1
  O  O21  1  0.84944918  0.25000000  0.47830238  1
  O  O22  1  0.87847375  0.25000000  0.02565413  1
  O  O23  1  0.91678142  0.75000000  0.71967030  1
