# generated using pymatgen
data_Li2MnOF2
_symmetry_space_group_name_H-M   'P 1'
_cell_length_a   6.03987461
_cell_length_b   6.21235799
_cell_length_c   4.18661406
_cell_angle_alpha   90.00000000
_cell_angle_beta   90.00000000
_cell_angle_gamma   60.91426608
_symmetry_Int_Tables_number   1
_chemical_formula_structural   Li2MnOF2
_chemical_formula_sum   'Li4 Mn2 O2 F4'
_cell_volume   137.27951259
_cell_formula_units_Z   2
loop_
 _symmetry_equiv_pos_site_id
 _symmetry_equiv_pos_as_xyz
  1  'x, y, z'
loop_
 _atom_site_type_symbol
 _atom_site_label
 _atom_site_symmetry_multiplicity
 _atom_site_fract_x
 _atom_site_fract_y
 _atom_site_fract_z
 _atom_site_occupancy
  Li  Li0  1  0.49851376  0.66497426  0.94579537  1
  Li  Li1  1  0.83651198  0.66497426  0.44579537  1
  Li  Li2  1  0.50148624  0.33502574  0.44579537  1
  Li  Li3  1  0.16348802  0.33502574  0.94579537  1
  Mn  Mn4  1  0.82779028  1.00000000  0.94555396  1
  Mn  Mn5  1  0.17220972  0.00000000  0.44555396  1
  O  O6  1  0.81483532  1.00000000  0.44546760  1
  O  O7  1  0.18516468  0.00000000  0.94546760  1
  F  F8  1  0.83610149  0.64086162  0.94459385  1
  F  F9  1  0.52303689  0.64086162  0.44459385  1
  F  F10  1  0.47696311  0.35913838  0.94459385  1
  F  F11  1  0.16389851  0.35913838  0.44459385  1
