# generated using pymatgen
data_Li4Mn3(OF3)2
_symmetry_space_group_name_H-M   'P 1'
_cell_length_a   5.36275714
_cell_length_b   6.13968368
_cell_length_c   5.39146629
_cell_angle_alpha   89.27061328
_cell_angle_beta   79.90818549
_cell_angle_gamma   72.77824352
_symmetry_Int_Tables_number   1
_chemical_formula_structural   Li4Mn3(OF3)2
_chemical_formula_sum   'Li4 Mn3 O2 F6'
_cell_volume   166.79052398
_cell_formula_units_Z   1
loop_
 _symmetry_equiv_pos_site_id
 _symmetry_equiv_pos_as_xyz
  1  'x, y, z'
loop_
 _atom_site_type_symbol
 _atom_site_label
 _atom_site_symmetry_multiplicity
 _atom_site_fract_x
 _atom_site_fract_y
 _atom_site_fract_z
 _atom_site_occupancy
  Li  Li0  1  0.01504003  0.00382507  0.01752449  1
  Li  Li1  1  0.98495997  0.24617493  0.48247551  1
  Li  Li2  1  0.00882422  0.48636866  0.98160721  1
  Li  Li3  1  0.99117578  0.76363134  0.51839279  1
  Mn  Mn4  1  0.50000000  0.12500000  0.75000000  1
  Mn  Mn5  1  0.49409249  0.36717329  0.24824953  1
  Mn  Mn6  1  0.50590751  0.88282671  0.25175047  1
  O  O7  1  0.26757307  0.18228811  0.10529834  1
  O  O8  1  0.73242693  0.06771189  0.39470166  1
  F  F9  1  0.77481374  0.29824708  0.88241925  1
  F  F10  1  0.20743915  0.43887719  0.61414614  1
  F  F11  1  0.23745462  0.69578404  0.16442405  1
  F  F12  1  0.76254538  0.55421596  0.33557595  1
  F  F13  1  0.22518626  0.95175292  0.61758075  1
  F  F14  1  0.79256085  0.81112281  0.88585386  1
