# generated using pymatgen
data_Ca28(Yb5S16)3
_symmetry_space_group_name_H-M   'P 1'
_cell_length_a   8.03901971
_cell_length_b   8.04920567
_cell_length_c   48.34194136
_cell_angle_alpha   60.00046211
_cell_angle_beta   59.94723472
_cell_angle_gamma   59.92692937
_symmetry_Int_Tables_number   1
_chemical_formula_structural   Ca28(Yb5S16)3
_chemical_formula_sum   'Ca28 Yb15 S48'
_cell_volume   2209.80027097
_cell_formula_units_Z   1
loop_
 _symmetry_equiv_pos_site_id
 _symmetry_equiv_pos_as_xyz
  1  'x, y, z'
loop_
 _atom_site_type_symbol
 _atom_site_label
 _atom_site_symmetry_multiplicity
 _atom_site_fract_x
 _atom_site_fract_y
 _atom_site_fract_z
 _atom_site_occupancy
  Yb  Yb0  1  0.25009367  0.25479999  0.12509835  1
  Yb  Yb1  1  0.24990476  0.24977492  0.29163744  1
  Yb  Yb2  1  0.25088737  0.74997644  0.20818185  1
  Yb  Yb3  1  0.75836882  0.75294295  0.12262367  1
  Yb  Yb4  1  0.25038927  0.75015374  0.37488523  1
  Yb  Yb5  1  0.24984481  0.24986079  0.45835519  1
  Yb  Yb6  1  0.75001140  0.75004439  0.29165027  1
  Yb  Yb7  1  0.24990960  0.24989936  0.62502367  1
  Yb  Yb8  1  0.24944289  0.75014129  0.54171497  1
  Yb  Yb9  1  0.75008441  0.75009948  0.45828643  1
  Yb  Yb10  1  0.24840232  0.75086509  0.70836257  1
  Yb  Yb11  1  0.74998650  0.74999190  0.62499980  1
  Yb  Yb12  1  0.24925795  0.75002466  0.87511433  1
  Yb  Yb13  1  0.74742308  0.74739617  0.79296570  1
  Yb  Yb14  1  0.74415239  0.74893169  0.95966824  1
  Ca  Ca15  1  0.25089419  0.24958790  0.04169960  1
  Ca  Ca16  1  0.74892806  0.25095490  0.04175122  1
  Ca  Ca17  1  0.25030543  0.74384557  0.12503029  1
  Ca  Ca18  1  0.74889622  0.74926878  0.04187268  1
  Ca  Ca19  1  0.74066912  0.24688028  0.12760381  1
  Ca  Ca20  1  0.75071476  0.25093513  0.20819035  1
  Ca  Ca21  1  0.24987193  0.75038714  0.29166395  1
  Ca  Ca22  1  0.75036868  0.24977326  0.29167781  1
  Ca  Ca23  1  0.75073108  0.74917792  0.20818948  1
  Ca  Ca24  1  0.75011095  0.25031705  0.37491669  1
  Ca  Ca25  1  0.24985504  0.75017736  0.45835085  1
  Ca  Ca26  1  0.75009412  0.75005899  0.37492245  1
  Ca  Ca27  1  0.75014459  0.24988245  0.45835001  1
  Ca  Ca28  1  0.75015572  0.24951041  0.54169335  1
  Ca  Ca29  1  0.24989869  0.75002711  0.62503873  1
  Ca  Ca30  1  0.25062610  0.25058727  0.79028138  1
  Ca  Ca31  1  0.75002721  0.24990485  0.62503651  1
  Ca  Ca32  1  0.75015217  0.75018010  0.54169215  1
  Ca  Ca33  1  0.75076303  0.24838987  0.70837106  1
  Ca  Ca34  1  0.25061336  0.75712324  0.79028631  1
  Ca  Ca35  1  0.25016364  0.24978768  0.87504593  1
  Ca  Ca36  1  0.24968422  0.24318824  0.95972942  1
  Ca  Ca37  1  0.75083182  0.75097241  0.70825088  1
  Ca  Ca38  1  0.75750124  0.25068194  0.79019535  1
  Ca  Ca39  1  0.75009379  0.24920182  0.87507242  1
  Ca  Ca40  1  0.24970380  0.74879073  0.95970627  1
  Ca  Ca41  1  0.75009741  0.75026357  0.87507219  1
  Ca  Ca42  1  0.75258052  0.25199622  0.95723377  1
  S  S43  1  0.99137770  0.00694386  0.99907534  1
  S  S44  1  0.00369482  0.99855372  0.16683267  1
  S  S45  1  0.50777832  0.49140626  0.08453179  1
  S  S46  1  0.00146376  0.99995202  0.33337087  1
  S  S47  1  0.49747949  0.00130781  0.08366303  1
  S  S48  1  0.50695000  0.51183657  0.16562058  1
  S  S49  1  0.99357397  0.48879396  0.08483727  1
  S  S50  1  0.49838794  0.49989803  0.25006074  1
  S  S51  1  0.00156698  0.99998270  0.50000819  1
  S  S52  1  0.50582351  0.98863671  0.16544603  1
  S  S53  1  0.99230621  0.00996464  0.08459456  1
  S  S54  1  0.99166254  0.50730667  0.16531346  1
  S  S55  1  0.50620380  0.99370960  0.25144184  1
  S  S56  1  0.50575586  0.50793341  0.33236398  1
  S  S57  1  0.99514568  0.50700050  0.25125998  1
  S  S58  1  0.49851251  0.50003448  0.41665192  1
  S  S59  1  0.00211292  0.00048065  0.66647440  1
  S  S60  1  0.50458462  0.99336078  0.33218422  1
  S  S61  1  0.99394133  0.99126041  0.25109757  1
  S  S62  1  0.99427260  0.50576004  0.33198695  1
  S  S63  1  0.50582971  0.99398591  0.41808587  1
  S  S64  1  0.50600469  0.50834367  0.49896413  1
  S  S65  1  0.49868003  0.50015657  0.58326544  1
  S  S66  1  0.99521058  0.50685960  0.41787579  1
  S  S67  1  0.00062311  0.99910039  0.83353503  1
  S  S68  1  0.50480160  0.99310202  0.49879152  1
  S  S69  1  0.99400919  0.99170265  0.41769961  1
  S  S70  1  0.99407265  0.50609399  0.49857573  1
  S  S71  1  0.50581114  0.99422129  0.58466818  1
  S  S72  1  0.50637896  0.50866252  0.66552219  1
  S  S73  1  0.99545022  0.50678523  0.58446339  1
  S  S74  1  0.49943271  0.50106231  0.74979661  1
  S  S75  1  0.50511512  0.99337064  0.66527943  1
  S  S76  1  0.99429770  0.99198770  0.58428859  1
  S  S77  1  0.99431229  0.50632955  0.66508108  1
  S  S78  1  0.50950547  0.99180648  0.75110640  1
  S  S79  1  0.49833714  0.49989047  0.83362004  1
  S  S80  1  0.99294294  0.51047451  0.75090282  1
  S  S81  1  0.49746240  0.50202192  0.91640787  1
  S  S82  1  0.49830957  0.00008087  0.83361955  1
  S  S83  1  0.99298433  0.99099138  0.75097088  1
  S  S84  1  0.00088250  0.49898241  0.83351912  1
  S  S85  1  0.50096146  0.99886762  0.91689155  1
  S  S86  1  0.50849114  0.49181727  0.99889476  1
  S  S87  1  0.00156012  0.50273040  0.91656550  1
  S  S88  1  0.50856692  0.00608704  0.99897199  1
  S  S89  1  -0.00020010  0.50066217  0.99986923  1
  S  S90  1  0.00153570  0.99634553  0.91655967  1
