# generated using pymatgen
data_Li12Mn2Fe3O16
_symmetry_space_group_name_H-M   'P 1'
_cell_length_a   5.81716474
_cell_length_b   5.93553208
_cell_length_c   9.73529660
_cell_angle_alpha   91.32209943
_cell_angle_beta   89.71965245
_cell_angle_gamma   59.78996797
_symmetry_Int_Tables_number   1
_chemical_formula_structural   Li12Mn2Fe3O16
_chemical_formula_sum   'Li12 Mn2 Fe3 O16'
_cell_volume   290.35741346
_cell_formula_units_Z   1
loop_
 _symmetry_equiv_pos_site_id
 _symmetry_equiv_pos_as_xyz
  1  'x, y, z'
loop_
 _atom_site_type_symbol
 _atom_site_label
 _atom_site_symmetry_multiplicity
 _atom_site_fract_x
 _atom_site_fract_y
 _atom_site_fract_z
 _atom_site_occupancy
  Li  Li0  1  0.15409952  0.69569900  0.04087797  1
  Li  Li1  1  0.97167675  0.01668955  0.48721022  1
  Li  Li2  1  0.65369902  0.13951428  0.76848900  1
  Li  Li3  1  0.81946305  0.36171724  0.26372374  1
  Li  Li4  1  0.77505808  0.41858866  0.51750363  1
  Li  Li5  1  0.66148450  0.18457648  0.02302485  1
  Li  Li6  1  0.16838308  0.14666042  0.77094053  1
  Li  Li7  1  0.67961612  0.61238377  0.76708171  1
  Li  Li8  1  0.17065062  0.19099430  0.02201458  1
  Li  Li9  1  0.81645923  0.79493920  0.55887908  1
  Li  Li10  1  0.32280574  0.36267486  0.25465806  1
  Li  Li11  1  0.35621143  0.80383988  0.55964553  1
  Mn  Mn12  1  0.33254951  0.30335505  0.53013994  1
  Mn  Mn13  1  0.66202778  0.67557103  0.01867309  1
  Fe  Fe14  1  0.81403092  0.84750105  0.27823070  1
  Fe  Fe15  1  0.16318342  0.65392982  0.78449566  1
  Fe  Fe16  1  0.31980257  0.85079722  0.28034940  1
  O  O17  1  0.63980799  0.17266831  0.40422596  1
  O  O18  1  0.82329795  0.36386458  0.92128799  1
  O  O19  1  0.47816817  0.01652225  0.63860284  1
  O  O20  1  0.96036156  0.55012649  0.14876695  1
  O  O21  1  0.15557273  0.16910609  0.40789322  1
  O  O22  1  0.82918429  0.82184814  0.90397780  1
  O  O23  1  0.31774495  0.36799743  0.89450756  1
  O  O24  1  0.47804333  0.47356330  0.64539285  1
  O  O25  1  0.63543496  0.69679450  0.38757284  1
  O  O26  1  0.48556143  0.55355435  0.14984903  1
  O  O27  1  0.01410731  0.47311320  0.64615461  1
  O  O28  1  0.35189328  0.81854866  0.90247629  1
  O  O29  1  0.14709200  0.67634145  0.39951705  1
  O  O30  1  0.49543213  0.00129790  0.14835727  1
  O  O31  1  0.01509697  0.94316043  0.67502257  1
  O  O32  1  0.99599761  0.00290710  0.18070050  1
