# generated using pymatgen
data_Li4V2Cr3Co3O16
_symmetry_space_group_name_H-M   'P 1'
_cell_length_a   5.82394963
_cell_length_b   5.82860566
_cell_length_c   9.30407784
_cell_angle_alpha   90.00500595
_cell_angle_beta   89.75520498
_cell_angle_gamma   120.02863089
_symmetry_Int_Tables_number   1
_chemical_formula_structural   Li4V2Cr3Co3O16
_chemical_formula_sum   'Li4 V2 Cr3 Co3 O16'
_cell_volume   273.43600519
_cell_formula_units_Z   1
loop_
 _symmetry_equiv_pos_site_id
 _symmetry_equiv_pos_as_xyz
  1  'x, y, z'
loop_
 _atom_site_type_symbol
 _atom_site_label
 _atom_site_symmetry_multiplicity
 _atom_site_fract_x
 _atom_site_fract_y
 _atom_site_fract_z
 _atom_site_occupancy
  Li  Li0  1  0.33812053  0.66909797  0.89348393  1
  Li  Li1  1  0.98857802  0.99430761  0.99233165  1
  Li  Li2  1  0.98927908  0.99463848  0.49773124  1
  Li  Li3  1  0.67150439  0.33575555  0.39930021  1
  V  V4  1  0.33306785  0.66650029  0.49830634  1
  V  V5  1  0.66622910  0.33310274  0.99320107  1
  Cr  Cr6  1  0.17241918  0.82845096  0.21486859  1
  Cr  Cr7  1  0.17249531  0.34399900  0.21487861  1
  Cr  Cr8  1  0.34344718  0.17172351  0.71569755  1
  Co  Co9  1  0.65404828  0.82703257  0.21810957  1
  Co  Co10  1  0.82703511  0.65488047  0.71501332  1
  Co  Co11  1  0.82702747  0.17217633  0.71503324  1
  O  O12  1  0.16993069  0.82371533  0.59305700  1
  O  O13  1  0.04539922  0.52269834  0.34658294  1
  O  O14  1  0.33677629  0.66844378  0.10065399  1
  O  O15  1  0.99701183  0.99847037  0.30860814  1
  O  O16  1  0.98831000  0.99414200  0.80500213  1
  O  O17  1  0.16993041  0.34619693  0.59304506  1
  O  O18  1  0.48099214  0.95896709  0.34786090  1
  O  O19  1  0.48099411  0.52202698  0.34792889  1
  O  O20  1  0.34463781  0.17232706  0.08810858  1
  O  O21  1  0.65003236  0.82503786  0.59794485  1
  O  O22  1  0.53193377  0.48514901  0.84294648  1
  O  O23  1  0.53195481  0.04684719  0.84294935  1
  O  O24  1  0.67802343  0.33903343  0.60901070  1
  O  O25  1  0.82834574  0.65002426  0.09031545  1
  O  O26  1  0.95411559  0.47706668  0.83557112  1
  O  O27  1  0.82835930  0.17848620  0.09030008  1
