# generated using pymatgen
data_Li8NbS6
_symmetry_space_group_name_H-M   'P 1'
_cell_length_a   6.97370061
_cell_length_b   6.95340800
_cell_length_c   13.48645876
_cell_angle_alpha   90.09817643
_cell_angle_beta   89.81441355
_cell_angle_gamma   120.00134561
_symmetry_Int_Tables_number   1
_chemical_formula_structural   Li8NbS6
_chemical_formula_sum   'Li16 Nb2 S12'
_cell_volume   566.34543257
_cell_formula_units_Z   2
loop_
 _symmetry_equiv_pos_site_id
 _symmetry_equiv_pos_as_xyz
  1  'x, y, z'
loop_
 _atom_site_type_symbol
 _atom_site_label
 _atom_site_symmetry_multiplicity
 _atom_site_fract_x
 _atom_site_fract_y
 _atom_site_fract_z
 _atom_site_occupancy
  Li  Li0  1  0.00006487  0.67893900  0.76572277  1
  Li  Li1  1  0.99992300  0.62048967  0.13135729  1
  Li  Li2  1  0.99979709  0.37927939  0.63117383  1
  Li  Li3  1  0.00013515  0.32117701  0.26579115  1
  Li  Li4  1  0.33288296  0.66619393  0.39950461  1
  Li  Li5  1  0.33323282  0.66691525  0.89960060  1
  Li  Li6  1  0.32090001  0.32087098  0.76576943  1
  Li  Li7  1  0.37963399  0.37974631  0.13138818  1
  Li  Li8  1  0.61986804  0.62009719  0.63140895  1
  Li  Li9  1  0.32092385  0.00014364  0.26553098  1
  Li  Li10  1  0.67914579  0.67916067  0.26565495  1
  Li  Li11  1  0.38023661  0.00004843  0.63172885  1
  Li  Li12  1  0.66667242  0.33378567  0.89960993  1
  Li  Li13  1  0.66721162  0.33360224  0.39949296  1
  Li  Li14  1  0.62007553  0.00002118  0.13135314  1
  Li  Li15  1  0.67926504  0.00002233  0.76587164  1
  Nb  Nb16  1  0.00191967  0.00205513  0.99800993  1
  Nb  Nb17  1  -0.00017791  0.99779384  0.49819970  1
  S  S18  1  0.00015833  0.67609261  0.94993281  1
  S  S19  1  -0.00016950  0.32408688  0.44973198  1
  S  S20  1  0.33328182  0.66665007  0.21567513  1
  S  S21  1  -0.00006396  0.00007200  0.17542926  1
  S  S22  1  0.00023535  0.99952534  0.67526781  1
  S  S23  1  0.33333961  0.66672251  0.71576259  1
  S  S24  1  0.32219919  0.32160230  0.95032855  1
  S  S25  1  0.32344781  0.00099383  0.45030633  1
  S  S26  1  0.67644776  0.67762004  0.45017030  1
  S  S27  1  0.66667115  0.33334126  0.71578268  1
  S  S28  1  0.66667311  0.33335834  0.21566998  1
  S  S29  1  0.67586978  -0.00040604  0.95003470  1
