# generated using pymatgen
data_LiVSiO4
_symmetry_space_group_name_H-M   'P 1'
_cell_length_a   6.56103343
_cell_length_b   9.52252526
_cell_length_c   5.89647680
_cell_angle_alpha   93.69530154
_cell_angle_beta   100.85348538
_cell_angle_gamma   75.75055080
_symmetry_Int_Tables_number   1
_chemical_formula_structural   LiVSiO4
_chemical_formula_sum   'Li4 V4 Si4 O16'
_cell_volume   350.61276652
_cell_formula_units_Z   4
loop_
 _symmetry_equiv_pos_site_id
 _symmetry_equiv_pos_as_xyz
  1  'x, y, z'
loop_
 _atom_site_type_symbol
 _atom_site_label
 _atom_site_symmetry_multiplicity
 _atom_site_fract_x
 _atom_site_fract_y
 _atom_site_fract_z
 _atom_site_occupancy
  Li  Li0  1  0.15807130  0.25765485  0.58529729  1
  Li  Li1  1  0.33576423  0.67221352  0.44090561  1
  Li  Li2  1  0.66423577  0.32778648  0.55909439  1
  Li  Li3  1  0.84192870  0.74234515  0.41470271  1
  V  V4  1  0.07008591  0.70794853  0.98870375  1
  V  V5  1  0.35693165  0.92591173  0.81133618  1
  V  V6  1  0.64306835  0.07408827  0.18866382  1
  V  V7  1  0.92991409  0.29205147  0.01129625  1
  Si  Si8  1  0.28878826  0.38205522  0.14924708  1
  Si  Si9  1  0.17467466  0.99881071  0.28322385  1
  Si  Si10  1  0.82532534  0.00118929  0.71677615  1
  Si  Si11  1  0.71121174  0.61794478  0.85075292  1
  O  O12  1  0.26798051  0.04828983  0.54676486  1
  O  O13  1  0.11618139  0.35339208  0.30086968  1
  O  O14  1  0.17715561  0.32594039  0.89445471  1
  O  O15  1  0.05752015  0.88686156  0.80870980  1
  O  O16  1  0.34479349  0.01917075  0.11519785  1
  O  O17  1  0.29722708  0.55291597  0.16023564  1
  O  O18  1  0.16059665  0.83116246  0.27733457  1
  O  O19  1  0.46602142  0.71670642  0.75882360  1
  O  O20  1  0.53397858  0.28329358  0.24117640  1
  O  O21  1  0.83940335  0.16883754  0.72266543  1
  O  O22  1  0.70277292  0.44708403  0.83976436  1
  O  O23  1  0.65520651  0.98082925  0.88480215  1
  O  O24  1  0.94247985  0.11313844  0.19129020  1
  O  O25  1  0.82284439  0.67405961  0.10554529  1
  O  O26  1  0.88381861  0.64660792  0.69913032  1
  O  O27  1  0.73201949  0.95171017  0.45323514  1
