# generated using pymatgen
data_Y2Ti2O7
_symmetry_space_group_name_H-M   'P 1'
_cell_length_a   7.36587496
_cell_length_b   15.45005307
_cell_length_c   13.10591285
_cell_angle_alpha   28.54475649
_cell_angle_beta   54.68876864
_cell_angle_gamma   60.18596260
_symmetry_Int_Tables_number   1
_chemical_formula_structural   Y2Ti2O7
_chemical_formula_sum   'Y8 Ti8 O28'
_cell_volume   581.36946237
_cell_formula_units_Z   4
loop_
 _symmetry_equiv_pos_site_id
 _symmetry_equiv_pos_as_xyz
  1  'x, y, z'
loop_
 _atom_site_type_symbol
 _atom_site_label
 _atom_site_symmetry_multiplicity
 _atom_site_fract_x
 _atom_site_fract_y
 _atom_site_fract_z
 _atom_site_occupancy
  Y  Y0  1  0.00304991  0.99578697  0.00970381  1
  Y  Y1  1  0.96729409  0.25561830  0.49871223  1
  Y  Y2  1  0.47389778  0.03031857  0.48031511  1
  Y  Y3  1  0.04852723  0.21579249  0.02623627  1
  Y  Y4  1  0.46264149  0.76184702  0.00142202  1
  Y  Y5  1  0.94762752  0.99337880  0.53501096  1
  Y  Y6  1  0.50886395  0.50009613  0.50622292  1
  Y  Y7  1  0.55633325  0.69823404  0.54768094  1
  Ti  Ti8  1  0.50277546  0.94534253  0.07317756  1
  Ti  Ti9  1  0.97696660  0.73073291  0.99422748  1
  Ti  Ti10  1  0.51175478  0.21200799  0.03296277  1
  Ti  Ti11  1  0.02891282  0.47579417  0.50988406  1
  Ti  Ti12  1  0.41259221  0.53827281  0.02735643  1
  Ti  Ti13  1  0.91052936  0.72445980  0.60171162  1
  Ti  Ti14  1  0.54530635  0.27986519  0.43624439  1
  Ti  Ti15  1  0.07560183  0.50336671  0.96032714  1
  O  O16  1  0.22518521  0.03617035  0.03514251  1
  O  O17  1  0.24233826  0.10849352  0.25095398  1
  O  O18  1  0.65590061  0.99501441  0.16518834  1
  O  O19  1  0.07781992  0.99598133  0.65069724  1
  O  O20  1  0.12099327  0.53267932  0.07339110  1
  O  O21  1  0.67002617  0.19877101  0.12209007  1
  O  O22  1  0.15171633  0.27549699  0.59913621  1
  O  O23  1  0.11317613  0.72173253  0.20782568  1
  O  O24  1  0.37029845  0.28517826  0.31623114  1
  O  O25  1  0.53659716  0.51621521  0.14383514  1
  O  O26  1  0.14928336  0.42406963  0.64659412  1
  O  O27  1  0.84982937  0.95946512  0.43515730  1
  O  O28  1  0.55273917  0.03368558  0.63338662  1
  O  O29  1  0.58236080  0.30783809  0.53048729  1
  O  O30  1  0.86837881  0.28986787  0.30063971  1
  O  O31  1  0.54972640  0.79429775  0.10377476  1
  O  O32  1  0.14174161  0.74149234  0.65971146  1
  O  O33  1  0.41487200  0.26879740  0.86878793  1
  O  O34  1  0.43549161  0.73823860  0.38629830  1
  O  O35  1  0.87854876  0.54239878  0.30833700  1
  O  O36  1  0.35551245  0.44038683  0.91810456  1
  O  O37  1  0.73230905  0.45892251  0.65273051  1
  O  O38  1  0.92042348  0.75055842  0.44022991  1
  O  O39  1  0.58668312  0.69007432  0.72872652  1
  O  O40  1  0.29425977  0.75195049  0.90899804  1
  O  O41  1  0.95672401  0.47700824  0.88658838  1
  O  O42  1  0.82615784  0.73749991  0.91474523  1
  O  O43  1  0.80190125  0.04288179  0.87337524  1
