# generated using pymatgen
data_Li4Ti4V4NiO18
_symmetry_space_group_name_H-M   'P 1'
_cell_length_a   9.20960286
_cell_length_b   24.55182217
_cell_length_c   2.96811596
_cell_angle_alpha   90.09185652
_cell_angle_beta   90.06057870
_cell_angle_gamma   90.06767226
_symmetry_Int_Tables_number   1
_chemical_formula_structural   Li4Ti4V4NiO18
_chemical_formula_sum   'Li8 Ti8 V8 Ni2 O36'
_cell_volume   671.12650714
_cell_formula_units_Z   2
loop_
 _symmetry_equiv_pos_site_id
 _symmetry_equiv_pos_as_xyz
  1  'x, y, z'
loop_
 _atom_site_type_symbol
 _atom_site_label
 _atom_site_symmetry_multiplicity
 _atom_site_fract_x
 _atom_site_fract_y
 _atom_site_fract_z
 _atom_site_occupancy
  Li  Li0  1  0.19677385  0.99071383  -0.00004729  1
  Li  Li1  1  0.19361074  0.18983967  0.99999558  1
  Li  Li2  1  0.30569888  0.68962429  0.00004074  1
  Li  Li3  1  0.29948025  0.49100526  0.00006428  1
  Li  Li4  1  0.70007705  0.50942096  -0.00002909  1
  Li  Li5  1  0.69423149  0.31017618  0.99994428  1
  Li  Li6  1  0.80718821  0.81009209  0.99999462  1
  Li  Li7  1  0.80339927  0.00941814  0.00004430  1
  Ti  Ti8  1  0.99580307  0.10112771  0.00013457  1
  Ti  Ti9  1  0.16064314  0.80637632  0.50000342  1
  Ti  Ti10  1  0.33903152  0.30587954  0.49991384  1
  Ti  Ti11  1  0.50445701  0.60119557  0.00058110  1
  Ti  Ti12  1  0.49480544  0.39872027  0.99956092  1
  Ti  Ti13  1  0.66089625  0.69390741  0.50009980  1
  Ti  Ti14  1  0.83932012  0.19356852  0.49998622  1
  Ti  Ti15  1  0.00430100  0.89888437  -0.00011799  1
  V  V16  1  0.99349906  0.31546086  0.00072223  1
  V  V17  1  0.15009579  0.58738889  0.49401886  1
  V  V18  1  0.34889755  0.08788775  0.49994481  1
  V  V19  1  0.50454796  0.81648801  -0.00001773  1
  V  V20  1  0.49572248  0.18335297  0.00001463  1
  V  V21  1  0.65130164  0.91203837  0.50005297  1
  V  V22  1  0.85035184  0.41259827  0.50499469  1
  V  V23  1  0.00584702  0.68421803  -0.00076846  1
  Ni  Ni24  1  -0.00108591  0.50033116  0.00052144  1
  Ni  Ni25  1  0.50003560  0.99978076  0.00001817  1
  O  O26  1  0.99018388  0.40472097  -0.00357868  1
  O  O27  1  0.00917564  0.59556143  0.00402582  1
  O  O28  1  0.05898155  0.94444182  0.50035582  1
  O  O29  1  0.03999612  0.15810993  0.50018874  1
  O  O30  1  0.15342573  0.66631481  0.49955881  1
  O  O31  1  0.11213407  0.75722124  -0.00029373  1
  O  O32  1  0.14831344  0.51010866  0.50463957  1
  O  O33  1  0.13196518  0.29492062  0.49968843  1
  O  O34  1  0.18663685  0.85878257  0.00029178  1
  O  O35  1  0.20304406  0.08406096  -0.00015426  1
  O  O36  1  0.29507838  0.58372552  0.99644620  1
  O  O37  1  0.31314248  0.35865033  0.00011248  1
  O  O38  1  0.36841320  0.79484596  0.49982598  1
  O  O39  1  0.35181765  0.01093199  0.49986325  1
  O  O40  1  0.38672848  0.25647173  -0.00013183  1
  O  O41  1  0.34572796  0.16554385  0.49995736  1
  O  O42  1  0.46045223  0.65797578  0.49989613  1
  O  O43  1  0.44203252  0.44414637  0.50054228  1
  O  O44  1  0.49118404  0.09583209  0.00013368  1
  O  O45  1  0.50891850  0.90434711  -0.00013277  1
  O  O46  1  0.55799775  0.55575557  0.49930607  1
  O  O47  1  0.53949619  0.34199644  0.50003196  1
  O  O48  1  0.65424131  0.83446565  0.50004251  1
  O  O49  1  0.61332396  0.74349432  0.00013131  1
  O  O50  1  0.64852522  0.98908933  0.50014715  1
  O  O51  1  0.63162445  0.20517100  0.50017292  1
  O  O52  1  0.68682633  0.64135890  0.99988393  1
  O  O53  1  0.70499763  0.41631632  0.00254865  1
  O  O54  1  0.79707802  0.91590513  0.00015337  1
  O  O55  1  0.81329702  0.14122190  0.99969740  1
  O  O56  1  0.86812292  0.70508489  0.50039351  1
  O  O57  1  0.85237298  0.49043774  0.49666065  1
  O  O58  1  0.88763237  0.24272750  0.00024276  1
  O  O59  1  0.84709219  0.33319030  0.50023210  1
  O  O60  1  0.96006440  0.84193576  0.49980204  1
  O  O61  1  0.94102500  0.05564033  0.49964772  1
