# generated using pymatgen
data_BaY3Cl11
_symmetry_space_group_name_H-M   'P 1'
_cell_length_a   7.43759843
_cell_length_b   9.40236934
_cell_length_c   35.11222864
_cell_angle_alpha   90.00000000
_cell_angle_beta   90.00000000
_cell_angle_gamma   90.00000000
_symmetry_Int_Tables_number   1
_chemical_formula_structural   BaY3Cl11
_chemical_formula_sum   'Ba4 Y12 Cl44'
_cell_volume   2455.43492680
_cell_formula_units_Z   4
loop_
 _symmetry_equiv_pos_site_id
 _symmetry_equiv_pos_as_xyz
  1  'x, y, z'
loop_
 _atom_site_type_symbol
 _atom_site_label
 _atom_site_symmetry_multiplicity
 _atom_site_fract_x
 _atom_site_fract_y
 _atom_site_fract_z
 _atom_site_occupancy
  Ba  Ba0  1  0.22899938  0.90225535  0.21068921  1
  Ba  Ba1  1  0.27100062  0.09774465  0.71068821  1
  Ba  Ba2  1  0.72899938  0.59774465  0.78931179  1
  Ba  Ba3  1  0.77100062  0.40225535  0.28931079  1
  Y  Y4  1  0.24334424  0.25273928  0.08868142  1
  Y  Y5  1  0.24065051  0.58810375  0.96808551  1
  Y  Y6  1  0.23290291  0.93993319  0.85021229  1
  Y  Y7  1  0.26709709  0.06006681  0.35021229  1
  Y  Y8  1  0.25934949  0.41189625  0.46808551  1
  Y  Y9  1  0.25665576  0.74726072  0.58868142  1
  Y  Y10  1  0.74334424  0.24726072  0.91131858  1
  Y  Y11  1  0.74065051  0.91189625  0.03191449  1
  Y  Y12  1  0.73290291  0.56006681  0.14978771  1
  Y  Y13  1  0.76709709  0.43993319  0.64978771  1
  Y  Y14  1  0.75934949  0.08810375  0.53191449  1
  Y  Y15  1  0.75665576  0.75273928  0.41131858  1
  Cl  Cl16  1  0.04782313  0.11264765  0.89477807  1
  Cl  Cl17  1  0.03449360  0.45044234  0.12116031  1
  Cl  Cl18  1  0.10759973  0.23752264  0.30087858  1
  Cl  Cl19  1  0.01658993  0.76996944  0.00165411  1
  Cl  Cl20  1  0.03224197  0.59456888  0.43464995  1
  Cl  Cl21  1  0.04253705  0.94793159  0.55934696  1
  Cl  Cl22  1  0.07138648  0.32736340  0.67298580  1
  Cl  Cl23  1  0.22284807  0.13045948  0.79477904  1
  Cl  Cl24  1  0.24962522  0.14037152  0.15685439  1
  Cl  Cl25  1  0.23317253  0.41361574  0.02682570  1
  Cl  Cl26  1  0.24317103  0.25434725  0.40586089  1
  Cl  Cl27  1  0.25682897  0.74565275  0.90586089  1
  Cl  Cl28  1  0.26682747  0.58638426  0.52682570  1
  Cl  Cl29  1  0.25037478  0.85962848  0.65685439  1
  Cl  Cl30  1  0.27715193  0.86954052  0.29477904  1
  Cl  Cl31  1  0.42861352  0.67263660  0.17298580  1
  Cl  Cl32  1  0.45746295  0.05206841  0.05934696  1
  Cl  Cl33  1  0.46775803  0.40543112  0.93464995  1
  Cl  Cl34  1  0.48341007  0.23003056  0.50165411  1
  Cl  Cl35  1  0.39240027  0.76247736  0.80087858  1
  Cl  Cl36  1  0.46550640  0.54955766  0.62116031  1
  Cl  Cl37  1  0.45217687  0.88735235  0.39477807  1
  Cl  Cl38  1  0.54782313  0.38735235  0.10522193  1
  Cl  Cl39  1  0.53449360  0.04955766  0.87883969  1
  Cl  Cl40  1  0.60759973  0.26247736  0.69912142  1
  Cl  Cl41  1  0.51658993  0.73003056  0.99834589  1
  Cl  Cl42  1  0.53224197  0.90543112  0.56535005  1
  Cl  Cl43  1  0.54253705  0.55206841  0.44065304  1
  Cl  Cl44  1  0.57138648  0.17263660  0.32701420  1
  Cl  Cl45  1  0.72284807  0.36954052  0.20522096  1
  Cl  Cl46  1  0.74962522  0.35962848  0.84314561  1
  Cl  Cl47  1  0.73317253  0.08638426  0.97317430  1
  Cl  Cl48  1  0.74317103  0.24565275  0.59413911  1
  Cl  Cl49  1  0.75682897  0.75434725  0.09413911  1
  Cl  Cl50  1  0.76682747  0.91361574  0.47317430  1
  Cl  Cl51  1  0.75037478  0.64037152  0.34314561  1
  Cl  Cl52  1  0.77715193  0.63045948  0.70522096  1
  Cl  Cl53  1  0.92861352  0.82736340  0.82701420  1
  Cl  Cl54  1  0.95746295  0.44793159  0.94065304  1
  Cl  Cl55  1  0.96775803  0.09456888  0.06535005  1
  Cl  Cl56  1  0.98341007  0.26996944  0.49834589  1
  Cl  Cl57  1  0.89240027  0.73752264  0.19912142  1
  Cl  Cl58  1  0.96550640  0.95044234  0.37883969  1
  Cl  Cl59  1  0.95217687  0.61264765  0.60522193  1
