# generated using pymatgen
data_Li5BO4
_symmetry_space_group_name_H-M   'P 1'
_cell_length_a   8.70293555
_cell_length_b   8.94574983
_cell_length_c   8.59244400
_cell_angle_alpha   90.00000000
_cell_angle_beta   90.00000000
_cell_angle_gamma   90.00000000
_symmetry_Int_Tables_number   1
_chemical_formula_structural   Li5BO4
_chemical_formula_sum   'Li40 B8 O32'
_cell_volume   668.95857729
_cell_formula_units_Z   8
loop_
 _symmetry_equiv_pos_site_id
 _symmetry_equiv_pos_as_xyz
  1  'x, y, z'
loop_
 _atom_site_type_symbol
 _atom_site_label
 _atom_site_symmetry_multiplicity
 _atom_site_fract_x
 _atom_site_fract_y
 _atom_site_fract_z
 _atom_site_occupancy
  Li  Li0  1  0.17719576  0.12927890  0.40729624  1
  Li  Li1  1  0.17719576  0.37072110  0.90729624  1
  Li  Li2  1  0.08723568  0.59674072  0.56939313  1
  Li  Li3  1  0.08723568  0.90325928  0.06939313  1
  Li  Li4  1  0.14445593  0.85870862  0.36575322  1
  Li  Li5  1  0.14445593  0.64129138  0.86575322  1
  Li  Li6  1  0.12366084  0.40929942  0.18593885  1
  Li  Li7  1  0.12366084  0.09070058  0.68593885  1
  Li  Li8  1  0.08283188  0.65377912  0.14013351  1
  Li  Li9  1  0.08283188  0.84622088  0.64013351  1
  Li  Li10  1  0.41716812  0.15377912  0.14013351  1
  Li  Li11  1  0.41716812  0.34622088  0.64013351  1
  Li  Li12  1  0.37633916  0.90929942  0.18593885  1
  Li  Li13  1  0.37633916  0.59070058  0.68593885  1
  Li  Li14  1  0.35554407  0.35870862  0.36575322  1
  Li  Li15  1  0.35554407  0.14129138  0.86575322  1
  Li  Li16  1  0.41276432  0.40325928  0.06939313  1
  Li  Li17  1  0.41276432  0.09674072  0.56939313  1
  Li  Li18  1  0.32280424  0.87072110  0.90729624  1
  Li  Li19  1  0.32280424  0.62927890  0.40729624  1
  Li  Li20  1  0.67719576  0.12927890  0.09270376  1
  Li  Li21  1  0.67719576  0.37072110  0.59270376  1
  Li  Li22  1  0.58723568  0.59674072  0.93060687  1
  Li  Li23  1  0.58723568  0.90325928  0.43060687  1
  Li  Li24  1  0.64445593  0.64129138  0.63424678  1
  Li  Li25  1  0.64445593  0.85870862  0.13424678  1
  Li  Li26  1  0.62366084  0.40929942  0.31406115  1
  Li  Li27  1  0.62366084  0.09070058  0.81406115  1
  Li  Li28  1  0.58283188  0.65377912  0.35986649  1
  Li  Li29  1  0.58283188  0.84622088  0.85986649  1
  Li  Li30  1  0.91716812  0.15377912  0.35986649  1
  Li  Li31  1  0.91716812  0.34622088  0.85986649  1
  Li  Li32  1  0.87633916  0.90929942  0.31406115  1
  Li  Li33  1  0.87633916  0.59070058  0.81406115  1
  Li  Li34  1  0.85554407  0.14129138  0.63424678  1
  Li  Li35  1  0.85554407  0.35870862  0.13424678  1
  Li  Li36  1  0.91276432  0.09674072  0.93060687  1
  Li  Li37  1  0.91276432  0.40325928  0.43060687  1
  Li  Li38  1  0.82280424  0.62927890  0.09270376  1
  Li  Li39  1  0.82280424  0.87072110  0.59270376  1
  B  B40  1  0.14377566  0.14237835  0.13304462  1
  B  B41  1  0.14377566  0.35762165  0.63304462  1
  B  B42  1  0.35622434  0.64237835  0.13304462  1
  B  B43  1  0.35622434  0.85762165  0.63304462  1
  B  B44  1  0.64377566  0.14237835  0.36695538  1
  B  B45  1  0.64377566  0.35762165  0.86695538  1
  B  B46  1  0.85622434  0.64237835  0.36695538  1
  B  B47  1  0.85622434  0.85762165  0.86695538  1
  O  O48  1  0.03539131  0.24253604  0.03895355  1
  O  O49  1  0.03539131  0.25746396  0.53895355  1
  O  O50  1  0.05266373  0.03467271  0.24074725  1
  O  O51  1  0.05266373  0.46532729  0.74074725  1
  O  O52  1  0.24471964  0.24154795  0.22869407  1
  O  O53  1  0.24471964  0.25845205  0.72869407  1
  O  O54  1  0.25124146  0.95684151  0.53389646  1
  O  O55  1  0.25124146  0.54315849  0.03389646  1
  O  O56  1  0.24875854  0.04315849  0.03389646  1
  O  O57  1  0.24875854  0.45684151  0.53389646  1
  O  O58  1  0.25528036  0.74154795  0.22869407  1
  O  O59  1  0.25528036  0.75845205  0.72869407  1
  O  O60  1  0.44733627  0.53467271  0.24074725  1
  O  O61  1  0.44733627  0.96532729  0.74074725  1
  O  O62  1  0.46460869  0.75746396  0.53895355  1
  O  O63  1  0.46460869  0.74253604  0.03895355  1
  O  O64  1  0.53539131  0.24253604  0.46104645  1
  O  O65  1  0.53539131  0.25746396  0.96104645  1
  O  O66  1  0.55266373  0.03467271  0.25925275  1
  O  O67  1  0.55266373  0.46532729  0.75925275  1
  O  O68  1  0.74471964  0.24154795  0.27130593  1
  O  O69  1  0.74471964  0.25845205  0.77130593  1
  O  O70  1  0.75124146  0.54315849  0.46610354  1
  O  O71  1  0.75124146  0.95684151  0.96610354  1
  O  O72  1  0.74875854  0.45684151  0.96610354  1
  O  O73  1  0.74875854  0.04315849  0.46610354  1
  O  O74  1  0.75528036  0.74154795  0.27130593  1
  O  O75  1  0.75528036  0.75845205  0.77130593  1
  O  O76  1  0.94733627  0.53467271  0.25925275  1
  O  O77  1  0.94733627  0.96532729  0.75925275  1
  O  O78  1  0.96460869  0.74253604  0.46104645  1
  O  O79  1  0.96460869  0.75746396  0.96104645  1
