# generated using pymatgen
data_BaSrI4
_symmetry_space_group_name_H-M   'P 1'
_cell_length_a   14.43269194
_cell_length_b   14.43269194
_cell_length_c   14.43269129
_cell_angle_alpha   114.46724412
_cell_angle_beta   114.46724412
_cell_angle_gamma   114.46724231
_symmetry_Int_Tables_number   1
_chemical_formula_structural   BaSrI4
_chemical_formula_sum   'Ba6 Sr6 I24'
_cell_volume   1761.45535308
_cell_formula_units_Z   6
loop_
 _symmetry_equiv_pos_site_id
 _symmetry_equiv_pos_as_xyz
  1  'x, y, z'
loop_
 _atom_site_type_symbol
 _atom_site_label
 _atom_site_symmetry_multiplicity
 _atom_site_fract_x
 _atom_site_fract_y
 _atom_site_fract_z
 _atom_site_occupancy
  Ba  Ba0  1  0.28416128  0.85716181  0.10812641  1
  Ba  Ba1  1  0.35716181  0.78416128  0.60812641  1
  Ba  Ba2  1  0.10812641  0.28416128  0.85716181  1
  Ba  Ba3  1  0.78416128  0.60812641  0.35716181  1
  Ba  Ba4  1  0.60812641  0.35716181  0.78416128  1
  Ba  Ba5  1  0.85716181  0.10812641  0.28416128  1
  Sr  Sr6  1  0.09450226  0.91646549  0.32986722  1
  Sr  Sr7  1  0.41646549  0.59450226  0.82986722  1
  Sr  Sr8  1  0.59450226  0.82986722  0.41646549  1
  Sr  Sr9  1  0.32986722  0.09450226  0.91646549  1
  Sr  Sr10  1  0.82986722  0.41646549  0.59450226  1
  Sr  Sr11  1  0.91646549  0.32986722  0.09450226  1
  I  I12  1  0.07842234  0.90882520  0.10170315  1
  I  I13  1  0.15430430  0.88454439  0.57325940  1
  I  I14  1  0.09149899  0.75166357  0.77334453  1
  I  I15  1  0.39295122  0.99534140  0.46378705  1
  I  I16  1  0.49534140  0.89295122  0.96378705  1
  I  I17  1  0.25166357  0.59149899  0.27334453  1
  I  I18  1  0.38454439  0.65430430  0.07325940  1
  I  I19  1  0.07325940  0.38454439  0.65430430  1
  I  I20  1  0.40882520  0.57842234  0.60170315  1
  I  I21  1  0.89295122  0.96378705  0.49534140  1
  I  I22  1  0.57842234  0.60170315  0.40882520  1
  I  I23  1  0.75166357  0.77334453  0.09149899  1
  I  I24  1  0.27334453  0.25166357  0.59149899  1
  I  I25  1  0.10170315  0.07842234  0.90882520  1
  I  I26  1  0.46378705  0.39295122  0.99534140  1
  I  I27  1  0.60170315  0.40882520  0.57842234  1
  I  I28  1  0.88454439  0.57325940  0.15430430  1
  I  I29  1  0.59149899  0.27334453  0.25166357  1
  I  I30  1  0.57325940  0.15430430  0.88454439  1
  I  I31  1  0.96378705  0.49534140  0.89295122  1
  I  I32  1  0.99534140  0.46378705  0.39295122  1
  I  I33  1  0.65430430  0.07325940  0.38454439  1
  I  I34  1  0.77334453  0.09149899  0.75166357  1
  I  I35  1  0.90882520  0.10170315  0.07842234  1
