# generated using pymatgen
data_SiBi2O5
_symmetry_space_group_name_H-M   'P 1'
_cell_length_a   10.84936675
_cell_length_b   3.90540938
_cell_length_c   11.07085468
_cell_angle_alpha   90.00000000
_cell_angle_beta   90.00000000
_cell_angle_gamma   90.00000000
_symmetry_Int_Tables_number   1
_chemical_formula_structural   SiBi2O5
_chemical_formula_sum   'Si4 Bi8 O20'
_cell_volume   469.08560454
_cell_formula_units_Z   4
loop_
 _symmetry_equiv_pos_site_id
 _symmetry_equiv_pos_as_xyz
  1  'x, y, z'
loop_
 _atom_site_type_symbol
 _atom_site_label
 _atom_site_symmetry_multiplicity
 _atom_site_fract_x
 _atom_site_fract_y
 _atom_site_fract_z
 _atom_site_occupancy
  Si  Si0  1  0.20544327  0.25000000  0.14083816  1
  Si  Si1  1  0.29455673  0.75000000  0.64083816  1
  Si  Si2  1  0.70544327  0.25000000  0.35916184  1
  Si  Si3  1  0.79455673  0.75000000  0.85916184  1
  Bi  Bi4  1  0.07505098  0.25000000  0.78236398  1
  Bi  Bi5  1  0.14645368  0.25000000  0.45479509  1
  Bi  Bi6  1  0.35354632  0.75000000  0.95479509  1
  Bi  Bi7  1  0.42494902  0.75000000  0.28236398  1
  Bi  Bi8  1  0.57505098  0.25000000  0.71763602  1
  Bi  Bi9  1  0.64645368  0.25000000  0.04520491  1
  Bi  Bi10  1  0.85354632  0.75000000  0.54520491  1
  Bi  Bi11  1  0.92494902  0.75000000  0.21763602  1
  O  O12  1  0.00178760  0.25000000  0.59999049  1
  O  O13  1  0.06090753  0.25000000  0.18348969  1
  O  O14  1  0.23339671  0.75000000  0.13327030  1
  O  O15  1  0.19267561  0.75000000  0.75528368  1
  O  O16  1  0.24184612  0.25000000  0.99325373  1
  O  O17  1  0.25815388  0.75000000  0.49325373  1
  O  O18  1  0.30732439  0.25000000  0.25528368  1
  O  O19  1  0.26660329  0.25000000  0.63327030  1
  O  O20  1  0.43909247  0.75000000  0.68348969  1
  O  O21  1  0.49821240  0.75000000  0.09999049  1
  O  O22  1  0.50178760  0.25000000  0.90000951  1
  O  O23  1  0.56090753  0.25000000  0.31651031  1
  O  O24  1  0.73339671  0.75000000  0.36672970  1
  O  O25  1  0.69267561  0.75000000  0.74471632  1
  O  O26  1  0.74184612  0.25000000  0.50674627  1
  O  O27  1  0.75815388  0.75000000  0.00674627  1
  O  O28  1  0.80732439  0.25000000  0.24471632  1
  O  O29  1  0.76660329  0.25000000  0.86672970  1
  O  O30  1  0.93909247  0.75000000  0.81651031  1
  O  O31  1  0.99821240  0.75000000  0.40000951  1
