# generated using pymatgen
data_LiBi2BO5
_symmetry_space_group_name_H-M   'P 1'
_cell_length_a   5.77945622
_cell_length_b   7.11817516
_cell_length_c   11.30195245
_cell_angle_alpha   90.00000000
_cell_angle_beta   90.00000000
_cell_angle_gamma   90.00000000
_symmetry_Int_Tables_number   1
_chemical_formula_structural   LiBi2BO5
_chemical_formula_sum   'Li4 Bi8 B4 O20'
_cell_volume   464.95307544
_cell_formula_units_Z   4
loop_
 _symmetry_equiv_pos_site_id
 _symmetry_equiv_pos_as_xyz
  1  'x, y, z'
loop_
 _atom_site_type_symbol
 _atom_site_label
 _atom_site_symmetry_multiplicity
 _atom_site_fract_x
 _atom_site_fract_y
 _atom_site_fract_z
 _atom_site_occupancy
  Li  Li0  1  0.22354406  0.75000000  0.34593732  1
  Li  Li1  1  0.27645594  0.25000000  0.84593732  1
  Li  Li2  1  0.72354406  0.75000000  0.15406268  1
  Li  Li3  1  0.77645594  0.25000000  0.65406268  1
  Bi  Bi4  1  0.22918724  0.99251881  0.10109980  1
  Bi  Bi5  1  0.22918724  0.50748119  0.10109980  1
  Bi  Bi6  1  0.27081276  0.00748119  0.60109980  1
  Bi  Bi7  1  0.27081276  0.49251881  0.60109980  1
  Bi  Bi8  1  0.72918724  0.99251881  0.39890020  1
  Bi  Bi9  1  0.72918724  0.50748119  0.39890020  1
  Bi  Bi10  1  0.77081276  0.00748119  0.89890020  1
  Bi  Bi11  1  0.77081276  0.49251881  0.89890020  1
  B  B12  1  0.18983338  0.25000000  0.35765274  1
  B  B13  1  0.31016662  0.75000000  0.85765274  1
  B  B14  1  0.68983338  0.25000000  0.14234726  1
  B  B15  1  0.81016662  0.75000000  0.64234726  1
  O  O16  1  0.03636232  0.25000000  0.96755444  1
  O  O17  1  0.12610169  0.07922728  0.41306721  1
  O  O18  1  0.12610169  0.42077272  0.41306721  1
  O  O19  1  0.18472539  0.75000000  0.75547436  1
  O  O20  1  0.11006447  0.25000000  0.69258568  1
  O  O21  1  0.38993553  0.75000000  0.19258568  1
  O  O22  1  0.31527461  0.25000000  0.25547436  1
  O  O23  1  0.37389831  0.57922728  0.91306721  1
  O  O24  1  0.37389831  0.92077272  0.91306721  1
  O  O25  1  0.46363768  0.75000000  0.46755444  1
  O  O26  1  0.53636232  0.25000000  0.53244556  1
  O  O27  1  0.62610169  0.07922728  0.08693279  1
  O  O28  1  0.62610169  0.42077272  0.08693279  1
  O  O29  1  0.68472539  0.75000000  0.74452564  1
  O  O30  1  0.61006447  0.25000000  0.80741432  1
  O  O31  1  0.88993553  0.75000000  0.30741432  1
  O  O32  1  0.81527461  0.25000000  0.24452564  1
  O  O33  1  0.87389831  0.92077272  0.58693279  1
  O  O34  1  0.87389831  0.57922728  0.58693279  1
  O  O35  1  0.96363768  0.75000000  0.03244556  1
