# generated using pymatgen
data_LiBi2(SO4)3
_symmetry_space_group_name_H-M   'P 1'
_cell_length_a   8.94160438
_cell_length_b   9.85980816
_cell_length_c   12.74922994
_cell_angle_alpha   90.00000000
_cell_angle_beta   89.52402446
_cell_angle_gamma   90.00000000
_symmetry_Int_Tables_number   1
_chemical_formula_structural   LiBi2(SO4)3
_chemical_formula_sum   'Li4 Bi8 S12 O48'
_cell_volume   1123.96524963
_cell_formula_units_Z   4
loop_
 _symmetry_equiv_pos_site_id
 _symmetry_equiv_pos_as_xyz
  1  'x, y, z'
loop_
 _atom_site_type_symbol
 _atom_site_label
 _atom_site_symmetry_multiplicity
 _atom_site_fract_x
 _atom_site_fract_y
 _atom_site_fract_z
 _atom_site_occupancy
  Li  Li0  1  0.18763596  0.72654931  0.82120081  1
  Li  Li1  1  0.31236404  0.22654931  0.67879919  1
  Li  Li2  1  0.68763596  0.77345069  0.32120081  1
  Li  Li3  1  0.81236404  0.27345069  0.17879919  1
  Bi  Bi4  1  0.24194975  0.96363736  0.38349572  1
  Bi  Bi5  1  0.21399052  0.55050005  0.59752948  1
  Bi  Bi6  1  0.25805025  0.46363736  0.11650428  1
  Bi  Bi7  1  0.28600948  0.05050005  0.90247052  1
  Bi  Bi8  1  0.71399052  0.94949995  0.09752948  1
  Bi  Bi9  1  0.74194975  0.53636264  0.88349572  1
  Bi  Bi10  1  0.78600948  0.44949995  0.40247052  1
  Bi  Bi11  1  0.75805025  0.03636264  0.61650428  1
  S  S12  1  0.05696823  0.22308908  0.50541697  1
  S  S13  1  0.09014502  0.12215782  0.15033718  1
  S  S14  1  0.11214613  0.40261425  0.84319797  1
  S  S15  1  0.38785387  0.90261425  0.65680203  1
  S  S16  1  0.40985498  0.62215782  0.34966282  1
  S  S17  1  0.44303177  0.72308908  0.99458303  1
  S  S18  1  0.55696823  0.27691092  0.00541697  1
  S  S19  1  0.59014502  0.37784218  0.65033718  1
  S  S20  1  0.61214613  0.09738575  0.34319797  1
  S  S21  1  0.88785387  0.59738575  0.15680203  1
  S  S22  1  0.90985498  0.87784218  0.84966282  1
  S  S23  1  0.94303177  0.77691092  0.49458303  1
  O  O24  1  0.97864799  0.64108668  0.54229595  1
  O  O25  1  0.04750409  0.61106117  0.12390332  1
  O  O26  1  0.07042267  0.90881505  0.82503526  1
  O  O27  1  0.05564520  0.80142198  0.40863946  1
  O  O28  1  0.04454236  0.11524165  0.42261074  1
  O  O29  1  0.11700171  0.26557272  0.18364756  1
  O  O30  1  0.11549232  0.10967815  0.03521157  1
  O  O31  1  0.13086264  0.53253847  0.77984835  1
  O  O32  1  0.20940950  0.22342922  0.54625688  1
  O  O33  1  0.15655544  0.28617481  0.77832514  1
  O  O34  1  0.20775010  0.41256822  0.93797465  1
  O  O35  1  0.19112823  0.02633040  0.20608489  1
  O  O36  1  0.30887177  0.52633040  0.29391511  1
  O  O37  1  0.29224990  0.91256822  0.56202535  1
  O  O38  1  0.34344456  0.78617481  0.72167486  1
  O  O39  1  0.29059050  0.72342922  0.95374312  1
  O  O40  1  0.38450768  0.60967815  0.46478843  1
  O  O41  1  0.36913736  0.03253847  0.72015165  1
  O  O42  1  0.38299829  0.76557272  0.31635244  1
  O  O43  1  0.45545764  0.61524165  0.07738926  1
  O  O44  1  0.44435480  0.30142198  0.09136054  1
  O  O45  1  0.45249591  0.11106117  0.37609668  1
  O  O46  1  0.42957733  0.40881505  0.67496474  1
  O  O47  1  0.52135201  0.14108668  0.95770405  1
  O  O48  1  0.47864799  0.85891332  0.04229595  1
  O  O49  1  0.57042267  0.59118495  0.32503526  1
  O  O50  1  0.54750409  0.88893883  0.62390332  1
  O  O51  1  0.55564520  0.69857802  0.90863946  1
  O  O52  1  0.54454236  0.38475835  0.92261074  1
  O  O53  1  0.61700171  0.23442728  0.68364756  1
  O  O54  1  0.63086264  0.96746153  0.27984835  1
  O  O55  1  0.61549232  0.39032185  0.53521157  1
  O  O56  1  0.70940950  0.27657078  0.04625688  1
  O  O57  1  0.65655544  0.21382519  0.27832514  1
  O  O58  1  0.70775010  0.08743178  0.43797465  1
  O  O59  1  0.69112823  0.47366960  0.70608489  1
  O  O60  1  0.80887177  0.97366960  0.79391511  1
  O  O61  1  0.79224990  0.58743178  0.06202535  1
  O  O62  1  0.84344456  0.71382519  0.22167486  1
  O  O63  1  0.79059050  0.77657078  0.45374312  1
  O  O64  1  0.86913736  0.46746153  0.22015165  1
  O  O65  1  0.88450768  0.89032185  0.96478843  1
  O  O66  1  0.88299829  0.73442728  0.81635244  1
  O  O67  1  0.95545764  0.88475835  0.57738926  1
  O  O68  1  0.94435480  0.19857802  0.59136054  1
  O  O69  1  0.92957733  0.09118495  0.17496474  1
  O  O70  1  0.95249591  0.38893883  0.87609668  1
  O  O71  1  0.02135201  0.35891332  0.45770405  1
