# generated using pymatgen
data_LiCuHCO4
_symmetry_space_group_name_H-M   'P 1'
_cell_length_a   10.67406440
_cell_length_b   10.67406466
_cell_length_c   5.94376259
_cell_angle_alpha   90.00000000
_cell_angle_beta   90.00000000
_cell_angle_gamma   119.99999606
_symmetry_Int_Tables_number   1
_chemical_formula_structural   LiCuHCO4
_chemical_formula_sum   'Li6 Cu6 H6 C6 O24'
_cell_volume   586.47803439
_cell_formula_units_Z   6
loop_
 _symmetry_equiv_pos_site_id
 _symmetry_equiv_pos_as_xyz
  1  'x, y, z'
loop_
 _atom_site_type_symbol
 _atom_site_label
 _atom_site_symmetry_multiplicity
 _atom_site_fract_x
 _atom_site_fract_y
 _atom_site_fract_z
 _atom_site_occupancy
  Li  Li0  1  0.16132781  0.79563050  0.75000000  1
  Li  Li1  1  0.20436950  0.36569731  0.75000000  1
  Li  Li2  1  0.36569731  0.16132781  0.25000000  1
  Li  Li3  1  0.63430269  0.83867219  0.75000000  1
  Li  Li4  1  0.79563050  0.63430269  0.25000000  1
  Li  Li5  1  0.83867219  0.20436950  0.25000000  1
  Cu  Cu6  1  0.00000000  0.50000000  0.50000000  1
  Cu  Cu7  1  0.00000000  0.50000000  0.00000000  1
  Cu  Cu8  1  0.50000000  0.50000000  0.50000000  1
  Cu  Cu9  1  0.50000000  0.50000000  0.00000000  1
  Cu  Cu10  1  0.50000000  0.00000000  0.50000000  1
  Cu  Cu11  1  0.50000000  0.00000000  0.00000000  1
  H  H12  1  0.20387601  0.59159602  0.75000000  1
  H  H13  1  0.38772001  0.79612399  0.75000000  1
  H  H14  1  0.40840398  0.61227999  0.75000000  1
  H  H15  1  0.59159602  0.38772001  0.25000000  1
  H  H16  1  0.61227999  0.20387601  0.25000000  1
  H  H17  1  0.79612399  0.40840398  0.25000000  1
  C  C18  1  0.19105577  0.77861321  0.25000000  1
  C  C19  1  0.22138679  0.41244256  0.25000000  1
  C  C20  1  0.58755744  0.80894423  0.25000000  1
  C  C21  1  0.41244256  0.19105577  0.75000000  1
  C  C22  1  0.77861321  0.58755744  0.75000000  1
  C  C23  1  0.80894423  0.22138679  0.75000000  1
  O  O24  1  0.14811803  0.70858538  0.44142974  1
  O  O25  1  0.14811803  0.70858538  0.05857026  1
  O  O26  1  0.27458973  0.91545786  0.25000000  1
  O  O27  1  0.11679957  0.49690096  0.75000000  1
  O  O28  1  0.08454214  0.35913186  0.25000000  1
  O  O29  1  0.38010138  0.88320043  0.75000000  1
  O  O30  1  0.29141462  0.43953265  0.44142974  1
  O  O31  1  0.29141462  0.43953265  0.05857026  1
  O  O32  1  0.56046735  0.85188197  0.05857026  1
  O  O33  1  0.56046735  0.85188197  0.44142974  1
  O  O34  1  0.50309904  0.61989862  0.75000000  1
  O  O35  1  0.64086814  0.72541027  0.25000000  1
  O  O36  1  0.35913186  0.27458973  0.75000000  1
  O  O37  1  0.49690096  0.38010138  0.25000000  1
  O  O38  1  0.43953265  0.14811803  0.55857026  1
  O  O39  1  0.43953265  0.14811803  0.94142974  1
  O  O40  1  0.70858538  0.56046735  0.94142974  1
  O  O41  1  0.70858538  0.56046735  0.55857026  1
  O  O42  1  0.61989862  0.11679957  0.25000000  1
  O  O43  1  0.91545786  0.64086814  0.75000000  1
  O  O44  1  0.88320043  0.50309904  0.25000000  1
  O  O45  1  0.72541027  0.08454214  0.75000000  1
  O  O46  1  0.85188197  0.29141462  0.94142974  1
  O  O47  1  0.85188197  0.29141462  0.55857026  1
