# generated using pymatgen
data_Li3MnPCO7
_symmetry_space_group_name_H-M   'P 1'
_cell_length_a   5.07680641
_cell_length_b   6.80162219
_cell_length_c   8.79294891
_cell_angle_alpha   84.71625183
_cell_angle_beta   87.61058051
_cell_angle_gamma   95.29358853
_symmetry_Int_Tables_number   1
_chemical_formula_structural   Li3MnPCO7
_chemical_formula_sum   'Li6 Mn2 P2 C2 O14'
_cell_volume   300.65959341
_cell_formula_units_Z   2
loop_
 _symmetry_equiv_pos_site_id
 _symmetry_equiv_pos_as_xyz
  1  'x, y, z'
loop_
 _atom_site_type_symbol
 _atom_site_label
 _atom_site_symmetry_multiplicity
 _atom_site_fract_x
 _atom_site_fract_y
 _atom_site_fract_z
 _atom_site_occupancy
  Li  Li0  1  0.42850259  0.97075198  0.76481696  1
  Li  Li1  1  0.32602716  0.60974997  0.80000993  1
  Li  Li2  1  0.10278608  0.27528143  0.74686618  1
  Li  Li3  1  0.02482307  0.84606956  0.25091948  1
  Li  Li4  1  0.80133039  0.51160112  0.19767626  1
  Li  Li5  1  0.69892205  0.15057583  0.23297701  1
  Mn  Mn6  1  0.88199612  0.79331940  0.63031088  1
  Mn  Mn7  1  0.24552305  0.32818038  0.36747697  1
  P  P8  1  0.71730689  0.30064670  0.58000785  1
  P  P9  1  0.41026480  0.82075361  0.41785681  1
  C  C10  1  0.84556666  0.78186605  0.93841099  1
  C  C11  1  0.28195154  0.33955178  0.05890172  1
  O  O12  1  0.30288846  0.34614901  0.91318257  1
  O  O13  1  0.07491989  0.80696810  0.86302269  1
  O  O14  1  0.63671737  0.76447479  0.85735512  1
  O  O15  1  0.80145263  0.10804374  0.66790592  1
  O  O16  1  0.86116819  0.47408875  0.65601533  1
  O  O17  1  0.40959090  0.29642647  0.59117666  1
  O  O18  1  0.31666301  0.80839854  0.59057659  1
  O  O19  1  0.81093831  0.31294379  0.40710275  1
  O  O20  1  0.71797602  0.82502889  0.40651311  1
  O  O21  1  0.32607777  0.01339249  0.32985063  1
  O  O22  1  0.26637915  0.64731380  0.34167373  1
  O  O23  1  0.49065643  0.35691817  0.14068011  1
  O  O24  1  0.05217165  0.31450554  0.13466160  1
  O  O25  1  0.82486982  0.77520411  0.08492216  1
