# generated using pymatgen
data_LiAlVO4
_symmetry_space_group_name_H-M   'P 1'
_cell_length_a   5.21897861
_cell_length_b   5.79362408
_cell_length_c   7.63284337
_cell_angle_alpha   79.12981194
_cell_angle_beta   72.05098017
_cell_angle_gamma   91.08654976
_symmetry_Int_Tables_number   1
_chemical_formula_structural   LiAlVO4
_chemical_formula_sum   'Li3 Al3 V3 O12'
_cell_volume   214.88566796
_cell_formula_units_Z   3
loop_
 _symmetry_equiv_pos_site_id
 _symmetry_equiv_pos_as_xyz
  1  'x, y, z'
loop_
 _atom_site_type_symbol
 _atom_site_label
 _atom_site_symmetry_multiplicity
 _atom_site_fract_x
 _atom_site_fract_y
 _atom_site_fract_z
 _atom_site_occupancy
  Li  Li0  1  0.99683111  0.48741556  0.99809510  1
  Li  Li1  1  0.00000999  0.64934977  0.34476163  1
  Li  Li2  1  0.01284225  0.84152198  0.66360312  1
  Al  Al3  1  0.47897307  0.41831420  0.34173580  1
  Al  Al4  1  0.49387624  0.58440660  0.66612368  1
  Al  Al5  1  0.49167295  0.74649995  0.99673735  1
  V  V6  1  0.48901480  0.25163491  0.00340117  1
  V  V7  1  0.53281595  0.91849696  0.32335233  1
  V  V8  1  0.50921456  0.09052661  0.66600971  1
  O  O9  1  0.30621888  0.95592112  0.14786819  1
  O  O10  1  0.28683129  0.46930085  0.16051632  1
  O  O11  1  0.30630530  0.11311981  0.48958443  1
  O  O12  1  0.29057858  0.63517629  0.48669426  1
  O  O13  1  0.29263495  0.29954829  0.82296183  1
  O  O14  1  0.29319186  0.77784508  0.82049119  1
  O  O15  1  0.70553495  0.70291350  0.18057051  1
  O  O16  1  0.69767995  0.23032858  0.17957005  1
  O  O17  1  0.68611033  0.38959896  0.50983138  1
  O  O18  1  0.72227609  0.85959078  0.51281781  1
  O  O19  1  0.70285980  0.54300793  0.85227977  1
  O  O20  1  0.70138109  0.02856128  0.83808337  1
