# generated using pymatgen
data_ScCoO3
_symmetry_space_group_name_H-M   'P 1'
_cell_length_a   5.00620424
_cell_length_b   5.43835553
_cell_length_c   7.38190395
_cell_angle_alpha   90.00000000
_cell_angle_beta   90.00000000
_cell_angle_gamma   90.00000000
_symmetry_Int_Tables_number   1
_chemical_formula_structural   ScCoO3
_chemical_formula_sum   'Sc4 Co4 O12'
_cell_volume   200.97616265
_cell_formula_units_Z   4
loop_
 _symmetry_equiv_pos_site_id
 _symmetry_equiv_pos_as_xyz
  1  'x, y, z'
loop_
 _atom_site_type_symbol
 _atom_site_label
 _atom_site_symmetry_multiplicity
 _atom_site_fract_x
 _atom_site_fract_y
 _atom_site_fract_z
 _atom_site_occupancy
  Sc  Sc0  1  0.03117981  0.91617435  0.75000000  1
  Sc  Sc1  1  0.46882019  0.41617435  0.75000000  1
  Sc  Sc2  1  0.53117981  0.58382565  0.25000000  1
  Sc  Sc3  1  0.96882019  0.08382565  0.25000000  1
  Co  Co4  1  0.00000000  0.50000000  0.00000000  1
  Co  Co5  1  0.00000000  0.50000000  0.50000000  1
  Co  Co6  1  0.50000000  0.00000000  0.00000000  1
  Co  Co7  1  0.50000000  0.00000000  0.50000000  1
  O  O8  1  0.13707661  0.44922029  0.25000000  1
  O  O9  1  0.19058329  0.18445452  0.56856649  1
  O  O10  1  0.19058329  0.18445452  0.93143351  1
  O  O11  1  0.30941671  0.68445452  0.93143351  1
  O  O12  1  0.30941671  0.68445452  0.56856649  1
  O  O13  1  0.36292339  0.94922029  0.25000000  1
  O  O14  1  0.63707661  0.05077971  0.75000000  1
  O  O15  1  0.69058329  0.31554548  0.43143351  1
  O  O16  1  0.69058329  0.31554548  0.06856649  1
  O  O17  1  0.80941671  0.81554548  0.06856649  1
  O  O18  1  0.80941671  0.81554548  0.43143351  1
  O  O19  1  0.86292339  0.55077971  0.75000000  1
