# generated using pymatgen
data_Li2VCr3O8
_symmetry_space_group_name_H-M   'P 1'
_cell_length_a   5.24035939
_cell_length_b   7.84151263
_cell_length_c   7.84588187
_cell_angle_alpha   81.93431404
_cell_angle_beta   70.18674975
_cell_angle_gamma   84.86576085
_symmetry_Int_Tables_number   1
_chemical_formula_structural   Li2VCr3O8
_chemical_formula_sum   'Li4 V2 Cr6 O16'
_cell_volume   300.01512667
_cell_formula_units_Z   2
loop_
 _symmetry_equiv_pos_site_id
 _symmetry_equiv_pos_as_xyz
  1  'x, y, z'
loop_
 _atom_site_type_symbol
 _atom_site_label
 _atom_site_symmetry_multiplicity
 _atom_site_fract_x
 _atom_site_fract_y
 _atom_site_fract_z
 _atom_site_occupancy
  Li  Li0  1  0.00639136  0.00602089  0.00582995  1
  Li  Li1  1  0.01689697  0.25212791  0.23515180  1
  Li  Li2  1  0.99982702  0.48555318  0.51020485  1
  Li  Li3  1  0.99889647  0.73861931  0.76102443  1
  V  V4  1  0.51659932  0.68757384  0.42419638  1
  V  V5  1  0.52052381  0.94446836  0.68249414  1
  Cr  Cr6  1  0.47577497  0.06427136  0.31692875  1
  Cr  Cr7  1  0.51893948  0.43619740  0.17978843  1
  Cr  Cr8  1  0.47966421  0.81167228  0.06392252  1
  Cr  Cr9  1  0.47970718  0.31567706  0.56873710  1
  Cr  Cr10  1  0.51908860  0.19064730  0.93349585  1
  Cr  Cr11  1  0.48394931  0.56332546  0.81604410  1
  O  O12  1  0.28289432  0.03479670  0.14418478  1
  O  O13  1  0.30124639  0.39490450  0.03006245  1
  O  O14  1  0.28323937  0.28512960  0.39462921  1
  O  O15  1  0.29943598  0.64994955  0.29105571  1
  O  O16  1  0.29923553  0.13407131  0.77539520  1
  O  O17  1  0.28106123  0.54322328  0.63509302  1
  O  O18  1  0.30558450  0.88616792  0.53667065  1
  O  O19  1  0.72134611  0.21205408  0.10721288  1
  O  O20  1  0.27953138  0.79522199  0.88745274  1
  O  O21  1  0.69491809  0.09407297  0.48322479  1
  O  O22  1  0.71653089  0.48088260  0.36154245  1
  O  O23  1  0.69615758  0.84356024  0.23109245  1
  O  O24  1  0.69736071  0.35711667  0.71838267  1
  O  O25  1  0.71185496  0.72604945  0.59729904  1
  O  O26  1  0.69710079  0.60728816  0.96864725  1
  O  O27  1  0.71624044  0.95935763  0.84023539  1
