# generated using pymatgen
data_Sr2Li2NiO4
_symmetry_space_group_name_H-M   'P 1'
_cell_length_a   8.62960678
_cell_length_b   5.44246776
_cell_length_c   5.58388485
_cell_angle_alpha   98.08812173
_cell_angle_beta   67.76030749
_cell_angle_gamma   101.62319047
_symmetry_Int_Tables_number   1
_chemical_formula_structural   Sr2Li2NiO4
_chemical_formula_sum   'Sr4 Li4 Ni2 O8'
_cell_volume   237.16607160
_cell_formula_units_Z   2
loop_
 _symmetry_equiv_pos_site_id
 _symmetry_equiv_pos_as_xyz
  1  'x, y, z'
loop_
 _atom_site_type_symbol
 _atom_site_label
 _atom_site_symmetry_multiplicity
 _atom_site_fract_x
 _atom_site_fract_y
 _atom_site_fract_z
 _atom_site_occupancy
  Sr  Sr0  1  0.02513443  0.27505714  0.75404852  1
  Sr  Sr1  1  0.30620905  0.83393976  0.54976888  1
  Sr  Sr2  1  0.69379095  0.16606024  0.45023112  1
  Sr  Sr3  1  0.97486557  0.72494286  0.24595148  1
  Li  Li4  1  0.45383429  0.80243135  0.92506203  1
  Li  Li5  1  0.41290974  0.41526121  0.70222392  1
  Li  Li6  1  0.58709026  0.58473879  0.29777608  1
  Li  Li7  1  0.54616571  0.19756865  0.07493797  1
  Ni  Ni8  1  0.24521564  0.29378342  0.14390545  1
  Ni  Ni9  1  0.75478436  0.70621658  0.85609455  1
  O  O10  1  0.23720181  0.57789188  0.95425029  1
  O  O11  1  0.99592356  0.20143885  0.30544833  1
  O  O12  1  0.42290429  0.12560795  0.84277626  1
  O  O13  1  0.35991186  0.33190905  0.39651226  1
  O  O14  1  0.64008814  0.66809095  0.60348774  1
  O  O15  1  0.57709571  0.87439205  0.15722374  1
  O  O16  1  0.00407644  0.79856115  0.69455167  1
  O  O17  1  0.76279819  0.42210812  0.04574971  1
