# generated using pymatgen
data_Li11Nb4(Ni3O8)3
_symmetry_space_group_name_H-M   'P 1'
_cell_length_a   5.26148259
_cell_length_b   9.33730714
_cell_length_c   9.86583059
_cell_angle_alpha   106.55834277
_cell_angle_beta   81.85287854
_cell_angle_gamma   100.25352510
_symmetry_Int_Tables_number   1
_chemical_formula_structural   Li11Nb4(Ni3O8)3
_chemical_formula_sum   'Li11 Nb4 Ni9 O24'
_cell_volume   455.03768252
_cell_formula_units_Z   1
loop_
 _symmetry_equiv_pos_site_id
 _symmetry_equiv_pos_as_xyz
  1  'x, y, z'
loop_
 _atom_site_type_symbol
 _atom_site_label
 _atom_site_symmetry_multiplicity
 _atom_site_fract_x
 _atom_site_fract_y
 _atom_site_fract_z
 _atom_site_occupancy
  Li  Li0  1  0.27174431  0.58632515  0.02148223  1
  Li  Li1  1  0.06543736  0.75536660  0.31219663  1
  Li  Li2  1  0.44300459  0.25033344  0.18575880  1
  Li  Li3  1  0.60608823  0.91703203  0.35371345  1
  Li  Li4  1  0.14266693  0.07290947  0.39285497  1
  Li  Li5  1  0.77115922  0.58579689  0.52152783  1
  Li  Li6  1  0.10201502  0.91510421  0.85424847  1
  Li  Li7  1  0.56218952  0.75547792  0.81536441  1
  Li  Li8  1  0.93204009  0.24973224  0.68921765  1
  Li  Li9  1  0.64352540  0.07369949  0.89378136  1
  Li  Li10  1  0.72730693  0.40939993  0.97726122  1
  Nb  Nb11  1  0.81121595  0.74566263  0.06161052  1
  Nb  Nb12  1  0.31104483  0.74439226  0.56047761  1
  Nb  Nb13  1  0.68618404  0.25393415  0.43866770  1
  Nb  Nb14  1  0.18718395  0.24882375  0.93722119  1
  Ni  Ni15  1  0.35598154  0.92392691  0.10613371  1
  Ni  Ni16  1  0.52313398  0.57794738  0.26744532  1
  Ni  Ni17  1  0.98683762  0.42384305  0.22627671  1
  Ni  Ni18  1  0.22878719  0.41040079  0.47860630  1
  Ni  Ni19  1  0.89574505  0.08352710  0.14528945  1
  Ni  Ni20  1  0.85581163  0.92269113  0.60553389  1
  Ni  Ni21  1  0.01601103  0.57763985  0.77085357  1
  Ni  Ni22  1  0.47534951  0.42375550  0.73596100  1
  Ni  Ni23  1  0.39660570  0.08264753  0.64654965  1
  O  O24  1  0.26372433  0.08891301  0.02013658  1
  O  O25  1  0.34610661  0.41239327  0.10061081  1
  O  O26  1  0.46344058  0.75070864  0.17970411  1
  O  O27  1  0.98565352  0.91165213  0.21827423  1
  O  O28  1  0.88537673  0.58913139  0.14749204  1
  O  O29  1  0.03805881  0.24863873  0.31641895  1
  O  O30  1  0.83925668  0.25059509  0.05512197  1
  O  O31  1  0.16258704  0.58958340  0.39118196  1
  O  O32  1  0.21765988  0.90997752  0.48867434  1
  O  O33  1  0.66066523  0.74844773  0.44543760  1
  O  O34  1  0.63891614  0.41532567  0.34650049  1
  O  O35  1  0.53137604  0.09150216  0.27540838  1
  O  O36  1  0.48810139  0.90966749  0.71622182  1
  O  O37  1  0.38222369  0.58898961  0.65303121  1
  O  O38  1  0.33562560  0.24748555  0.55895497  1
  O  O39  1  0.82001488  0.41496592  0.61028712  1
  O  O40  1  0.76333063  0.09115174  0.52015065  1
  O  O41  1  0.16051199  0.75039807  0.94594002  1
  O  O42  1  0.96404139  0.74858804  0.67827971  1
  O  O43  1  0.03151010  0.08854816  0.77434769  1
  O  O44  1  0.11050646  0.41206274  0.85530502  1
  O  O45  1  0.53616643  0.25038110  0.81986146  1
  O  O46  1  0.65905210  0.58903985  0.89692171  1
  O  O47  1  0.71902115  0.91148062  0.98770852  1
