# generated using pymatgen
data_Na6Ga5Si7H15O32
_symmetry_space_group_name_H-M   'P 1'
_cell_length_a   8.77372139
_cell_length_b   9.31162461
_cell_length_c   9.27820404
_cell_angle_alpha   89.37001373
_cell_angle_beta   89.82213254
_cell_angle_gamma   90.25447840
_symmetry_Int_Tables_number   1
_chemical_formula_structural   Na6Ga5Si7H15O32
_chemical_formula_sum   'Na6 Ga5 Si7 H15 O32'
_cell_volume   757.94993791
_cell_formula_units_Z   1
loop_
 _symmetry_equiv_pos_site_id
 _symmetry_equiv_pos_as_xyz
  1  'x, y, z'
loop_
 _atom_site_type_symbol
 _atom_site_label
 _atom_site_symmetry_multiplicity
 _atom_site_fract_x
 _atom_site_fract_y
 _atom_site_fract_z
 _atom_site_occupancy
  Na  Na0  1  0.35216200  0.37826379  0.61830011  1
  Na  Na1  1  0.34945478  0.62168867  0.36304578  1
  Na  Na2  1  0.62526080  0.34079539  0.34906640  1
  Na  Na3  1  0.62249938  0.65815911  0.66881299  1
  Na  Na4  1  0.88471593  0.13233216  0.86582409  1
  Na  Na5  1  0.97413691  0.87302090  0.10506316  1
  Ga  Ga6  1  0.02877402  0.50482219  0.74108187  1
  Ga  Ga7  1  0.36773583  0.79351115  0.03171362  1
  Ga  Ga8  1  0.46091606  0.23038276  0.99391938  1
  Ga  Ga9  1  0.75414607  0.00445737  0.50065758  1
  Ga  Ga10  1  0.75210325  0.50386456  0.00594718  1
  Si  Si11  1  0.00472353  0.74587484  0.49893469  1
  Si  Si12  1  0.25024470  0.99632042  0.50353699  1
  Si  Si13  1  0.24838336  0.49950588  0.01118709  1
  Si  Si14  1  0.48661787  0.99687310  0.75186183  1
  Si  Si15  1  0.49195489  0.00134802  0.25919126  1
  Si  Si16  1  0.01969299  0.25258156  0.49914362  1
  Si  Si17  1  0.00738719  0.49494799  0.26387586  1
  H  H18  1  0.17889158  0.21694208  0.87406528  1
  H  H19  1  0.32417752  0.31653205  0.31797688  1
  H  H20  1  0.33588196  0.68630502  0.67448441  1
  H  H21  1  0.59753501  0.27075997  0.71622116  1
  H  H22  1  0.58878209  0.77526823  0.23401336  1
  H  H23  1  0.76872948  0.40143173  0.76601544  1
  H  H24  1  0.72440979  0.61542648  0.27798816  1
  H  H25  1  0.72972129  0.27889641  0.60356409  1
  H  H26  1  0.72507204  0.73522375  0.39023314  1
  H  H27  1  0.78008901  0.09715695  0.22079919  1
  H  H28  1  0.77196290  0.89674099  0.77921944  1
  H  H29  1  0.72327853  0.25904661  0.08663785  1
  H  H30  1  0.72172019  0.74176937  0.92513404  1
  H  H31  1  0.94123378  0.16720305  0.17899868  1
  H  H32  1  0.93069100  0.82356755  0.80435182  1
  O  O33  1  0.08459374  0.36988410  0.61010241  1
  O  O34  1  0.05224449  0.62601682  0.37591767  1
  O  O35  1  0.12127238  0.13518734  0.83893722  1
  O  O36  1  0.20763153  0.83376385  0.13513223  1
  O  O37  1  0.14250612  0.13023774  0.44908143  1
  O  O38  1  0.14422009  0.85522099  0.53902297  1
  O  O39  1  0.13777332  0.45089204  0.14971442  1
  O  O40  1  0.13716561  0.57388856  0.89000208  1
  O  O41  1  0.32080778  0.35597263  0.93598051  1
  O  O42  1  0.38954497  0.59520747  0.06834053  1
  O  O43  1  0.35840569  0.04761819  0.63464836  1
  O  O44  1  0.37092968  0.94684501  0.37941517  1
  O  O45  1  0.38496904  0.37646939  0.38021510  1
  O  O46  1  0.38261187  0.61806461  0.60971888  1
  O  O47  1  0.42704489  0.11466094  0.14557081  1
  O  O48  1  0.43861992  0.86861913  0.85818970  1
  O  O49  1  0.54675792  0.14580464  0.83226090  1
  O  O50  1  0.55358586  0.85833681  0.16871516  1
  O  O51  1  0.64862437  0.34261675  0.64727929  1
  O  O52  1  0.65238376  0.66437246  0.34732233  1
  O  O53  1  0.64489436  0.07077148  0.34132851  1
  O  O54  1  0.64176886  0.94139768  0.65871910  1
  O  O55  1  0.64422703  0.33479073  0.06704771  1
  O  O56  1  0.65371236  0.65741110  0.93595083  1
  O  O57  1  0.85352248  0.54597586  0.17617968  1
  O  O58  1  0.85020513  0.42405641  0.83923118  1
  O  O59  1  0.86146545  0.16887743  0.55261251  1
  O  O60  1  0.86335506  0.84618176  0.43519344  1
  O  O61  1  0.85210825  0.11737259  0.13770037  1
  O  O62  1  0.85110321  0.87700682  0.85552974  1
  O  O63  1  0.96135460  0.34526921  0.35359607  1
  O  O64  1  0.94270443  0.66218934  0.64347721  1
