# generated using pymatgen
data_Li5Ti4Co3O16
_symmetry_space_group_name_H-M   'P 1'
_cell_length_a   8.31615334
_cell_length_b   8.42403918
_cell_length_c   8.43526558
_cell_angle_alpha   89.55848412
_cell_angle_beta   89.75185559
_cell_angle_gamma   90.03426587
_symmetry_Int_Tables_number   1
_chemical_formula_structural   Li5Ti4Co3O16
_chemical_formula_sum   'Li10 Ti8 Co6 O32'
_cell_volume   590.91439948
_cell_formula_units_Z   2
loop_
 _symmetry_equiv_pos_site_id
 _symmetry_equiv_pos_as_xyz
  1  'x, y, z'
loop_
 _atom_site_type_symbol
 _atom_site_label
 _atom_site_symmetry_multiplicity
 _atom_site_fract_x
 _atom_site_fract_y
 _atom_site_fract_z
 _atom_site_occupancy
  Li  Li0  1  0.11513153  0.87818650  0.38213037  1
  Li  Li1  1  0.24407557  0.75053731  0.75072226  1
  Li  Li2  1  0.24611260  0.25030603  0.25690034  1
  Li  Li3  1  0.37629526  0.12555355  0.87371056  1
  Li  Li4  1  0.64017493  0.62239224  0.61938901  1
  Li  Li5  1  0.63916591  0.37958032  0.37975120  1
  Li  Li6  1  0.87114216  0.62159022  0.86665787  1
  Li  Li7  1  0.87206046  0.37620803  0.13384047  1
  Li  Li8  1  0.88090436  0.86205777  0.61673844  1
  Li  Li9  1  0.88004340  0.12854925  0.37282441  1
  Ti  Ti10  1  0.11074432  0.61571485  0.12358603  1
  Ti  Ti11  1  0.12265717  0.37995154  0.88158778  1
  Ti  Ti12  1  0.12309215  0.10329170  0.60418954  1
  Ti  Ti13  1  0.36700003  0.88860771  0.12018115  1
  Ti  Ti14  1  0.38119567  0.62306108  0.38748511  1
  Ti  Ti15  1  0.38824271  0.37591350  0.62101493  1
  Ti  Ti16  1  0.62044063  0.86901366  0.85798559  1
  Ti  Ti17  1  0.62514657  0.13837963  0.13499260  1
  Co  Co18  1  0.00183457  0.49975474  0.50028854  1
  Co  Co19  1  0.50353402  0.50377538  0.99797836  1
  Co  Co20  1  0.49827690  0.00300047  0.49551074  1
  Co  Co21  1  0.74691630  0.75077807  0.24922497  1
  Co  Co22  1  0.75528116  0.24601904  0.75476211  1
  Co  Co23  1  0.99361345  0.00196146  0.99650927  1
  O  O24  1  0.11682643  0.60477960  0.89559339  1
  O  O25  1  0.11600147  0.11811213  0.39392645  1
  O  O26  1  0.11897536  0.89335449  0.62318050  1
  O  O27  1  0.12039025  0.39108586  0.10847947  1
  O  O28  1  0.11929810  0.13499205  0.87718690  1
  O  O29  1  0.13984301  0.62365938  0.36046288  1
  O  O30  1  0.13453138  0.86698966  0.11462235  1
  O  O31  1  0.13881148  0.36862761  0.64029695  1
  O  O32  1  0.36377742  0.63639727  0.13401252  1
  O  O33  1  0.36603352  0.13746908  0.62170467  1
  O  O34  1  0.36179656  0.37814372  0.86377214  1
  O  O35  1  0.38028723  0.86451437  0.35956529  1
  O  O36  1  0.38055156  0.60830497  0.60804110  1
  O  O37  1  0.39307687  0.10727991  0.12234250  1
  O  O38  1  0.39555540  0.88019458  0.89603715  1
  O  O39  1  0.38415265  0.39493890  0.39590327  1
  O  O40  1  0.61690503  0.88391738  0.11664833  1
  O  O41  1  0.61427436  0.36535769  0.63688240  1
  O  O42  1  0.61232263  0.62870547  0.36726679  1
  O  O43  1  0.63139982  0.11378606  0.88644259  1
  O  O44  1  0.61835063  0.35958300  0.11927854  1
  O  O45  1  0.61913471  0.88206067  0.64066387  1
  O  O46  1  0.62272180  0.64240238  0.87833805  1
  O  O47  1  0.62545151  0.12199186  0.35593094  1
  O  O48  1  0.86404932  0.87893563  0.88234704  1
  O  O49  1  0.88176496  0.38143038  0.38023804  1
  O  O50  1  0.86426047  0.11890994  0.12111772  1
  O  O51  1  0.88277717  0.61986579  0.62050530  1
  O  O52  1  0.86319613  0.86832709  0.36998448  1
  O  O53  1  0.88471062  0.37096543  0.86961940  1
  O  O54  1  0.88561939  0.62897637  0.13130520  1
  O  O55  1  0.88006893  0.13179626  0.63038213  1
