# generated using pymatgen
data_Li4Cr5BiO12
_symmetry_space_group_name_H-M   'P 1'
_cell_length_a   5.26060842
_cell_length_b   5.27355827
_cell_length_c   10.12533916
_cell_angle_alpha   93.53798733
_cell_angle_beta   97.10709864
_cell_angle_gamma   60.08119611
_symmetry_Int_Tables_number   1
_chemical_formula_structural   Li4Cr5BiO12
_chemical_formula_sum   'Li4 Cr5 Bi1 O12'
_cell_volume   241.59333653
_cell_formula_units_Z   1
loop_
 _symmetry_equiv_pos_site_id
 _symmetry_equiv_pos_as_xyz
  1  'x, y, z'
loop_
 _atom_site_type_symbol
 _atom_site_label
 _atom_site_symmetry_multiplicity
 _atom_site_fract_x
 _atom_site_fract_y
 _atom_site_fract_z
 _atom_site_occupancy
  Li  Li0  1  0.21834709  0.33871794  0.72956776  1
  Li  Li1  1  0.44293397  0.33871794  0.27043224  1
  Li  Li2  1  0.55706603  0.66128206  0.72956776  1
  Li  Li3  1  0.78165291  0.66128206  0.27043224  1
  Cr  Cr4  1  0.16402341  0.67195317  0.50000000  1
  Cr  Cr5  1  0.66604780  0.66790540  1.00000000  1
  Cr  Cr6  1  0.33395220  0.33209460  0.00000000  1
  Cr  Cr7  1  0.83597659  0.32804683  0.50000000  1
  Cr  Cr8  1  0.50000000  0.00000000  0.50000000  1
  Bi  Bi9  1  0.00000000  0.00000000  0.00000000  1
  O  O10  1  0.02622433  0.63472604  0.11087725  1
  O  O11  1  0.33904963  0.63472604  0.88912275  1
  O  O12  1  0.14246502  0.34377443  0.39766350  1
  O  O13  1  0.48623946  0.65622557  0.39766350  1
  O  O14  1  0.51376054  0.34377443  0.60233650  1
  O  O15  1  0.20050952  1.00000000  0.60233213  1
  O  O16  1  0.85753498  0.65622557  0.60233650  1
  O  O17  1  0.66095037  0.36527396  0.11087725  1
  O  O18  1  0.39289350  0.00000000  0.10985518  1
  O  O19  1  0.97377567  0.36527396  0.88912275  1
  O  O20  1  0.60710650  1.00000000  0.89014482  1
  O  O21  1  0.79949048  0.00000000  0.39766787  1
