# generated using pymatgen
data_Li3Mn2(SiO4)2
_symmetry_space_group_name_H-M   'P 1'
_cell_length_a   6.36313271
_cell_length_b   10.77408166
_cell_length_c   5.08299667
_cell_angle_alpha   90.00000000
_cell_angle_beta   89.67873862
_cell_angle_gamma   90.00000000
_symmetry_Int_Tables_number   1
_chemical_formula_structural   Li3Mn2(SiO4)2
_chemical_formula_sum   'Li6 Mn4 Si4 O16'
_cell_volume   348.46907460
_cell_formula_units_Z   2
loop_
 _symmetry_equiv_pos_site_id
 _symmetry_equiv_pos_as_xyz
  1  'x, y, z'
loop_
 _atom_site_type_symbol
 _atom_site_label
 _atom_site_symmetry_multiplicity
 _atom_site_fract_x
 _atom_site_fract_y
 _atom_site_fract_z
 _atom_site_occupancy
  Li  Li0  1  0.99678596  0.08715247  0.67816984  1
  Li  Li1  1  0.50321404  0.58715247  0.82183016  1
  Li  Li2  1  0.50045025  0.91798550  0.33248835  1
  Li  Li3  1  0.50032424  0.41145396  0.18384580  1
  Li  Li4  1  -0.00045025  0.41798550  0.16751165  1
  Li  Li5  1  -0.00032424  0.91145396  0.31615420  1
  Mn  Mn6  1  0.25436970  0.84046826  0.81503785  1
  Mn  Mn7  1  0.24563030  0.34046826  0.68496215  1
  Mn  Mn8  1  0.76077704  0.65710815  0.33135693  1
  Mn  Mn9  1  0.73922296  0.15710815  0.16864307  1
  Si  Si10  1  0.24292536  0.16726397  0.16909165  1
  Si  Si11  1  0.25707464  0.66726397  0.33090835  1
  Si  Si12  1  0.75063598  0.33080952  0.66859926  1
  Si  Si13  1  0.74936402  0.83080952  0.83140074  1
  O  O14  1  0.04487635  0.59074558  0.25354549  1
  O  O15  1  0.03118868  0.09384813  0.28051069  1
  O  O16  1  0.22601337  0.17619022  0.84416570  1
  O  O17  1  0.25024171  0.81268105  0.21992907  1
  O  O18  1  0.24975829  0.31268105  0.28007093  1
  O  O19  1  0.27398663  0.67619022  0.65583430  1
  O  O20  1  0.45512365  0.09074558  0.24645451  1
  O  O21  1  0.46881132  0.59384813  0.21948931  1
  O  O22  1  0.53411167  0.90032918  0.72150544  1
  O  O23  1  0.53638383  0.40327062  0.78168179  1
  O  O24  1  0.75467233  0.18700160  0.77638382  1
  O  O25  1  0.74866530  0.33506878  0.34381159  1
  O  O26  1  0.74532767  0.68700160  0.72361618  1
  O  O27  1  0.75133470  0.83506878  0.15618841  1
  O  O28  1  0.96588833  0.40032918  0.77849456  1
  O  O29  1  0.96361617  0.90327062  0.71831821  1
