# generated using pymatgen
data_Li2VBO4
_symmetry_space_group_name_H-M   'P 1'
_cell_length_a   10.24393955
_cell_length_b   4.90771160
_cell_length_c   6.21841887
_cell_angle_alpha   90.00000000
_cell_angle_beta   90.00000000
_cell_angle_gamma   90.00000000
_symmetry_Int_Tables_number   1
_chemical_formula_structural   Li2VBO4
_chemical_formula_sum   'Li8 V4 B4 O16'
_cell_volume   312.62666176
_cell_formula_units_Z   4
loop_
 _symmetry_equiv_pos_site_id
 _symmetry_equiv_pos_as_xyz
  1  'x, y, z'
loop_
 _atom_site_type_symbol
 _atom_site_label
 _atom_site_symmetry_multiplicity
 _atom_site_fract_x
 _atom_site_fract_y
 _atom_site_fract_z
 _atom_site_occupancy
  Li  Li0  1  0.07717367  0.69545989  0.86738944  1
  Li  Li1  1  0.15725139  0.18583029  0.11608805  1
  Li  Li2  1  0.34274861  0.68583029  0.61608805  1
  Li  Li3  1  0.42282633  0.19545989  0.36738944  1
  Li  Li4  1  0.57717367  0.80454011  0.86738944  1
  Li  Li5  1  0.65725139  0.31416971  0.11608805  1
  Li  Li6  1  0.84274861  0.81416971  0.61608805  1
  Li  Li7  1  0.92282633  0.30454011  0.36738944  1
  V  V8  1  0.16414212  0.18141990  0.62585838  1
  V  V9  1  0.33585788  0.68141990  0.12585838  1
  V  V10  1  0.66414212  0.31858010  0.62585838  1
  V  V11  1  0.83585788  0.81858010  0.12585838  1
  B  B12  1  0.09110694  0.67645123  0.36621531  1
  B  B13  1  0.40889306  0.17645123  0.86621531  1
  B  B14  1  0.59110694  0.82354877  0.36621531  1
  B  B15  1  0.90889306  0.32354877  0.86621531  1
  O  O16  1  0.05254711  0.26729550  0.86282205  1
  O  O17  1  0.10953896  0.37426994  0.37174937  1
  O  O18  1  0.15210944  0.79324830  0.56579383  1
  O  O19  1  0.15448197  0.78698847  0.16618257  1
  O  O20  1  0.34551803  0.28698847  0.66618257  1
  O  O21  1  0.34789056  0.29324830  0.06579383  1
  O  O22  1  0.39046104  0.87426994  0.87174937  1
  O  O23  1  0.44745289  0.76729550  0.36282205  1
  O  O24  1  0.55254711  0.23270450  0.86282205  1
  O  O25  1  0.60953896  0.12573006  0.37174937  1
  O  O26  1  0.65210944  0.70675170  0.56579383  1
  O  O27  1  0.65448197  0.71301153  0.16618257  1
  O  O28  1  0.84551803  0.21301153  0.66618257  1
  O  O29  1  0.84789056  0.20675170  0.06579383  1
  O  O30  1  0.89046104  0.62573006  0.87174937  1
  O  O31  1  0.94745289  0.73270450  0.36282205  1
