# generated using pymatgen
data_Li3MnCr4O8
_symmetry_space_group_name_H-M   'P 1'
_cell_length_a   6.09592676
_cell_length_b   6.09592688
_cell_length_c   6.12031867
_cell_angle_alpha   86.84332509
_cell_angle_beta   57.99514670
_cell_angle_gamma   58.45452824
_symmetry_Int_Tables_number   1
_chemical_formula_structural   Li3MnCr4O8
_chemical_formula_sum   'Li3 Mn1 Cr4 O8'
_cell_volume   156.40091711
_cell_formula_units_Z   1
loop_
 _symmetry_equiv_pos_site_id
 _symmetry_equiv_pos_as_xyz
  1  'x, y, z'
loop_
 _atom_site_type_symbol
 _atom_site_label
 _atom_site_symmetry_multiplicity
 _atom_site_fract_x
 _atom_site_fract_y
 _atom_site_fract_z
 _atom_site_occupancy
  Li  Li0  1  0.00000000  0.00000000  0.50000000  1
  Li  Li1  1  0.50000000  0.00000000  0.50000000  1
  Li  Li2  1  0.50000000  0.50000000  0.50000000  1
  Mn  Mn3  1  0.50000000  0.50000000  0.00000000  1
  Cr  Cr4  1  0.00000000  0.50000000  0.50000000  1
  Cr  Cr5  1  0.00000000  0.00000000  0.00000000  1
  Cr  Cr6  1  0.50000000  0.00000000  0.00000000  1
  Cr  Cr7  1  0.00000000  0.50000000  0.00000000  1
  O  O8  1  0.48383860  0.25307514  0.76923654  1
  O  O9  1  0.01003251  0.25861203  0.76419879  1
  O  O10  1  0.49441324  0.77423130  0.76419879  1
  O  O11  1  0.98801722  0.76799819  0.77998097  1
  O  O12  1  0.01198278  0.23200181  0.22001903  1
  O  O13  1  0.50558676  0.22576870  0.23580121  1
  O  O14  1  0.98996749  0.74138797  0.23580121  1
  O  O15  1  0.51616140  0.74692486  0.23076346  1
