# generated using pymatgen
data_Sr5Al11TlSi13O48
_symmetry_space_group_name_H-M   'P 1'
_cell_length_a   12.50276955
_cell_length_b   12.41869312
_cell_length_c   12.32323667
_cell_angle_alpha   90.63957801
_cell_angle_beta   89.86925025
_cell_angle_gamma   89.42089089
_symmetry_Int_Tables_number   1
_chemical_formula_structural   Sr5Al11TlSi13O48
_chemical_formula_sum   'Sr5 Al11 Tl1 Si13 O48'
_cell_volume   1913.18260210
_cell_formula_units_Z   1
loop_
 _symmetry_equiv_pos_site_id
 _symmetry_equiv_pos_as_xyz
  1  'x, y, z'
loop_
 _atom_site_type_symbol
 _atom_site_label
 _atom_site_symmetry_multiplicity
 _atom_site_fract_x
 _atom_site_fract_y
 _atom_site_fract_z
 _atom_site_occupancy
  Sr  Sr0  1  0.22300012  0.76929019  0.21813190  1
  Sr  Sr1  1  0.77269130  0.20882554  0.20843597  1
  Sr  Sr2  1  0.76441333  0.20301308  0.79627580  1
  Sr  Sr3  1  0.76255908  0.79456725  0.20588806  1
  Sr  Sr4  1  0.86935774  0.86062901  0.85305013  1
  Al  Al5  1  0.18990020  0.61804977  0.99492297  1
  Al  Al6  1  0.60935228  0.01338748  0.18690831  1
  Al  Al7  1  0.60648952  0.19085476  0.00161989  1
  Al  Al8  1  0.61972776  0.81499246  0.99258518  1
  Al  Al9  1  0.62030427  0.98744078  0.81033057  1
  Al  Al10  1  0.82707836  0.00834632  0.62449744  1
  Al  Al11  1  0.82640426  0.36567053  0.99662487  1
  Al  Al12  1  0.82213964  0.62657872  0.00101151  1
  Al  Al13  1  0.82559446  0.00297294  0.36415417  1
  Al  Al14  1  0.99903365  0.62596480  0.81075693  1
  Al  Al15  1  0.00150729  0.81597324  0.36946678  1
  Tl  Tl16  1  0.68395264  0.68178802  0.75670005  1
  Si  Si17  1  0.00749361  0.37080004  0.18468094  1
  Si  Si18  1  0.01200110  0.18925934  0.62472228  1
  Si  Si19  1  0.18777716  0.00028443  0.62295759  1
  Si  Si20  1  0.18504725  0.37080509  0.99610347  1
  Si  Si21  1  0.18507152  0.00264159  0.37139079  1
  Si  Si22  1  0.37071917  0.00616949  0.18352828  1
  Si  Si23  1  0.36471026  0.18235016  0.99357230  1
  Si  Si24  1  0.36615838  0.81874235  0.99566164  1
  Si  Si25  1  0.36615421  0.99189291  0.81397060  1
  Si  Si26  1  0.01045997  0.18924961  0.37121177  1
  Si  Si27  1  0.00569201  0.37084338  0.81092529  1
  Si  Si28  1  0.00962189  0.61992458  0.18711331  1
  Si  Si29  1  0.00772423  0.82026346  0.62630593  1
  O  O30  1  0.01665838  0.29392375  0.29211901  1
  O  O31  1  0.99368863  0.49547345  0.22878685  1
  O  O32  1  0.02379181  0.29249578  0.70412158  1
  O  O33  1  0.02945029  0.70202883  0.28884953  1
  O  O34  1  0.99401198  0.78129225  0.50345273  1
  O  O35  1  0.00556283  0.72334271  0.71054773  1
  O  O36  1  0.11648551  0.11290624  0.35339839  1
  O  O37  1  0.11223514  0.35903348  0.10807086  1
  O  O38  1  0.11502777  0.10904043  0.64020976  1
  O  O39  1  0.12343913  0.63133113  0.12383047  1
  O  O40  1  0.10777135  0.35335212  0.89084851  1
  O  O41  1  0.11846955  0.89329870  0.34283191  1
  O  O42  1  0.09861080  0.65402980  0.90062987  1
  O  O43  1  0.11541348  0.89441374  0.64220948  1
  O  O44  1  0.23217388  0.99927937  0.49570012  1
  O  O45  1  0.24229123  0.48645625  0.99255152  1
  O  O46  1  0.27847136  0.99663617  0.27867072  1
  O  O47  1  0.26744268  0.26910149  0.99727313  1
  O  O48  1  0.28527392  0.00006219  0.70938807  1
  O  O49  1  0.28440449  0.72181919  0.02456509  1
  O  O50  1  0.35350643  0.11019217  0.10634403  1
  O  O51  1  0.34823198  0.10043313  0.88901715  1
  O  O52  1  0.34845733  0.89381561  0.11025419  1
  O  O53  1  0.33034475  0.88896962  0.89012849  1
  O  O54  1  0.47745114  0.24334160  0.98586815  1
  O  O55  1  0.48708163  0.97495691  0.76966616  1
  O  O56  1  0.48707181  0.77531170  0.98255777  1
  O  O57  1  0.48265036  0.99807947  0.24509101  1
  O  O58  1  0.61665078  0.14096936  0.13189789  1
  O  O59  1  0.63500936  0.09724092  0.89835796  1
  O  O60  1  0.63741094  0.90339169  0.10137502  1
  O  O61  1  0.66761132  0.86088567  0.86392022  1
  O  O62  1  0.72322060  0.01577076  0.26964836  1
  O  O63  1  0.73058087  0.01757496  0.72658171  1
  O  O64  1  0.72399946  0.27043044  0.99399962  1
  O  O65  1  0.71872307  0.72006387  0.02578104  1
  O  O66  1  0.78405257  0.00052539  0.49527556  1
  O  O67  1  0.78407868  0.49589451  0.99927514  1
  O  O68  1  0.90278104  0.12353333  0.33658771  1
  O  O69  1  0.90087251  0.12877059  0.65782975  1
  O  O70  1  0.89881876  0.33345534  0.11996695  1
  O  O71  1  0.89815181  0.32703958  0.87533046  1
  O  O72  1  0.90386465  0.66050043  0.11901829  1
  O  O73  1  0.87218543  0.67036615  0.87261996  1
  O  O74  1  0.88961482  0.88255637  0.31951741  1
  O  O75  1  0.90606503  0.89761551  0.66753882  1
  O  O76  1  0.00680465  0.22990037  0.49789001  1
  O  O77  1  0.98829737  0.49192616  0.76950107  1
