# generated using pymatgen
data_Li4Cr3FeO8
_symmetry_space_group_name_H-M   'P 1'
_cell_length_a   5.12262707
_cell_length_b   7.78321722
_cell_length_c   7.78269011
_cell_angle_alpha   81.64059212
_cell_angle_beta   71.01635968
_cell_angle_gamma   83.70961640
_symmetry_Int_Tables_number   1
_chemical_formula_structural   Li4Cr3FeO8
_chemical_formula_sum   'Li8 Cr6 Fe2 O16'
_cell_volume   289.66184578
_cell_formula_units_Z   2
loop_
 _symmetry_equiv_pos_site_id
 _symmetry_equiv_pos_as_xyz
  1  'x, y, z'
loop_
 _atom_site_type_symbol
 _atom_site_label
 _atom_site_symmetry_multiplicity
 _atom_site_fract_x
 _atom_site_fract_y
 _atom_site_fract_z
 _atom_site_occupancy
  Li  Li0  1  0.00357854  0.00010538  0.99825333  1
  Li  Li1  1  0.00225487  0.24932959  0.24897162  1
  Li  Li2  1  0.99604051  0.62490878  0.12700559  1
  Li  Li3  1  0.99812515  0.12378720  0.62608744  1
  Li  Li4  1  0.00186684  0.50163917  0.49880024  1
  Li  Li5  1  0.99755505  0.87294969  0.37624379  1
  Li  Li6  1  0.99778474  0.37564288  0.87599664  1
  Li  Li7  1  0.00280174  0.75162303  0.74860751  1
  Cr  Cr8  1  0.50037121  0.05994046  0.31483645  1
  Cr  Cr9  1  0.49999013  0.43851089  0.18857753  1
  Cr  Cr10  1  0.50006654  0.81249568  0.06251615  1
  Cr  Cr11  1  0.49995755  0.31255943  0.56249510  1
  Cr  Cr12  1  0.49995719  0.18644350  0.93639704  1
  Cr  Cr13  1  0.49965562  0.56499988  0.81013453  1
  Fe  Fe14  1  0.50011797  0.68857356  0.43858455  1
  Fe  Fe15  1  0.49990827  0.93647061  0.68644584  1
  O  O16  1  0.27342083  0.02993478  0.15172682  1
  O  O17  1  0.72600170  0.21900386  0.09943342  1
  O  O18  1  0.27394714  0.40604233  0.02560477  1
  O  O19  1  0.72411103  0.09194550  0.47703994  1
  O  O20  1  0.27346047  0.27980833  0.40144365  1
  O  O21  1  0.27663224  0.65658295  0.27987974  1
  O  O22  1  0.72417356  0.47397177  0.35060038  1
  O  O23  1  0.27583113  0.15117702  0.77436052  1
  O  O24  1  0.27569350  0.53300171  0.64811389  1
  O  O25  1  0.72458570  0.84194380  0.22673861  1
  O  O26  1  0.72655627  0.34516442  0.72350545  1
  O  O27  1  0.27847006  0.90140148  0.52878630  1
  O  O28  1  0.72154285  0.72348865  0.59612757  1
  O  O29  1  0.27565547  0.78312516  0.89813727  1
  O  O30  1  0.72658113  0.59499293  0.97328065  1
  O  O31  1  0.72330701  0.96843559  0.84526865  1
