# generated using pymatgen
data_Li2Cr3FeO8
_symmetry_space_group_name_H-M   'P 1'
_cell_length_a   5.25752768
_cell_length_b   7.83416566
_cell_length_c   7.84244634
_cell_angle_alpha   81.74140028
_cell_angle_beta   69.48026815
_cell_angle_gamma   85.38424083
_symmetry_Int_Tables_number   1
_chemical_formula_structural   Li2Cr3FeO8
_chemical_formula_sum   'Li4 Cr6 Fe2 O16'
_cell_volume   299.22704589
_cell_formula_units_Z   2
loop_
 _symmetry_equiv_pos_site_id
 _symmetry_equiv_pos_as_xyz
  1  'x, y, z'
loop_
 _atom_site_type_symbol
 _atom_site_label
 _atom_site_symmetry_multiplicity
 _atom_site_fract_x
 _atom_site_fract_y
 _atom_site_fract_z
 _atom_site_occupancy
  Li  Li0  1  0.00049663  0.99849369  0.99778577  1
  Li  Li1  1  0.99487744  0.50203121  0.50009139  1
  Li  Li2  1  -0.00259411  0.24339789  0.25593816  1
  Li  Li3  1  0.99709514  0.75335747  0.74885464  1
  Cr  Cr4  1  0.48735907  0.81354670  0.06518500  1
  Cr  Cr5  1  0.52065517  0.43780343  0.18297365  1
  Cr  Cr6  1  0.47665792  0.31215633  0.56934284  1
  Cr  Cr7  1  0.52334464  0.18867553  0.92937198  1
  Cr  Cr8  1  0.47432495  0.56317911  0.81773889  1
  Cr  Cr9  1  0.52268559  0.93743498  0.68202917  1
  Fe  Fe10  1  0.47469128  0.06009809  0.32200972  1
  Fe  Fe11  1  0.51985021  0.68844539  0.43199904  1
  O  O12  1  0.28207216  0.02854945  0.14282417  1
  O  O13  1  0.31427027  0.39951857  0.02542854  1
  O  O14  1  0.30550832  0.63791788  0.27602703  1
  O  O15  1  0.27897415  0.29008624  0.39912439  1
  O  O16  1  0.30177578  0.89062639  0.53365586  1
  O  O17  1  0.27458882  0.52912621  0.65589999  1
  O  O18  1  0.31172350  0.14855491  0.77274180  1
  O  O19  1  0.71379075  0.22713566  0.10335866  1
  O  O20  1  0.28495929  0.78074244  0.90276937  1
  O  O21  1  0.71532034  0.46026791  0.35830970  1
  O  O22  1  0.69917686  0.11206651  0.46743039  1
  O  O23  1  0.69968266  0.85191786  0.20719954  1
  O  O24  1  0.69307397  0.36295138  0.71374439  1
  O  O25  1  0.71790221  0.70801099  0.61227275  1
  O  O26  1  0.72219315  0.96520260  0.85580852  1
  O  O27  1  0.69554286  0.60870919  0.97008365  1
