# generated using pymatgen
data_VGaO3
_symmetry_space_group_name_H-M   'P 1'
_cell_length_a   5.13569294
_cell_length_b   7.87867448
_cell_length_c   5.14516745
_cell_angle_alpha   89.99944291
_cell_angle_beta   89.99974220
_cell_angle_gamma   90.00182971
_symmetry_Int_Tables_number   1
_chemical_formula_structural   VGaO3
_chemical_formula_sum   'V4 Ga4 O12'
_cell_volume   208.18609557
_cell_formula_units_Z   4
loop_
 _symmetry_equiv_pos_site_id
 _symmetry_equiv_pos_as_xyz
  1  'x, y, z'
loop_
 _atom_site_type_symbol
 _atom_site_label
 _atom_site_symmetry_multiplicity
 _atom_site_fract_x
 _atom_site_fract_y
 _atom_site_fract_z
 _atom_site_occupancy
  V  V0  1  0.00000028  -0.00000068  0.49999879  1
  V  V1  1  -0.00000207  0.50000085  0.49999924  1
  V  V2  1  0.49999887  0.00000015  0.99999917  1
  V  V3  1  0.49999788  0.50000023  0.99999884  1
  Ga  Ga4  1  0.01277767  0.25000443  0.01526583  1
  Ga  Ga5  1  0.48722381  0.74998847  0.51526695  1
  Ga  Ga6  1  0.51277686  0.25001129  0.48472900  1
  Ga  Ga7  1  0.98722278  0.74999486  0.98473851  1
  O  O8  1  0.12218749  0.75000085  0.62877373  1
  O  O9  1  0.16917125  0.57492920  0.15716971  1
  O  O10  1  0.16915484  0.92507538  0.15716212  1
  O  O11  1  0.33084502  0.07493201  0.65716288  1
  O  O12  1  0.33082978  0.42507421  0.65716790  1
  O  O13  1  0.37781418  0.25000639  0.12877067  1
  O  O14  1  0.62218566  0.74999307  0.87122826  1
  O  O15  1  0.66917192  0.57492525  0.34283173  1
  O  O16  1  0.66915465  0.92507106  0.34283809  1
  O  O17  1  0.83084519  0.07492455  0.84283893  1
  O  O18  1  0.83083085  0.42506891  0.84283070  1
  O  O19  1  0.87781308  0.24999951  0.37122895  1
