# generated using pymatgen
data_TlCoO3
_symmetry_space_group_name_H-M   'P 1'
_cell_length_a   5.22905150
_cell_length_b   5.78674810
_cell_length_c   5.22905104
_cell_angle_alpha   116.86003453
_cell_angle_beta   60.00000896
_cell_angle_gamma   116.86003205
_symmetry_Int_Tables_number   1
_chemical_formula_structural   TlCoO3
_chemical_formula_sum   'Tl2 Co2 O6'
_cell_volume   116.90234127
_cell_formula_units_Z   2
loop_
 _symmetry_equiv_pos_site_id
 _symmetry_equiv_pos_as_xyz
  1  'x, y, z'
loop_
 _atom_site_type_symbol
 _atom_site_label
 _atom_site_symmetry_multiplicity
 _atom_site_fract_x
 _atom_site_fract_y
 _atom_site_fract_z
 _atom_site_occupancy
  Tl  Tl0  1  0.12664983  0.37994850  0.12664983  1
  Tl  Tl1  1  0.87335017  0.62005150  0.87335017  1
  Co  Co2  1  0.33919833  0.01759600  0.33919833  1
  Co  Co3  1  0.66080167  0.98240400  0.66080167  1
  O  O4  1  0.05571127  0.21618733  0.47029417  1
  O  O5  1  0.47029417  0.21618733  0.69018290  1
  O  O6  1  0.69018290  0.21618733  0.05571127  1
  O  O7  1  0.30981710  0.78381267  0.94428873  1
  O  O8  1  0.52970583  0.78381267  0.30981710  1
  O  O9  1  0.94428873  0.78381267  0.52970583  1
