# generated using pymatgen
data_Li3Ti2CoO6
_symmetry_space_group_name_H-M   'P 1'
_cell_length_a   15.77001208
_cell_length_b   10.11366356
_cell_length_c   10.11366360
_cell_angle_alpha   16.88318945
_cell_angle_beta   16.10835878
_cell_angle_gamma   16.10835595
_symmetry_Int_Tables_number   1
_chemical_formula_structural   Li3Ti2CoO6
_chemical_formula_sum   'Li3 Ti2 Co1 O6'
_cell_volume   111.50215107
_cell_formula_units_Z   1
loop_
 _symmetry_equiv_pos_site_id
 _symmetry_equiv_pos_as_xyz
  1  'x, y, z'
loop_
 _atom_site_type_symbol
 _atom_site_label
 _atom_site_symmetry_multiplicity
 _atom_site_fract_x
 _atom_site_fract_y
 _atom_site_fract_z
 _atom_site_occupancy
  Li  Li0  1  0.16666700  0.50000000  0.50000000  1
  Li  Li1  1  0.51402458  0.49059383  0.49059383  1
  Li  Li2  1  0.81930842  0.50940617  0.50940617  1
  Ti  Ti3  1  0.04830731  0.96540769  0.96540769  1
  Ti  Ti4  1  0.28502569  0.03459231  0.03459231  1
  Co  Co5  1  0.66666700  0.00000000  0.00000000  1
  O  O6  1  0.21796882  0.27647510  0.27647510  1
  O  O7  1  0.56363761  0.27504556  0.27504556  1
  O  O8  1  0.11536418  0.72352490  0.72352490  1
  O  O9  1  0.93876314  0.23287167  0.23287167  1
  O  O10  1  0.39456986  0.76712833  0.76712833  1
  O  O11  1  0.76969539  0.72495444  0.72495444  1
