# generated using pymatgen
data_Li4Cr3FeO8
_symmetry_space_group_name_H-M   'P 1'
_cell_length_a   5.12221705
_cell_length_b   7.79070251
_cell_length_c   7.77045425
_cell_angle_alpha   81.87375823
_cell_angle_beta   71.01726558
_cell_angle_gamma   83.79319699
_symmetry_Int_Tables_number   1
_chemical_formula_structural   Li4Cr3FeO8
_chemical_formula_sum   'Li8 Cr6 Fe2 O16'
_cell_volume   289.63729367
_cell_formula_units_Z   2
loop_
 _symmetry_equiv_pos_site_id
 _symmetry_equiv_pos_as_xyz
  1  'x, y, z'
loop_
 _atom_site_type_symbol
 _atom_site_label
 _atom_site_symmetry_multiplicity
 _atom_site_fract_x
 _atom_site_fract_y
 _atom_site_fract_z
 _atom_site_occupancy
  Li  Li0  1  0.99964516  0.00057496  0.99988121  1
  Li  Li1  1  0.00107908  0.24647805  0.25065935  1
  Li  Li2  1  0.99903452  0.62422576  0.12575305  1
  Li  Li3  1  0.00039654  0.12596069  0.62446755  1
  Li  Li4  1  0.99895876  0.50369671  0.49928433  1
  Li  Li5  1  0.00001238  0.87470460  0.37507636  1
  Li  Li6  1  0.99995897  0.37498030  0.87503288  1
  Li  Li7  1  0.00090418  0.74939428  0.74982412  1
  Cr  Cr8  1  0.49965899  0.43651445  0.18946249  1
  Cr  Cr9  1  0.50010278  0.81263037  0.06536551  1
  Cr  Cr10  1  0.50029771  0.31345026  0.56054807  1
  Cr  Cr11  1  0.49981890  0.18697934  0.93934564  1
  Cr  Cr12  1  0.50016171  0.56300725  0.81070448  1
  Cr  Cr13  1  0.49993384  0.93741268  0.68459339  1
  Fe  Fe14  1  0.49993739  0.06064923  0.31334277  1
  Fe  Fe15  1  0.50007369  0.68935521  0.43665030  1
  O  O16  1  0.27652798  0.03003100  0.15488798  1
  O  O17  1  0.72403817  0.21630907  0.10333444  1
  O  O18  1  0.27342518  0.40555833  0.02662331  1
  O  O19  1  0.72328799  0.09442963  0.47051134  1
  O  O20  1  0.27550176  0.27564704  0.40030255  1
  O  O21  1  0.27668596  0.65558489  0.27951656  1
  O  O22  1  0.72450172  0.47434787  0.34969993  1
  O  O23  1  0.27356942  0.15585296  0.77618079  1
  O  O24  1  0.27596969  0.53370020  0.64667457  1
  O  O25  1  0.72256214  0.84570835  0.22858182  1
  O  O26  1  0.72654037  0.34444823  0.72340801  1
  O  O27  1  0.27746562  0.90426359  0.52140407  1
  O  O28  1  0.72351019  0.71994176  0.59508013  1
  O  O29  1  0.27369832  0.78075688  0.90162731  1
  O  O30  1  0.72640405  0.59414457  0.97384079  1
  O  O31  1  0.72633584  0.96925952  0.84833791  1
