# generated using pymatgen
data_Li2Al2FeO6
_symmetry_space_group_name_H-M   'P 1'
_cell_length_a   4.91046888
_cell_length_b   4.91046863
_cell_length_c   5.16771699
_cell_angle_alpha   80.61584543
_cell_angle_beta   99.38415842
_cell_angle_gamma   59.74401357
_symmetry_Int_Tables_number   1
_chemical_formula_structural   Li2Al2FeO6
_chemical_formula_sum   'Li2 Al2 Fe1 O6'
_cell_volume   101.70275553
_cell_formula_units_Z   1
loop_
 _symmetry_equiv_pos_site_id
 _symmetry_equiv_pos_as_xyz
  1  'x, y, z'
loop_
 _atom_site_type_symbol
 _atom_site_label
 _atom_site_symmetry_multiplicity
 _atom_site_fract_x
 _atom_site_fract_y
 _atom_site_fract_z
 _atom_site_occupancy
  Li  Li0  1  0.50075693  0.50075693  0.50000000  1
  Li  Li1  1  0.83534696  0.83534696  0.50000000  1
  Al  Al2  1  0.32988435  0.32988435  1.00000000  1
  Al  Al3  1  0.66586347  0.66586347  0.00000000  1
  Fe  Fe4  1  0.00061754  0.00061754  1.00000000  1
  O  O5  1  0.07150720  0.60183737  0.21015579  1
  O  O6  1  0.25836260  0.73270474  0.79395883  1
  O  O7  1  0.60183737  0.07150720  0.78984421  1
  O  O8  1  0.41332555  0.92201530  0.20435204  1
  O  O9  1  0.73270474  0.25836260  0.20604117  1
  O  O10  1  0.92201530  0.41332555  0.79564796  1
