# generated using pymatgen
data_LiAlFeO4
_symmetry_space_group_name_H-M   'P 1'
_cell_length_a   9.33088473
_cell_length_b   2.90408437
_cell_length_c   10.37346364
_cell_angle_alpha   90.00004317
_cell_angle_beta   89.94704661
_cell_angle_gamma   89.99999516
_symmetry_Int_Tables_number   1
_chemical_formula_structural   LiAlFeO4
_chemical_formula_sum   'Li4 Al4 Fe4 O16'
_cell_volume   281.09664192
_cell_formula_units_Z   4
loop_
 _symmetry_equiv_pos_site_id
 _symmetry_equiv_pos_as_xyz
  1  'x, y, z'
loop_
 _atom_site_type_symbol
 _atom_site_label
 _atom_site_symmetry_multiplicity
 _atom_site_fract_x
 _atom_site_fract_y
 _atom_site_fract_z
 _atom_site_occupancy
  Li  Li0  1  0.10142856  0.25000066  0.61323581  1
  Li  Li1  1  0.39894627  0.74999980  0.11329603  1
  Li  Li2  1  0.60135503  0.25000034  0.88689119  1
  Li  Li3  1  0.89829070  0.75000004  0.38650063  1
  Al  Al4  1  0.01111105  0.25000031  0.12505440  1
  Al  Al5  1  0.48905075  0.75000007  0.62488372  1
  Al  Al6  1  0.51095462  0.24999883  0.37508581  1
  Al  Al7  1  0.98889331  0.75000039  0.87506929  1
  Fe  Fe8  1  0.23162276  0.75000113  0.34061602  1
  Fe  Fe9  1  0.26825474  0.24999837  0.84052197  1
  Fe  Fe10  1  0.73162976  0.74999979  0.15933617  1
  Fe  Fe11  1  0.76834451  0.24999661  0.65945626  1
  O  O12  1  0.09875158  0.25000091  0.95761449  1
  O  O13  1  0.13051916  0.25000256  0.42582335  1
  O  O14  1  0.10890320  0.74999869  0.19316414  1
  O  O15  1  0.14360905  0.74999870  0.75379566  1
  O  O16  1  0.35657976  0.24999825  0.25382552  1
  O  O17  1  0.39108582  0.24999957  0.69319312  1
  O  O18  1  0.36937974  0.75000119  0.92565542  1
  O  O19  1  0.40128481  0.75000040  0.45776556  1
  O  O20  1  0.59869052  0.24999997  0.54230426  1
  O  O21  1  0.63049474  0.25000023  0.07419454  1
  O  O22  1  0.60890027  0.75000033  0.30687026  1
  O  O23  1  0.64346480  0.75000133  0.74620951  1
  O  O24  1  0.85643080  0.25000220  0.24618644  1
  O  O25  1  0.89111230  0.25000063  0.80688445  1
  O  O26  1  0.86951181  0.74999670  0.57423189  1
  O  O27  1  0.90139957  0.75000202  0.04233409  1
