# generated using pymatgen
data_NiP2O7
_symmetry_space_group_name_H-M   'P 1'
_cell_length_a   5.09197794
_cell_length_b   6.81695135
_cell_length_c   8.39316922
_cell_angle_alpha   68.00297500
_cell_angle_beta   87.32588660
_cell_angle_gamma   87.76445009
_symmetry_Int_Tables_number   1
_chemical_formula_structural   NiP2O7
_chemical_formula_sum   'Ni2 P4 O14'
_cell_volume   269.76591689
_cell_formula_units_Z   2
loop_
 _symmetry_equiv_pos_site_id
 _symmetry_equiv_pos_as_xyz
  1  'x, y, z'
loop_
 _atom_site_type_symbol
 _atom_site_label
 _atom_site_symmetry_multiplicity
 _atom_site_fract_x
 _atom_site_fract_y
 _atom_site_fract_z
 _atom_site_occupancy
  Ni  Ni0  1  0.75330394  0.79011479  0.27179300  1
  Ni  Ni1  1  0.24669606  0.20988521  0.72820700  1
  P  P2  1  0.28246943  0.45341521  0.30696544  1
  P  P3  1  0.75421498  0.88973014  0.82807390  1
  P  P4  1  0.71753057  0.54658479  0.69303456  1
  P  P5  1  0.24578502  0.11026986  0.17192610  1
  O  O6  1  0.56405468  0.51551245  0.31807547  1
  O  O7  1  0.56642247  0.04176023  0.70384315  1
  O  O8  1  0.29444557  0.12290255  0.98712842  1
  O  O9  1  0.95413959  0.06628271  0.21899781  1
  O  O10  1  0.70797584  0.65373727  0.83592826  1
  O  O11  1  0.10510378  0.64934805  0.23252089  1
  O  O12  1  0.43594532  0.48448755  0.68192453  1
  O  O13  1  0.17612194  0.29064590  0.47472234  1
  O  O14  1  0.04586041  0.93371729  0.78100219  1
  O  O15  1  0.70555443  0.87709745  0.01287158  1
  O  O16  1  0.82387806  0.70935410  0.52527766  1
  O  O17  1  0.43357753  0.95823977  0.29615685  1
  O  O18  1  0.29202416  0.34626273  0.16407174  1
  O  O19  1  0.89489622  0.35065195  0.76747911  1
