# generated using pymatgen
data_Li4Ti3V2Co3O16
_symmetry_space_group_name_H-M   'P 1'
_cell_length_a   5.91325061
_cell_length_b   5.91291648
_cell_length_c   9.63186684
_cell_angle_alpha   90.36661357
_cell_angle_beta   90.21299420
_cell_angle_gamma   119.78290626
_symmetry_Int_Tables_number   1
_chemical_formula_structural   Li4Ti3V2Co3O16
_chemical_formula_sum   'Li4 Ti3 V2 Co3 O16'
_cell_volume   292.27551572
_cell_formula_units_Z   1
loop_
 _symmetry_equiv_pos_site_id
 _symmetry_equiv_pos_as_xyz
  1  'x, y, z'
loop_
 _atom_site_type_symbol
 _atom_site_label
 _atom_site_symmetry_multiplicity
 _atom_site_fract_x
 _atom_site_fract_y
 _atom_site_fract_z
 _atom_site_occupancy
  Li  Li0  1  0.33816018  0.67181579  0.90433829  1
  Li  Li1  1  0.98876109  0.99258096  0.98612617  1
  Li  Li2  1  0.00117206  0.00415140  0.49406131  1
  Li  Li3  1  0.66793907  0.32584396  0.40350587  1
  Ti  Ti4  1  0.18172014  0.83103921  0.22351654  1
  Ti  Ti5  1  0.20054026  0.34520369  0.22066465  1
  Ti  Ti6  1  0.36539886  0.18636604  0.73614572  1
  V  V7  1  0.33639162  0.66855607  0.50123979  1
  V  V8  1  0.70695563  0.34987418  0.98855932  1
  Co  Co9  1  0.65395311  0.82509836  0.20672122  1
  Co  Co10  1  0.83154015  0.66211282  0.70721156  1
  Co  Co11  1  0.82918326  0.17504022  0.70929724  1
  O  O12  1  0.18103020  0.82688837  0.58468782  1
  O  O13  1  0.03473999  0.51647921  0.33375212  1
  O  O14  1  0.31950646  0.65678956  0.10598754  1
  O  O15  1  0.99184506  0.99726749  0.30099413  1
  O  O16  1  0.01302384  0.01086387  0.79400772  1
  O  O17  1  0.18348001  0.36039545  0.58470394  1
  O  O18  1  0.46591306  0.95424098  0.34250526  1
  O  O19  1  0.46854064  0.50367650  0.34580178  1
  O  O20  1  0.32808333  0.16284658  0.10227828  1
  O  O21  1  0.64902984  0.82818173  0.58048336  1
  O  O22  1  0.50968555  0.47857748  0.84967666  1
  O  O23  1  0.50474524  0.03978255  0.85663689  1
  O  O24  1  0.64666702  0.32289703  0.60626041  1
  O  O25  1  0.82166204  0.64903924  0.09083738  1
  O  O26  1  0.95554094  0.47776226  0.85911888  1
  O  O27  1  0.82479233  0.17693201  0.08872115  1
