# generated using pymatgen
data_Ga2WO6
_symmetry_space_group_name_H-M   'P 1'
_cell_length_a   7.22948851
_cell_length_b   4.80289539
_cell_length_c   11.51840644
_cell_angle_alpha   90.00000000
_cell_angle_beta   93.90576539
_cell_angle_gamma   90.00000000
_symmetry_Int_Tables_number   1
_chemical_formula_structural   Ga2WO6
_chemical_formula_sum   'Ga8 W4 O24'
_cell_volume   399.01869662
_cell_formula_units_Z   4
loop_
 _symmetry_equiv_pos_site_id
 _symmetry_equiv_pos_as_xyz
  1  'x, y, z'
loop_
 _atom_site_type_symbol
 _atom_site_label
 _atom_site_symmetry_multiplicity
 _atom_site_fract_x
 _atom_site_fract_y
 _atom_site_fract_z
 _atom_site_occupancy
  Ga  Ga0  1  0.00000000  0.21029418  0.75000000  1
  Ga  Ga1  1  0.00000000  0.78970582  0.25000000  1
  Ga  Ga2  1  0.24289323  0.75806191  0.61832058  1
  Ga  Ga3  1  0.24289323  0.24193809  0.11832058  1
  Ga  Ga4  1  0.50000000  0.28783428  0.75000000  1
  Ga  Ga5  1  0.50000000  0.71216572  0.25000000  1
  Ga  Ga6  1  0.75710677  0.75806191  0.88167942  1
  Ga  Ga7  1  0.75710677  0.24193809  0.38167942  1
  W  W8  1  0.25625914  0.73355100  0.89586116  1
  W  W9  1  0.25625914  0.26644900  0.39586116  1
  W  W10  1  0.74374086  0.73355100  0.60413884  1
  W  W11  1  0.74374086  0.26644900  0.10413884  1
  O  O12  1  0.01288228  0.92815279  0.87065673  1
  O  O13  1  0.16745474  0.43622085  0.97275593  1
  O  O14  1  0.01288228  0.07184721  0.37065673  1
  O  O15  1  0.18764287  0.49206946  0.74049204  1
  O  O16  1  0.16745474  0.56377915  0.47275593  1
  O  O17  1  0.31659350  0.99627349  0.76219654  1
  O  O18  1  0.18764287  0.50793054  0.24049204  1
  O  O19  1  0.33022109  0.05612340  0.52107380  1
  O  O20  1  0.50282529  0.56329507  0.87339389  1
  O  O21  1  0.31659350  0.00372651  0.26219654  1
  O  O22  1  0.49717471  0.56329507  0.62660611  1
  O  O23  1  0.66977891  0.05612340  0.97892620  1
  O  O24  1  0.33022109  0.94387660  0.02107380  1
  O  O25  1  0.50282529  0.43670493  0.37339389  1
  O  O26  1  0.68340650  0.99627349  0.73780346  1
  O  O27  1  0.49717471  0.43670493  0.12660611  1
  O  O28  1  0.66977891  0.94387660  0.47892620  1
  O  O29  1  0.81235713  0.49206946  0.75950796  1
  O  O30  1  0.68340650  0.00372651  0.23780346  1
  O  O31  1  0.83254526  0.43622085  0.52724407  1
  O  O32  1  0.81235713  0.50793054  0.25950796  1
  O  O33  1  0.98711772  0.92815279  0.62934327  1
  O  O34  1  0.83254526  0.56377915  0.02724407  1
  O  O35  1  0.98711772  0.07184721  0.12934327  1
