# generated using pymatgen
data_LiCr2O5
_symmetry_space_group_name_H-M   'P 1'
_cell_length_a   8.00049010
_cell_length_b   8.27817961
_cell_length_c   6.08500505
_cell_angle_alpha   90.00000000
_cell_angle_beta   90.00000000
_cell_angle_gamma   90.00000000
_symmetry_Int_Tables_number   1
_chemical_formula_structural   LiCr2O5
_chemical_formula_sum   'Li4 Cr8 O20'
_cell_volume   403.00680555
_cell_formula_units_Z   4
loop_
 _symmetry_equiv_pos_site_id
 _symmetry_equiv_pos_as_xyz
  1  'x, y, z'
loop_
 _atom_site_type_symbol
 _atom_site_label
 _atom_site_symmetry_multiplicity
 _atom_site_fract_x
 _atom_site_fract_y
 _atom_site_fract_z
 _atom_site_occupancy
  Li  Li0  1  0.15483136  0.34137279  0.75000000  1
  Li  Li1  1  0.34516864  0.84137279  0.75000000  1
  Li  Li2  1  0.65483136  0.15862721  0.25000000  1
  Li  Li3  1  0.84516864  0.65862721  0.25000000  1
  Cr  Cr4  1  0.00000000  0.00000000  0.00000000  1
  Cr  Cr5  1  0.00000000  0.00000000  0.50000000  1
  Cr  Cr6  1  0.14544951  0.33369858  0.25000000  1
  Cr  Cr7  1  0.35455049  0.83369858  0.25000000  1
  Cr  Cr8  1  0.50000000  0.50000000  0.00000000  1
  Cr  Cr9  1  0.50000000  0.50000000  0.50000000  1
  Cr  Cr10  1  0.64544951  0.16630142  0.75000000  1
  Cr  Cr11  1  0.85455049  0.66630142  0.75000000  1
  O  O12  1  0.99226277  0.52287004  0.75000000  1
  O  O13  1  0.11797028  0.21684441  0.02263679  1
  O  O14  1  0.11797028  0.21684441  0.47736321  1
  O  O15  1  0.13224191  0.94596564  0.75000000  1
  O  O16  1  0.14966652  0.91120677  0.25000000  1
  O  O17  1  0.35033348  0.41120677  0.25000000  1
  O  O18  1  0.36775809  0.44596564  0.75000000  1
  O  O19  1  0.38202972  0.71684441  0.47736321  1
  O  O20  1  0.38202972  0.71684441  0.02263679  1
  O  O21  1  0.50773723  0.02287004  0.75000000  1
  O  O22  1  0.49226277  0.97712996  0.25000000  1
  O  O23  1  0.61797028  0.28315559  0.97736321  1
  O  O24  1  0.61797028  0.28315559  0.52263679  1
  O  O25  1  0.63224191  0.55403436  0.25000000  1
  O  O26  1  0.64966652  0.58879323  0.75000000  1
  O  O27  1  0.85033348  0.08879323  0.75000000  1
  O  O28  1  0.86775809  0.05403436  0.25000000  1
  O  O29  1  0.88202972  0.78315559  0.97736321  1
  O  O30  1  0.88202972  0.78315559  0.52263679  1
  O  O31  1  0.00773723  0.47712996  0.25000000  1
