# generated using pymatgen
data_HoErO3
_symmetry_space_group_name_H-M   'P 1'
_cell_length_a   6.37854776
_cell_length_b   6.37861553
_cell_length_c   12.67486202
_cell_angle_alpha   90.00037843
_cell_angle_beta   89.99958009
_cell_angle_gamma   120.00066327
_symmetry_Int_Tables_number   1
_chemical_formula_structural   HoErO3
_chemical_formula_sum   'Ho6 Er6 O18'
_cell_volume   446.60050199
_cell_formula_units_Z   6
loop_
 _symmetry_equiv_pos_site_id
 _symmetry_equiv_pos_as_xyz
  1  'x, y, z'
loop_
 _atom_site_type_symbol
 _atom_site_label
 _atom_site_symmetry_multiplicity
 _atom_site_fract_x
 _atom_site_fract_y
 _atom_site_fract_z
 _atom_site_occupancy
  Ho  Ho0  1  0.33332656  0.66667429  0.23329876  1
  Ho  Ho1  1  0.99999162  0.99999513  0.26482552  1
  Ho  Ho2  1  -0.00000299  0.00000148  0.76481944  1
  Ho  Ho3  1  0.33332262  0.66665401  0.73329567  1
  Ho  Ho4  1  0.66665598  0.33332301  0.73329715  1
  Ho  Ho5  1  0.66666174  0.33334168  0.23330037  1
  Er  Er6  1  0.99998658  0.66719960  0.49654522  1
  Er  Er7  1  0.00000161  0.33281632  0.99653816  1
  Er  Er8  1  0.33278544  0.33279112  0.49654494  1
  Er  Er9  1  0.66719807  0.66720728  0.99653987  1
  Er  Er10  1  0.33280963  0.00001654  0.99653733  1
  Er  Er11  1  0.66719064  0.99999403  0.49654359  1
  O  O12  1  0.99998795  0.69481247  0.67034104  1
  O  O13  1  -0.00000062  0.63509698  0.32447510  1
  O  O14  1  0.99999499  0.36490210  0.82447437  1
  O  O15  1  -0.00000259  0.30516575  0.17034326  1
  O  O16  1  0.33333571  0.66668689  0.02235775  1
  O  O17  1  -0.00001315  0.99999352  0.46108593  1
  O  O18  1  0.99999452  0.00000758  0.96106840  1
  O  O19  1  0.33331676  0.66665372  0.52234979  1
  O  O20  1  0.30514803  0.30514798  0.67033924  1
  O  O21  1  0.36488930  0.36491441  0.32447861  1
  O  O22  1  0.30514266  0.99999115  0.17035227  1
  O  O23  1  0.63508925  0.63508811  0.82447666  1
  O  O24  1  0.69484497  0.69484807  0.17034997  1
  O  O25  1  0.36490716  0.99998718  0.82447974  1
  O  O26  1  0.66664687  0.33332059  0.52235077  1
  O  O27  1  0.66666814  0.33334478  0.02235788  1
  O  O28  1  0.63508645  0.00001695  0.32447833  1
  O  O29  1  0.69483811  0.00001128  0.67034688  1
