# generated using pymatgen
data_LaMgI5
_symmetry_space_group_name_H-M   'P 1'
_cell_length_a   7.85809414
_cell_length_b   15.30317072
_cell_length_c   12.36482518
_cell_angle_alpha   90.00000000
_cell_angle_beta   112.25608919
_cell_angle_gamma   90.00000000
_symmetry_Int_Tables_number   1
_chemical_formula_structural   LaMgI5
_chemical_formula_sum   'La4 Mg4 I20'
_cell_volume   1376.14176261
_cell_formula_units_Z   4
loop_
 _symmetry_equiv_pos_site_id
 _symmetry_equiv_pos_as_xyz
  1  'x, y, z'
loop_
 _atom_site_type_symbol
 _atom_site_label
 _atom_site_symmetry_multiplicity
 _atom_site_fract_x
 _atom_site_fract_y
 _atom_site_fract_z
 _atom_site_occupancy
  La  La0  1  0.03361547  0.25406615  0.87517393  1
  La  La1  1  0.03361547  0.24593385  0.37517393  1
  La  La2  1  0.96638453  0.75406615  0.62482607  1
  La  La3  1  0.96638453  0.74593385  0.12482607  1
  Mg  Mg4  1  0.56031273  0.95088843  0.77334563  1
  Mg  Mg5  1  0.43968727  0.45088843  0.72665437  1
  Mg  Mg6  1  0.56031273  0.54911157  0.27334563  1
  Mg  Mg7  1  0.43968727  0.04911157  0.22665437  1
  I  I8  1  0.17920136  0.93476466  0.70466836  1
  I  I9  1  0.06620196  0.20260378  0.63405463  1
  I  I10  1  0.31023872  0.62452141  0.69742510  1
  I  I11  1  0.32626114  0.10664211  0.99893483  1
  I  I12  1  0.38732338  0.37499637  0.91307037  1
  I  I13  1  0.17920136  0.56523534  0.20466836  1
  I  I14  1  0.06620196  0.29739622  0.13405463  1
  I  I15  1  0.31023872  0.87547859  0.19742510  1
  I  I16  1  0.32626114  0.39335789  0.49893483  1
  I  I17  1  0.38732338  0.12500363  0.41307037  1
  I  I18  1  0.61267662  0.87499637  0.58692963  1
  I  I19  1  0.67373886  0.60664211  0.50106517  1
  I  I20  1  0.68976128  0.12452141  0.80257490  1
  I  I21  1  0.93379804  0.70260378  0.86594537  1
  I  I22  1  0.82079864  0.43476466  0.79533164  1
  I  I23  1  0.61267662  0.62500363  0.08692963  1
  I  I24  1  0.67373886  0.89335789  0.00106517  1
  I  I25  1  0.68976128  0.37547859  0.30257490  1
  I  I26  1  0.93379804  0.79739622  0.36594537  1
  I  I27  1  0.82079864  0.06523534  0.29533164  1
