# generated using pymatgen
data_La4Ti3O12
_symmetry_space_group_name_H-M   'P 1'
_cell_length_a   5.57554869
_cell_length_b   5.71209943
_cell_length_c   7.97116604
_cell_angle_alpha   91.22957349
_cell_angle_beta   90.69269794
_cell_angle_gamma   90.51634379
_symmetry_Int_Tables_number   1
_chemical_formula_structural   La4Ti3O12
_chemical_formula_sum   'La4 Ti3 O12'
_cell_volume   253.77848375
_cell_formula_units_Z   1
loop_
 _symmetry_equiv_pos_site_id
 _symmetry_equiv_pos_as_xyz
  1  'x, y, z'
loop_
 _atom_site_type_symbol
 _atom_site_label
 _atom_site_symmetry_multiplicity
 _atom_site_fract_x
 _atom_site_fract_y
 _atom_site_fract_z
 _atom_site_occupancy
  La  La0  1  0.01064068  0.04203562  0.26861873  1
  La  La1  1  0.48695265  0.57168233  0.27386740  1
  La  La2  1  0.51304735  0.42831767  0.72613260  1
  La  La3  1  0.98935932  0.95796438  0.73138127  1
  Ti  Ti4  1  0.00000000  0.50000000  0.00000000  1
  Ti  Ti5  1  0.00000000  0.50000000  0.50000000  1
  Ti  Ti6  1  0.50000000  0.00000000  0.00000000  1
  O  O7  1  0.08324285  0.51502753  0.75704248  1
  O  O8  1  0.21563885  0.78051616  0.04827830  1
  O  O9  1  0.17711387  0.78554158  0.46112591  1
  O  O10  1  0.27670674  0.28868490  0.04995618  1
  O  O11  1  0.28321253  0.32304313  0.45613001  1
  O  O12  1  0.40713269  0.02094657  0.77381655  1
  O  O13  1  0.59286731  0.97905343  0.22618345  1
  O  O14  1  0.71678747  0.67695687  0.54386999  1
  O  O15  1  0.72329326  0.71131510  0.95004382  1
  O  O16  1  0.82288613  0.21445842  0.53887409  1
  O  O17  1  0.78436115  0.21948384  0.95172170  1
  O  O18  1  0.91675715  0.48497247  0.24295752  1
