# generated using pymatgen
data_Ba3Y2O6
_symmetry_space_group_name_H-M   'P 1'
_cell_length_a   12.52616735
_cell_length_b   18.15577304
_cell_length_c   3.59433075
_cell_angle_alpha   90.00000000
_cell_angle_beta   90.00000000
_cell_angle_gamma   90.00000000
_symmetry_Int_Tables_number   1
_chemical_formula_structural   Ba3Y2O6
_chemical_formula_sum   'Ba12 Y8 O24'
_cell_volume   817.43079168
_cell_formula_units_Z   4
loop_
 _symmetry_equiv_pos_site_id
 _symmetry_equiv_pos_as_xyz
  1  'x, y, z'
loop_
 _atom_site_type_symbol
 _atom_site_label
 _atom_site_symmetry_multiplicity
 _atom_site_fract_x
 _atom_site_fract_y
 _atom_site_fract_z
 _atom_site_occupancy
  Ba  Ba0  1  0.10440376  0.84581540  0.50000000  1
  Ba  Ba1  1  0.13397565  0.44784143  0.50000000  1
  Ba  Ba2  1  0.15140977  0.23274012  0.50000000  1
  Ba  Ba3  1  0.34859023  0.73274012  0.50000000  1
  Ba  Ba4  1  0.36602435  0.94784143  0.50000000  1
  Ba  Ba5  1  0.39559624  0.34581540  0.50000000  1
  Ba  Ba6  1  0.60440376  0.65418460  0.50000000  1
  Ba  Ba7  1  0.63397565  0.05215857  0.50000000  1
  Ba  Ba8  1  0.65140977  0.26725988  0.50000000  1
  Ba  Ba9  1  0.84859023  0.76725988  0.50000000  1
  Ba  Ba10  1  0.86602435  0.55215857  0.50000000  1
  Ba  Ba11  1  0.89559624  0.15418460  0.50000000  1
  Y  Y12  1  0.11324958  0.63860459  0.00000000  1
  Y  Y13  1  0.12885397  0.04081542  0.00000000  1
  Y  Y14  1  0.37114603  0.54081542  0.00000000  1
  Y  Y15  1  0.38675042  0.13860459  0.00000000  1
  Y  Y16  1  0.61324958  0.86139541  0.00000000  1
  Y  Y17  1  0.62885397  0.45918458  0.00000000  1
  Y  Y18  1  0.87114603  0.95918458  0.00000000  1
  Y  Y19  1  0.88675042  0.36139541  0.00000000  1
  O  O20  1  0.00000000  0.00000000  0.50000000  1
  O  O21  1  0.00000000  0.50000000  0.00000000  1
  O  O22  1  0.98790964  0.33897380  0.50000000  1
  O  O23  1  0.05654854  0.15202600  0.00000000  1
  O  O24  1  0.19407304  0.74190482  0.00000000  1
  O  O25  1  0.24647911  0.58298716  0.50000000  1
  O  O26  1  0.20874056  0.93207682  0.00000000  1
  O  O27  1  0.29125944  0.43207682  0.00000000  1
  O  O28  1  0.25352089  0.08298716  0.50000000  1
  O  O29  1  0.30592696  0.24190482  0.00000000  1
  O  O30  1  0.44345146  0.65202600  0.00000000  1
  O  O31  1  0.51209036  0.83897380  0.50000000  1
  O  O32  1  0.50000000  0.00000000  0.00000000  1
  O  O33  1  0.50000000  0.50000000  0.50000000  1
  O  O34  1  0.48790964  0.16102620  0.50000000  1
  O  O35  1  0.55654854  0.34797400  0.00000000  1
  O  O36  1  0.69407304  0.75809518  0.00000000  1
  O  O37  1  0.74647911  0.91701284  0.50000000  1
  O  O38  1  0.70874056  0.56792318  0.00000000  1
  O  O39  1  0.79125944  0.06792318  0.00000000  1
  O  O40  1  0.75352089  0.41701284  0.50000000  1
  O  O41  1  0.80592696  0.25809518  0.00000000  1
  O  O42  1  0.94345146  0.84797400  0.00000000  1
  O  O43  1  0.01209036  0.66102620  0.50000000  1
