# generated using pymatgen
data_Li5Ni5(SbO6)2
_symmetry_space_group_name_H-M   'P 1'
_cell_length_a   5.26258858
_cell_length_b   5.26258917
_cell_length_c   10.02270407
_cell_angle_alpha   84.59287001
_cell_angle_beta   95.40713171
_cell_angle_gamma   59.41228779
_symmetry_Int_Tables_number   1
_chemical_formula_structural   Li5Ni5(SbO6)2
_chemical_formula_sum   'Li5 Ni5 Sb2 O12'
_cell_volume   234.59269807
_cell_formula_units_Z   1
loop_
 _symmetry_equiv_pos_site_id
 _symmetry_equiv_pos_as_xyz
  1  'x, y, z'
loop_
 _atom_site_type_symbol
 _atom_site_label
 _atom_site_symmetry_multiplicity
 _atom_site_fract_x
 _atom_site_fract_y
 _atom_site_fract_z
 _atom_site_occupancy
  Li  Li0  1  0.17317354  0.67535423  0.50500329  1
  Li  Li1  1  0.32572855  0.82903941  0.99315574  1
  Li  Li2  1  0.67535423  0.17317354  0.99499671  1
  Li  Li3  1  0.82903941  0.32572855  0.50684426  1
  Li  Li4  1  0.91605728  0.91605728  0.75000000  1
  Ni  Ni5  1  0.08129668  0.08129668  0.25000000  1
  Ni  Ni6  1  0.00105184  0.50344247  0.99726097  1
  Ni  Ni7  1  0.50344247  0.00105184  0.50273903  1
  Ni  Ni8  1  0.41423418  0.41423418  0.25000000  1
  Ni  Ni9  1  0.58553894  0.58553894  0.75000000  1
  Sb  Sb10  1  0.25207353  0.25207353  0.75000000  1
  Sb  Sb11  1  0.74749835  0.74749835  0.25000000  1
  O  O12  1  0.97208336  0.22721373  0.86844415  1
  O  O13  1  0.22721373  0.97208336  0.63155585  1
  O  O14  1  0.13002758  0.36592753  0.36962655  1
  O  O15  1  0.36592753  0.13002758  0.13037345  1
  O  O16  1  0.29224081  0.52309346  0.86773674  1
  O  O17  1  0.52309346  0.29224081  0.63226326  1
  O  O18  1  0.45538134  0.71436223  0.37344043  1
  O  O19  1  0.71436223  0.45538134  0.12655957  1
  O  O20  1  0.60574421  0.88627112  0.86790868  1
  O  O21  1  0.88627112  0.60574421  0.63209132  1
  O  O22  1  0.78289926  0.04026736  0.37362805  1
  O  O23  1  0.04026736  0.78289926  0.12637195  1
