# generated using pymatgen
data_Bi6W4O21
_symmetry_space_group_name_H-M   'P 1'
_cell_length_a   5.05780458
_cell_length_b   5.10072775
_cell_length_c   20.57616405
_cell_angle_alpha   107.99729126
_cell_angle_beta   109.01616903
_cell_angle_gamma   85.12147255
_symmetry_Int_Tables_number   1
_chemical_formula_structural   Bi6W4O21
_chemical_formula_sum   'Bi6 W4 O21'
_cell_volume   477.23668393
_cell_formula_units_Z   1
loop_
 _symmetry_equiv_pos_site_id
 _symmetry_equiv_pos_as_xyz
  1  'x, y, z'
loop_
 _atom_site_type_symbol
 _atom_site_label
 _atom_site_symmetry_multiplicity
 _atom_site_fract_x
 _atom_site_fract_y
 _atom_site_fract_z
 _atom_site_occupancy
  Bi  Bi0  1  0.37962683  0.46692331  0.92126213  1
  Bi  Bi1  1  0.24005898  0.19258831  0.69177102  1
  Bi  Bi2  1  0.45004737  0.40013170  0.40604294  1
  Bi  Bi3  1  0.67478099  0.60670196  0.59857922  1
  Bi  Bi4  1  0.40394514  0.53795812  0.10062556  1
  Bi  Bi5  1  0.76834681  0.78617960  0.32316092  1
  W  W6  1  0.83478312  0.82199568  0.78682620  1
  W  W7  1  0.94699267  0.98951381  0.02456141  1
  W  W8  1  0.05594037  0.99874694  0.50620593  1
  W  W9  1  0.07759472  0.11810939  0.20156154  1
  O  O10  1  0.13647807  0.73748216  0.85922239  1
  O  O11  1  0.64796764  0.21579082  0.02911649  1
  O  O12  1  0.32152080  0.69266829  0.51723040  1
  O  O13  1  0.92329183  0.93537214  0.58380663  1
  O  O14  1  0.52002104  0.87417713  0.68712223  1
  O  O15  1  0.16397156  0.42617688  0.28153355  1
  O  O16  1  0.66022065  0.09310109  0.83693163  1
  O  O17  1  0.15649681  0.97985733  0.42403928  1
  O  O18  1  0.12178061  0.23580285  0.00084796  1
  O  O19  1  0.72375084  0.75369820  0.42601696  1
  O  O20  1  0.75069868  0.70996890  0.94289290  1
  O  O21  1  0.31141362  0.25231536  0.58291788  1
  O  O22  1  0.32173535  0.75189577  0.01831760  1
  O  O23  1  0.05994638  0.92085426  0.74177829  1
  O  O24  1  0.99715629  0.79122846  0.09633014  1
  O  O25  1  0.67310740  0.47538688  0.74590211  1
  O  O26  1  0.28955652  0.85406672  0.23623622  1
  O  O27  1  0.71513969  0.20878799  0.34288002  1
  O  O28  1  0.78407656  0.29443285  0.49765331  1
  O  O29  1  0.14090256  0.27151130  0.13288840  1
  O  O30  1  0.71241013  0.07033579  0.18761873  1
