# generated using pymatgen
data_Li4Co2C4SO16
_symmetry_space_group_name_H-M   'P 1'
_cell_length_a   9.34739600
_cell_length_b   9.14550249
_cell_length_c   9.34881783
_cell_angle_alpha   60.01307040
_cell_angle_beta   88.84516124
_cell_angle_gamma   120.03912841
_symmetry_Int_Tables_number   1
_chemical_formula_structural   Li4Co2C4SO16
_chemical_formula_sum   'Li8 Co4 C8 S2 O32'
_cell_volume   558.93358516
_cell_formula_units_Z   2
loop_
 _symmetry_equiv_pos_site_id
 _symmetry_equiv_pos_as_xyz
  1  'x, y, z'
loop_
 _atom_site_type_symbol
 _atom_site_label
 _atom_site_symmetry_multiplicity
 _atom_site_fract_x
 _atom_site_fract_y
 _atom_site_fract_z
 _atom_site_occupancy
  Li  Li0  1  0.91604782  0.25000901  0.33553806  1
  Li  Li1  1  0.66658924  0.34421663  0.08477437  1
  Li  Li2  1  0.91053619  0.82937651  0.32697602  1
  Li  Li3  1  0.90811914  0.23751884  0.91658410  1
  Li  Li4  1  0.08246834  0.15648876  0.66278063  1
  Li  Li5  1  0.33646618  0.25052640  0.91487335  1
  Li  Li6  1  0.34744500  0.67009550  0.92209171  1
  Li  Li7  1  0.08495201  0.76504314  0.66041293  1
  Co  Co8  1  0.49937286  0.00004511  0.00195713  1
  Co  Co9  1  0.50083779  0.00111935  0.50123436  1
  Co  Co10  1  0.50067214  0.50014533  0.50084935  1
  Co  Co11  1  0.99979407  0.49878780  0.50052044  1
  C  C12  1  0.71121871  0.06573730  0.71642695  1
  C  C13  1  0.71923980  0.43526076  0.35655191  1
  C  C14  1  0.35116208  0.06123924  0.72345272  1
  C  C15  1  0.71629613  0.43760394  0.71304761  1
  C  C16  1  0.65013249  0.93706102  0.28191017  1
  C  C17  1  0.28409386  0.56483780  0.28993549  1
  C  C18  1  0.29052833  0.93633520  0.28546193  1
  C  C19  1  0.27839963  0.56154060  0.65069754  1
  S  S20  1  0.12005094  0.24951342  0.11904231  1
  S  S21  1  0.87783553  0.75025267  0.87004502  1
  O  O22  1  0.65616915  0.07177357  0.13025064  1
  O  O23  1  0.86467811  0.20804426  0.58647876  1
  O  O24  1  0.70598352  0.29204980  0.34494670  1
  O  O25  1  0.42393627  0.06236495  0.30190281  1
  O  O26  1  0.86620464  0.56509470  0.35710324  1
  O  O27  1  0.31647617  0.38527526  0.04293464  1
  O  O28  1  0.05203424  0.11233042  0.05705153  1
  O  O29  1  0.58785798  0.44430093  0.36226481  1
  O  O30  1  0.69807469  0.05694060  0.85829093  1
  O  O31  1  0.34384776  0.03731295  0.59821980  1
  O  O32  1  0.86549662  0.45871052  0.69873367  1
  O  O33  1  0.04450199  0.11370376  0.31527080  1
  O  O34  1  0.05733978  0.38521339  0.05154562  1
  O  O35  1  0.65355007  0.79022992  0.29960417  1
  O  O36  1  0.41109990  0.70966832  0.13764493  1
  O  O37  1  0.70040945  0.56278558  0.57997630  1
  O  O38  1  0.30152281  0.44007063  0.42353480  1
  O  O39  1  0.34499037  0.20797197  0.70660303  1
  O  O40  1  0.58621029  0.29198927  0.86509574  1
  O  O41  1  0.93857482  0.61145524  0.93163509  1
  O  O42  1  0.95709931  0.88915411  0.67006304  1
  O  O43  1  0.13240069  0.53734628  0.30770161  1
  O  O44  1  0.65227189  0.95918587  0.40779609  1
  O  O45  1  0.30517146  0.95836940  0.13709028  1
  O  O46  1  0.40595750  0.54382717  0.65120446  1
  O  O47  1  0.94758243  0.89291532  0.92334017  1
  O  O48  1  0.68213487  0.60977762  0.94037456  1
  O  O49  1  0.12669058  0.42558691  0.65801656  1
  O  O50  1  0.57910118  0.93693020  0.70165190  1
  O  O51  1  0.29452486  0.70948828  0.65288658  1
  O  O52  1  0.13797509  0.79121450  0.41517965  1
  O  O53  1  0.35787424  0.93616098  0.86689402  1
