# generated using pymatgen
data_Fe2Ni3P6WO24
_symmetry_space_group_name_H-M   'P 1'
_cell_length_a   8.44917907
_cell_length_b   8.68927820
_cell_length_c   8.68927801
_cell_angle_alpha   60.00000402
_cell_angle_beta   59.05543641
_cell_angle_gamma   59.05543811
_symmetry_Int_Tables_number   1
_chemical_formula_structural   Fe2Ni3P6WO24
_chemical_formula_sum   'Fe2 Ni3 P6 W1 O24'
_cell_volume   444.54592327
_cell_formula_units_Z   1
loop_
 _symmetry_equiv_pos_site_id
 _symmetry_equiv_pos_as_xyz
  1  'x, y, z'
loop_
 _atom_site_type_symbol
 _atom_site_label
 _atom_site_symmetry_multiplicity
 _atom_site_fract_x
 _atom_site_fract_y
 _atom_site_fract_z
 _atom_site_occupancy
  Fe  Fe0  1  0.03515409  0.98828164  0.98828164  1
  Fe  Fe1  1  0.50987285  0.49670938  0.49670938  1
  Ni  Ni2  1  0.06975707  0.64341464  0.64341464  1
  Ni  Ni3  1  0.44398213  0.85200629  0.85200629  1
  Ni  Ni4  1  0.92769952  0.35743349  0.35743349  1
  P  P5  1  0.24048396  0.25831487  0.55030074  1
  P  P6  1  0.24048396  0.95090043  0.25831487  1
  P  P7  1  0.24048396  0.55030074  0.95090043  1
  P  P8  1  0.74715200  0.46176302  0.04631788  1
  P  P9  1  0.74715200  0.04631788  0.74476710  1
  P  P10  1  0.74715200  0.74476710  0.46176302  1
  W  W11  1  0.57417803  0.14194032  0.14194032  1
  O  O12  1  0.06413371  0.10429555  0.32721661  1
  O  O13  1  0.06413371  0.50435512  0.10429555  1
  O  O14  1  0.06413371  0.32721661  0.50435512  1
  O  O15  1  0.21861777  0.09914885  0.74625035  1
  O  O16  1  0.42791074  0.17650202  0.38279005  1
  O  O17  1  0.29867446  0.40144986  0.54711303  1
  O  O18  1  0.21861777  0.93598304  0.09914885  1
  O  O19  1  0.29867446  0.75276265  0.40144986  1
  O  O20  1  0.56026099  0.60212962  0.00863929  1
  O  O21  1  0.29867446  0.54711303  0.75276265  1
  O  O22  1  0.77131455  0.24791269  0.07209993  1
  O  O23  1  0.56026099  0.00863929  0.82897010  1
  O  O24  1  0.42791074  0.01279819  0.17650202  1
  O  O25  1  0.21861777  0.74625035  0.93598304  1
  O  O26  1  0.71403679  0.43786893  0.25016365  1
  O  O27  1  0.42791074  0.38279005  0.01279819  1
  O  O28  1  0.71403679  0.25016365  0.59793062  1
  O  O29  1  0.77131455  0.07209993  0.90867283  1
  O  O30  1  0.71403679  0.59793062  0.43786893  1
  O  O31  1  0.56026099  0.82897010  0.60212962  1
  O  O32  1  0.77131455  0.90867283  0.24791269  1
  O  O33  1  0.93720180  0.68891575  0.48109054  1
  O  O34  1  0.93720180  0.48109054  0.89279191  1
  O  O35  1  0.93720180  0.89279191  0.68891575  1
