# generated using pymatgen
data_CoTeO4
_symmetry_space_group_name_H-M   'P 1'
_cell_length_a   5.19262870
_cell_length_b   10.32260168
_cell_length_c   9.84885154
_cell_angle_alpha   17.43505207
_cell_angle_beta   31.24906320
_cell_angle_gamma   35.34950311
_symmetry_Int_Tables_number   1
_chemical_formula_structural   CoTeO4
_chemical_formula_sum   'Co1 Te1 O4'
_cell_volume   82.05503848
_cell_formula_units_Z   1
loop_
 _symmetry_equiv_pos_site_id
 _symmetry_equiv_pos_as_xyz
  1  'x, y, z'
loop_
 _atom_site_type_symbol
 _atom_site_label
 _atom_site_symmetry_multiplicity
 _atom_site_fract_x
 _atom_site_fract_y
 _atom_site_fract_z
 _atom_site_occupancy
  Co  Co0  1  0.50000000  0.49999900  0.50000000  1
  Te  Te1  1  0.49999900  0.00000000  0.50000100  1
  O  O2  1  0.17767608  0.00005229  0.25305880  1
  O  O3  1  0.29623399  0.50005943  0.21461682  1
  O  O4  1  0.82232392  0.99994571  0.74694120  1
  O  O5  1  0.70376701  0.49994157  0.78538118  1
