# generated using pymatgen
data_Li4V(TeO4)3
_symmetry_space_group_name_H-M   'P 1'
_cell_length_a   5.63046038
_cell_length_b   5.21586705
_cell_length_c   7.75256623
_cell_angle_alpha   90.11988043
_cell_angle_beta   95.51952128
_cell_angle_gamma   89.65570853
_symmetry_Int_Tables_number   1
_chemical_formula_structural   Li4V(TeO4)3
_chemical_formula_sum   'Li4 V1 Te3 O12'
_cell_volume   226.61531946
_cell_formula_units_Z   1
loop_
 _symmetry_equiv_pos_site_id
 _symmetry_equiv_pos_as_xyz
  1  'x, y, z'
loop_
 _atom_site_type_symbol
 _atom_site_label
 _atom_site_symmetry_multiplicity
 _atom_site_fract_x
 _atom_site_fract_y
 _atom_site_fract_z
 _atom_site_occupancy
  Li  Li0  1  0.91897795  0.50043945  0.28107456  1
  Li  Li1  1  0.92795092  0.49946502  0.79183978  1
  Li  Li2  1  0.38371800  0.99629109  0.80377677  1
  Li  Li3  1  0.41614206  0.00416631  0.27749605  1
  V  V4  1  0.98059732  0.00176281  0.02289276  1
  Te  Te5  1  0.99818335  0.99330590  0.50421935  1
  Te  Te6  1  0.46594399  0.50781338  0.00270066  1
  Te  Te7  1  0.49199950  0.49831789  0.50425408  1
  O  O8  1  0.87243330  0.70382175  0.05929951  1
  O  O9  1  0.84206192  0.31653048  0.55386216  1
  O  O10  1  0.70696781  0.81894626  0.41544399  1
  O  O11  1  0.73358649  0.15858378  0.92819654  1
  O  O12  1  0.51363148  0.38067797  0.25548148  1
  O  O13  1  0.52678144  0.61777987  0.75063281  1
  O  O14  1  0.32638854  0.84198813  0.04367109  1
  O  O15  1  0.31936376  0.16245631  0.55323938  1
  O  O16  1  0.18746159  0.70255238  0.41268603  1
  O  O17  1  0.19088308  0.30557811  0.92792470  1
  O  O18  1  0.01906322  0.12981451  0.24975281  1
  O  O19  1  0.03546428  0.85971058  0.73275449  1
