# generated using pymatgen
data_Li4TiMn5O12
_symmetry_space_group_name_H-M   'P 1'
_cell_length_a   5.28383637
_cell_length_b   5.14860586
_cell_length_c   10.25562254
_cell_angle_alpha   88.93292807
_cell_angle_beta   87.92013571
_cell_angle_gamma   59.12726868
_symmetry_Int_Tables_number   1
_chemical_formula_structural   Li4TiMn5O12
_chemical_formula_sum   'Li4 Ti1 Mn5 O12'
_cell_volume   239.30876642
_cell_formula_units_Z   1
loop_
 _symmetry_equiv_pos_site_id
 _symmetry_equiv_pos_as_xyz
  1  'x, y, z'
loop_
 _atom_site_type_symbol
 _atom_site_label
 _atom_site_symmetry_multiplicity
 _atom_site_fract_x
 _atom_site_fract_y
 _atom_site_fract_z
 _atom_site_occupancy
  Li  Li0  1  0.13935427  0.50273407  0.75054882  1
  Li  Li1  1  0.35791266  0.50273407  0.24945118  1
  Li  Li2  1  0.64208734  0.49726593  0.75054882  1
  Li  Li3  1  0.86064573  0.49726593  0.24945118  1
  Ti  Ti4  1  0.00000000  0.00000000  0.00000000  1
  Mn  Mn5  1  0.16407550  0.67184899  0.50000000  1
  Mn  Mn6  1  0.66486795  0.67026510  1.00000000  1
  Mn  Mn7  1  0.33513205  0.32973490  0.00000000  1
  Mn  Mn8  1  0.83592450  0.32815101  0.50000000  1
  Mn  Mn9  1  0.50000000  0.00000000  0.50000000  1
  O  O10  1  0.03482777  0.65837739  0.11025045  1
  O  O11  1  0.30679484  0.65837739  0.88974955  1
  O  O12  1  0.16544151  0.36314325  0.39215554  1
  O  O13  1  0.52858475  0.63685675  0.39215554  1
  O  O14  1  0.47141525  0.36314325  0.60784446  1
  O  O15  1  0.16910406  1.00000000  0.59090702  1
  O  O16  1  0.83455849  0.63685675  0.60784446  1
  O  O17  1  0.69320516  0.34162261  0.11025045  1
  O  O18  1  0.32379391  1.00000000  0.09332165  1
  O  O19  1  0.96517223  0.34162261  0.88974955  1
  O  O20  1  0.67620609  0.00000000  0.90667835  1
  O  O21  1  0.83089594  0.00000000  0.40909298  1
