# generated using pymatgen
data_Mn3FeO8
_symmetry_space_group_name_H-M   'P 1'
_cell_length_a   8.31874587
_cell_length_b   8.29070079
_cell_length_c   8.31155488
_cell_angle_alpha   89.89859566
_cell_angle_beta   89.98527516
_cell_angle_gamma   89.91392678
_symmetry_Int_Tables_number   1
_chemical_formula_structural   Mn3FeO8
_chemical_formula_sum   'Mn12 Fe4 O32'
_cell_volume   573.23169018
_cell_formula_units_Z   4
loop_
 _symmetry_equiv_pos_site_id
 _symmetry_equiv_pos_as_xyz
  1  'x, y, z'
loop_
 _atom_site_type_symbol
 _atom_site_label
 _atom_site_symmetry_multiplicity
 _atom_site_fract_x
 _atom_site_fract_y
 _atom_site_fract_z
 _atom_site_occupancy
  Mn  Mn0  1  0.12154498  0.12526078  0.62731654  1
  Mn  Mn1  1  0.12449808  0.37625929  0.87158093  1
  Mn  Mn2  1  0.12529914  0.62718317  0.12137401  1
  Mn  Mn3  1  0.37128859  0.37704766  0.62370098  1
  Mn  Mn4  1  0.37652856  0.62306395  0.37337980  1
  Mn  Mn5  1  0.37557584  0.87060776  0.12431606  1
  Mn  Mn6  1  0.62368287  0.37425476  0.37420127  1
  Mn  Mn7  1  0.62746764  0.12167011  0.12567287  1
  Mn  Mn8  1  0.62717352  0.87477026  0.87950888  1
  Mn  Mn9  1  0.87168476  0.12441154  0.37548728  1
  Mn  Mn10  1  0.87758181  0.87663724  0.62794412  1
  Mn  Mn11  1  0.87679688  0.62814725  0.87578061  1
  Fe  Fe12  1  0.12460971  0.87482593  0.37467759  1
  Fe  Fe13  1  0.37482398  0.12395399  0.87525639  1
  Fe  Fe14  1  0.62596788  0.62574815  0.62617838  1
  Fe  Fe15  1  0.87530424  0.37584267  0.12380096  1
  O  O16  1  0.10849957  0.10640304  0.39121347  1
  O  O17  1  0.10711022  0.89333399  0.61925587  1
  O  O18  1  0.11099763  0.61059047  0.88979913  1
  O  O19  1  0.13255919  0.14431319  0.85820267  1
  O  O20  1  0.10597304  0.39040028  0.10848007  1
  O  O21  1  0.13932383  0.36058773  0.63825849  1
  O  O22  1  0.14027859  0.64403929  0.35753305  1
  O  O23  1  0.14518456  0.85854979  0.13097740  1
  O  O24  1  0.35823336  0.14022594  0.64425868  1
  O  O25  1  0.35605772  0.36632511  0.85659642  1
  O  O26  1  0.36003744  0.63836741  0.13936553  1
  O  O27  1  0.38281708  0.60834500  0.60471288  1
  O  O28  1  0.36434892  0.85737086  0.35664184  1
  O  O29  1  0.38953417  0.38844700  0.38901087  1
  O  O30  1  0.39112163  0.10864920  0.10541061  1
  O  O31  1  0.39530049  0.88329671  0.89190201  1
  O  O32  1  0.60730432  0.39268890  0.60883471  1
  O  O33  1  0.60665129  0.60693576  0.38328075  1
  O  O34  1  0.61069623  0.88919718  0.11141606  1
  O  O35  1  0.64340487  0.35801417  0.14006844  1
  O  O36  1  0.61715946  0.10694803  0.89302425  1
  O  O37  1  0.63898491  0.13977968  0.36076183  1
  O  O38  1  0.64101630  0.85683200  0.64259322  1
  O  O39  1  0.64482028  0.64150504  0.86654136  1
  O  O40  1  0.85701583  0.35734520  0.36351073  1
  O  O41  1  0.85756320  0.13062399  0.14478610  1
  O  O42  1  0.86009922  0.86150936  0.86078701  1
  O  O43  1  0.88613331  0.89118948  0.39508582  1
  O  O44  1  0.86705861  0.64346784  0.64356263  1
  O  O45  1  0.88956147  0.11146949  0.61031126  1
  O  O46  1  0.89135409  0.39440089  0.88620634  1
  O  O47  1  0.89397269  0.61930046  0.10757883  1
