# generated using pymatgen
data_Nb2Ge2O7
_symmetry_space_group_name_H-M   'P 1'
_cell_length_a   8.01266193
_cell_length_b   13.70092454
_cell_length_c   5.76306373
_cell_angle_alpha   90.00000000
_cell_angle_beta   90.00000000
_cell_angle_gamma   95.83175423
_symmetry_Int_Tables_number   1
_chemical_formula_structural   Nb2Ge2O7
_chemical_formula_sum   'Nb8 Ge8 O28'
_cell_volume   629.39981290
_cell_formula_units_Z   4
loop_
 _symmetry_equiv_pos_site_id
 _symmetry_equiv_pos_as_xyz
  1  'x, y, z'
loop_
 _atom_site_type_symbol
 _atom_site_label
 _atom_site_symmetry_multiplicity
 _atom_site_fract_x
 _atom_site_fract_y
 _atom_site_fract_z
 _atom_site_occupancy
  Nb  Nb0  1  0.07448810  0.32244922  0.27005537  1
  Nb  Nb1  1  0.03278486  0.11737772  0.78810497  1
  Nb  Nb2  1  0.41368771  0.68581402  0.76188893  1
  Nb  Nb3  1  0.47610901  0.88954237  0.29064393  1
  Nb  Nb4  1  0.52389099  0.11045763  0.79064393  1
  Nb  Nb5  1  0.58631229  0.31418598  0.26188893  1
  Nb  Nb6  1  0.96721514  0.88262228  0.28810497  1
  Nb  Nb7  1  0.92551190  0.67755078  0.77005537  1
  Ge  Ge8  1  0.14416800  0.56322314  0.23716315  1
  Ge  Ge9  1  0.18646218  0.89818082  0.87405172  1
  Ge  Ge10  1  0.30579090  0.14062853  0.33981576  1
  Ge  Ge11  1  0.42297422  0.42832701  0.73941806  1
  Ge  Ge12  1  0.57702578  0.57167299  0.23941806  1
  Ge  Ge13  1  0.69420910  0.85937147  0.83981576  1
  Ge  Ge14  1  0.81353782  0.10181918  0.37405172  1
  Ge  Ge15  1  0.85583200  0.43677686  0.73716315  1
  O  O16  1  0.01848212  0.39572824  0.53033756  1
  O  O17  1  0.01530515  0.18482307  0.46649252  1
  O  O18  1  0.18852910  0.69500300  0.71112445  1
  O  O19  1  0.22820076  0.89128984  0.22705312  1
  O  O20  1  0.13681277  0.43520794  0.09019629  1
  O  O21  1  0.03761710  0.00699088  0.98860192  1
  O  O22  1  0.05805228  0.22271049  0.98494782  1
  O  O23  1  0.38092198  0.60767058  0.05146130  1
  O  O24  1  0.46113328  0.81325999  0.94871716  1
  O  O25  1  0.27352745  0.11085619  0.68653196  1
  O  O26  1  0.30378969  0.29026655  0.33320678  1
  O  O27  1  0.45688035  0.56260328  0.58560991  1
  O  O28  1  0.50644032  0.98487137  0.51683633  1
  O  O29  1  0.47891996  0.77469260  0.47023198  1
  O  O30  1  0.52108004  0.22530740  0.97023198  1
  O  O31  1  0.49355968  0.01512863  0.01683633  1
  O  O32  1  0.54311965  0.43739672  0.08560991  1
  O  O33  1  0.69621031  0.70973345  0.83320678  1
  O  O34  1  0.72647255  0.88914381  0.18653196  1
  O  O35  1  0.53886672  0.18674001  0.44871716  1
  O  O36  1  0.61907802  0.39232942  0.55146130  1
  O  O37  1  0.94194772  0.77728951  0.48494782  1
  O  O38  1  0.96238290  0.99300912  0.48860192  1
  O  O39  1  0.86318723  0.56479206  0.59019629  1
  O  O40  1  0.77179924  0.10871016  0.72705312  1
  O  O41  1  0.81147090  0.30499700  0.21112445  1
  O  O42  1  0.98469485  0.81517693  0.96649252  1
  O  O43  1  0.98151788  0.60427176  0.03033756  1
