# generated using pymatgen
data_Li2Fe3NiO8
_symmetry_space_group_name_H-M   'P 1'
_cell_length_a   5.93093171
_cell_length_b   5.93093167
_cell_length_c   5.93093130
_cell_angle_alpha   59.37598527
_cell_angle_beta   59.37598547
_cell_angle_gamma   59.37598793
_symmetry_Int_Tables_number   1
_chemical_formula_structural   Li2Fe3NiO8
_chemical_formula_sum   'Li2 Fe3 Ni1 O8'
_cell_volume   145.42581490
_cell_formula_units_Z   1
loop_
 _symmetry_equiv_pos_site_id
 _symmetry_equiv_pos_as_xyz
  1  'x, y, z'
loop_
 _atom_site_type_symbol
 _atom_site_label
 _atom_site_symmetry_multiplicity
 _atom_site_fract_x
 _atom_site_fract_y
 _atom_site_fract_z
 _atom_site_occupancy
  Li  Li0  1  0.12020135  0.12020135  0.12020135  1
  Li  Li1  1  0.50006442  0.50006442  0.50006442  1
  Fe  Fe2  1  0.00635622  0.49759292  0.49759292  1
  Fe  Fe3  1  0.49759292  0.00635622  0.49759292  1
  Fe  Fe4  1  0.49759292  0.49759292  0.00635622  1
  Ni  Ni5  1  0.87961023  0.87961023  0.87961023  1
  O  O6  1  0.25496304  0.25496304  0.25496304  1
  O  O7  1  0.25283627  0.25283627  0.70699138  1
  O  O8  1  0.25283627  0.70699138  0.25283627  1
  O  O9  1  0.70699138  0.25283627  0.25283627  1
  O  O10  1  0.28769712  0.74950815  0.74950815  1
  O  O11  1  0.74950815  0.28769712  0.74950815  1
  O  O12  1  0.74950815  0.74950815  0.28769712  1
  O  O13  1  0.74424458  0.74424458  0.74424458  1
