# generated using pymatgen
data_Li2TiV2O6
_symmetry_space_group_name_H-M   'P 1'
_cell_length_a   5.18004447
_cell_length_b   5.18004461
_cell_length_c   10.22158094
_cell_angle_alpha   90.00000000
_cell_angle_beta   90.00000000
_cell_angle_gamma   119.03171990
_symmetry_Int_Tables_number   1
_chemical_formula_structural   Li2TiV2O6
_chemical_formula_sum   'Li4 Ti2 V4 O12'
_cell_volume   239.81202542
_cell_formula_units_Z   2
loop_
 _symmetry_equiv_pos_site_id
 _symmetry_equiv_pos_as_xyz
  1  'x, y, z'
loop_
 _atom_site_type_symbol
 _atom_site_label
 _atom_site_symmetry_multiplicity
 _atom_site_fract_x
 _atom_site_fract_y
 _atom_site_fract_z
 _atom_site_occupancy
  Li  Li0  1  0.12964856  0.62964856  0.75000000  1
  Li  Li1  1  0.37035144  0.87035144  0.25000000  1
  Li  Li2  1  0.62964856  0.12964856  0.75000000  1
  Li  Li3  1  0.87035144  0.37035144  0.25000000  1
  Ti  Ti4  1  0.00000000  0.00000000  0.00000000  1
  Ti  Ti5  1  0.50000000  0.50000000  0.50000000  1
  V  V6  1  0.16236350  0.83763650  0.50000000  1
  V  V7  1  0.33763650  0.66236350  0.00000000  1
  V  V8  1  0.66236350  0.33763650  0.00000000  1
  V  V9  1  0.83763650  0.16236350  0.50000000  1
  O  O10  1  0.01562730  0.67906855  0.10654737  1
  O  O11  1  0.98437270  0.32093145  0.89345263  1
  O  O12  1  0.17906855  0.51562730  0.39345263  1
  O  O13  1  0.48437270  0.82093145  0.60654737  1
  O  O14  1  0.17824502  0.17824502  0.59918323  1
  O  O15  1  0.32175498  0.32175498  0.09918323  1
  O  O16  1  0.67824502  0.67824502  0.90081677  1
  O  O17  1  0.32093145  0.98437270  0.89345263  1
  O  O18  1  0.82175498  0.82175498  0.40081677  1
  O  O19  1  0.51562730  0.17906855  0.39345263  1
  O  O20  1  0.82093145  0.48437270  0.60654737  1
  O  O21  1  0.67906855  0.01562730  0.10654737  1
