# generated using pymatgen
data_Li3MnBAsO7
_symmetry_space_group_name_H-M   'P 1'
_cell_length_a   8.49644960
_cell_length_b   6.81952132
_cell_length_c   5.05478276
_cell_angle_alpha   90.00000000
_cell_angle_beta   85.42803931
_cell_angle_gamma   90.00000000
_symmetry_Int_Tables_number   1
_chemical_formula_structural   Li3MnBAsO7
_chemical_formula_sum   'Li6 Mn2 B2 As2 O14'
_cell_volume   291.95085198
_cell_formula_units_Z   2
loop_
 _symmetry_equiv_pos_site_id
 _symmetry_equiv_pos_as_xyz
  1  'x, y, z'
loop_
 _atom_site_type_symbol
 _atom_site_label
 _atom_site_symmetry_multiplicity
 _atom_site_fract_x
 _atom_site_fract_y
 _atom_site_fract_z
 _atom_site_occupancy
  Li  Li0  1  0.09090915  0.25000000  0.75354272  1
  Li  Li1  1  0.23353727  0.00438563  0.24235361  1
  Li  Li2  1  0.23353727  0.49561437  0.24235361  1
  Li  Li3  1  0.76646273  0.50438563  0.75764639  1
  Li  Li4  1  0.76646273  0.99561437  0.75764639  1
  Li  Li5  1  0.90909085  0.75000000  0.24645728  1
  Mn  Mn6  1  0.31715122  0.75000000  0.79310514  1
  Mn  Mn7  1  0.68284878  0.25000000  0.20689486  1
  B  B8  1  0.03964708  0.75000000  0.71663576  1
  B  B9  1  0.96035292  0.25000000  0.28336424  1
  As  As10  1  0.41491506  0.25000000  0.73092929  1
  As  As11  1  0.58508494  0.75000000  0.26907071  1
  O  O12  1  0.11035481  0.25000000  0.35544213  1
  O  O13  1  0.08742265  0.75000000  0.97381524  1
  O  O14  1  0.16947404  0.75000000  0.52296776  1
  O  O15  1  0.29245049  0.05950560  0.82949652  1
  O  O16  1  0.29245049  0.44049440  0.82949652  1
  O  O17  1  0.45991253  0.25000000  0.39250288  1
  O  O18  1  0.40282031  0.75000000  0.14185743  1
  O  O19  1  0.59717969  0.25000000  0.85814257  1
  O  O20  1  0.54008747  0.75000000  0.60749712  1
  O  O21  1  0.70754951  0.55950560  0.17050348  1
  O  O22  1  0.70754951  0.94049440  0.17050348  1
  O  O23  1  0.83052596  0.25000000  0.47703224  1
  O  O24  1  0.91257735  0.25000000  0.02618476  1
  O  O25  1  0.88964519  0.75000000  0.64455787  1
