# generated using pymatgen
data_Sr2CaI6
_symmetry_space_group_name_H-M   'P 1'
_cell_length_a   10.42542729
_cell_length_b   9.52114836
_cell_length_c   14.83036792
_cell_angle_alpha   90.00000000
_cell_angle_beta   87.34413292
_cell_angle_gamma   90.00000000
_symmetry_Int_Tables_number   1
_chemical_formula_structural   Sr2CaI6
_chemical_formula_sum   'Sr8 Ca4 I24'
_cell_volume   1470.51134422
_cell_formula_units_Z   4
loop_
 _symmetry_equiv_pos_site_id
 _symmetry_equiv_pos_as_xyz
  1  'x, y, z'
loop_
 _atom_site_type_symbol
 _atom_site_label
 _atom_site_symmetry_multiplicity
 _atom_site_fract_x
 _atom_site_fract_y
 _atom_site_fract_z
 _atom_site_occupancy
  Sr  Sr0  1  0.11001944  0.79872732  0.59355529  1
  Sr  Sr1  1  0.14981719  0.59397088  0.21263118  1
  Sr  Sr2  1  0.35018281  0.09397088  0.28736882  1
  Sr  Sr3  1  0.38998056  0.29872732  0.90644471  1
  Sr  Sr4  1  0.61001944  0.70127268  0.09355529  1
  Sr  Sr5  1  0.64981719  0.90602912  0.71263118  1
  Sr  Sr6  1  0.85018281  0.40602912  0.78736882  1
  Sr  Sr7  1  0.88998056  0.20127268  0.40644471  1
  Ca  Ca8  1  0.14310461  0.85416995  0.93024872  1
  Ca  Ca9  1  0.35689539  0.35416995  0.56975128  1
  Ca  Ca10  1  0.64310461  0.64583005  0.43024872  1
  Ca  Ca11  1  0.85689539  0.14583005  0.06975128  1
  I  I12  1  0.06520957  0.16856255  0.91141942  1
  I  I13  1  0.07099394  0.23523878  0.20508834  1
  I  I14  1  0.06272424  0.88716695  0.36512771  1
  I  I15  1  0.18719040  0.55108187  0.98592088  1
  I  I16  1  0.15848116  0.43803296  0.42346149  1
  I  I17  1  0.16860721  0.44793223  0.72353456  1
  I  I18  1  0.33139279  0.94793223  0.77646544  1
  I  I19  1  0.31280960  0.05108187  0.51407912  1
  I  I20  1  0.34151884  0.93803296  0.07653851  1
  I  I21  1  0.43727576  0.38716695  0.13487229  1
  I  I22  1  0.42900606  0.73523878  0.29491166  1
  I  I23  1  0.43479043  0.66856255  0.58858058  1
  I  I24  1  0.56520957  0.33143745  0.41141942  1
  I  I25  1  0.57099394  0.26476122  0.70508834  1
  I  I26  1  0.56272424  0.61283305  0.86512771  1
  I  I27  1  0.65848116  0.06196704  0.92346149  1
  I  I28  1  0.68719040  0.94891813  0.48592088  1
  I  I29  1  0.66860721  0.05206777  0.22353456  1
  I  I30  1  0.83139279  0.55206777  0.27646544  1
  I  I31  1  0.84151884  0.56196704  0.57653851  1
  I  I32  1  0.81280960  0.44891813  0.01407912  1
  I  I33  1  0.93727576  0.11283305  0.63487229  1
  I  I34  1  0.92900606  0.76476122  0.79491166  1
  I  I35  1  0.93479043  0.83143745  0.08858058  1
