# generated using pymatgen
data_Li3VPCO7
_symmetry_space_group_name_H-M   'P 1'
_cell_length_a   8.29188027
_cell_length_b   5.19702681
_cell_length_c   6.62870563
_cell_angle_alpha   90.00000000
_cell_angle_beta   90.00000000
_cell_angle_gamma   88.60439620
_symmetry_Int_Tables_number   1
_chemical_formula_structural   Li3VPCO7
_chemical_formula_sum   'Li6 V2 P2 C2 O14'
_cell_volume   285.56689902
_cell_formula_units_Z   2
loop_
 _symmetry_equiv_pos_site_id
 _symmetry_equiv_pos_as_xyz
  1  'x, y, z'
loop_
 _atom_site_type_symbol
 _atom_site_label
 _atom_site_symmetry_multiplicity
 _atom_site_fract_x
 _atom_site_fract_y
 _atom_site_fract_z
 _atom_site_occupancy
  Li  Li0  1  0.99647090  0.02502589  0.49844083  1
  Li  Li1  1  0.16715914  0.43954438  0.20254501  1
  Li  Li2  1  0.51797888  0.43179455  0.41101129  1
  Li  Li3  1  0.48202112  0.56820545  0.91101129  1
  Li  Li4  1  0.83284086  0.56045562  0.70254501  1
  Li  Li5  1  0.00352910  0.97497411  0.99844083  1
  V  V6  1  0.26591840  0.04051227  0.75057771  1
  V  V7  1  0.73408160  0.95948773  0.25057771  1
  P  P8  1  0.33018022  0.95757073  0.24681372  1
  P  P9  1  0.66981978  0.04242927  0.74681372  1
  C  C10  1  0.14520322  0.49829634  0.74425645  1
  C  C11  1  0.85479678  0.50170366  0.24425645  1
  O  O12  1  0.04521332  0.30689724  0.72904563  1
  O  O13  1  0.08785281  0.72930811  0.76737888  1
  O  O14  1  0.23038115  0.09107694  0.07157835  1
  O  O15  1  0.22586494  0.00684222  0.43724072  1
  O  O16  1  0.29883057  0.44873234  0.73895901  1
  O  O17  1  0.35612577  0.66490683  0.20273667  1
  O  O18  1  0.49198797  0.09577804  0.27401573  1
  O  O19  1  0.50801203  0.90422196  0.77401573  1
  O  O20  1  0.64387423  0.33509317  0.70273667  1
  O  O21  1  0.70116943  0.55126766  0.23895901  1
  O  O22  1  0.77413506  0.99315778  0.93724072  1
  O  O23  1  0.76961885  0.90892306  0.57157835  1
  O  O24  1  0.91214719  0.27069189  0.26737888  1
  O  O25  1  0.95478668  0.69310176  0.22904563  1
