# generated using pymatgen
data_Cr3(FeO4)2
_symmetry_space_group_name_H-M   'P 1'
_cell_length_a   5.97929818
_cell_length_b   5.97929818
_cell_length_c   5.93934460
_cell_angle_alpha   59.77722420
_cell_angle_beta   59.77722420
_cell_angle_gamma   60.00000000
_symmetry_Int_Tables_number   1
_chemical_formula_structural   Cr3(FeO4)2
_chemical_formula_sum   'Cr3 Fe2 O8'
_cell_volume   149.64194083
_cell_formula_units_Z   1
loop_
 _symmetry_equiv_pos_site_id
 _symmetry_equiv_pos_as_xyz
  1  'x, y, z'
loop_
 _atom_site_type_symbol
 _atom_site_label
 _atom_site_symmetry_multiplicity
 _atom_site_fract_x
 _atom_site_fract_y
 _atom_site_fract_z
 _atom_site_occupancy
  Cr  Cr0  1  0.62211449  0.13870965  0.61706238  1
  Cr  Cr1  1  0.13870965  0.62211449  0.61706238  1
  Cr  Cr2  1  0.62211449  0.62211449  0.61706238  1
  Fe  Fe3  1  0.00182869  0.00182869  0.99451292  1
  Fe  Fe4  1  0.62191729  0.62191729  0.13424713  1
  O  O5  1  0.83328840  0.38356667  0.39957726  1
  O  O6  1  0.38356667  0.38356667  0.39957726  1
  O  O7  1  0.38356667  0.83328840  0.39957726  1
  O  O8  1  0.39155890  0.39155890  0.82532229  1
  O  O9  1  0.86771690  0.86771690  0.39684830  1
  O  O10  1  0.86776781  0.39807923  0.86638415  1
  O  O11  1  0.39807923  0.86776781  0.86638415  1
  O  O12  1  0.86776781  0.86776781  0.86638415  1
