# generated using pymatgen
data_Li4MnV3O12
_symmetry_space_group_name_H-M   'P 1'
_cell_length_a   4.91425069
_cell_length_b   4.92728134
_cell_length_c   8.31950232
_cell_angle_alpha   90.00000000
_cell_angle_beta   90.00000000
_cell_angle_gamma   90.73534004
_symmetry_Int_Tables_number   1
_chemical_formula_structural   Li4MnV3O12
_chemical_formula_sum   'Li4 Mn1 V3 O12'
_cell_volume   201.43097139
_cell_formula_units_Z   1
loop_
 _symmetry_equiv_pos_site_id
 _symmetry_equiv_pos_as_xyz
  1  'x, y, z'
loop_
 _atom_site_type_symbol
 _atom_site_label
 _atom_site_symmetry_multiplicity
 _atom_site_fract_x
 _atom_site_fract_y
 _atom_site_fract_z
 _atom_site_occupancy
  Li  Li0  1  0.00000000  0.00000000  0.69636430  1
  Li  Li1  1  0.00000000  0.50000000  0.81169158  1
  Li  Li2  1  0.50000000  0.00000000  0.31355046  1
  Li  Li3  1  0.50000000  0.50000000  0.18857189  1
  Mn  Mn4  1  0.00000000  0.00000000  0.09800681  1
  V  V5  1  0.00000000  0.50000000  0.40032087  1
  V  V6  1  0.50000000  0.00000000  0.89444941  1
  V  V7  1  0.50000000  0.50000000  0.58747843  1
  O  O8  1  0.14091823  0.25914479  0.26419121  1
  O  O9  1  0.17973638  0.30927413  0.59054620  1
  O  O10  1  0.17859523  0.20024037  0.93263854  1
  O  O11  1  0.32583366  0.70500685  0.43246047  1
  O  O12  1  0.33873721  0.82142048  0.09311037  1
  O  O13  1  0.36039680  0.75147526  0.76237783  1
  O  O14  1  0.63960320  0.24852474  0.76237783  1
  O  O15  1  0.66126279  0.17858052  0.09311037  1
  O  O16  1  0.67416634  0.29499315  0.43246047  1
  O  O17  1  0.82140477  0.79975963  0.93263854  1
  O  O18  1  0.82026362  0.69072587  0.59054620  1
  O  O19  1  0.85908177  0.74085521  0.26419121  1
