# generated using pymatgen
data_Li4V3O8
_symmetry_space_group_name_H-M   'P 1'
_cell_length_a   10.31024835
_cell_length_b   10.31089224
_cell_length_c   14.61570273
_cell_angle_alpha   19.08375965
_cell_angle_beta   19.08379155
_cell_angle_gamma   32.89681971
_symmetry_Int_Tables_number   1
_chemical_formula_structural   Li4V3O8
_chemical_formula_sum   'Li4 V3 O8'
_cell_volume   143.83514844
_cell_formula_units_Z   1
loop_
 _symmetry_equiv_pos_site_id
 _symmetry_equiv_pos_as_xyz
  1  'x, y, z'
loop_
 _atom_site_type_symbol
 _atom_site_label
 _atom_site_symmetry_multiplicity
 _atom_site_fract_x
 _atom_site_fract_y
 _atom_site_fract_z
 _atom_site_occupancy
  Li  Li0  1  -0.00004430  0.00003965  0.00000429  1
  Li  Li1  1  -0.00002134  0.50005831  0.49999634  1
  Li  Li2  1  0.50006310  0.00000273  0.49995968  1
  Li  Li3  1  0.49993063  0.49993319  0.50009894  1
  V  V4  1  0.00022544  0.49983911  -0.00011798  1
  V  V5  1  0.49940909  -0.00011292  0.00045831  1
  V  V6  1  0.50068435  0.50025160  -0.00064713  1
  O  O7  1  0.99994631  0.99996083  0.25441550  1
  O  O8  1  0.03258458  0.49415844  0.24506241  1
  O  O9  1  0.46132437  0.96722541  0.31055972  1
  O  O10  1  0.00005830  0.00004191  0.74567734  1
  O  O11  1  0.50587988  0.53835035  0.23340963  1
  O  O12  1  0.96733627  0.50593214  0.75488681  1
  O  O13  1  0.53851192  0.03272293  0.68961905  1
  O  O14  1  0.49411140  0.46159632  0.76661810  1
