# generated using pymatgen
data_Li2MnBO4
_symmetry_space_group_name_H-M   'P 1'
_cell_length_a   6.66194134
_cell_length_b   5.16350894
_cell_length_c   10.50619556
_cell_angle_alpha   90.00000000
_cell_angle_beta   94.76861484
_cell_angle_gamma   90.00000000
_symmetry_Int_Tables_number   1
_chemical_formula_structural   Li2MnBO4
_chemical_formula_sum   'Li8 Mn4 B4 O16'
_cell_volume   360.15157607
_cell_formula_units_Z   4
loop_
 _symmetry_equiv_pos_site_id
 _symmetry_equiv_pos_as_xyz
  1  'x, y, z'
loop_
 _atom_site_type_symbol
 _atom_site_label
 _atom_site_symmetry_multiplicity
 _atom_site_fract_x
 _atom_site_fract_y
 _atom_site_fract_z
 _atom_site_occupancy
  Li  Li0  1  0.09681253  0.34622828  0.79242175  1
  Li  Li1  1  0.09681253  0.15377172  0.29242175  1
  Li  Li2  1  0.20866767  0.17301291  0.56874005  1
  Li  Li3  1  0.20866767  0.32698709  0.06874005  1
  Li  Li4  1  0.79133233  0.67301291  0.93125995  1
  Li  Li5  1  0.79133233  0.82698709  0.43125995  1
  Li  Li6  1  0.90318747  0.84622828  0.70757825  1
  Li  Li7  1  0.90318747  0.65377172  0.20757825  1
  Mn  Mn8  1  0.50729533  0.15288350  0.84652394  1
  Mn  Mn9  1  0.49270467  0.65288350  0.65347606  1
  Mn  Mn10  1  0.50729533  0.34711650  0.34652394  1
  Mn  Mn11  1  0.49270467  0.84711650  0.15347606  1
  B  B12  1  0.18871087  0.82400381  0.93787232  1
  B  B13  1  0.18871087  0.67599619  0.43787232  1
  B  B14  1  0.81128913  0.32400381  0.56212768  1
  B  B15  1  0.81128913  0.17599619  0.06212768  1
  O  O16  1  0.05405833  0.69462655  0.85766607  1
  O  O17  1  0.05405833  0.80537345  0.35766607  1
  O  O18  1  0.23990227  0.08503575  0.91978224  1
  O  O19  1  0.23990227  0.41496425  0.41978224  1
  O  O20  1  0.28177691  0.80656631  0.54437358  1
  O  O21  1  0.37636953  0.35220068  0.71042300  1
  O  O22  1  0.28177691  0.69343369  0.04437358  1
  O  O23  1  0.37636953  0.14779932  0.21042300  1
  O  O24  1  0.62363047  0.85220068  0.78957700  1
  O  O25  1  0.71822309  0.30656631  0.95562642  1
  O  O26  1  0.62363047  0.64779932  0.28957700  1
  O  O27  1  0.71822309  0.19343369  0.45562642  1
  O  O28  1  0.76009773  0.58503575  0.58021776  1
  O  O29  1  0.76009773  0.91496425  0.08021776  1
  O  O30  1  0.94594167  0.19462655  0.64233393  1
  O  O31  1  0.94594167  0.30537345  0.14233393  1
