# generated using pymatgen
data_Li3Mn(CuO3)2
_symmetry_space_group_name_H-M   'P 1'
_cell_length_a   15.42985180
_cell_length_b   9.77499333
_cell_length_c   9.77499336
_cell_angle_alpha   16.96236319
_cell_angle_beta   16.76352879
_cell_angle_gamma   16.76352925
_symmetry_Int_Tables_number   1
_chemical_formula_structural   Li3Mn(CuO3)2
_chemical_formula_sum   'Li3 Mn1 Cu2 O6'
_cell_volume   107.79085177
_cell_formula_units_Z   1
loop_
 _symmetry_equiv_pos_site_id
 _symmetry_equiv_pos_as_xyz
  1  'x, y, z'
loop_
 _atom_site_type_symbol
 _atom_site_label
 _atom_site_symmetry_multiplicity
 _atom_site_fract_x
 _atom_site_fract_y
 _atom_site_fract_z
 _atom_site_occupancy
  Li  Li0  1  0.16666700  0.50000000  0.50000000  1
  Li  Li1  1  0.49404345  0.50272366  0.50272366  1
  Li  Li2  1  0.83929055  0.49727634  0.49727634  1
  Mn  Mn3  1  0.66666700  0.00000000  0.00000000  1
  Cu  Cu4  1  0.98306812  0.01282665  0.01282665  1
  Cu  Cu5  1  0.35026488  0.98717335  0.98717335  1
  O  O6  1  0.26698930  0.24574417  0.24574417  1
  O  O7  1  0.56977324  0.26234059  0.26234059  1
  O  O8  1  0.06634370  0.75425583  0.75425583  1
  O  O9  1  0.87025375  0.28935640  0.28935640  1
  O  O10  1  0.46308025  0.71064360  0.71064360  1
  O  O11  1  0.76356076  0.73765941  0.73765941  1
