# generated using pymatgen
data_H24C8S(NO2)2
_symmetry_space_group_name_H-M   'P 1'
_cell_length_a   10.90208350
_cell_length_b   11.02999304
_cell_length_c   11.08410511
_cell_angle_alpha   89.93272744
_cell_angle_beta   90.05427963
_cell_angle_gamma   90.31973858
_symmetry_Int_Tables_number   1
_chemical_formula_structural   H24C8S(NO2)2
_chemical_formula_sum   'H96 C32 S4 N8 O16'
_cell_volume   1332.84032503
_cell_formula_units_Z   4
loop_
 _symmetry_equiv_pos_site_id
 _symmetry_equiv_pos_as_xyz
  1  'x, y, z'
loop_
 _atom_site_type_symbol
 _atom_site_label
 _atom_site_symmetry_multiplicity
 _atom_site_fract_x
 _atom_site_fract_y
 _atom_site_fract_z
 _atom_site_occupancy
  H  H0  1  0.11440081  0.14597830  0.79653338  1
  H  H1  1  0.11519970  0.20394972  0.14686317  1
  H  H2  1  0.11568429  0.35358242  0.29621121  1
  H  H3  1  0.11520973  0.29537679  0.64699236  1
  H  H4  1  0.11553127  0.70372702  0.35321633  1
  H  H5  1  0.11483726  0.64574896  0.70380999  1
  H  H6  1  0.11519587  0.79555649  0.85324041  1
  H  H7  1  0.11530419  0.85342801  0.20391807  1
  H  H8  1  0.11438602  0.08377127  0.25887001  1
  H  H9  1  0.11509722  0.24068806  0.41517987  1
  H  H10  1  0.11496932  0.74061060  0.08498413  1
  H  H11  1  0.11566321  0.41519642  0.75883020  1
  H  H12  1  0.11456365  0.58388783  0.24122343  1
  H  H13  1  0.11531728  0.75891452  0.58486859  1
  H  H14  1  0.11483629  0.25889449  0.91541707  1
  H  H15  1  0.11529365  0.91537189  0.74095703  1
  H  H16  1  0.23148029  0.08843265  0.14316134  1
  H  H17  1  0.23153905  0.14290087  0.91180912  1
  H  H18  1  0.23252500  0.85712391  0.08875564  1
  H  H19  1  0.23237399  0.91174760  0.85657029  1
  H  H20  1  0.23310317  0.35687753  0.41170932  1
  H  H21  1  0.23337653  0.41060533  0.64278216  1
  H  H22  1  0.23223201  0.58803101  0.35639017  1
  H  H23  1  0.23204368  0.64282903  0.58883783  1
  H  H24  1  0.27280602  0.14509964  0.64754701  1
  H  H25  1  0.26987365  0.58483105  0.08457271  1
  H  H26  1  0.27335307  0.64608213  0.85356182  1
  H  H27  1  0.27063188  0.91542550  0.58487271  1
  H  H28  1  0.26987477  0.08432822  0.41526549  1
  H  H29  1  0.27350662  0.35364756  0.14628810  1
  H  H30  1  0.27073252  0.41529632  0.91511171  1
  H  H31  1  0.27383995  0.85363854  0.35338347  1
  H  H32  1  0.39007938  0.23717123  0.14732432  1
  H  H33  1  0.38931757  0.26282077  0.64809003  1
  H  H34  1  0.39018023  0.35450215  0.26228296  1
  H  H35  1  0.38962536  0.14633640  0.76394133  1
  H  H36  1  0.38998183  0.64860255  0.73624563  1
  H  H37  1  0.38986525  0.73642839  0.35233936  1
  H  H38  1  0.39101301  0.85193083  0.23649487  1
  H  H39  1  0.39052489  0.76394229  0.85157925  1
  H  H40  1  0.38761132  0.08566453  0.30023560  1
  H  H41  1  0.38707955  0.20148298  0.41488914  1
  H  H42  1  0.38769171  0.58551648  0.20083744  1
  H  H43  1  0.38818826  0.29919931  0.91436304  1
  H  H44  1  0.38784170  0.41470340  0.79922629  1
  H  H45  1  0.38802513  0.70149550  0.08592350  1
  H  H46  1  0.38805386  0.79914364  0.58591132  1
  H  H47  1  0.38918753  0.91483180  0.70048919  1
  H  H48  1  0.61288969  0.20113074  0.58554809  1
  H  H49  1  0.61318184  0.29858213  0.08564309  1
  H  H50  1  0.61272319  0.41498201  0.20083118  1
  H  H51  1  0.61268536  0.08440618  0.70074883  1
  H  H52  1  0.61207588  0.58538635  0.79953265  1
  H  H53  1  0.61262862  0.79858050  0.41513055  1
  H  H54  1  0.61330162  0.91331684  0.29887648  1
  H  H55  1  0.61341849  0.70100840  0.91397894  1
  H  H56  1  0.61074082  0.14785084  0.23601943  1
  H  H57  1  0.61142308  0.26343418  0.35204021  1
  H  H58  1  0.61132326  0.64432589  0.26368723  1
  H  H59  1  0.61083853  0.23747865  0.85217884  1
  H  H60  1  0.61154455  0.35234968  0.73529749  1
  H  H61  1  0.61282979  0.73550420  0.64605348  1
  H  H62  1  0.61151405  0.76172392  0.14851367  1
  H  H63  1  0.61303634  0.85285757  0.76174165  1
  H  H64  1  0.72945170  0.08499965  0.58456750  1
  H  H65  1  0.72809041  0.64491365  0.14822527  1
  H  H66  1  0.72924248  0.58433889  0.91527678  1
  H  H67  1  0.72942432  0.85320315  0.64622031  1
  H  H68  1  0.72657054  0.14626889  0.35342937  1
  H  H69  1  0.73030782  0.41590259  0.08515540  1
  H  H70  1  0.72737045  0.35459579  0.85249663  1
  H  H71  1  0.72991240  0.91554532  0.41510517  1
  H  H72  1  0.76886264  0.08787643  0.85810695  1
  H  H73  1  0.76900959  0.14190310  0.08850766  1
  H  H74  1  0.76951067  0.35761581  0.58817707  1
  H  H75  1  0.76878536  0.41156004  0.35818567  1
  H  H76  1  0.76825568  0.58719015  0.64212124  1
  H  H77  1  0.76853336  0.64111896  0.41258668  1
  H  H78  1  0.76982208  0.85805179  0.91116604  1
  H  H79  1  0.76924490  0.91100037  0.14249874  1
  H  H80  1  0.88458947  0.08485851  0.74059011  1
  H  H81  1  0.88523327  0.26027290  0.08530481  1
  H  H82  1  0.88586112  0.24061523  0.58525240  1
  H  H83  1  0.88576290  0.41605436  0.24073558  1
  H  H84  1  0.88532655  0.58346193  0.75855680  1
  H  H85  1  0.88528184  0.75907995  0.41624868  1
  H  H86  1  0.88545520  0.74062360  0.91534534  1
  H  H87  1  0.88596404  0.91540837  0.25948605  1
  H  H88  1  0.88477148  0.79559090  0.14744966  1
  H  H89  1  0.88489223  0.14727203  0.20418832  1
  H  H90  1  0.88497793  0.29626331  0.35301756  1
  H  H91  1  0.88633337  0.35345479  0.70407905  1
  H  H92  1  0.88460112  0.64624399  0.29721904  1
  H  H93  1  0.88479649  0.70356396  0.64656699  1
  H  H94  1  0.88552903  0.85376932  0.79615349  1
  H  H95  1  0.88458262  0.20445459  0.85290945  1
  C  C96  1  0.17219941  0.29906090  0.35741354  1
  C  C97  1  0.17189004  0.79897117  0.14287754  1
  C  C98  1  0.17221531  0.35713310  0.70103124  1
  C  C99  1  0.17174141  0.64226633  0.29879390  1
  C  C100  1  0.17175476  0.70067544  0.64286837  1
  C  C101  1  0.17198836  0.85714768  0.79874571  1
  C  C102  1  0.17143898  0.14236733  0.20132291  1
  C  C103  1  0.17129671  0.20078139  0.85757110  1
  C  C104  1  0.33047652  0.64096300  0.14087163  1
  C  C105  1  0.33105478  0.85942010  0.64091240  1
  C  C106  1  0.32997065  0.14125252  0.35920035  1
  C  C107  1  0.33060048  0.35887108  0.85903791  1
  C  C108  1  0.33330972  0.29743969  0.20285438  1
  C  C109  1  0.33274681  0.20193392  0.70381963  1
  C  C110  1  0.33328910  0.79709056  0.29700006  1
  C  C111  1  0.33294407  0.70305548  0.79700339  1
  C  C112  1  0.66775335  0.20310688  0.29661711  1
  C  C113  1  0.66812129  0.29726191  0.79607493  1
  C  C114  1  0.66817091  0.70127343  0.20416402  1
  C  C115  1  0.66924969  0.79624219  0.70181881  1
  C  C116  1  0.66971439  0.14100794  0.64099258  1
  C  C117  1  0.67023513  0.64111627  0.85853106  1
  C  C118  1  0.66997938  0.35933068  0.14121224  1
  C  C119  1  0.67025678  0.85816781  0.35912576  1
  C  C120  1  0.82804209  0.14244421  0.79877652  1
  C  C121  1  0.82877128  0.35832383  0.29907993  1
  C  C122  1  0.82833583  0.70045582  0.35871845  1
  C  C123  1  0.82905897  0.79869976  0.85729508  1
  C  C124  1  0.82836486  0.20154402  0.14273286  1
  C  C125  1  0.82944686  0.29932814  0.64245985  1
  C  C126  1  0.82844683  0.64139263  0.70082660  1
  C  C127  1  0.82876521  0.85717383  0.20185260  1
  S  S128  1  0.00206404  0.99991863  0.49970654  1
  S  S129  1  0.00206158  0.50006245  0.99991760  1
  S  S130  1  0.55203618  0.99860107  0.98133102  1
  S  S131  1  0.52197590  0.50048636  0.48148531  1
  N  N132  1  0.25166539  0.21962180  0.28037434  1
  N  N133  1  0.25161362  0.27995190  0.78062747  1
  N  N134  1  0.25171748  0.71951655  0.21941079  1
  N  N135  1  0.25181082  0.78048795  0.71960264  1
  N  N136  1  0.74920904  0.21966822  0.71922552  1
  N  N137  1  0.74917192  0.28096689  0.21952263  1
  N  N138  1  0.74971716  0.71893101  0.77987989  1
  N  N139  1  0.74922910  0.77964752  0.28139127  1
  O  O140  1  0.08205771  0.07870681  0.57783427  1
  O  O141  1  0.08169498  0.42133491  0.07789796  1
  O  O142  1  0.08211762  0.57894161  0.92179784  1
  O  O143  1  0.08184532  0.92189439  0.42134362  1
  O  O144  1  0.43777083  0.41260212  0.54276844  1
  O  O145  1  0.49238519  0.50506267  0.34924996  1
  O  O146  1  0.50848661  0.62402643  0.53552329  1
  O  O147  1  0.50108373  0.12012715  0.01315529  1
  O  O148  1  0.52583722  0.97236716  0.85157131  1
  O  O149  1  0.49653752  0.90208800  0.05934348  1
  O  O150  1  0.68892232  0.99982713  0.99974026  1
  O  O151  1  0.65230290  0.46049493  0.49597822  1
  O  O152  1  0.92260986  0.07835045  0.42156187  1
  O  O153  1  0.92227513  0.42158814  0.92160829  1
  O  O154  1  0.92323227  0.57848298  0.07826645  1
  O  O155  1  0.92298194  0.92060341  0.57772289  1
