# generated using pymatgen
data_SnSb3(PO4)4
_symmetry_space_group_name_H-M   'P 1'
_cell_length_a   4.83231876
_cell_length_b   10.08210881
_cell_length_c   7.03994922
_cell_angle_alpha   90.00000000
_cell_angle_beta   90.00000000
_cell_angle_gamma   91.05120993
_symmetry_Int_Tables_number   1
_chemical_formula_structural   SnSb3(PO4)4
_chemical_formula_sum   'Sn1 Sb3 P4 O16'
_cell_volume   342.92834337
_cell_formula_units_Z   1
loop_
 _symmetry_equiv_pos_site_id
 _symmetry_equiv_pos_as_xyz
  1  'x, y, z'
loop_
 _atom_site_type_symbol
 _atom_site_label
 _atom_site_symmetry_multiplicity
 _atom_site_fract_x
 _atom_site_fract_y
 _atom_site_fract_z
 _atom_site_occupancy
  Sn  Sn0  1  0.89524453  0.29275608  0.25000000  1
  Sb  Sb1  1  0.10064111  0.70633366  0.75000000  1
  Sb  Sb2  1  0.39245895  0.20221368  0.75000000  1
  Sb  Sb3  1  0.59914176  0.79826566  0.25000000  1
  P  P4  1  0.15731370  0.60067509  0.25000000  1
  P  P5  1  0.32979116  0.09908546  0.25000000  1
  P  P6  1  0.67442276  0.90306963  0.75000000  1
  P  P7  1  0.83709116  0.39995332  0.75000000  1
  O  O8  1  0.22199187  0.45172028  0.25000000  1
  O  O9  1  0.30371174  0.67731298  0.07974146  1
  O  O10  1  0.30371174  0.67731298  0.42025854  1
  O  O11  1  0.15454234  0.38529677  0.75000000  1
  O  O12  1  0.35585132  0.88864831  0.75000000  1
  O  O13  1  0.19910170  0.17624982  0.07762910  1
  O  O14  1  0.19910170  0.17624982  0.42237090  1
  O  O15  1  0.25517794  0.95111269  0.25000000  1
  O  O16  1  0.75298273  0.05015942  0.75000000  1
  O  O17  1  0.80962097  0.82316141  0.57968698  1
  O  O18  1  0.80962097  0.82316141  0.92031302  1
  O  O19  1  0.65057981  0.11245587  0.25000000  1
  O  O20  1  0.84168568  0.61630916  0.25000000  1
  O  O21  1  0.69689524  0.32113960  0.57837990  1
  O  O22  1  0.69689524  0.32113960  0.92162010  1
  O  O23  1  0.76242387  0.54621931  0.75000000  1
