# generated using pymatgen
data_Tl3Co3O8
_symmetry_space_group_name_H-M   'P 1'
_cell_length_a   5.52138419
_cell_length_b   5.51341180
_cell_length_c   11.25677665
_cell_angle_alpha   90.00000000
_cell_angle_beta   90.36809732
_cell_angle_gamma   90.00000000
_symmetry_Int_Tables_number   1
_chemical_formula_structural   Tl3Co3O8
_chemical_formula_sum   'Tl6 Co6 O16'
_cell_volume   342.66794921
_cell_formula_units_Z   2
loop_
 _symmetry_equiv_pos_site_id
 _symmetry_equiv_pos_as_xyz
  1  'x, y, z'
loop_
 _atom_site_type_symbol
 _atom_site_label
 _atom_site_symmetry_multiplicity
 _atom_site_fract_x
 _atom_site_fract_y
 _atom_site_fract_z
 _atom_site_occupancy
  Tl  Tl0  1  0.26526522  0.79471508  0.50122710  1
  Tl  Tl1  1  0.26792030  0.70680796  0.18367918  1
  Tl  Tl2  1  0.26279479  0.70005791  0.81793276  1
  Tl  Tl3  1  0.73720521  0.20005791  0.18206724  1
  Tl  Tl4  1  0.73207970  0.20680796  0.81632082  1
  Tl  Tl5  1  0.73473478  0.29471508  0.49877290  1
  Co  Co6  1  0.19795742  0.19699705  0.00489671  1
  Co  Co7  1  0.24226737  0.24933686  0.32897508  1
  Co  Co8  1  0.24336922  0.24718307  0.66584772  1
  Co  Co9  1  0.75663078  0.74718307  0.33415228  1
  Co  Co10  1  0.75773263  0.74933686  0.67102492  1
  Co  Co11  1  0.80204258  0.69699705  0.99510329  1
  O  O12  1  0.05246565  0.97009499  0.28443705  1
  O  O13  1  0.96683349  0.45083663  0.28648224  1
  O  O14  1  0.13578545  0.83860856  0.99993410  1
  O  O15  1  0.13717142  0.19951484  0.48995814  1
  O  O16  1  0.34477997  0.29602437  0.15930671  1
  O  O17  1  0.34552269  0.29746219  0.85494675  1
  O  O18  1  0.43426313  0.53884598  0.36733164  1
  O  O19  1  0.53061131  0.05671451  0.36536151  1
  O  O20  1  0.46938869  0.55671451  0.63463849  1
  O  O21  1  0.56573687  0.03884598  0.63266836  1
  O  O22  1  0.65447731  0.79746219  0.14505325  1
  O  O23  1  0.65522003  0.79602437  0.84069329  1
  O  O24  1  0.86282858  0.69951484  0.51004186  1
  O  O25  1  0.86421455  0.33860856  0.00006590  1
  O  O26  1  0.03316651  0.95083663  0.71351776  1
  O  O27  1  0.94753435  0.47009499  0.71556295  1
