# generated using pymatgen
data_Li4Cr5Co3O16
_symmetry_space_group_name_H-M   'P 1'
_cell_length_a   5.83771873
_cell_length_b   5.88165770
_cell_length_c   9.49667806
_cell_angle_alpha   89.47953294
_cell_angle_beta   90.93079714
_cell_angle_gamma   120.32548291
_symmetry_Int_Tables_number   1
_chemical_formula_structural   Li4Cr5Co3O16
_chemical_formula_sum   'Li4 Cr5 Co3 O16'
_cell_volume   281.41935752
_cell_formula_units_Z   1
loop_
 _symmetry_equiv_pos_site_id
 _symmetry_equiv_pos_as_xyz
  1  'x, y, z'
loop_
 _atom_site_type_symbol
 _atom_site_label
 _atom_site_symmetry_multiplicity
 _atom_site_fract_x
 _atom_site_fract_y
 _atom_site_fract_z
 _atom_site_occupancy
  Li  Li0  1  0.33735598  0.67475589  0.89298508  1
  Li  Li1  1  0.99126635  0.99415171  0.99588914  1
  Li  Li2  1  0.99137044  0.99375517  0.49761702  1
  Li  Li3  1  0.66596027  0.33351444  0.39582596  1
  Cr  Cr4  1  0.16777931  0.83145875  0.20953182  1
  Cr  Cr5  1  0.33415472  0.65807971  0.48476622  1
  Cr  Cr6  1  0.16618349  0.33664244  0.20845484  1
  Cr  Cr7  1  0.33335011  0.16615677  0.70824639  1
  Cr  Cr8  1  0.67747811  0.34337571  0.98251140  1
  Co  Co9  1  0.65712841  0.82892699  0.22078054  1
  Co  Co10  1  0.82875153  0.65896481  0.71356488  1
  Co  Co11  1  0.82466635  0.16466856  0.71695218  1
  O  O12  1  0.16421647  0.83784304  0.60780211  1
  O  O13  1  0.04111038  0.51842519  0.33339590  1
  O  O14  1  0.33971185  0.67132041  0.10317408  1
  O  O15  1  0.99671262  0.99751744  0.30945498  1
  O  O16  1  0.99734429  0.98712106  0.80944581  1
  O  O17  1  0.16882252  0.32503630  0.60536611  1
  O  O18  1  0.46941142  0.95950866  0.34263791  1
  O  O19  1  0.46825818  0.50605080  0.34100558  1
  O  O20  1  0.33039858  0.16679536  0.10641163  1
  O  O21  1  0.67359966  0.82364896  0.60482578  1
  O  O22  1  0.52132275  0.48039457  0.83215498  1
  O  O23  1  0.51910571  0.04568762  0.83840550  1
  O  O24  1  0.67005807  0.34524880  0.60578827  1
  O  O25  1  0.84955002  0.67107527  0.10250676  1
  O  O26  1  0.96405718  0.49884127  0.83838237  1
  O  O27  1  0.85087724  0.18133433  0.09995476  1
