# generated using pymatgen
data_Li2FeSiCO7
_symmetry_space_group_name_H-M   'P 1'
_cell_length_a   8.58907099
_cell_length_b   6.31706389
_cell_length_c   5.14280388
_cell_angle_alpha   90.00000000
_cell_angle_beta   87.23483152
_cell_angle_gamma   90.00000000
_symmetry_Int_Tables_number   1
_chemical_formula_structural   Li2FeSiCO7
_chemical_formula_sum   'Li4 Fe2 Si2 C2 O14'
_cell_volume   278.71186611
_cell_formula_units_Z   2
loop_
 _symmetry_equiv_pos_site_id
 _symmetry_equiv_pos_as_xyz
  1  'x, y, z'
loop_
 _atom_site_type_symbol
 _atom_site_label
 _atom_site_symmetry_multiplicity
 _atom_site_fract_x
 _atom_site_fract_y
 _atom_site_fract_z
 _atom_site_occupancy
  Li  Li0  1  0.22605821  0.51147629  0.21774741  1
  Li  Li1  1  0.22605821  0.98852371  0.21774741  1
  Li  Li2  1  0.77394179  0.48852371  0.78225259  1
  Li  Li3  1  0.77394179  0.01147629  0.78225259  1
  Fe  Fe4  1  0.34965037  0.75000000  0.79596250  1
  Fe  Fe5  1  0.65034963  0.25000000  0.20403750  1
  Si  Si6  1  0.43233715  0.25000000  0.70903371  1
  Si  Si7  1  0.56766285  0.75000000  0.29096629  1
  C  C8  1  0.05324723  0.75000000  0.72603142  1
  C  C9  1  0.94675277  0.25000000  0.27396858  1
  O  O10  1  0.09445385  0.25000000  0.28421013  1
  O  O11  1  0.11868667  0.75000000  0.95141339  1
  O  O12  1  0.14998514  0.75000000  0.52387740  1
  O  O13  1  0.32489245  0.04956305  0.80939218  1
  O  O14  1  0.32489245  0.45043695  0.80939218  1
  O  O15  1  0.39348421  0.75000000  0.17321606  1
  O  O16  1  0.45442899  0.25000000  0.38653261  1
  O  O17  1  0.54557101  0.75000000  0.61346739  1
  O  O18  1  0.60651579  0.25000000  0.82678394  1
  O  O19  1  0.67510755  0.54956305  0.19060782  1
  O  O20  1  0.67510755  0.95043695  0.19060782  1
  O  O21  1  0.85001486  0.25000000  0.47612260  1
  O  O22  1  0.88131333  0.25000000  0.04858661  1
  O  O23  1  0.90554615  0.75000000  0.71578987  1
