# generated using pymatgen
data_Li2Cr3O10
_symmetry_space_group_name_H-M   'P 1'
_cell_length_a   7.48124333
_cell_length_b   6.79695367
_cell_length_c   16.91814668
_cell_angle_alpha   90.00000000
_cell_angle_beta   90.00000000
_cell_angle_gamma   76.52699790
_symmetry_Int_Tables_number   1
_chemical_formula_structural   Li2Cr3O10
_chemical_formula_sum   'Li8 Cr12 O40'
_cell_volume   836.60695415
_cell_formula_units_Z   4
loop_
 _symmetry_equiv_pos_site_id
 _symmetry_equiv_pos_as_xyz
  1  'x, y, z'
loop_
 _atom_site_type_symbol
 _atom_site_label
 _atom_site_symmetry_multiplicity
 _atom_site_fract_x
 _atom_site_fract_y
 _atom_site_fract_z
 _atom_site_occupancy
  Li  Li0  1  0.02652354  0.04993164  0.32766181  1
  Li  Li1  1  0.13372462  0.34400608  0.60531678  1
  Li  Li2  1  0.36627538  0.15599392  0.10531678  1
  Li  Li3  1  0.47347646  0.45006836  0.82766181  1
  Li  Li4  1  0.52652354  0.54993164  0.17233819  1
  Li  Li5  1  0.63372462  0.84400608  0.89468322  1
  Li  Li6  1  0.86627538  0.65599392  0.39468322  1
  Li  Li7  1  0.97347646  0.95006836  0.67233819  1
  Cr  Cr8  1  0.10442410  0.15711142  0.91059047  1
  Cr  Cr9  1  0.05179863  0.52448633  0.22667583  1
  Cr  Cr10  1  0.26621973  0.63564905  0.00196879  1
  Cr  Cr11  1  0.23378027  0.86435095  0.50196879  1
  Cr  Cr12  1  0.39557590  0.34288858  0.41059047  1
  Cr  Cr13  1  0.55179863  0.02448633  0.27332417  1
  Cr  Cr14  1  0.44820137  0.97551367  0.72667583  1
  Cr  Cr15  1  0.60442410  0.65711142  0.58940953  1
  Cr  Cr16  1  0.76621973  0.13564905  0.49803121  1
  Cr  Cr17  1  0.73378027  0.36435095  0.99803121  1
  Cr  Cr18  1  0.94820137  0.47551367  0.77332417  1
  Cr  Cr19  1  0.89557590  0.84288858  0.08940953  1
  O  O20  1  0.02811767  0.77595186  0.00382753  1
  O  O21  1  0.11093420  0.36671154  0.85076045  1
  O  O22  1  0.98591677  0.99006596  0.14250667  1
  O  O23  1  0.05678198  0.57292204  0.70479638  1
  O  O24  1  0.23205269  0.09368210  0.52995015  1
  O  O25  1  0.12913764  0.70976363  0.26237526  1
  O  O26  1  0.12229864  0.76316397  0.56716099  1
  O  O27  1  0.22209586  0.35372789  0.18924021  1
  O  O28  1  0.18905328  0.45367599  0.43498484  1
  O  O29  1  0.31094672  0.04632401  0.93498484  1
  O  O30  1  0.14148675  0.86756236  0.41378046  1
  O  O31  1  0.27790414  0.14627211  0.68924021  1
  O  O32  1  0.26794731  0.40631790  0.02995015  1
  O  O33  1  0.38906580  0.13328846  0.35076045  1
  O  O34  1  0.35851325  0.63243764  0.91378046  1
  O  O35  1  0.37770136  0.73683603  0.06716099  1
  O  O36  1  0.37086236  0.79023637  0.76237526  1
  O  O37  1  0.52811767  0.27595186  0.49617247  1
  O  O38  1  0.44321802  0.92707796  0.20479638  1
  O  O39  1  0.51408323  0.50993404  0.64250667  1
  O  O40  1  0.48591677  0.49006596  0.35749333  1
  O  O41  1  0.55678198  0.07292204  0.79520362  1
  O  O42  1  0.47188233  0.72404814  0.50382753  1
  O  O43  1  0.62913764  0.20976363  0.23762474  1
  O  O44  1  0.62229864  0.26316397  0.93283901  1
  O  O45  1  0.64148675  0.36756236  0.08621954  1
  O  O46  1  0.61093420  0.86671154  0.64923955  1
  O  O47  1  0.73205269  0.59368210  0.97004985  1
  O  O48  1  0.72209586  0.85372789  0.31075979  1
  O  O49  1  0.85851325  0.13243764  0.58621954  1
  O  O50  1  0.68905328  0.95367599  0.06501516  1
  O  O51  1  0.81094672  0.54632401  0.56501516  1
  O  O52  1  0.77790414  0.64627211  0.81075979  1
  O  O53  1  0.87770136  0.23683603  0.43283901  1
  O  O54  1  0.87086236  0.29023637  0.73762474  1
  O  O55  1  0.76794731  0.90631790  0.47004985  1
  O  O56  1  0.94321802  0.42707796  0.29520362  1
  O  O57  1  0.01408323  0.00993404  0.85749333  1
  O  O58  1  0.88906580  0.63328846  0.14923955  1
  O  O59  1  0.97188233  0.22404814  0.99617247  1
