# generated using pymatgen
data_Rb8BaNaAl11Si13O48
_symmetry_space_group_name_H-M   'P 1'
_cell_length_a   12.62506513
_cell_length_b   12.28337966
_cell_length_c   12.24705814
_cell_angle_alpha   89.94577473
_cell_angle_beta   90.35607144
_cell_angle_gamma   90.29136429
_symmetry_Int_Tables_number   1
_chemical_formula_structural   Rb8BaNaAl11Si13O48
_chemical_formula_sum   'Rb8 Ba1 Na1 Al11 Si13 O48'
_cell_volume   1899.19298927
_cell_formula_units_Z   1
loop_
 _symmetry_equiv_pos_site_id
 _symmetry_equiv_pos_as_xyz
  1  'x, y, z'
loop_
 _atom_site_type_symbol
 _atom_site_label
 _atom_site_symmetry_multiplicity
 _atom_site_fract_x
 _atom_site_fract_y
 _atom_site_fract_z
 _atom_site_occupancy
  Rb  Rb0  1  0.01467412  0.52130336  0.52803087  1
  Rb  Rb1  1  0.55867518  0.53737147  0.97455733  1
  Rb  Rb2  1  0.55757489  0.97409053  0.53572111  1
  Rb  Rb3  1  0.72621883  0.29243638  0.28266996  1
  Rb  Rb4  1  0.74196887  0.23901312  0.76172623  1
  Rb  Rb5  1  0.73765881  0.76322489  0.24094182  1
  Rb  Rb6  1  0.25019340  0.33596027  0.32577781  1
  Rb  Rb7  1  0.99934670  0.86423231  0.88576405  1
  Ba  Ba8  1  0.82582455  0.10338931  0.10049800  1
  Na  Na9  1  0.15383037  0.16326126  0.16239722  1
  Al  Al10  1  0.99912630  0.61971326  0.80961539  1
  Al  Al11  1  0.60713358  0.19296253  0.00475677  1
  Al  Al12  1  0.60709359  0.00925782  0.19168103  1
  Al  Al13  1  0.61711496  0.81288442  0.99442089  1
  Al  Al14  1  0.61756763  0.99165516  0.81298891  1
  Al  Al15  1  0.82491092  0.36795604  0.00683043  1
  Al  Al16  1  0.81845536  0.63596723  0.00052445  1
  Al  Al17  1  0.82557686  0.00814741  0.36537915  1
  Al  Al18  1  0.81928303  0.99724983  0.63346294  1
  Al  Al19  1  0.00523716  0.19083959  0.37713427  1
  Al  Al20  1  0.00454513  0.37588983  0.18953286  1
  Si  Si21  1  0.00572982  0.36821203  0.81734698  1
  Si  Si22  1  0.00648079  0.82033363  0.36666685  1
  Si  Si23  1  0.00156667  0.81156727  0.62085939  1
  Si  Si24  1  0.18605435  0.37890836  0.99924335  1
  Si  Si25  1  0.18388638  0.62721807  0.99911919  1
  Si  Si26  1  0.18676097  0.99943751  0.37715669  1
  Si  Si27  1  0.18404981  0.99548858  0.62552912  1
  Si  Si28  1  0.36275843  0.18535555  0.99810592  1
  Si  Si29  1  0.36673000  0.81494649  -0.00003676  1
  Si  Si30  1  0.36436489  0.00206435  0.18484456  1
  Si  Si31  1  0.36626570  0.99626202  0.81556470  1
  Si  Si32  1  0.00486651  0.17801899  0.63575756  1
  Si  Si33  1  0.00404571  0.63518407  0.18175569  1
  O  O34  1  0.99605358  0.23019005  0.51417078  1
  O  O35  1  0.02203351  0.27894567  0.72070052  1
  O  O36  1  0.01962869  0.71357438  0.29038857  1
  O  O37  1  0.99182853  0.48552348  0.75726457  1
  O  O38  1  0.01597932  0.70074685  0.69041712  1
  O  O39  1  0.12130739  0.11040350  0.35129004  1
  O  O40  1  0.12106626  0.34829807  0.10992935  1
  O  O41  1  0.11311844  0.10374831  0.64302142  1
  O  O42  1  0.11297969  0.64617588  0.10908948  1
  O  O43  1  0.11690068  0.36819447  0.88828205  1
  O  O44  1  0.11816791  0.88859201  0.36187233  1
  O  O45  1  0.11666866  0.64090794  0.88806509  1
  O  O46  1  0.11223545  0.88500802  0.63683608  1
  O  O47  1  0.23843677  0.00047817  0.50175624  1
  O  O48  1  0.23796205  0.50235398  0.00777821  1
  O  O49  1  0.27602422  0.28355347  0.99520767  1
  O  O50  1  0.27671819  0.99637535  0.71757432  1
  O  O51  1  0.27839848  0.71765168  0.00608417  1
  O  O52  1  0.27717001  0.99911222  0.28286803  1
  O  O53  1  0.32957684  0.11435515  0.11214806  1
  O  O54  1  0.34580915  0.10574310  0.89286888  1
  O  O55  1  0.34861290  0.89576202  0.10741355  1
  O  O56  1  0.33824805  0.89018718  0.89218520  1
  O  O57  1  0.47744169  0.01396101  0.24534201  1
  O  O58  1  0.47664989  0.24434900  0.00737653  1
  O  O59  1  0.48153659  0.99559526  0.75992760  1
  O  O60  1  0.48203511  0.75977788  0.99789869  1
  O  O61  1  0.63231159  0.14026600  0.13698405  1
  O  O62  1  0.63116553  0.10335280  0.90050483  1
  O  O63  1  0.62849522  0.90366977  0.10369917  1
  O  O64  1  0.64498522  0.86771744  0.86937580  1
  O  O65  1  0.70026431  0.01606135  0.70105617  1
  O  O66  1  0.71484682  0.28224683  0.99781271  1
  O  O67  1  0.69818800  0.70167851  0.02414499  1
  O  O68  1  0.71598960  0.00204632  0.27962898  1
  O  O69  1  0.78219313  0.49921785  0.01129888  1
  O  O70  1  0.78301407  0.00337210  0.49716374  1
  O  O71  1  0.89332784  0.12766976  0.31835689  1
  O  O72  1  0.90144917  0.10994138  0.67246017  1
  O  O73  1  0.89247767  0.31711839  0.12639891  1
  O  O74  1  0.90720075  0.33282149  0.89379942  1
  O  O75  1  0.90024846  0.67579848  0.11632191  1
  O  O76  1  0.89460117  0.66680656  0.88569919  1
  O  O77  1  0.90769342  0.89473992  0.32944916  1
  O  O78  1  0.90205279  0.88264205  0.66076134  1
  O  O79  1  0.04241393  0.30763746  0.30765059  1
  O  O80  1  0.99542604  0.51209854  0.22937510  1
  O  O81  1  0.99352693  0.77143098  0.49167771  1
