# generated using pymatgen
data_Ba2LaCl7
_symmetry_space_group_name_H-M   'P 1'
_cell_length_a   12.23817613
_cell_length_b   7.57331292
_cell_length_c   14.05944980
_cell_angle_alpha   90.00000000
_cell_angle_beta   90.00000000
_cell_angle_gamma   87.12804407
_symmetry_Int_Tables_number   1
_chemical_formula_structural   Ba2LaCl7
_chemical_formula_sum   'Ba8 La4 Cl28'
_cell_volume   1301.44287518
_cell_formula_units_Z   4
loop_
 _symmetry_equiv_pos_site_id
 _symmetry_equiv_pos_as_xyz
  1  'x, y, z'
loop_
 _atom_site_type_symbol
 _atom_site_label
 _atom_site_symmetry_multiplicity
 _atom_site_fract_x
 _atom_site_fract_y
 _atom_site_fract_z
 _atom_site_occupancy
  Ba  Ba0  1  0.20118347  0.31832052  0.55569800  1
  Ba  Ba1  1  0.21597429  0.20843526  0.86676750  1
  Ba  Ba2  1  0.28402571  0.79156474  0.36676750  1
  Ba  Ba3  1  0.29881653  0.68167948  0.05569800  1
  Ba  Ba4  1  0.70118347  0.31832052  0.94430200  1
  Ba  Ba5  1  0.71597429  0.20843526  0.63323250  1
  Ba  Ba6  1  0.78402571  0.79156474  0.13323250  1
  Ba  Ba7  1  0.79881653  0.68167948  0.44430200  1
  La  La8  1  0.02612977  0.20319963  0.23360308  1
  La  La9  1  0.47387023  0.79680037  0.73360308  1
  La  La10  1  0.52612977  0.20319963  0.26639692  1
  La  La11  1  0.97387023  0.79680037  0.76639692  1
  Cl  Cl12  1  0.09922761  0.85211490  0.18651899  1
  Cl  Cl13  1  0.10048968  0.06321017  0.41198137  1
  Cl  Cl14  1  0.09588286  0.51474084  0.38188511  1
  Cl  Cl15  1  0.11062952  0.85658877  0.92555674  1
  Cl  Cl16  1  0.14308567  0.35246126  0.07315469  1
  Cl  Cl17  1  0.14432680  0.99810270  0.68929930  1
  Cl  Cl18  1  0.14441864  0.53114440  0.74410796  1
  Cl  Cl19  1  0.35558136  0.46885560  0.24410796  1
  Cl  Cl20  1  0.35567320  0.00189730  0.18929930  1
  Cl  Cl21  1  0.35691433  0.64753874  0.57315469  1
  Cl  Cl22  1  0.38937048  0.14341123  0.42555674  1
  Cl  Cl23  1  0.40411714  0.48525916  0.88188511  1
  Cl  Cl24  1  0.39951032  0.93678983  0.91198137  1
  Cl  Cl25  1  0.40077239  0.14788510  0.68651899  1
  Cl  Cl26  1  0.59922761  0.85211490  0.31348101  1
  Cl  Cl27  1  0.60048968  0.06321017  0.08801863  1
  Cl  Cl28  1  0.59588286  0.51474084  0.11811489  1
  Cl  Cl29  1  0.61062952  0.85658877  0.57444326  1
  Cl  Cl30  1  0.64308567  0.35246126  0.42684531  1
  Cl  Cl31  1  0.64432680  0.99810270  0.81070070  1
  Cl  Cl32  1  0.64441864  0.53114440  0.75589204  1
  Cl  Cl33  1  0.85558136  0.46885560  0.25589204  1
  Cl  Cl34  1  0.85567320  0.00189730  0.31070070  1
  Cl  Cl35  1  0.85691433  0.64753874  0.92684531  1
  Cl  Cl36  1  0.88937048  0.14341123  0.07444326  1
  Cl  Cl37  1  0.90411714  0.48525916  0.61811489  1
  Cl  Cl38  1  0.89951032  0.93678983  0.58801863  1
  Cl  Cl39  1  0.90077239  0.14788510  0.81348101  1
