# generated using pymatgen
data_V2CrO6
_symmetry_space_group_name_H-M   'P 1'
_cell_length_a   6.76220847
_cell_length_b   6.76220858
_cell_length_c   5.70810367
_cell_angle_alpha   75.17271567
_cell_angle_beta   104.82728294
_cell_angle_gamma   95.36961953
_symmetry_Int_Tables_number   1
_chemical_formula_structural   V2CrO6
_chemical_formula_sum   'V4 Cr2 O12'
_cell_volume   243.81339491
_cell_formula_units_Z   2
loop_
 _symmetry_equiv_pos_site_id
 _symmetry_equiv_pos_as_xyz
  1  'x, y, z'
loop_
 _atom_site_type_symbol
 _atom_site_label
 _atom_site_symmetry_multiplicity
 _atom_site_fract_x
 _atom_site_fract_y
 _atom_site_fract_z
 _atom_site_occupancy
  V  V0  1  0.20055916  0.60498935  0.76025920  1
  V  V1  1  0.39501065  0.79944084  0.26025920  1
  V  V2  1  0.60498935  0.20055916  0.73974080  1
  V  V3  1  0.79944084  0.39501065  0.23974080  1
  Cr  Cr4  1  0.08368137  0.08368137  0.75000000  1
  Cr  Cr5  1  0.91631863  0.91631863  0.25000000  1
  O  O6  1  0.03132648  0.81296710  0.63116470  1
  O  O7  1  0.08440915  0.36525227  0.78749663  1
  O  O8  1  0.18703290  0.96867352  0.13116470  1
  O  O9  1  0.37091988  0.64675550  0.55747627  1
  O  O10  1  0.36525227  0.08440915  0.71250337  1
  O  O11  1  0.35324450  0.62908012  0.05747627  1
  O  O12  1  0.64675550  0.37091988  0.94252373  1
  O  O13  1  0.63474773  0.91559085  0.28749663  1
  O  O14  1  0.62908012  0.35324450  0.44252373  1
  O  O15  1  0.81296710  0.03132648  0.86883530  1
  O  O16  1  0.91559085  0.63474773  0.21250337  1
  O  O17  1  0.96867352  0.18703290  0.36883530  1
