# generated using pymatgen
data_Li2VBPO7
_symmetry_space_group_name_H-M   'P 1'
_cell_length_a   8.80945518
_cell_length_b   6.22686091
_cell_length_c   5.22364790
_cell_angle_alpha   90.00000000
_cell_angle_beta   86.02473167
_cell_angle_gamma   90.00000000
_symmetry_Int_Tables_number   1
_chemical_formula_structural   Li2VBPO7
_chemical_formula_sum   'Li4 V2 B2 P2 O14'
_cell_volume   285.85511573
_cell_formula_units_Z   2
loop_
 _symmetry_equiv_pos_site_id
 _symmetry_equiv_pos_as_xyz
  1  'x, y, z'
loop_
 _atom_site_type_symbol
 _atom_site_label
 _atom_site_symmetry_multiplicity
 _atom_site_fract_x
 _atom_site_fract_y
 _atom_site_fract_z
 _atom_site_occupancy
  Li  Li0  1  0.18937723  0.52335799  0.23596716  1
  Li  Li1  1  0.18937723  0.97664201  0.23596716  1
  Li  Li2  1  0.81062277  0.47664201  0.76403284  1
  Li  Li3  1  0.81062277  0.02335799  0.76403284  1
  V  V4  1  0.32685769  0.75000000  0.78432262  1
  V  V5  1  0.67314231  0.25000000  0.21567738  1
  B  B6  1  0.05603093  0.75000000  0.73773871  1
  B  B7  1  0.94396907  0.25000000  0.26226129  1
  P  P8  1  0.43758403  0.25000000  0.72285867  1
  P  P9  1  0.56241597  0.75000000  0.27714133  1
  O  O10  1  0.09160093  0.25000000  0.28464087  1
  O  O11  1  0.13114383  0.75000000  0.97268507  1
  O  O12  1  0.17473120  0.75000000  0.53407907  1
  O  O13  1  0.33621243  0.05419676  0.80519298  1
  O  O14  1  0.33621243  0.44580324  0.80519298  1
  O  O15  1  0.41388052  0.75000000  0.13972997  1
  O  O16  1  0.47253099  0.25000000  0.42964152  1
  O  O17  1  0.52746901  0.75000000  0.57035848  1
  O  O18  1  0.58611948  0.25000000  0.86027003  1
  O  O19  1  0.66378757  0.55419676  0.19480702  1
  O  O20  1  0.66378757  0.94580324  0.19480702  1
  O  O21  1  0.82526880  0.25000000  0.46592093  1
  O  O22  1  0.86885617  0.25000000  0.02731493  1
  O  O23  1  0.90839907  0.75000000  0.71535913  1
