# generated using pymatgen
data_FePO4F
_symmetry_space_group_name_H-M   'P 1'
_cell_length_a   12.80399720
_cell_length_b   6.33096604
_cell_length_c   10.85188176
_cell_angle_alpha   90.00000000
_cell_angle_beta   90.00000000
_cell_angle_gamma   90.00000000
_symmetry_Int_Tables_number   1
_chemical_formula_structural   FePO4F
_chemical_formula_sum   'Fe8 P8 O32 F8'
_cell_volume   879.67167384
_cell_formula_units_Z   8
loop_
 _symmetry_equiv_pos_site_id
 _symmetry_equiv_pos_as_xyz
  1  'x, y, z'
loop_
 _atom_site_type_symbol
 _atom_site_label
 _atom_site_symmetry_multiplicity
 _atom_site_fract_x
 _atom_site_fract_y
 _atom_site_fract_z
 _atom_site_occupancy
  Fe  Fe0  1  0.11220012  0.00117569  0.49815486  1
  Fe  Fe1  1  0.24947146  0.25042562  0.74895571  1
  Fe  Fe2  1  0.25052854  0.75042562  0.24895571  1
  Fe  Fe3  1  0.38779988  0.50117569  0.99815486  1
  Fe  Fe4  1  0.61220012  0.49882431  0.49815486  1
  Fe  Fe5  1  0.74947146  0.24957438  0.74895571  1
  Fe  Fe6  1  0.75052854  0.74957438  0.24895571  1
  Fe  Fe7  1  0.88779988  0.99882431  0.99815486  1
  P  P8  1  0.00047478  0.83462701  0.24849667  1
  P  P9  1  0.18606109  0.50076908  0.49844548  1
  P  P10  1  0.31393891  0.00076908  0.99844548  1
  P  P11  1  0.49952522  0.33462701  0.74849667  1
  P  P12  1  0.50047478  0.66537299  0.24849667  1
  P  P13  1  0.68606109  0.99923092  0.49844548  1
  P  P14  1  0.81393891  0.49923092  0.99844548  1
  P  P15  1  0.99952522  0.16537299  0.74849667  1
  O  O16  1  0.00747800  0.02262049  0.63278698  1
  O  O17  1  0.00845076  0.98121597  0.36260287  1
  O  O18  1  0.09661904  0.30770636  0.76280092  1
  O  O19  1  0.09778591  0.69202756  0.23593308  1
  O  O20  1  0.11333958  0.31106923  0.47250108  1
  O  O21  1  0.11373535  0.69119338  0.52367058  1
  O  O22  1  0.24262000  0.95903409  0.11115052  1
  O  O23  1  0.24166102  0.04111695  0.88651160  1
  O  O24  1  0.25833898  0.54111695  0.38651160  1
  O  O25  1  0.25738000  0.45903409  0.61115052  1
  O  O26  1  0.38626465  0.19119338  0.02367058  1
  O  O27  1  0.38666042  0.81106923  0.97250108  1
  O  O28  1  0.40221409  0.19202756  0.73593308  1
  O  O29  1  0.40338096  0.80770636  0.26280092  1
  O  O30  1  0.49154924  0.48121597  0.86260287  1
  O  O31  1  0.49252200  0.52262049  0.13278698  1
  O  O32  1  0.50747800  0.47737951  0.63278698  1
  O  O33  1  0.50845076  0.51878403  0.36260287  1
  O  O34  1  0.59661904  0.19229364  0.76280092  1
  O  O35  1  0.59778591  0.80797244  0.23593308  1
  O  O36  1  0.61333958  0.18893077  0.47250108  1
  O  O37  1  0.61373535  0.80880662  0.52367058  1
  O  O38  1  0.74262000  0.54096591  0.11115052  1
  O  O39  1  0.74166102  0.45888305  0.88651160  1
  O  O40  1  0.75833898  0.95888305  0.38651160  1
  O  O41  1  0.75738000  0.04096591  0.61115052  1
  O  O42  1  0.88626465  0.30880662  0.02367058  1
  O  O43  1  0.88666042  0.68893077  0.97250108  1
  O  O44  1  0.90221409  0.30797244  0.73593308  1
  O  O45  1  0.90338096  0.69229364  0.26280092  1
  O  O46  1  0.99154924  0.01878403  0.86260287  1
  O  O47  1  0.99252200  0.97737951  0.13278698  1
  F  F48  1  0.22419890  0.97363970  0.37193921  1
  F  F49  1  0.22312170  0.02816855  0.62553043  1
  F  F50  1  0.27687830  0.52816855  0.12553043  1
  F  F51  1  0.27580110  0.47363970  0.87193921  1
  F  F52  1  0.72419890  0.52636030  0.37193921  1
  F  F53  1  0.72312170  0.47183145  0.62553043  1
  F  F54  1  0.77687830  0.97183145  0.12553043  1
  F  F55  1  0.77580110  0.02636030  0.87193921  1
