# generated using pymatgen
data_Li10Sn(PO6)2
_symmetry_space_group_name_H-M   'P 1'
_cell_length_a   7.14681007
_cell_length_b   7.14681007
_cell_length_c   10.82532776
_cell_angle_alpha   90.00000000
_cell_angle_beta   90.00000000
_cell_angle_gamma   90.00000000
_symmetry_Int_Tables_number   1
_chemical_formula_structural   Li10Sn(PO6)2
_chemical_formula_sum   'Li20 Sn2 P4 O24'
_cell_volume   552.92412043
_cell_formula_units_Z   2
loop_
 _symmetry_equiv_pos_site_id
 _symmetry_equiv_pos_as_xyz
  1  'x, y, z'
loop_
 _atom_site_type_symbol
 _atom_site_label
 _atom_site_symmetry_multiplicity
 _atom_site_fract_x
 _atom_site_fract_y
 _atom_site_fract_z
 _atom_site_occupancy
  Li  Li0  1  0.20019195  0.76655889  0.29404402  1
  Li  Li1  1  0.79980805  0.23344111  0.29404402  1
  Li  Li2  1  0.26655889  0.29980805  0.79404402  1
  Li  Li3  1  0.73344111  0.70019195  0.79404402  1
  Li  Li4  1  0.20019195  0.23344111  0.29404402  1
  Li  Li5  1  0.79980805  0.76655889  0.29404402  1
  Li  Li6  1  0.26655889  0.70019195  0.79404402  1
  Li  Li7  1  0.73344111  0.29980805  0.79404402  1
  Li  Li8  1  0.00000000  0.50000000  0.93075111  1
  Li  Li9  1  0.00000000  0.50000000  0.43075111  1
  Li  Li10  1  0.50000000  0.00000000  0.55893987  1
  Li  Li11  1  0.50000000  0.00000000  0.05893987  1
  Li  Li12  1  0.23325016  0.19133854  0.04991560  1
  Li  Li13  1  0.76674984  0.80866146  0.04991560  1
  Li  Li14  1  0.30866146  0.73325016  0.54991560  1
  Li  Li15  1  0.69133854  0.26674984  0.54991560  1
  Li  Li16  1  0.30866146  0.26674984  0.54991560  1
  Li  Li17  1  0.69133854  0.73325016  0.54991560  1
  Li  Li18  1  0.23325016  0.80866146  0.04991560  1
  Li  Li19  1  0.76674984  0.19133854  0.04991560  1
  Sn  Sn20  1  0.50000000  0.00000000  0.81003080  1
  Sn  Sn21  1  0.50000000  0.00000000  0.31003080  1
  P  P22  1  0.00000000  0.50000000  0.67834775  1
  P  P23  1  0.00000000  0.50000000  0.17834775  1
  P  P24  1  0.00000000  0.00000000  0.49328047  1
  P  P25  1  0.50000000  0.50000000  0.99328047  1
  O  O26  1  0.00000000  0.18274164  0.41082989  1
  O  O27  1  0.00000000  0.81725836  0.41082989  1
  O  O28  1  0.31725836  0.50000000  0.91082989  1
  O  O29  1  0.68274164  0.50000000  0.91082989  1
  O  O30  1  0.50000000  0.68577336  0.06783651  1
  O  O31  1  0.50000000  0.31422664  0.06783651  1
  O  O32  1  0.18577336  0.00000000  0.56783651  1
  O  O33  1  0.81422664  0.00000000  0.56783651  1
  O  O34  1  0.00000000  0.32280703  0.09367283  1
  O  O35  1  0.00000000  0.67719297  0.09367283  1
  O  O36  1  0.17719297  0.50000000  0.59367283  1
  O  O37  1  0.82280703  0.50000000  0.59367283  1
  O  O38  1  0.50000000  0.78583052  0.42438351  1
  O  O39  1  0.50000000  0.21416948  0.42438351  1
  O  O40  1  0.28583052  0.00000000  0.92438351  1
  O  O41  1  0.71416948  0.00000000  0.92438351  1
  O  O42  1  0.00000000  0.67305543  0.76484612  1
  O  O43  1  0.00000000  0.32694457  0.76484612  1
  O  O44  1  0.82694457  0.50000000  0.26484612  1
  O  O45  1  0.17305543  0.50000000  0.26484612  1
  O  O46  1  0.50000000  0.22068633  0.69843692  1
  O  O47  1  0.50000000  0.77931367  0.69843692  1
  O  O48  1  0.72068633  0.00000000  0.19843692  1
  O  O49  1  0.27931367  0.00000000  0.19843692  1
