# generated using pymatgen
data_Li4NbFe5O12
_symmetry_space_group_name_H-M   'P 1'
_cell_length_a   5.27761511
_cell_length_b   5.27761535
_cell_length_c   10.49404067
_cell_angle_alpha   87.07919639
_cell_angle_beta   87.07919088
_cell_angle_gamma   120.09691964
_symmetry_Int_Tables_number   1
_chemical_formula_structural   Li4NbFe5O12
_chemical_formula_sum   'Li4 Nb1 Fe5 O12'
_cell_volume   251.56492874
_cell_formula_units_Z   1
loop_
 _symmetry_equiv_pos_site_id
 _symmetry_equiv_pos_as_xyz
  1  'x, y, z'
loop_
 _atom_site_type_symbol
 _atom_site_label
 _atom_site_symmetry_multiplicity
 _atom_site_fract_x
 _atom_site_fract_y
 _atom_site_fract_z
 _atom_site_occupancy
  Li  Li0  1  0.12503240  0.46392923  0.71059784  1
  Li  Li1  1  0.53607077  0.87496760  0.28940216  1
  Li  Li2  1  0.46392923  0.12503240  0.71059784  1
  Li  Li3  1  0.87496760  0.53607077  0.28940216  1
  Nb  Nb4  1  0.00000000  0.00000000  0.00000000  1
  Fe  Fe5  1  0.16317792  0.83682208  0.50000000  1
  Fe  Fe6  1  0.33470391  0.66529609  0.00000000  1
  Fe  Fe7  1  0.50000000  0.50000000  0.50000000  1
  Fe  Fe8  1  0.66529609  0.33470391  1.00000000  1
  Fe  Fe9  1  0.83682208  0.16317792  0.50000000  1
  O  O10  1  0.98196615  0.65025906  0.10148856  1
  O  O11  1  0.34974094  0.01803385  0.89851144  1
  O  O12  1  0.18734298  0.53531073  0.39287372  1
  O  O13  1  0.46468927  0.81265702  0.60712628  1
  O  O14  1  0.16066058  0.16066058  0.60427075  1
  O  O15  1  0.31035301  0.31035301  0.09636329  1
  O  O16  1  0.68964699  0.68964699  0.90363671  1
  O  O17  1  0.83933942  0.83933942  0.39572925  1
  O  O18  1  0.53531073  0.18734298  0.39287372  1
  O  O19  1  0.81265702  0.46468927  0.60712628  1
  O  O20  1  0.65025906  0.98196615  0.10148856  1
  O  O21  1  0.01803385  0.34974094  0.89851144  1
