# generated using pymatgen
data_Li6CrO4
_symmetry_space_group_name_H-M   'P 1'
_cell_length_a   6.78651899
_cell_length_b   6.78839849
_cell_length_c   4.60036698
_cell_angle_alpha   90.02077021
_cell_angle_beta   89.98428121
_cell_angle_gamma   90.00028960
_symmetry_Int_Tables_number   1
_chemical_formula_structural   Li6CrO4
_chemical_formula_sum   'Li12 Cr2 O8'
_cell_volume   211.93702305
_cell_formula_units_Z   2
loop_
 _symmetry_equiv_pos_site_id
 _symmetry_equiv_pos_as_xyz
  1  'x, y, z'
loop_
 _atom_site_type_symbol
 _atom_site_label
 _atom_site_symmetry_multiplicity
 _atom_site_fract_x
 _atom_site_fract_y
 _atom_site_fract_z
 _atom_site_occupancy
  Li  Li0  1  0.03442273  0.53434262  0.75001582  1
  Li  Li1  1  0.03426652  0.96573985  0.74997223  1
  Li  Li2  1  0.25010510  0.24991502  0.67840567  1
  Li  Li3  1  0.25008291  0.24989899  0.17840591  1
  Li  Li4  1  0.46567147  0.53434398  0.75012099  1
  Li  Li5  1  0.46583573  0.96573994  0.75004127  1
  Li  Li6  1  0.53424972  0.03416869  0.25001264  1
  Li  Li7  1  0.53433805  0.46575517  0.24992729  1
  Li  Li8  1  0.74996659  0.75008456  0.32159865  1
  Li  Li9  1  0.74995413  0.75008897  0.82159853  1
  Li  Li10  1  0.96573021  0.03433674  0.25004631  1
  Li  Li11  1  0.96563466  0.46556709  0.24993395  1
  Cr  Cr12  1  0.24981353  0.74965329  0.25035302  1
  Cr  Cr13  1  0.75010436  0.25048817  0.74956323  1
  O  O14  1  0.02068599  0.25001810  0.94172474  1
  O  O15  1  0.25000301  0.02056622  0.44159581  1
  O  O16  1  0.24999988  0.47922420  0.44179455  1
  O  O17  1  0.47946629  0.25001774  0.94161537  1
  O  O18  1  0.52050519  0.74997472  0.05844620  1
  O  O19  1  0.75003155  0.97946328  0.55842061  1
  O  O20  1  0.75003669  0.52080797  0.55818182  1
  O  O21  1  0.97927570  0.74998469  0.05822541  1
