# generated using pymatgen
data_Ba3(LaI6)2
_symmetry_space_group_name_H-M   'P 1'
_cell_length_a   15.20030237
_cell_length_b   13.92024009
_cell_length_c   15.54126085
_cell_angle_alpha   90.00000000
_cell_angle_beta   90.54127321
_cell_angle_gamma   90.00000000
_symmetry_Int_Tables_number   1
_chemical_formula_structural   Ba3(LaI6)2
_chemical_formula_sum   'Ba12 La8 I48'
_cell_volume   3288.25752941
_cell_formula_units_Z   4
loop_
 _symmetry_equiv_pos_site_id
 _symmetry_equiv_pos_as_xyz
  1  'x, y, z'
loop_
 _atom_site_type_symbol
 _atom_site_label
 _atom_site_symmetry_multiplicity
 _atom_site_fract_x
 _atom_site_fract_y
 _atom_site_fract_z
 _atom_site_occupancy
  Ba  Ba0  1  0.04573169  0.21998181  0.78001992  1
  Ba  Ba1  1  0.00507645  0.59774985  0.70834072  1
  Ba  Ba2  1  0.18650845  0.98788417  0.50612744  1
  Ba  Ba3  1  0.31349155  0.48788417  0.99387256  1
  Ba  Ba4  1  0.49492355  0.09774985  0.79165928  1
  Ba  Ba5  1  0.45426831  0.71998181  0.71998008  1
  Ba  Ba6  1  0.54573169  0.28001819  0.28001992  1
  Ba  Ba7  1  0.50507645  0.90225015  0.20834072  1
  Ba  Ba8  1  0.68650845  0.51211583  0.00612744  1
  Ba  Ba9  1  0.81349155  0.01211583  0.49387256  1
  Ba  Ba10  1  0.99492355  0.40225015  0.29165928  1
  Ba  Ba11  1  0.95426831  0.78001819  0.21998008  1
  La  La12  1  0.19159032  0.85471058  0.92659139  1
  La  La13  1  0.18777921  0.16632556  0.14909048  1
  La  La14  1  0.30840968  0.35471058  0.57340861  1
  La  La15  1  0.31222079  0.66632556  0.35090952  1
  La  La16  1  0.68777921  0.33367444  0.64909048  1
  La  La17  1  0.69159032  0.64528942  0.42659139  1
  La  La18  1  0.81222079  0.83367444  0.85090952  1
  La  La19  1  0.80840968  0.14528942  0.07340861  1
  I  I20  1  -0.00021285  0.74432122  0.89878678  1
  I  I21  1  0.00844465  0.13692038  0.56770350  1
  I  I22  1  0.09869920  0.44854411  0.85388698  1
  I  I23  1  0.11945374  0.44107925  0.55069836  1
  I  I24  1  0.09406275  0.11496150  0.31855909  1
  I  I25  1  0.11034852  0.62179246  0.31695016  1
  I  I26  1  0.10187509  0.96434772  0.08449246  1
  I  I27  1  0.13162740  0.98471413  0.77537228  1
  I  I28  1  0.19215862  0.68731731  0.05975351  1
  I  I29  1  0.21467863  0.38003825  0.20882306  1
  I  I30  1  0.24254613  0.23708055  0.96447719  1
  I  I31  1  0.23460607  0.70341829  0.78715076  1
  I  I32  1  0.26539393  0.20341829  0.71284924  1
  I  I33  1  0.25745387  0.73708055  0.53552281  1
  I  I34  1  0.28532137  0.88003825  0.29117694  1
  I  I35  1  0.30784138  0.18731731  0.44024649  1
  I  I36  1  0.36837260  0.48471413  0.72462772  1
  I  I37  1  0.39812491  0.46434772  0.41550754  1
  I  I38  1  0.38965148  0.12179246  0.18304984  1
  I  I39  1  0.38054626  0.94107925  0.94930164  1
  I  I40  1  0.40593725  0.61496150  0.18144091  1
  I  I41  1  0.40130080  0.94854411  0.64611302  1
  I  I42  1  0.49155535  0.63692038  0.93229650  1
  I  I43  1  0.50021285  0.24432122  0.60121322  1
  I  I44  1  0.49978715  0.75567878  0.39878678  1
  I  I45  1  0.50844465  0.36307962  0.06770350  1
  I  I46  1  0.59869920  0.05145589  0.35388698  1
  I  I47  1  0.59406275  0.38503850  0.81855909  1
  I  I48  1  0.61945374  0.05892075  0.05069836  1
  I  I49  1  0.61034852  0.87820754  0.81695016  1
  I  I50  1  0.60187509  0.53565228  0.58449246  1
  I  I51  1  0.63162740  0.51528587  0.27537228  1
  I  I52  1  0.69215862  0.81268269  0.55975351  1
  I  I53  1  0.71467863  0.11996175  0.70882306  1
  I  I54  1  0.74254613  0.26291945  0.46447719  1
  I  I55  1  0.73460607  0.79658171  0.28715076  1
  I  I56  1  0.76539393  0.29658171  0.21284924  1
  I  I57  1  0.75745387  0.76291945  0.03552281  1
  I  I58  1  0.78532137  0.61996175  0.79117694  1
  I  I59  1  0.80784138  0.31268269  0.94024649  1
  I  I60  1  0.86837260  0.01528587  0.22462772  1
  I  I61  1  0.89812491  0.03565228  0.91550754  1
  I  I62  1  0.88965148  0.37820754  0.68304984  1
  I  I63  1  0.90593725  0.88503850  0.68144091  1
  I  I64  1  0.88054626  0.55892075  0.44930164  1
  I  I65  1  0.90130080  0.55145589  0.14611302  1
  I  I66  1  0.99155535  0.86307962  0.43229650  1
  I  I67  1  0.00021285  0.25567878  0.10121322  1
