# generated using pymatgen
data_Li4Mn5NiO12
_symmetry_space_group_name_H-M   'P 1'
_cell_length_a   5.13095277
_cell_length_b   5.13095277
_cell_length_c   10.25207875
_cell_angle_alpha   90.26903011
_cell_angle_beta   90.26903011
_cell_angle_gamma   120.10401261
_symmetry_Int_Tables_number   1
_chemical_formula_structural   Li4Mn5NiO12
_chemical_formula_sum   'Li4 Mn5 Ni1 O12'
_cell_volume   233.48729265
_cell_formula_units_Z   1
loop_
 _symmetry_equiv_pos_site_id
 _symmetry_equiv_pos_as_xyz
  1  'x, y, z'
loop_
 _atom_site_type_symbol
 _atom_site_label
 _atom_site_symmetry_multiplicity
 _atom_site_fract_x
 _atom_site_fract_y
 _atom_site_fract_z
 _atom_site_occupancy
  Li  Li0  1  0.33398619  0.83868880  0.24852192  1
  Li  Li1  1  0.16131120  0.66601381  0.75147808  1
  Li  Li2  1  0.83868880  0.33398619  0.24852192  1
  Li  Li3  1  0.66601381  0.16131120  0.75147808  1
  Mn  Mn4  1  0.16358986  0.83641014  0.50000000  1
  Mn  Mn5  1  0.33704300  0.66295700  0.00000000  1
  Mn  Mn6  1  0.50000000  0.50000000  0.50000000  1
  Mn  Mn7  1  0.66295700  0.33704300  0.00000000  1
  Mn  Mn8  1  0.83641014  0.16358986  0.50000000  1
  Ni  Ni9  1  0.00000000  0.00000000  0.00000000  1
  O  O10  1  0.00476342  0.64266344  0.10444593  1
  O  O11  1  0.35733656  0.99523658  0.89555407  1
  O  O12  1  0.15641556  0.51920510  0.39160405  1
  O  O13  1  0.48079490  0.84358444  0.60839595  1
  O  O14  1  0.35156920  0.35156920  0.09812532  1
  O  O15  1  0.17422893  0.17422893  0.59408269  1
  O  O16  1  0.64843080  0.64843080  0.90187468  1
  O  O17  1  0.82577107  0.82577107  0.40591731  1
  O  O18  1  0.51920510  0.15641556  0.39160405  1
  O  O19  1  0.84358444  0.48079490  0.60839595  1
  O  O20  1  0.99523658  0.35733656  0.89555407  1
  O  O21  1  0.64266344  0.00476342  0.10444593  1
