# generated using pymatgen
data_LiCrPO4
_symmetry_space_group_name_H-M   'P 1'
_cell_length_a   4.97672807
_cell_length_b   5.29986415
_cell_length_c   6.46962844
_cell_angle_alpha   90.41716766
_cell_angle_beta   90.61860674
_cell_angle_gamma   63.18476761
_symmetry_Int_Tables_number   1
_chemical_formula_structural   LiCrPO4
_chemical_formula_sum   'Li2 Cr2 P2 O8'
_cell_volume   152.28345860
_cell_formula_units_Z   2
loop_
 _symmetry_equiv_pos_site_id
 _symmetry_equiv_pos_as_xyz
  1  'x, y, z'
loop_
 _atom_site_type_symbol
 _atom_site_label
 _atom_site_symmetry_multiplicity
 _atom_site_fract_x
 _atom_site_fract_y
 _atom_site_fract_z
 _atom_site_occupancy
  Li  Li0  1  0.68858447  0.66179368  0.75097877  1
  Li  Li1  1  0.34812789  0.33233084  0.24623103  1
  Cr  Cr2  1  0.00432797  0.99829234  0.50620645  1
  Cr  Cr3  1  0.00867981  0.99605968  0.00124225  1
  P  P4  1  0.69274612  0.61856625  0.24947880  1
  P  P5  1  0.31090123  0.37380441  0.74750356  1
  O  O6  1  0.17644481  0.71375097  0.75205562  1
  O  O7  1  0.78026462  0.72393415  0.44784722  1
  O  O8  1  0.78026434  0.71912405  0.05237284  1
  O  O9  1  0.34645857  0.71161043  0.24713915  1
  O  O10  1  0.05323783  0.27863944  0.74725828  1
  O  O11  1  0.49916629  0.26818948  0.94442000  1
  O  O12  1  0.48874615  0.27539480  0.54792458  1
  O  O13  1  0.89061891  0.27886048  0.25184446  1
