# generated using pymatgen
data_La2Zn2O5
_symmetry_space_group_name_H-M   'P 1'
_cell_length_a   5.53523418
_cell_length_b   15.85939478
_cell_length_c   5.82010839
_cell_angle_alpha   90.00000000
_cell_angle_beta   90.00000000
_cell_angle_gamma   90.00000000
_symmetry_Int_Tables_number   1
_chemical_formula_structural   La2Zn2O5
_chemical_formula_sum   'La8 Zn8 O20'
_cell_volume   510.92091590
_cell_formula_units_Z   4
loop_
 _symmetry_equiv_pos_site_id
 _symmetry_equiv_pos_as_xyz
  1  'x, y, z'
loop_
 _atom_site_type_symbol
 _atom_site_label
 _atom_site_symmetry_multiplicity
 _atom_site_fract_x
 _atom_site_fract_y
 _atom_site_fract_z
 _atom_site_occupancy
  La  La0  1  0.99668669  0.11061538  0.47992924  1
  La  La1  1  0.99668669  0.38938462  0.47992924  1
  La  La2  1  0.50331331  0.61061538  0.97992924  1
  La  La3  1  0.50331331  0.88938462  0.97992924  1
  La  La4  1  0.49668669  0.11061538  0.02007076  1
  La  La5  1  0.49668669  0.38938462  0.02007076  1
  La  La6  1  0.00331331  0.61061538  0.52007076  1
  La  La7  1  0.00331331  0.88938462  0.52007076  1
  Zn  Zn8  1  0.00000000  0.00000000  0.00000000  1
  Zn  Zn9  1  0.00000000  0.50000000  0.00000000  1
  Zn  Zn10  1  0.04478049  0.75000000  0.05719279  1
  Zn  Zn11  1  0.45521951  0.25000000  0.55719279  1
  Zn  Zn12  1  0.50000000  0.00000000  0.50000000  1
  Zn  Zn13  1  0.50000000  0.50000000  0.50000000  1
  Zn  Zn14  1  0.54478049  0.75000000  0.44280721  1
  Zn  Zn15  1  0.95521951  0.25000000  0.94280721  1
  O  O16  1  0.02166042  0.14140760  0.08675889  1
  O  O17  1  0.02166042  0.35859240  0.08675889  1
  O  O18  1  0.08193774  0.25000000  0.61476979  1
  O  O19  1  0.24518980  0.51780606  0.25396792  1
  O  O20  1  0.24518980  0.98219394  0.25396792  1
  O  O21  1  0.25481020  0.48219394  0.75396792  1
  O  O22  1  0.25481020  0.01780606  0.75396792  1
  O  O23  1  0.41806226  0.75000000  0.11476979  1
  O  O24  1  0.47833958  0.64140760  0.58675889  1
  O  O25  1  0.47833958  0.85859240  0.58675889  1
  O  O26  1  0.52166042  0.14140760  0.41324111  1
  O  O27  1  0.52166042  0.35859240  0.41324111  1
  O  O28  1  0.58193774  0.25000000  0.88523021  1
  O  O29  1  0.74518980  0.98219394  0.24603208  1
  O  O30  1  0.74518980  0.51780606  0.24603208  1
  O  O31  1  0.75481020  0.01780606  0.74603208  1
  O  O32  1  0.75481020  0.48219394  0.74603208  1
  O  O33  1  0.91806226  0.75000000  0.38523021  1
  O  O34  1  0.97833958  0.64140760  0.91324111  1
  O  O35  1  0.97833958  0.85859240  0.91324111  1
