# generated using pymatgen
data_Ga2(WO4)3
_symmetry_space_group_name_H-M   'P 1'
_cell_length_a   9.47223530
_cell_length_b   13.05358322
_cell_length_c   9.39428537
_cell_angle_alpha   90.00000000
_cell_angle_beta   90.00000000
_cell_angle_gamma   90.00000000
_symmetry_Int_Tables_number   1
_chemical_formula_structural   Ga2(WO4)3
_chemical_formula_sum   'Ga8 W12 O48'
_cell_volume   1161.57155598
_cell_formula_units_Z   4
loop_
 _symmetry_equiv_pos_site_id
 _symmetry_equiv_pos_as_xyz
  1  'x, y, z'
loop_
 _atom_site_type_symbol
 _atom_site_label
 _atom_site_symmetry_multiplicity
 _atom_site_fract_x
 _atom_site_fract_y
 _atom_site_fract_z
 _atom_site_occupancy
  Ga  Ga0  1  0.03695564  0.62182238  0.24939045  1
  Ga  Ga1  1  0.03695564  0.87817762  0.74939045  1
  Ga  Ga2  1  0.46304436  0.12182238  0.74939045  1
  Ga  Ga3  1  0.46304436  0.37817762  0.24939045  1
  Ga  Ga4  1  0.53695564  0.87817762  0.25060955  1
  Ga  Ga5  1  0.53695564  0.62182238  0.75060955  1
  Ga  Ga6  1  0.96304436  0.12182238  0.25060955  1
  Ga  Ga7  1  0.96304436  0.37817762  0.75060955  1
  W  W8  1  0.11391449  0.35563079  0.39696464  1
  W  W9  1  0.11391449  0.14436921  0.89696464  1
  W  W10  1  0.25000000  0.00000000  0.46964766  1
  W  W11  1  0.25000000  0.50000000  0.96964666  1
  W  W12  1  0.38608551  0.64436921  0.39696464  1
  W  W13  1  0.38608551  0.85563079  0.89696464  1
  W  W14  1  0.61391449  0.14436921  0.10303536  1
  W  W15  1  0.61391449  0.35563079  0.60303536  1
  W  W16  1  0.75000000  0.00000000  0.53035334  1
  W  W17  1  0.75000000  0.50000000  0.03035334  1
  W  W18  1  0.88608551  0.85563079  0.10303536  1
  W  W19  1  0.88608551  0.64436921  0.60303536  1
  O  O20  1  0.00177703  0.76089824  0.18161905  1
  O  O21  1  0.00177703  0.73910176  0.68161905  1
  O  O22  1  0.07146725  0.01982238  0.82562772  1
  O  O23  1  0.07146725  0.48017762  0.32562772  1
  O  O24  1  0.09107967  0.14532873  0.08832712  1
  O  O25  1  0.09107967  0.35467127  0.58832712  1
  O  O26  1  0.12450311  0.06830065  0.36024704  1
  O  O27  1  0.12450311  0.43169935  0.86024704  1
  O  O28  1  0.16013779  0.90841095  0.58236634  1
  O  O29  1  0.16013779  0.59158905  0.08236634  1
  O  O30  1  0.20242114  0.82843499  0.85792874  1
  O  O31  1  0.20242114  0.67156501  0.35792874  1
  O  O32  1  0.29757886  0.17156501  0.85792874  1
  O  O33  1  0.29757886  0.32843499  0.35792874  1
  O  O34  1  0.33986221  0.09158905  0.58236634  1
  O  O35  1  0.33986221  0.40841095  0.08236634  1
  O  O36  1  0.37549689  0.56830065  0.86024704  1
  O  O37  1  0.37549689  0.93169935  0.36024704  1
  O  O38  1  0.40892033  0.64532873  0.58832712  1
  O  O39  1  0.40892033  0.85467127  0.08832712  1
  O  O40  1  0.42853275  0.51982238  0.32562772  1
  O  O41  1  0.42853275  0.98017762  0.82562772  1
  O  O42  1  0.49822297  0.26089824  0.68161905  1
  O  O43  1  0.49822297  0.23910176  0.18161905  1
  O  O44  1  0.50177703  0.73910176  0.31838095  1
  O  O45  1  0.50177703  0.76089824  0.81838095  1
  O  O46  1  0.57146725  0.01982238  0.17437228  1
  O  O47  1  0.57146725  0.48017762  0.67437228  1
  O  O48  1  0.59107967  0.35467127  0.41167288  1
  O  O49  1  0.59107967  0.14532873  0.91167288  1
  O  O50  1  0.62450311  0.06830065  0.63975296  1
  O  O51  1  0.62450311  0.43169935  0.13975296  1
  O  O52  1  0.66013779  0.90841095  0.41763366  1
  O  O53  1  0.66013779  0.59158905  0.91763366  1
  O  O54  1  0.70242114  0.67156501  0.64207126  1
  O  O55  1  0.70242114  0.82843499  0.14207126  1
  O  O56  1  0.79757886  0.17156501  0.14207126  1
  O  O57  1  0.79757886  0.32843499  0.64207126  1
  O  O58  1  0.83986221  0.40841095  0.91763366  1
  O  O59  1  0.83986221  0.09158905  0.41763366  1
  O  O60  1  0.87549689  0.93169935  0.63975296  1
  O  O61  1  0.87549689  0.56830065  0.13975296  1
  O  O62  1  0.90892033  0.85467127  0.91167288  1
  O  O63  1  0.90892033  0.64532873  0.41167288  1
  O  O64  1  0.92853275  0.98017762  0.17437228  1
  O  O65  1  0.92853275  0.51982238  0.67437228  1
  O  O66  1  0.99822297  0.23910176  0.81838095  1
  O  O67  1  0.99822297  0.26089824  0.31838095  1
