# generated using pymatgen
data_Li3Cr4FeO8
_symmetry_space_group_name_H-M   'P 1'
_cell_length_a   6.08277827
_cell_length_b   6.08277798
_cell_length_c   6.14813912
_cell_angle_alpha   85.87078161
_cell_angle_beta   57.16669877
_cell_angle_gamma   58.34810243
_symmetry_Int_Tables_number   1
_chemical_formula_structural   Li3Cr4FeO8
_chemical_formula_sum   'Li3 Cr4 Fe1 O8'
_cell_volume   155.36265644
_cell_formula_units_Z   1
loop_
 _symmetry_equiv_pos_site_id
 _symmetry_equiv_pos_as_xyz
  1  'x, y, z'
loop_
 _atom_site_type_symbol
 _atom_site_label
 _atom_site_symmetry_multiplicity
 _atom_site_fract_x
 _atom_site_fract_y
 _atom_site_fract_z
 _atom_site_occupancy
  Li  Li0  1  0.00000000  0.00000000  0.50000000  1
  Li  Li1  1  0.50000000  0.00000000  0.50000000  1
  Li  Li2  1  0.50000000  0.50000000  0.50000000  1
  Cr  Cr3  1  0.00000000  0.50000000  0.50000000  1
  Cr  Cr4  1  0.00000000  0.00000000  0.00000000  1
  Cr  Cr5  1  0.50000000  0.00000000  0.00000000  1
  Cr  Cr6  1  0.00000000  0.50000000  0.00000000  1
  Fe  Fe7  1  0.50000000  0.50000000  0.00000000  1
  O  O8  1  0.48499201  0.25397747  0.76898645  1
  O  O9  1  0.00502439  0.26127447  0.76965989  1
  O  O10  1  0.49161458  0.77468428  0.76965989  1
  O  O11  1  0.98888133  0.76909119  0.78020986  1
  O  O12  1  0.01111867  0.23090881  0.21979014  1
  O  O13  1  0.50838542  0.22531572  0.23034011  1
  O  O14  1  0.99497561  0.73872553  0.23034011  1
  O  O15  1  0.51500799  0.74602253  0.23101355  1
