# generated using pymatgen
data_Li3Cu3(PO4)2
_symmetry_space_group_name_H-M   'P 1'
_cell_length_a   6.22688288
_cell_length_b   5.43902114
_cell_length_c   10.17685385
_cell_angle_alpha   90.31039275
_cell_angle_beta   90.01081658
_cell_angle_gamma   89.53917262
_symmetry_Int_Tables_number   1
_chemical_formula_structural   Li3Cu3(PO4)2
_chemical_formula_sum   'Li6 Cu6 P4 O16'
_cell_volume   344.65497903
_cell_formula_units_Z   2
loop_
 _symmetry_equiv_pos_site_id
 _symmetry_equiv_pos_as_xyz
  1  'x, y, z'
loop_
 _atom_site_type_symbol
 _atom_site_label
 _atom_site_symmetry_multiplicity
 _atom_site_fract_x
 _atom_site_fract_y
 _atom_site_fract_z
 _atom_site_occupancy
  Li  Li0  1  0.99974486  0.15484121  0.74625172  1
  Li  Li1  1  0.99859737  0.15560082  0.24735019  1
  Li  Li2  1  0.24495622  0.32985074  0.49548374  1
  Li  Li3  1  0.24957696  0.32671237  0.99790543  1
  Li  Li4  1  0.25254866  0.67148066  0.24629891  1
  Li  Li5  1  0.50057030  0.84612075  0.49514934  1
  Cu  Cu6  1  0.26167755  0.66163365  0.75025975  1
  Cu  Cu7  1  0.50274564  0.82147057  0.99564733  1
  Cu  Cu8  1  0.73803644  0.66208974  0.74707629  1
  Cu  Cu9  1  0.74241828  0.66203167  0.24482460  1
  Cu  Cu10  1  0.75815172  0.33577324  0.49580328  1
  Cu  Cu11  1  0.75130815  0.33162436  0.99965094  1
  P  P12  1  0.00772933  0.83273359  0.00255934  1
  P  P13  1  0.00601006  0.83054541  0.49680149  1
  P  P14  1  0.49040558  0.17495129  0.25184991  1
  P  P15  1  0.49523058  0.17726443  0.74622947  1
  O  O16  1  0.00447488  0.84143008  0.65005221  1
  O  O17  1  0.01227391  0.09804771  0.44155452  1
  O  O18  1  0.00891601  0.83509171  0.15557622  1
  O  O19  1  0.01493052  0.09633695  0.94606195  1
  O  O20  1  0.20451765  0.68435264  0.44513919  1
  O  O21  1  0.20535647  0.67710952  0.95418070  1
  O  O22  1  0.29259023  0.31620358  0.19710387  1
  O  O23  1  0.29014926  0.30582730  0.68972710  1
  O  O24  1  0.48632538  0.18070863  0.89887239  1
  O  O25  1  0.49946811  0.91154624  0.68843040  1
  O  O26  1  0.48787498  0.17674927  0.40535040  1
  O  O27  1  0.48437336  0.90179242  0.20434060  1
  O  O28  1  0.70890660  0.30214923  0.70146516  1
  O  O29  1  0.70539698  0.29386545  0.20372831  1
  O  O30  1  0.79248325  0.70467885  0.45059991  1
  O  O31  1  0.80225573  0.69938492  0.95126934  1
