# generated using pymatgen
data_LiVSiCO7
_symmetry_space_group_name_H-M   'P 1'
_cell_length_a   8.68190956
_cell_length_b   6.38173180
_cell_length_c   5.33274361
_cell_angle_alpha   90.00000000
_cell_angle_beta   84.06591382
_cell_angle_gamma   90.00000000
_symmetry_Int_Tables_number   1
_chemical_formula_structural   LiVSiCO7
_chemical_formula_sum   'Li2 V2 Si2 C2 O14'
_cell_volume   293.88070977
_cell_formula_units_Z   2
loop_
 _symmetry_equiv_pos_site_id
 _symmetry_equiv_pos_as_xyz
  1  'x, y, z'
loop_
 _atom_site_type_symbol
 _atom_site_label
 _atom_site_symmetry_multiplicity
 _atom_site_fract_x
 _atom_site_fract_y
 _atom_site_fract_z
 _atom_site_occupancy
  Li  Li0  1  0.18925505  0.53102303  0.22107855  1
  Li  Li1  1  0.81074495  0.03102303  0.77892145  1
  V  V2  1  0.33907642  0.75211525  0.80464108  1
  V  V3  1  0.66092358  0.25211525  0.19535892  1
  Si  Si4  1  0.43514140  0.24881340  0.73684520  1
  Si  Si5  1  0.56485860  0.74881340  0.26315480  1
  C  C6  1  0.06577837  0.74799744  0.72265627  1
  C  C7  1  0.93422163  0.24799744  0.27734373  1
  O  O8  1  0.07000512  0.28242373  0.31512317  1
  O  O9  1  0.11912093  0.74622504  0.94959149  1
  O  O10  1  0.18291757  0.71913305  0.54600257  1
  O  O11  1  0.33307150  0.03613818  0.80047981  1
  O  O12  1  0.33186435  0.45019511  0.82517339  1
  O  O13  1  0.40662229  0.73847616  0.11745604  1
  O  O14  1  0.49669787  0.24530860  0.43284777  1
  O  O15  1  0.50330213  0.74530860  0.56715223  1
  O  O16  1  0.59337871  0.23847616  0.88254396  1
  O  O17  1  0.66813565  0.95019511  0.17482661  1
  O  O18  1  0.66692850  0.53613818  0.19952019  1
  O  O19  1  0.81708243  0.21913305  0.45399743  1
  O  O20  1  0.88087907  0.24622504  0.05040851  1
  O  O21  1  0.92999488  0.78242373  0.68487683  1
