# generated using pymatgen
data_Fe6O5F7
_symmetry_space_group_name_H-M   'P 1'
_cell_length_a   4.74348106
_cell_length_b   7.86055811
_cell_length_c   5.69132535
_cell_angle_alpha   94.82425222
_cell_angle_beta   91.30740130
_cell_angle_gamma   89.35459193
_symmetry_Int_Tables_number   1
_chemical_formula_structural   Fe6O5F7
_chemical_formula_sum   'Fe6 O5 F7'
_cell_volume   211.39294850
_cell_formula_units_Z   1
loop_
 _symmetry_equiv_pos_site_id
 _symmetry_equiv_pos_as_xyz
  1  'x, y, z'
loop_
 _atom_site_type_symbol
 _atom_site_label
 _atom_site_symmetry_multiplicity
 _atom_site_fract_x
 _atom_site_fract_y
 _atom_site_fract_z
 _atom_site_occupancy
  Fe  Fe0  1  0.56253953  0.65739781  0.17164464  1
  Fe  Fe1  1  0.51382848  0.01297710  0.48054388  1
  Fe  Fe2  1  0.48919745  0.33567208  0.83279305  1
  Fe  Fe3  1  0.96941269  0.68659166  0.66663851  1
  Fe  Fe4  1  0.99155197  0.32042009  0.33394813  1
  Fe  Fe5  1  0.97835814  0.98794246  0.01700189  1
  O  O6  1  0.80107091  0.75422962  0.95592037  1
  O  O7  1  0.80279440  0.10806433  0.30944887  1
  O  O8  1  0.69124278  0.77571242  0.46432527  1
  O  O9  1  0.69470803  0.42553711  0.12105559  1
  O  O10  1  0.30807359  0.23775519  0.54421850  1
  F  F11  1  0.80383711  0.43982610  0.63109715  1
  F  F12  1  0.69610348  0.10686397  0.79758890  1
  F  F13  1  0.29594268  0.56516615  0.86572610  1
  F  F14  1  0.30872706  0.88847897  0.20024385  1
  F  F15  1  0.20241338  0.23344487  0.03719142  1
  F  F16  1  0.18472502  0.56517544  0.37654044  1
  F  F17  1  0.20547431  0.89874463  0.69407445  1
