# generated using pymatgen
data_LiVTeO5
_symmetry_space_group_name_H-M   'P 1'
_cell_length_a   8.57365703
_cell_length_b   6.45128750
_cell_length_c   7.96079027
_cell_angle_alpha   90.00000000
_cell_angle_beta   90.00000000
_cell_angle_gamma   90.00000000
_symmetry_Int_Tables_number   1
_chemical_formula_structural   LiVTeO5
_chemical_formula_sum   'Li4 V4 Te4 O20'
_cell_volume   440.32027708
_cell_formula_units_Z   4
loop_
 _symmetry_equiv_pos_site_id
 _symmetry_equiv_pos_as_xyz
  1  'x, y, z'
loop_
 _atom_site_type_symbol
 _atom_site_label
 _atom_site_symmetry_multiplicity
 _atom_site_fract_x
 _atom_site_fract_y
 _atom_site_fract_z
 _atom_site_occupancy
  Li  Li0  1  0.00000000  0.00000000  0.00000000  1
  Li  Li1  1  0.00000000  0.50000000  0.00000000  1
  Li  Li2  1  0.50000000  0.00000000  0.50000000  1
  Li  Li3  1  0.50000000  0.50000000  0.50000000  1
  V  V4  1  0.19877259  0.25000000  0.73509340  1
  V  V5  1  0.30122741  0.75000000  0.23509340  1
  V  V6  1  0.69877259  0.25000000  0.76490660  1
  V  V7  1  0.80122741  0.75000000  0.26490660  1
  Te  Te8  1  0.14415325  0.75000000  0.63150893  1
  Te  Te9  1  0.35584675  0.25000000  0.13150893  1
  Te  Te10  1  0.64415325  0.75000000  0.86849107  1
  Te  Te11  1  0.85584675  0.25000000  0.36849107  1
  O  O12  1  0.13819861  0.25000000  0.53851393  1
  O  O13  1  0.10543982  0.75000000  0.21648363  1
  O  O14  1  0.15690564  0.53423719  0.79794074  1
  O  O15  1  0.15690564  0.96576281  0.79794074  1
  O  O16  1  0.15210398  0.25000000  0.03967367  1
  O  O17  1  0.34789602  0.75000000  0.53967367  1
  O  O18  1  0.34309436  0.03423719  0.29794074  1
  O  O19  1  0.34309436  0.46576281  0.29794074  1
  O  O20  1  0.39456018  0.25000000  0.71648363  1
  O  O21  1  0.36180139  0.75000000  0.03851393  1
  O  O22  1  0.63819861  0.25000000  0.96148607  1
  O  O23  1  0.60543982  0.75000000  0.28351637  1
  O  O24  1  0.65690564  0.53423719  0.70205926  1
  O  O25  1  0.65690564  0.96576281  0.70205926  1
  O  O26  1  0.65210398  0.25000000  0.46032633  1
  O  O27  1  0.84789602  0.75000000  0.96032633  1
  O  O28  1  0.84309436  0.03423719  0.20205926  1
  O  O29  1  0.84309436  0.46576281  0.20205926  1
  O  O30  1  0.89456018  0.25000000  0.78351637  1
  O  O31  1  0.86180139  0.75000000  0.46148607  1
