# generated using pymatgen
data_Ti3Sb2(PO4)6
_symmetry_space_group_name_H-M   'P 1'
_cell_length_a   8.80751246
_cell_length_b   8.80751227
_cell_length_c   8.80751206
_cell_angle_alpha   59.31900607
_cell_angle_beta   59.31901078
_cell_angle_gamma   59.31900818
_symmetry_Int_Tables_number   1
_chemical_formula_structural   Ti3Sb2(PO4)6
_chemical_formula_sum   'Ti3 Sb2 P6 O24'
_cell_volume   475.61825845
_cell_formula_units_Z   1
loop_
 _symmetry_equiv_pos_site_id
 _symmetry_equiv_pos_as_xyz
  1  'x, y, z'
loop_
 _atom_site_type_symbol
 _atom_site_label
 _atom_site_symmetry_multiplicity
 _atom_site_fract_x
 _atom_site_fract_y
 _atom_site_fract_z
 _atom_site_occupancy
  Ti  Ti0  1  0.13728167  0.13728167  0.13728167  1
  Ti  Ti1  1  0.34989019  0.34989019  0.34989019  1
  Ti  Ti2  1  0.65584692  0.65584692  0.65584692  1
  Sb  Sb3  1  0.96837863  0.96837863  0.96837863  1
  Sb  Sb4  1  0.49761184  0.49761184  0.49761184  1
  P  P5  1  0.25941758  0.52677374  0.95543810  1
  P  P6  1  0.52677374  0.95543810  0.25941758  1
  P  P7  1  0.95543810  0.25941758  0.52677374  1
  P  P8  1  0.05275482  0.75171248  0.46831717  1
  P  P9  1  0.46831717  0.05275482  0.75171248  1
  P  P10  1  0.75171248  0.46831717  0.05275482  1
  O  O11  1  0.11211466  0.32381448  0.48220077  1
  O  O12  1  0.32381448  0.48220077  0.11211466  1
  O  O13  1  0.06346675  0.91585733  0.27487246  1
  O  O14  1  0.48220077  0.11211466  0.32381448  1
  O  O15  1  0.04774119  0.78053886  0.62165646  1
  O  O16  1  0.23882273  0.58047840  0.41977055  1
  O  O17  1  0.27487246  0.06346675  0.91585733  1
  O  O18  1  0.41977055  0.23882273  0.58047840  1
  O  O19  1  0.20725267  0.36750046  0.99280601  1
  O  O20  1  0.58047840  0.41977055  0.23882273  1
  O  O21  1  0.09363423  0.71269305  0.94510758  1
  O  O22  1  0.36750046  0.99280601  0.20725267  1
  O  O23  1  0.62165646  0.04774119  0.78053886  1
  O  O24  1  0.91585733  0.27487246  0.06346675  1
  O  O25  1  0.42844767  0.55012612  0.76737573  1
  O  O26  1  0.78053886  0.62165646  0.04774119  1
  O  O27  1  0.55012612  0.76737573  0.42844767  1
  O  O28  1  0.71269305  0.94510758  0.09363423  1
  O  O29  1  0.76737573  0.42844767  0.55012612  1
  O  O30  1  0.99280601  0.20725267  0.36750046  1
  O  O31  1  0.50935200  0.88094900  0.70260672  1
  O  O32  1  0.94510758  0.09363423  0.71269305  1
  O  O33  1  0.70260672  0.50935200  0.88094900  1
  O  O34  1  0.88094900  0.70260672  0.50935200  1
