# generated using pymatgen
data_Li4MnFe3O8
_symmetry_space_group_name_H-M   'P 1'
_cell_length_a   5.53105223
_cell_length_b   6.65194046
_cell_length_c   5.09372623
_cell_angle_alpha   89.81917737
_cell_angle_beta   87.97217579
_cell_angle_gamma   90.24102890
_symmetry_Int_Tables_number   1
_chemical_formula_structural   Li4MnFe3O8
_chemical_formula_sum   'Li4 Mn1 Fe3 O8'
_cell_volume   187.28950320
_cell_formula_units_Z   1
loop_
 _symmetry_equiv_pos_site_id
 _symmetry_equiv_pos_as_xyz
  1  'x, y, z'
loop_
 _atom_site_type_symbol
 _atom_site_label
 _atom_site_symmetry_multiplicity
 _atom_site_fract_x
 _atom_site_fract_y
 _atom_site_fract_z
 _atom_site_occupancy
  Li  Li0  1  0.08286783  0.62188132  0.99750064  1
  Li  Li1  1  0.41685046  0.12402645  0.49357296  1
  Li  Li2  1  0.58020930  0.87615652  0.99029611  1
  Li  Li3  1  0.91332799  0.37595895  0.49854605  1
  Mn  Mn4  1  0.91645055  0.87221288  0.49895943  1
  Fe  Fe5  1  0.08376263  0.12905799  0.00245184  1
  Fe  Fe6  1  0.41335932  0.62598782  0.49448224  1
  Fe  Fe7  1  0.58321150  0.37566473  0.99552852  1
  O  O8  1  0.05987742  0.12433962  0.37766406  1
  O  O9  1  0.08281849  0.62595056  0.40132691  1
  O  O10  1  0.41701719  0.13717847  0.89083934  1
  O  O11  1  0.43283548  0.61503301  0.87113949  1
  O  O12  1  0.56731615  0.38560000  0.37253551  1
  O  O13  1  0.58384485  0.86069122  0.37502379  1
  O  O14  1  0.91624468  0.36451039  0.89143766  1
  O  O15  1  0.95000415  0.88575107  0.87509446  1
