# generated using pymatgen
data_UH12(NO4)2
_symmetry_space_group_name_H-M   'P 1'
_cell_length_a   6.31418623
_cell_length_b   5.99691990
_cell_length_c   5.65348368
_cell_angle_alpha   96.05479171
_cell_angle_beta   90.80529422
_cell_angle_gamma   105.01186870
_symmetry_Int_Tables_number   1
_chemical_formula_structural   UH12(NO4)2
_chemical_formula_sum   'U1 H12 N2 O8'
_cell_volume   205.42277827
_cell_formula_units_Z   1
loop_
 _symmetry_equiv_pos_site_id
 _symmetry_equiv_pos_as_xyz
  1  'x, y, z'
loop_
 _atom_site_type_symbol
 _atom_site_label
 _atom_site_symmetry_multiplicity
 _atom_site_fract_x
 _atom_site_fract_y
 _atom_site_fract_z
 _atom_site_occupancy
  U  U0  1  0.50000000  0.50000000  0.50000000  1
  H  H1  1  0.04881246  0.38931340  0.71687318  1
  H  H2  1  0.95118754  0.61068660  0.28312682  1
  H  H3  1  0.17289126  0.20688586  0.79481494  1
  H  H4  1  0.82710874  0.79311414  0.20518506  1
  H  H5  1  0.69244996  0.36138415  0.94651565  1
  H  H6  1  0.30755004  0.63861585  0.05348435  1
  H  H7  1  0.60724346  0.10220895  0.77495837  1
  H  H8  1  0.39275654  0.89779105  0.22504163  1
  H  H9  1  0.15276301  0.83086766  0.64658197  1
  H  H10  1  0.84723699  0.16913234  0.35341803  1
  H  H11  1  0.94998690  0.85472749  0.79378109  1
  H  H12  1  0.05001310  0.14527251  0.20621891  1
  N  N13  1  0.36454077  0.72031307  0.22093161  1
  N  N14  1  0.63545923  0.27968693  0.77906839  1
  O  O15  1  0.38965829  0.23048606  0.29584334  1
  O  O16  1  0.61034171  0.76951394  0.70415666  1
  O  O17  1  0.20616560  0.63793151  0.38827286  1
  O  O18  1  0.79383440  0.36206849  0.61172714  1
  O  O19  1  0.80371850  0.62376006  0.22572696  1
  O  O20  1  0.19628150  0.37623994  0.77427304  1
  O  O21  1  0.88991928  0.08580470  0.20807630  1
  O  O22  1  0.11008072  0.91419530  0.79192370  1
