# generated using pymatgen
data_Li4Ni3Sb5O16
_symmetry_space_group_name_H-M   'P 1'
_cell_length_a   6.16916963
_cell_length_b   6.18576596
_cell_length_c   10.22520376
_cell_angle_alpha   89.99943224
_cell_angle_beta   90.25190941
_cell_angle_gamma   120.08939687
_symmetry_Int_Tables_number   1
_chemical_formula_structural   Li4Ni3Sb5O16
_chemical_formula_sum   'Li4 Ni3 Sb5 O16'
_cell_volume   337.61775512
_cell_formula_units_Z   1
loop_
 _symmetry_equiv_pos_site_id
 _symmetry_equiv_pos_as_xyz
  1  'x, y, z'
loop_
 _atom_site_type_symbol
 _atom_site_label
 _atom_site_symmetry_multiplicity
 _atom_site_fract_x
 _atom_site_fract_y
 _atom_site_fract_z
 _atom_site_occupancy
  Li  Li0  1  0.32878618  0.66440901  0.88742200  1
  Li  Li1  1  0.98261173  0.99131825  0.98628263  1
  Li  Li2  1  0.98869040  0.99434982  0.50283305  1
  Li  Li3  1  0.64873359  0.32438751  0.40368684  1
  Ni  Ni4  1  0.66182378  0.83094383  0.21459447  1
  Ni  Ni5  1  0.83572281  0.66461117  0.71404300  1
  Ni  Ni6  1  0.83562148  0.17108838  0.71405074  1
  Sb  Sb7  1  0.16625929  0.83125642  0.21587551  1
  Sb  Sb8  1  0.35551711  0.67777373  0.51078370  1
  Sb  Sb9  1  0.16625707  0.33501621  0.21587759  1
  Sb  Sb10  1  0.34108062  0.17055456  0.71675870  1
  Sb  Sb11  1  0.69781829  0.34891665  0.97213338  1
  O  O12  1  0.17392160  0.85547446  0.60358196  1
  O  O13  1  0.00826547  0.50413906  0.31889112  1
  O  O14  1  0.32110939  0.66056268  0.10789738  1
  O  O15  1  0.00405668  0.00203207  0.31895780  1
  O  O16  1  0.01436152  0.00717728  0.80837415  1
  O  O17  1  0.17391872  0.31847346  0.60358337  1
  O  O18  1  0.46993398  0.96852600  0.32749711  1
  O  O19  1  0.46993132  0.50143759  0.32750180  1
  O  O20  1  0.30259728  0.15131042  0.10740974  1
  O  O21  1  0.68456520  0.84228465  0.60062240  1
  O  O22  1  0.51004709  0.47591423  0.83811079  1
  O  O23  1  0.51002686  0.03414925  0.83811264  1
  O  O24  1  0.65186292  0.32594023  0.60958907  1
  O  O25  1  0.86197388  0.69838037  0.10173240  1
  O  O26  1  0.97253136  0.48626311  0.83990112  1
  O  O27  1  0.86197437  0.16360960  0.10173456  1
