# generated using pymatgen
data_Li4Ti2Mn4(FeO6)3
_symmetry_space_group_name_H-M   'P 1'
_cell_length_a   9.11207257
_cell_length_b   25.07677414
_cell_length_c   2.93696850
_cell_angle_alpha   90.00000000
_cell_angle_beta   90.00000000
_cell_angle_gamma   90.00000000
_symmetry_Int_Tables_number   1
_chemical_formula_structural   Li4Ti2Mn4(FeO6)3
_chemical_formula_sum   'Li8 Ti4 Mn8 Fe6 O36'
_cell_volume   671.10137226
_cell_formula_units_Z   2
loop_
 _symmetry_equiv_pos_site_id
 _symmetry_equiv_pos_as_xyz
  1  'x, y, z'
loop_
 _atom_site_type_symbol
 _atom_site_label
 _atom_site_symmetry_multiplicity
 _atom_site_fract_x
 _atom_site_fract_y
 _atom_site_fract_z
 _atom_site_occupancy
  Li  Li0  1  0.17786288  0.99644408  0.00000000  1
  Li  Li1  1  0.18717720  0.20218399  0.00000000  1
  Li  Li2  1  0.31282280  0.70218399  0.00000000  1
  Li  Li3  1  0.32213712  0.49644408  0.00000000  1
  Li  Li4  1  0.67786288  0.50355592  0.00000000  1
  Li  Li5  1  0.68717720  0.29781601  0.00000000  1
  Li  Li6  1  0.81282280  0.79781601  0.00000000  1
  Li  Li7  1  0.82213712  0.00355592  0.00000000  1
  Ti  Ti8  1  0.99629771  0.10575499  0.00000000  1
  Ti  Ti9  1  0.50370229  0.60575499  0.00000000  1
  Ti  Ti10  1  0.49629771  0.39424501  0.00000000  1
  Ti  Ti11  1  0.00370229  0.89424501  0.00000000  1
  Mn  Mn12  1  0.00809715  0.31120747  0.00000000  1
  Mn  Mn13  1  0.14684165  0.58629808  0.50000000  1
  Mn  Mn14  1  0.35315835  0.08629808  0.50000000  1
  Mn  Mn15  1  0.49190285  0.81120747  0.00000000  1
  Mn  Mn16  1  0.50809715  0.18879253  0.00000000  1
  Mn  Mn17  1  0.64684165  0.91370192  0.50000000  1
  Mn  Mn18  1  0.85315835  0.41370192  0.50000000  1
  Mn  Mn19  1  0.99190285  0.68879253  0.00000000  1
  Fe  Fe20  1  0.00000000  0.50000000  0.00000000  1
  Fe  Fe21  1  0.15356538  0.80432644  0.50000000  1
  Fe  Fe22  1  0.34643462  0.30432644  0.50000000  1
  Fe  Fe23  1  0.50000000  0.00000000  0.00000000  1
  Fe  Fe24  1  0.65356538  0.69567356  0.50000000  1
  Fe  Fe25  1  0.84643462  0.19567356  0.50000000  1
  O  O26  1  0.99303892  0.41934706  0.00000000  1
  O  O27  1  0.00696108  0.58065294  0.00000000  1
  O  O28  1  0.04212363  0.94230507  0.50000000  1
  O  O29  1  0.05269489  0.16051541  0.50000000  1
  O  O30  1  0.11627468  0.66169580  0.50000000  1
  O  O31  1  0.12494832  0.75292876  0.00000000  1
  O  O32  1  0.15461704  0.50779408  0.50000000  1
  O  O33  1  0.12906316  0.28555884  0.50000000  1
  O  O34  1  0.18594681  0.85803219  0.00000000  1
  O  O35  1  0.21510952  0.08624620  0.00000000  1
  O  O36  1  0.28489048  0.58624620  0.00000000  1
  O  O37  1  0.31405319  0.35803219  0.00000000  1
  O  O38  1  0.37093684  0.78555884  0.50000000  1
  O  O39  1  0.34538296  0.00779408  0.50000000  1
  O  O40  1  0.37505168  0.25292876  0.00000000  1
  O  O41  1  0.38372532  0.16169580  0.50000000  1
  O  O42  1  0.44730511  0.66051541  0.50000000  1
  O  O43  1  0.45787637  0.44230507  0.50000000  1
  O  O44  1  0.49303892  0.08065294  0.00000000  1
  O  O45  1  0.50696108  0.91934706  0.00000000  1
  O  O46  1  0.54212363  0.55769493  0.50000000  1
  O  O47  1  0.55269489  0.33948459  0.50000000  1
  O  O48  1  0.61627468  0.83830420  0.50000000  1
  O  O49  1  0.62494832  0.74707124  0.00000000  1
  O  O50  1  0.65461704  0.99220592  0.50000000  1
  O  O51  1  0.62906316  0.21444116  0.50000000  1
  O  O52  1  0.68594681  0.64196781  0.00000000  1
  O  O53  1  0.71510952  0.41375380  0.00000000  1
  O  O54  1  0.78489048  0.91375380  0.00000000  1
  O  O55  1  0.81405319  0.14196781  0.00000000  1
  O  O56  1  0.87093684  0.71444116  0.50000000  1
  O  O57  1  0.84538296  0.49220592  0.50000000  1
  O  O58  1  0.87505168  0.24707124  0.00000000  1
  O  O59  1  0.88372532  0.33830420  0.50000000  1
  O  O60  1  0.94730511  0.83948459  0.50000000  1
  O  O61  1  0.95787637  0.05769493  0.50000000  1
