# generated using pymatgen
data_NaCu3O4
_symmetry_space_group_name_H-M   'P 1'
_cell_length_a   6.04176376
_cell_length_b   6.04176376
_cell_length_c   8.79674797
_cell_angle_alpha   90.00000000
_cell_angle_beta   90.00000000
_cell_angle_gamma   90.00000000
_symmetry_Int_Tables_number   1
_chemical_formula_structural   NaCu3O4
_chemical_formula_sum   'Na4 Cu12 O16'
_cell_volume   321.10689356
_cell_formula_units_Z   4
loop_
 _symmetry_equiv_pos_site_id
 _symmetry_equiv_pos_as_xyz
  1  'x, y, z'
loop_
 _atom_site_type_symbol
 _atom_site_label
 _atom_site_symmetry_multiplicity
 _atom_site_fract_x
 _atom_site_fract_y
 _atom_site_fract_z
 _atom_site_occupancy
  Na  Na0  1  0.24857327  0.50000000  0.75000000  1
  Na  Na1  1  0.50000000  0.24857327  0.00000000  1
  Na  Na2  1  0.50000000  0.75142673  0.50000000  1
  Na  Na3  1  0.75142673  0.50000000  0.25000000  1
  Cu  Cu4  1  0.00000000  0.24577759  0.00000000  1
  Cu  Cu5  1  0.00000000  0.75060346  0.00000000  1
  Cu  Cu6  1  0.00000000  0.24939654  0.50000000  1
  Cu  Cu7  1  0.00000000  0.75422241  0.50000000  1
  Cu  Cu8  1  0.24781313  0.50000000  0.25000000  1
  Cu  Cu9  1  0.24577759  0.00000000  0.75000000  1
  Cu  Cu10  1  0.24939654  0.00000000  0.25000000  1
  Cu  Cu11  1  0.50000000  0.24781313  0.50000000  1
  Cu  Cu12  1  0.50000000  0.75218687  0.00000000  1
  Cu  Cu13  1  0.75060346  0.00000000  0.75000000  1
  Cu  Cu14  1  0.75422241  0.00000000  0.25000000  1
  Cu  Cu15  1  0.75218687  0.50000000  0.75000000  1
  O  O16  1  0.97351838  0.22866459  0.78241883  1
  O  O17  1  0.97351838  0.77133541  0.71758117  1
  O  O18  1  0.22856307  0.52463770  0.02282178  1
  O  O19  1  0.22856307  0.47536230  0.47717822  1
  O  O20  1  0.22866459  0.97351838  0.96758117  1
  O  O21  1  0.22866459  0.02648162  0.53241883  1
  O  O22  1  0.52463770  0.22856307  0.72717822  1
  O  O23  1  0.52463770  0.77143693  0.77282178  1
  O  O24  1  0.47536230  0.22856307  0.27282178  1
  O  O25  1  0.47536230  0.77143693  0.22717822  1
  O  O26  1  0.77133541  0.02648162  0.46758117  1
  O  O27  1  0.77133541  0.97351838  0.03241883  1
  O  O28  1  0.77143693  0.52463770  0.97717822  1
  O  O29  1  0.77143693  0.47536230  0.52282178  1
  O  O30  1  0.02648162  0.22866459  0.21758117  1
  O  O31  1  0.02648162  0.77133541  0.28241883  1
