# generated using pymatgen
data_Cr2Te(PO4)3
_symmetry_space_group_name_H-M   'P 1'
_cell_length_a   8.90425339
_cell_length_b   8.90425382
_cell_length_c   8.90425351
_cell_angle_alpha   57.56986979
_cell_angle_beta   57.56987056
_cell_angle_gamma   57.56987442
_symmetry_Int_Tables_number   1
_chemical_formula_structural   Cr2Te(PO4)3
_chemical_formula_sum   'Cr4 Te2 P6 O24'
_cell_volume   471.31222021
_cell_formula_units_Z   2
loop_
 _symmetry_equiv_pos_site_id
 _symmetry_equiv_pos_as_xyz
  1  'x, y, z'
loop_
 _atom_site_type_symbol
 _atom_site_label
 _atom_site_symmetry_multiplicity
 _atom_site_fract_x
 _atom_site_fract_y
 _atom_site_fract_z
 _atom_site_occupancy
  Cr  Cr0  1  0.14735048  0.14735048  0.14735048  1
  Cr  Cr1  1  0.35264952  0.35264952  0.35264952  1
  Cr  Cr2  1  0.64735048  0.64735048  0.64735048  1
  Cr  Cr3  1  0.85264952  0.85264952  0.85264952  1
  Te  Te4  1  0.00000000  0.00000000  0.00000000  1
  Te  Te5  1  0.50000000  0.50000000  0.50000000  1
  P  P6  1  0.03770320  0.75000000  0.46229680  1
  P  P7  1  0.46229680  0.03770320  0.75000000  1
  P  P8  1  0.75000000  0.46229680  0.03770320  1
  P  P9  1  0.25000000  0.53770320  0.96229680  1
  P  P10  1  0.53770320  0.96229680  0.25000000  1
  P  P11  1  0.96229680  0.25000000  0.53770320  1
  O  O12  1  0.12059872  0.29047563  0.51336960  1
  O  O13  1  0.29047563  0.51336960  0.12059872  1
  O  O14  1  0.06355042  0.92218455  0.26861365  1
  O  O15  1  0.51336960  0.12059872  0.29047563  1
  O  O16  1  0.23138635  0.57781545  0.43644958  1
  O  O17  1  0.01336960  0.79047563  0.62059872  1
  O  O18  1  0.26861365  0.06355042  0.92218455  1
  O  O19  1  0.43644958  0.23138635  0.57781545  1
  O  O20  1  0.57781545  0.43644958  0.23138635  1
  O  O21  1  0.20952437  0.37940128  0.98663040  1
  O  O22  1  0.07781545  0.73138635  0.93644958  1
  O  O23  1  0.37940128  0.98663040  0.20952437  1
  O  O24  1  0.62059872  0.01336960  0.79047563  1
  O  O25  1  0.92218455  0.26861365  0.06355042  1
  O  O26  1  0.79047563  0.62059872  0.01336960  1
  O  O27  1  0.42218455  0.56355042  0.76861365  1
  O  O28  1  0.56355042  0.76861365  0.42218455  1
  O  O29  1  0.73138635  0.93644958  0.07781545  1
  O  O30  1  0.98663040  0.20952437  0.37940128  1
  O  O31  1  0.76861365  0.42218455  0.56355042  1
  O  O32  1  0.48663040  0.87940128  0.70952437  1
  O  O33  1  0.93644958  0.07781545  0.73138635  1
  O  O34  1  0.70952437  0.48663040  0.87940128  1
  O  O35  1  0.87940128  0.70952437  0.48663040  1
