# generated using pymatgen
data_Li8Ti6Mn7O30
_symmetry_space_group_name_H-M   'P 1'
_cell_length_a   5.00849306
_cell_length_b   5.00850878
_cell_length_c   23.66133305
_cell_angle_alpha   89.99952949
_cell_angle_beta   89.99992545
_cell_angle_gamma   59.99953542
_symmetry_Int_Tables_number   1
_chemical_formula_structural   Li8Ti6Mn7O30
_chemical_formula_sum   'Li8 Ti6 Mn7 O30'
_cell_volume   514.02391259
_cell_formula_units_Z   1
loop_
 _symmetry_equiv_pos_site_id
 _symmetry_equiv_pos_as_xyz
  1  'x, y, z'
loop_
 _atom_site_type_symbol
 _atom_site_label
 _atom_site_symmetry_multiplicity
 _atom_site_fract_x
 _atom_site_fract_y
 _atom_site_fract_z
 _atom_site_occupancy
  Li  Li0  1  0.99996548  0.00001366  0.07982469  1
  Li  Li1  1  0.00000760  0.99999748  0.37415509  1
  Li  Li2  1  0.00000463  0.99999602  0.62739984  1
  Li  Li3  1  0.99999761  0.00001332  0.91769448  1
  Li  Li4  1  0.33333448  0.33332975  0.52781271  1
  Li  Li5  1  0.33334304  0.33333316  0.79540973  1
  Li  Li6  1  0.66667206  0.66665623  0.20658052  1
  Li  Li7  1  0.66666836  0.66665726  0.47285945  1
  Ti  Ti8  1  0.33333005  0.33333169  0.41125664  1
  Ti  Ti9  1  0.66663766  0.66667981  0.10812570  1
  Ti  Ti10  1  0.66666437  0.66666551  0.58975637  1
  Ti  Ti11  1  0.99997946  0.00000007  0.19972937  1
  Ti  Ti12  1  0.99999753  0.99999494  0.50056685  1
  Ti  Ti13  1  0.00001676  0.00001828  0.80282062  1
  Mn  Mn14  1  0.33333674  0.33333201  0.29280750  1
  Mn  Mn15  1  0.33332477  0.33333796  0.00641181  1
  Mn  Mn16  1  0.33334305  0.33334548  0.89365591  1
  Mn  Mn17  1  0.66665424  0.66667615  0.99051376  1
  Mn  Mn18  1  0.66666777  0.66666072  0.70777638  1
  Mn  Mn19  1  0.33333533  0.33333270  0.69525615  1
  Mn  Mn20  1  0.66666957  0.66666625  0.30568082  1
  O  O21  1  0.93369361  0.73692441  0.15169680  1
  O  O22  1  0.33181567  0.96140389  0.54937836  1
  O  O23  1  0.01946680  0.61259702  0.34568649  1
  O  O24  1  0.01359050  0.65179734  0.74582221  1
  O  O25  1  0.35437967  0.02768347  0.95204752  1
  O  O26  1  0.26398679  0.66822162  0.84958321  1
  O  O27  1  0.29319578  0.66901044  0.45037776  1
  O  O28  1  0.63097410  0.98080247  0.65429064  1
  O  O29  1  0.34728031  0.66661847  0.25465508  1
  O  O30  1  0.97543502  0.37949047  0.04442864  1
  O  O31  1  0.37946565  0.64508026  0.04442892  1
  O  O32  1  0.66822667  0.06782819  0.84958731  1
  O  O33  1  0.38823052  0.63097070  0.65428967  1
  O  O34  1  0.66663484  0.98609136  0.25465489  1
  O  O35  1  0.03778187  0.29318700  0.45037396  1
  O  O36  1  0.96140169  0.70677834  0.54937842  1
  O  O37  1  0.33460850  0.01359024  0.74582352  1
  O  O38  1  0.61260711  0.36793177  0.34568600  1
  O  O39  1  0.32935531  0.93371446  0.15169865  1
  O  O40  1  0.61793911  0.35439146  0.95205020  1
  O  O41  1  0.02765692  0.61795493  0.95204722  1
  O  O42  1  0.65180523  0.33461085  0.74582338  1
  O  O43  1  0.36794757  0.01945361  0.34568667  1
  O  O44  1  0.70677601  0.33182945  0.54937462  1
  O  O45  1  0.73690402  0.32937137  0.15169623  1
  O  O46  1  0.64504848  0.97545560  0.04443028  1
  O  O47  1  0.98610342  0.34727047  0.25465572  1
  O  O48  1  0.98080248  0.38822489  0.65429015  1
  O  O49  1  0.66901840  0.03778141  0.45037662  1
  O  O50  1  0.06781837  0.26399459  0.84958449  1
