# generated using pymatgen
data_Mn2Sn(PO4)3
_symmetry_space_group_name_H-M   'P 1'
_cell_length_a   8.59937656
_cell_length_b   8.59937646
_cell_length_c   8.59937636
_cell_angle_alpha   61.66962045
_cell_angle_beta   61.66962136
_cell_angle_gamma   61.66962300
_symmetry_Int_Tables_number   1
_chemical_formula_structural   Mn2Sn(PO4)3
_chemical_formula_sum   'Mn4 Sn2 P6 O24'
_cell_volume   466.49429745
_cell_formula_units_Z   2
loop_
 _symmetry_equiv_pos_site_id
 _symmetry_equiv_pos_as_xyz
  1  'x, y, z'
loop_
 _atom_site_type_symbol
 _atom_site_label
 _atom_site_symmetry_multiplicity
 _atom_site_fract_x
 _atom_site_fract_y
 _atom_site_fract_z
 _atom_site_occupancy
  Mn  Mn0  1  0.15124244  0.15124244  0.15124244  1
  Mn  Mn1  1  0.34875756  0.34875756  0.34875756  1
  Mn  Mn2  1  0.65124244  0.65124244  0.65124244  1
  Mn  Mn3  1  0.84875756  0.84875756  0.84875756  1
  Sn  Sn4  1  0.00000000  0.00000000  0.00000000  1
  Sn  Sn5  1  0.50000000  0.50000000  0.50000000  1
  P  P6  1  0.05232741  0.75000000  0.44767259  1
  P  P7  1  0.44767259  0.05232741  0.75000000  1
  P  P8  1  0.75000000  0.44767259  0.05232741  1
  P  P9  1  0.25000000  0.55232741  0.94767259  1
  P  P10  1  0.55232741  0.94767259  0.25000000  1
  P  P11  1  0.94767259  0.25000000  0.55232741  1
  O  O12  1  0.09539517  0.32251825  0.51483630  1
  O  O13  1  0.32251825  0.51483630  0.09539517  1
  O  O14  1  0.07072897  0.90198426  0.24518874  1
  O  O15  1  0.51483630  0.09539517  0.32251825  1
  O  O16  1  0.01483630  0.82251825  0.59539517  1
  O  O17  1  0.25481126  0.59801574  0.42927103  1
  O  O18  1  0.24518874  0.07072897  0.90198426  1
  O  O19  1  0.42927103  0.25481126  0.59801574  1
  O  O20  1  0.17748175  0.40460483  0.98516370  1
  O  O21  1  0.59801574  0.42927103  0.25481126  1
  O  O22  1  0.09801574  0.75481126  0.92927103  1
  O  O23  1  0.40460483  0.98516370  0.17748175  1
  O  O24  1  0.59539517  0.01483630  0.82251825  1
  O  O25  1  0.90198426  0.24518874  0.07072897  1
  O  O26  1  0.40198426  0.57072897  0.74518874  1
  O  O27  1  0.82251825  0.59539517  0.01483630  1
  O  O28  1  0.57072897  0.74518874  0.40198426  1
  O  O29  1  0.75481126  0.92927103  0.09801574  1
  O  O30  1  0.74518874  0.40198426  0.57072897  1
  O  O31  1  0.98516370  0.17748175  0.40460483  1
  O  O32  1  0.48516370  0.90460483  0.67748175  1
  O  O33  1  0.92927103  0.09801574  0.75481126  1
  O  O34  1  0.67748175  0.48516370  0.90460483  1
  O  O35  1  0.90460483  0.67748175  0.48516370  1
