# generated using pymatgen
data_LiV4CuO12
_symmetry_space_group_name_H-M   'P 1'
_cell_length_a   5.38938220
_cell_length_b   10.76775915
_cell_length_c   9.51318572
_cell_angle_alpha   27.69054792
_cell_angle_beta   50.21109804
_cell_angle_gamma   55.45241084
_symmetry_Int_Tables_number   1
_chemical_formula_structural   LiV4CuO12
_chemical_formula_sum   'Li1 V4 Cu1 O12'
_cell_volume   197.12898695
_cell_formula_units_Z   1
loop_
 _symmetry_equiv_pos_site_id
 _symmetry_equiv_pos_as_xyz
  1  'x, y, z'
loop_
 _atom_site_type_symbol
 _atom_site_label
 _atom_site_symmetry_multiplicity
 _atom_site_fract_x
 _atom_site_fract_y
 _atom_site_fract_z
 _atom_site_occupancy
  Li  Li0  1  0.27878862  0.50210517  0.28764092  1
  V  V1  1  0.02140728  0.00973005  0.98323508  1
  V  V2  1  0.98501323  0.49378304  0.01469138  1
  V  V3  1  0.50839753  0.99281320  0.51378507  1
  V  V4  1  0.50484843  0.50800997  0.49786095  1
  Cu  Cu5  1  0.30208318  0.99942362  0.29328737  1
  O  O6  1  0.33358609  0.29296518  0.12767345  1
  O  O7  1  0.23795192  0.11822942  0.60966267  1
  O  O8  1  0.13378653  0.30330772  0.72317528  1
  O  O9  1  0.86590985  0.17895625  0.23690563  1
  O  O10  1  0.32340139  0.79676853  0.13553686  1
  O  O11  1  0.73242386  0.40206597  0.32796560  1
  O  O12  1  0.23445474  0.64388016  0.58530819  1
  O  O13  1  0.58954380  0.18904462  0.86482012  1
  O  O14  1  0.12945165  0.80570064  0.71767527  1
  O  O15  1  0.84690095  0.67930255  0.24059414  1
  O  O16  1  0.71304161  0.89631022  0.33444701  1
  O  O17  1  0.60840933  0.68760369  0.85513499  1
