# generated using pymatgen
data_Cr2Ni3Sb(PO4)6
_symmetry_space_group_name_H-M   'P 1'
_cell_length_a   8.41683242
_cell_length_b   8.41683259
_cell_length_c   8.41683199
_cell_angle_alpha   61.86728707
_cell_angle_beta   61.86728260
_cell_angle_gamma   61.86728071
_symmetry_Int_Tables_number   1
_chemical_formula_structural   Cr2Ni3Sb(PO4)6
_chemical_formula_sum   'Cr2 Ni3 Sb1 P6 O24'
_cell_volume   439.25644389
_cell_formula_units_Z   1
loop_
 _symmetry_equiv_pos_site_id
 _symmetry_equiv_pos_as_xyz
  1  'x, y, z'
loop_
 _atom_site_type_symbol
 _atom_site_label
 _atom_site_symmetry_multiplicity
 _atom_site_fract_x
 _atom_site_fract_y
 _atom_site_fract_z
 _atom_site_occupancy
  Cr  Cr0  1  0.00534847  0.00534847  0.00534847  1
  Cr  Cr1  1  0.49980766  0.49980766  0.49980766  1
  Ni  Ni2  1  0.14514463  0.14514463  0.14514463  1
  Ni  Ni3  1  0.35621201  0.35621201  0.35621201  1
  Ni  Ni4  1  0.64245611  0.64245611  0.64245611  1
  Sb  Sb5  1  0.85600264  0.85600264  0.85600264  1
  P  P6  1  0.74473109  0.44834214  0.05067111  1
  P  P7  1  0.25598760  0.54176352  0.94995836  1
  P  P8  1  0.54176352  0.94995836  0.25598760  1
  P  P9  1  0.94995836  0.25598760  0.54176352  1
  P  P10  1  0.05067111  0.74473109  0.44834214  1
  P  P11  1  0.44834214  0.05067111  0.74473109  1
  O  O12  1  0.10203776  0.32092850  0.51412609  1
  O  O13  1  0.32092850  0.51412609  0.10203776  1
  O  O14  1  0.06412691  0.90377427  0.25040994  1
  O  O15  1  0.51412609  0.10203776  0.32092850  1
  O  O16  1  0.01126300  0.82125249  0.60727659  1
  O  O17  1  0.25257958  0.59792974  0.43846076  1
  O  O18  1  0.25040994  0.06412691  0.90377427  1
  O  O19  1  0.43846076  0.25257958  0.59792974  1
  O  O20  1  0.17513717  0.39689640  0.98851302  1
  O  O21  1  0.59792974  0.43846076  0.25257958  1
  O  O22  1  0.09155707  0.75420321  0.93525996  1
  O  O23  1  0.39689640  0.98851302  0.17513717  1
  O  O24  1  0.60727659  0.01126300  0.82125249  1
  O  O25  1  0.90377427  0.25040994  0.06412691  1
  O  O26  1  0.40026756  0.56730386  0.74484027  1
  O  O27  1  0.82125249  0.60727659  0.01126300  1
  O  O28  1  0.56730386  0.74484027  0.40026756  1
  O  O29  1  0.75420321  0.93525996  0.09155707  1
  O  O30  1  0.74484027  0.40026756  0.56730386  1
  O  O31  1  0.98851302  0.17513717  0.39689640  1
  O  O32  1  0.49564718  0.89593046  0.67385288  1
  O  O33  1  0.93525996  0.09155707  0.75420321  1
  O  O34  1  0.67385288  0.49564718  0.89593046  1
  O  O35  1  0.89593046  0.67385288  0.49564718  1
