# generated using pymatgen
data_Li4Mn2Fe3Te3O16
_symmetry_space_group_name_H-M   'P 1'
_cell_length_a   6.26048545
_cell_length_b   6.32524093
_cell_length_c   9.97393461
_cell_angle_alpha   87.19055999
_cell_angle_beta   90.48222136
_cell_angle_gamma   120.52623240
_symmetry_Int_Tables_number   1
_chemical_formula_structural   Li4Mn2Fe3Te3O16
_chemical_formula_sum   'Li4 Mn2 Fe3 Te3 O16'
_cell_volume   339.74479718
_cell_formula_units_Z   1
loop_
 _symmetry_equiv_pos_site_id
 _symmetry_equiv_pos_as_xyz
  1  'x, y, z'
loop_
 _atom_site_type_symbol
 _atom_site_label
 _atom_site_symmetry_multiplicity
 _atom_site_fract_x
 _atom_site_fract_y
 _atom_site_fract_z
 _atom_site_occupancy
  Li  Li0  1  0.30689059  0.65130206  0.87855784  1
  Li  Li1  1  0.99199439  0.01576451  0.99277073  1
  Li  Li2  1  0.99237753  0.99335923  0.50537461  1
  Li  Li3  1  0.64537275  0.33516709  0.39690001  1
  Mn  Mn4  1  0.36648870  0.68683646  0.51163920  1
  Mn  Mn5  1  0.66819317  0.30369851  0.97479411  1
  Fe  Fe6  1  0.67658051  0.85395216  0.21327235  1
  Fe  Fe7  1  0.83142387  0.66156286  0.71890658  1
  Fe  Fe8  1  0.83348283  0.16176346  0.71496484  1
  Te  Te9  1  0.17546223  0.84867265  0.21293690  1
  Te  Te10  1  0.18259702  0.36557372  0.21922001  1
  Te  Te11  1  0.33807194  0.15990951  0.71435459  1
  O  O12  1  0.17387986  0.85965359  0.60816353  1
  O  O13  1  0.02799446  0.52441000  0.32833954  1
  O  O14  1  0.32375409  0.69169517  0.10418974  1
  O  O15  1  0.01006289  0.97553944  0.32252190  1
  O  O16  1  0.02222341  0.99249022  0.81517087  1
  O  O17  1  0.18447925  0.31213816  0.60560488  1
  O  O18  1  0.45715329  0.96992136  0.32898120  1
  O  O19  1  0.47459319  0.52228747  0.33356884  1
  O  O20  1  0.33740129  0.14313296  0.08904853  1
  O  O21  1  0.69764709  0.83651874  0.61220007  1
  O  O22  1  0.50088789  0.44402090  0.83994642  1
  O  O23  1  0.48650490  0.01243899  0.82761208  1
  O  O24  1  0.64819326  0.33505993  0.60615710  1
  O  O25  1  0.87968701  0.71365882  0.10738332  1
  O  O26  1  0.94172346  0.46648240  0.84037475  1
  O  O27  1  0.82488214  0.16328865  0.08488345  1
