# generated using pymatgen
data_Na3LiCuPCO7
_symmetry_space_group_name_H-M   'P 1'
_cell_length_a   5.15926443
_cell_length_b   6.43569339
_cell_length_c   9.87895257
_cell_angle_alpha   89.99991732
_cell_angle_beta   90.44226899
_cell_angle_gamma   90.00019695
_symmetry_Int_Tables_number   1
_chemical_formula_structural   Na3LiCuPCO7
_chemical_formula_sum   'Na6 Li2 Cu2 P2 C2 O14'
_cell_volume   328.00547613
_cell_formula_units_Z   2
loop_
 _symmetry_equiv_pos_site_id
 _symmetry_equiv_pos_as_xyz
  1  'x, y, z'
loop_
 _atom_site_type_symbol
 _atom_site_label
 _atom_site_symmetry_multiplicity
 _atom_site_fract_x
 _atom_site_fract_y
 _atom_site_fract_z
 _atom_site_occupancy
  Na  Na0  1  0.77124975  0.25000731  0.91124433  1
  Na  Na1  1  0.24349943  0.98333407  0.75997641  1
  Na  Na2  1  0.24351174  0.51662993  0.75989204  1
  Na  Na3  1  0.75649911  0.48333644  0.24002584  1
  Na  Na4  1  0.75648233  0.01662362  0.24010797  1
  Na  Na5  1  0.22874973  0.75001699  0.08874715  1
  Li  Li6  1  0.00038121  0.00023944  0.50008728  1
  Li  Li7  1  0.99967501  0.50021279  0.49993399  1
  Cu  Cu8  1  0.72001461  0.75005392  0.66533628  1
  Cu  Cu9  1  0.27996170  0.25005625  0.33464323  1
  P  P10  1  0.65638696  0.24997726  0.59217540  1
  P  P11  1  0.34361966  0.74998001  0.40782106  1
  C  C12  1  0.73212618  0.75000074  0.95364986  1
  C  C13  1  0.26788288  0.24999958  0.04635735  1
  O  O14  1  0.26644787  0.25001190  0.91380664  1
  O  O15  1  0.51047944  0.75000187  0.88917258  1
  O  O16  1  0.95055409  0.74998627  0.88915235  1
  O  O17  1  0.77078443  0.05598654  0.66948479  1
  O  O18  1  0.77057456  0.44406233  0.66946456  1
  O  O19  1  0.22173388  0.74999865  0.55318431  1
  O  O20  1  0.35785065  0.24986591  0.59245429  1
  O  O21  1  0.64215595  0.74986835  0.40754328  1
  O  O22  1  0.77828259  0.24999825  0.44681879  1
  O  O23  1  0.22943499  0.94406409  0.33053680  1
  O  O24  1  0.22922470  0.55598883  0.33051673  1
  O  O25  1  0.04946131  0.24998373  0.11082743  1
  O  O26  1  0.48950756  0.25000217  0.11080740  1
  O  O27  1  0.73355669  0.75001275  0.08616486  1
