# generated using pymatgen
data_Na4Sn2C4SO16
_symmetry_space_group_name_H-M   'P 1'
_cell_length_a   10.22110493
_cell_length_b   9.94921322
_cell_length_c   9.94921265
_cell_angle_alpha   91.12278665
_cell_angle_beta   61.49975127
_cell_angle_gamma   61.49975285
_symmetry_Int_Tables_number   1
_chemical_formula_structural   Na4Sn2C4SO16
_chemical_formula_sum   'Na8 Sn4 C8 S2 O32'
_cell_volume   740.25950946
_cell_formula_units_Z   2
loop_
 _symmetry_equiv_pos_site_id
 _symmetry_equiv_pos_as_xyz
  1  'x, y, z'
loop_
 _atom_site_type_symbol
 _atom_site_label
 _atom_site_symmetry_multiplicity
 _atom_site_fract_x
 _atom_site_fract_y
 _atom_site_fract_z
 _atom_site_occupancy
  Na  Na0  1  0.25000000  0.42303965  0.07696035  1
  Na  Na1  1  0.25000000  0.82826811  0.07826811  1
  Na  Na2  1  0.25000000  0.42173189  0.67173189  1
  Na  Na3  1  0.25000000  0.82696035  0.67303965  1
  Na  Na4  1  0.75000000  0.17303965  0.32696035  1
  Na  Na5  1  0.75000000  0.57826811  0.32826811  1
  Na  Na6  1  0.75000000  0.17173189  0.92173189  1
  Na  Na7  1  0.75000000  0.57696035  0.92303965  1
  Sn  Sn8  1  0.00000000  0.00000000  0.50000000  1
  Sn  Sn9  1  0.00000000  0.50000000  0.50000000  1
  Sn  Sn10  1  0.50000000  0.00000000  0.00000000  1
  Sn  Sn11  1  0.50000000  0.00000000  0.50000000  1
  C  C12  1  0.07280515  0.20894346  0.26250273  1
  C  C13  1  0.07280515  0.21825239  0.66469212  1
  C  C14  1  0.42719485  0.23749727  0.29105654  1
  C  C15  1  0.42719485  0.83530788  0.28174761  1
  C  C16  1  0.57280515  0.16469212  0.71825239  1
  C  C17  1  0.57280515  0.76250273  0.70894346  1
  C  C18  1  0.92719485  0.78174761  0.33530788  1
  C  C19  1  0.92719485  0.79105654  0.73749727  1
  S  S20  1  0.25000000  0.62500000  0.87500000  1
  S  S21  1  0.75000000  0.37500000  0.12500000  1
  O  O22  1  0.20858006  0.08690865  0.13306738  1
  O  O23  1  0.05592552  0.34832714  0.27811947  1
  O  O24  1  0.05592552  0.09574734  0.66595501  1
  O  O25  1  0.04760295  0.64588555  0.32965606  1
  O  O26  1  0.20858006  0.20451128  0.65835255  1
  O  O27  1  0.44407448  0.22188053  0.15167286  1
  O  O28  1  0.29141994  0.36693262  0.41309135  1
  O  O29  1  0.04760295  0.80651250  0.62274099  1
  O  O30  1  0.54760295  0.12274099  0.30651250  1
  O  O31  1  0.29141994  0.84164745  0.29548872  1
  O  O32  1  0.13721372  0.55710385  0.93045639  1
  O  O33  1  0.63721372  0.43045639  0.05710385  1
  O  O34  1  0.55592552  0.16595501  0.59574734  1
  O  O35  1  0.45239705  0.17034394  0.85411445  1
  O  O36  1  0.13721372  0.80568243  0.93232989  1
  O  O37  1  0.36278628  0.56767011  0.69431757  1
  O  O38  1  0.63721372  0.43232989  0.30568243  1
  O  O39  1  0.86278628  0.19431757  0.06767011  1
  O  O40  1  0.54760295  0.82965606  0.14588555  1
  O  O41  1  0.44407448  0.83404499  0.40425266  1
  O  O42  1  0.36278628  0.56954361  0.94289615  1
  O  O43  1  0.86278628  0.44289615  0.06954361  1
  O  O44  1  0.70858006  0.15835255  0.70451128  1
  O  O45  1  0.45239705  0.87725901  0.69348750  1
  O  O46  1  0.95239705  0.19348750  0.37725901  1
  O  O47  1  0.70858006  0.63306738  0.58690865  1
  O  O48  1  0.55592552  0.77811947  0.84832714  1
  O  O49  1  0.79141994  0.79548872  0.34164745  1
  O  O50  1  0.95239705  0.35411445  0.67034394  1
  O  O51  1  0.94407448  0.90425266  0.33404499  1
  O  O52  1  0.94407448  0.65167286  0.72188053  1
  O  O53  1  0.79141994  0.91309135  0.86693262  1
