# generated using pymatgen
data_LiFeF3
_symmetry_space_group_name_H-M   'P 1'
_cell_length_a   5.39306799
_cell_length_b   3.05777591
_cell_length_c   14.68712638
_cell_angle_alpha   90.00000000
_cell_angle_beta   90.00000000
_cell_angle_gamma   90.00000000
_symmetry_Int_Tables_number   1
_chemical_formula_structural   LiFeF3
_chemical_formula_sum   'Li4 Fe4 F12'
_cell_volume   242.20236649
_cell_formula_units_Z   4
loop_
 _symmetry_equiv_pos_site_id
 _symmetry_equiv_pos_as_xyz
  1  'x, y, z'
loop_
 _atom_site_type_symbol
 _atom_site_label
 _atom_site_symmetry_multiplicity
 _atom_site_fract_x
 _atom_site_fract_y
 _atom_site_fract_z
 _atom_site_occupancy
  Li  Li0  1  0.07554563  0.25000000  0.32386640  1
  Li  Li1  1  0.42445437  0.75000000  0.82386640  1
  Li  Li2  1  0.57554563  0.25000000  0.17613360  1
  Li  Li3  1  0.92445437  0.75000000  0.67613360  1
  Fe  Fe4  1  0.10174787  0.25000000  0.09181744  1
  Fe  Fe5  1  0.39825213  0.75000000  0.59181744  1
  Fe  Fe6  1  0.60174787  0.25000000  0.40818256  1
  Fe  Fe7  1  0.89825213  0.75000000  0.90818256  1
  F  F8  1  0.08273171  0.75000000  0.79220090  1
  F  F9  1  0.15767775  0.25000000  0.95337570  1
  F  F10  1  0.13321200  0.25000000  0.62215712  1
  F  F11  1  0.36678800  0.75000000  0.12215712  1
  F  F12  1  0.34232225  0.75000000  0.45337570  1
  F  F13  1  0.41726829  0.25000000  0.29220090  1
  F  F14  1  0.58273171  0.75000000  0.70779910  1
  F  F15  1  0.65767775  0.25000000  0.54662430  1
  F  F16  1  0.63321200  0.25000000  0.87784288  1
  F  F17  1  0.86678800  0.75000000  0.37784288  1
  F  F18  1  0.84232225  0.75000000  0.04662430  1
  F  F19  1  0.91726829  0.25000000  0.20779910  1
