# generated using pymatgen
data_LiTiMnO4
_symmetry_space_group_name_H-M   'P 1'
_cell_length_a   6.27975872
_cell_length_b   6.27975872
_cell_length_c   7.29759347
_cell_angle_alpha   90.00000000
_cell_angle_beta   90.00000000
_cell_angle_gamma   90.00000000
_symmetry_Int_Tables_number   1
_chemical_formula_structural   LiTiMnO4
_chemical_formula_sum   'Li4 Ti4 Mn4 O16'
_cell_volume   287.78329554
_cell_formula_units_Z   4
loop_
 _symmetry_equiv_pos_site_id
 _symmetry_equiv_pos_as_xyz
  1  'x, y, z'
loop_
 _atom_site_type_symbol
 _atom_site_label
 _atom_site_symmetry_multiplicity
 _atom_site_fract_x
 _atom_site_fract_y
 _atom_site_fract_z
 _atom_site_occupancy
  Li  Li0  1  0.00000000  0.22016498  0.00000000  1
  Li  Li1  1  0.00000000  0.77983502  0.50000000  1
  Li  Li2  1  0.22016498  0.00000000  0.25000000  1
  Li  Li3  1  0.77983502  0.00000000  0.75000000  1
  Ti  Ti4  1  0.21676723  0.50000000  0.25000000  1
  Ti  Ti5  1  0.50000000  0.21676723  0.00000000  1
  Ti  Ti6  1  0.50000000  0.78323277  0.50000000  1
  Ti  Ti7  1  0.78323277  0.50000000  0.75000000  1
  Mn  Mn8  1  0.25871611  0.25871611  0.62500000  1
  Mn  Mn9  1  0.25871611  0.74128389  0.87500000  1
  Mn  Mn10  1  0.74128389  0.25871611  0.37500000  1
  Mn  Mn11  1  0.74128389  0.74128389  0.12500000  1
  O  O12  1  0.03195815  0.26947313  0.28597497  1
  O  O13  1  0.03195815  0.73052687  0.21402503  1
  O  O14  1  0.26947313  0.03195815  0.96402503  1
  O  O15  1  0.26947313  0.96804185  0.53597497  1
  O  O16  1  0.26520581  0.45889329  0.98660475  1
  O  O17  1  0.26520581  0.54110671  0.51339525  1
  O  O18  1  0.45889329  0.26520581  0.26339525  1
  O  O19  1  0.45889329  0.73479419  0.23660475  1
  O  O20  1  0.54110671  0.26520581  0.73660475  1
  O  O21  1  0.54110671  0.73479419  0.76339525  1
  O  O22  1  0.73479419  0.54110671  0.48660475  1
  O  O23  1  0.73479419  0.45889329  0.01339525  1
  O  O24  1  0.73052687  0.03195815  0.03597497  1
  O  O25  1  0.73052687  0.96804185  0.46402503  1
  O  O26  1  0.96804185  0.26947313  0.71402503  1
  O  O27  1  0.96804185  0.73052687  0.78597497  1
