# generated using pymatgen
data_MnH8(N2Cl)2
_symmetry_space_group_name_H-M   'P 1'
_cell_length_a   6.08271322
_cell_length_b   6.08271322
_cell_length_c   4.34069765
_cell_angle_alpha   79.31684899
_cell_angle_beta   100.68315101
_cell_angle_gamma   96.83616027
_symmetry_Int_Tables_number   1
_chemical_formula_structural   MnH8(N2Cl)2
_chemical_formula_sum   'Mn1 H8 N4 Cl2'
_cell_volume   154.48683987
_cell_formula_units_Z   1
loop_
 _symmetry_equiv_pos_site_id
 _symmetry_equiv_pos_as_xyz
  1  'x, y, z'
loop_
 _atom_site_type_symbol
 _atom_site_label
 _atom_site_symmetry_multiplicity
 _atom_site_fract_x
 _atom_site_fract_y
 _atom_site_fract_z
 _atom_site_occupancy
  Mn  Mn0  1  0.00000000  0.00000000  0.00000000  1
  H  H1  1  0.01759224  0.32947959  0.47199426  1
  H  H2  1  0.67052041  0.98240776  0.47199426  1
  H  H3  1  0.98240776  0.67052041  0.52800574  1
  H  H4  1  0.32947959  0.01759224  0.52800574  1
  H  H5  1  0.26372040  0.36396697  0.70825376  1
  H  H6  1  0.63603303  0.73627960  0.70825376  1
  H  H7  1  0.73627960  0.63603303  0.29174624  1
  H  H8  1  0.36396697  0.26372040  0.29174624  1
  N  N9  1  0.14946064  0.24736631  0.60817409  1
  N  N10  1  0.75263369  0.85053936  0.60817409  1
  N  N11  1  0.85053936  0.75263369  0.39182591  1
  N  N12  1  0.24736631  0.14946064  0.39182591  1
  Cl  Cl13  1  0.71762780  0.28237220  0.00050754  1
  Cl  Cl14  1  0.28237220  0.71762780  0.99949246  1
