# generated using pymatgen
data_Li4Ti3V4Cr2O18
_symmetry_space_group_name_H-M   'P 1'
_cell_length_a   9.08065597
_cell_length_b   25.58861759
_cell_length_c   2.95211296
_cell_angle_alpha   89.99993873
_cell_angle_beta   90.00054171
_cell_angle_gamma   89.99226994
_symmetry_Int_Tables_number   1
_chemical_formula_structural   Li4Ti3V4Cr2O18
_chemical_formula_sum   'Li8 Ti6 V8 Cr4 O36'
_cell_volume   685.95719175
_cell_formula_units_Z   2
loop_
 _symmetry_equiv_pos_site_id
 _symmetry_equiv_pos_as_xyz
  1  'x, y, z'
loop_
 _atom_site_type_symbol
 _atom_site_label
 _atom_site_symmetry_multiplicity
 _atom_site_fract_x
 _atom_site_fract_y
 _atom_site_fract_z
 _atom_site_occupancy
  Li  Li0  1  0.19689182  0.98836410  0.99999958  1
  Li  Li1  1  0.16994889  0.20841807  0.99999897  1
  Li  Li2  1  0.33020887  0.70842685  0.99999708  1
  Li  Li3  1  0.30320545  0.48826512  0.99999457  1
  Li  Li4  1  0.69352261  0.50674112  0.99999389  1
  Li  Li5  1  0.68007070  0.30319981  0.99999688  1
  Li  Li6  1  0.81994504  0.80318397  0.99999838  1
  Li  Li7  1  0.80649747  0.00676178  0.00000126  1
  Ti  Ti8  1  0.99605901  0.10453624  0.99999583  1
  Ti  Ti9  1  0.50391832  0.60454075  0.99999616  1
  Ti  Ti10  1  0.48567128  0.39390775  0.99999771  1
  Ti  Ti11  1  0.65578792  0.69607092  0.49999983  1
  Ti  Ti12  1  0.84418640  0.19610884  0.49999619  1
  Ti  Ti13  1  0.01438365  0.89384735  0.99999555  1
  V  V14  1  0.02286430  0.30822130  0.99999783  1
  V  V15  1  0.14727803  0.58635356  0.49999556  1
  V  V16  1  0.35269105  0.08630965  0.50000714  1
  V  V17  1  0.47704807  0.80817506  0.99998910  1
  V  V18  1  0.50333712  0.19428189  0.99999261  1
  V  V19  1  0.65002299  0.91303601  0.50004531  1
  V  V20  1  0.84995394  0.41314908  0.49997188  1
  V  V21  1  0.99661473  0.69429110  -0.00000164  1
  Cr  Cr22  1  0.99952156  0.49973839  0.00002067  1
  Cr  Cr23  1  0.15091616  0.80461133  0.50000826  1
  Cr  Cr24  1  0.34897267  0.30465770  0.49999021  1
  Cr  Cr25  1  0.50064687  0.99966032  0.00004130  1
  O  O26  1  0.98888591  0.42212739  0.99997300  1
  O  O27  1  0.00997644  0.57781898  0.99999650  1
  O  O28  1  0.06221927  0.93884719  0.49999107  1
  O  O29  1  0.04508974  0.15949862  0.49999704  1
  O  O30  1  0.10703858  0.65990211  0.49999691  1
  O  O31  1  0.10372515  0.75578177  0.00001742  1
  O  O32  1  0.15017390  0.50690103  0.49999427  1
  O  O33  1  0.14223271  0.27731641  0.49999406  1
  O  O34  1  0.19483123  0.85511436  0.00000946  1
  O  O35  1  0.20305486  0.08419589  0.99998386  1
  O  O36  1  0.29691496  0.58425013  0.99999884  1
  O  O37  1  0.30516951  0.35519283  0.99999234  1
  O  O38  1  0.35774357  0.77725102  0.50000127  1
  O  O39  1  0.34990051  0.00686204  0.50002246  1
  O  O40  1  0.39617411  0.25583190  -0.00000613  1
  O  O41  1  0.39289539  0.15988123  0.49999290  1
  O  O42  1  0.45487383  0.65949865  0.50000803  1
  O  O43  1  0.43771755  0.43888672  0.49999695  1
  O  O44  1  0.49003847  0.07775692  0.00002287  1
  O  O45  1  0.51118434  0.92206016  0.00005750  1
  O  O46  1  0.56015608  0.56127192  0.50000443  1
  O  O47  1  0.54957430  0.34055833  0.49999791  1
  O  O48  1  0.59916433  0.83969868  0.49997753  1
  O  O49  1  0.60603119  0.74408221  0.00000031  1
  O  O50  1  0.65179069  0.99214509  0.50002405  1
  O  O51  1  0.64244440  0.21603093  0.49999259  1
  O  O52  1  0.68954326  0.64656408  0.00000563  1
  O  O53  1  0.70308951  0.41468812  0.00002689  1
  O  O54  1  0.79692545  0.91457266  0.99993434  1
  O  O55  1  0.81045441  0.14660638  0.99999581  1
  O  O56  1  0.85750748  0.71600308  0.50000094  1
  O  O57  1  0.84830206  0.49223503  0.49999353  1
  O  O58  1  0.89392829  0.24413045  0.99999842  1
  O  O59  1  0.90081049  0.33979081  0.50000002  1
  O  O60  1  0.95043913  0.84051507  0.49999426  1
  O  O61  1  0.93983396  0.06127176  0.49999261  1
