# generated using pymatgen
data_Li3VF5
_symmetry_space_group_name_H-M   'P 1'
_cell_length_a   5.66175650
_cell_length_b   12.01635020
_cell_length_c   12.04326932
_cell_angle_alpha   90.00000000
_cell_angle_beta   90.00000000
_cell_angle_gamma   90.00000000
_symmetry_Int_Tables_number   1
_chemical_formula_structural   Li3VF5
_chemical_formula_sum   'Li24 V8 F40'
_cell_volume   819.34755594
_cell_formula_units_Z   8
loop_
 _symmetry_equiv_pos_site_id
 _symmetry_equiv_pos_as_xyz
  1  'x, y, z'
loop_
 _atom_site_type_symbol
 _atom_site_label
 _atom_site_symmetry_multiplicity
 _atom_site_fract_x
 _atom_site_fract_y
 _atom_site_fract_z
 _atom_site_occupancy
  Li  Li0  1  0.04293588  0.30098674  0.33002317  1
  Li  Li1  1  0.04293588  0.19901326  0.83002317  1
  Li  Li2  1  0.16271381  0.08266228  0.57986455  1
  Li  Li3  1  0.16271381  0.41733772  0.07986455  1
  Li  Li4  1  0.23056415  0.53749214  0.31609286  1
  Li  Li5  1  0.23056415  0.96250786  0.81609286  1
  Li  Li6  1  0.26943585  0.03749214  0.31609286  1
  Li  Li7  1  0.26943585  0.46250786  0.81609286  1
  Li  Li8  1  0.33728619  0.91733772  0.07986455  1
  Li  Li9  1  0.33728619  0.58266228  0.57986455  1
  Li  Li10  1  0.45706412  0.69901326  0.83002317  1
  Li  Li11  1  0.45706412  0.80098674  0.33002317  1
  Li  Li12  1  0.54293588  0.30098674  0.16997683  1
  Li  Li13  1  0.54293588  0.19901326  0.66997683  1
  Li  Li14  1  0.66271381  0.41733772  0.42013545  1
  Li  Li15  1  0.66271381  0.08266228  0.92013545  1
  Li  Li16  1  0.73056415  0.53749214  0.18390714  1
  Li  Li17  1  0.73056415  0.96250786  0.68390714  1
  Li  Li18  1  0.76943585  0.46250786  0.68390714  1
  Li  Li19  1  0.76943585  0.03749214  0.18390714  1
  Li  Li20  1  0.83728619  0.58266228  0.92013545  1
  Li  Li21  1  0.83728619  0.91733772  0.42013545  1
  Li  Li22  1  0.95706412  0.80098674  0.16997683  1
  Li  Li23  1  0.95706412  0.69901326  0.66997683  1
  V  V24  1  0.21916174  0.16648419  0.07242026  1
  V  V25  1  0.21916174  0.33351581  0.57242026  1
  V  V26  1  0.28083826  0.66648419  0.07242026  1
  V  V27  1  0.28083826  0.83351581  0.57242026  1
  V  V28  1  0.71916174  0.16648419  0.42757974  1
  V  V29  1  0.71916174  0.33351581  0.92757974  1
  V  V30  1  0.78083826  0.66648419  0.42757974  1
  V  V31  1  0.78083826  0.83351581  0.92757974  1
  F  F32  1  0.95894401  0.64247889  0.14681234  1
  F  F33  1  0.95894401  0.85752111  0.64681234  1
  F  F34  1  0.10921781  0.68717298  0.50727551  1
  F  F35  1  0.10921781  0.81282702  0.00727551  1
  F  F36  1  0.11697959  0.48158132  0.66128091  1
  F  F37  1  0.11697959  0.01841868  0.16128091  1
  F  F38  1  0.18514806  0.29913368  0.19238119  1
  F  F39  1  0.18514806  0.20086632  0.69238119  1
  F  F40  1  0.31771653  0.07212576  0.93023801  1
  F  F41  1  0.31771653  0.42787424  0.43023801  1
  F  F42  1  0.18228347  0.57212576  0.93023801  1
  F  F43  1  0.18228347  0.92787424  0.43023801  1
  F  F44  1  0.31485194  0.79913368  0.19238119  1
  F  F45  1  0.31485194  0.70086632  0.69238119  1
  F  F46  1  0.38302041  0.98158132  0.66128091  1
  F  F47  1  0.38302041  0.51841868  0.16128091  1
  F  F48  1  0.39078219  0.18717298  0.50727551  1
  F  F49  1  0.39078219  0.31282702  0.00727551  1
  F  F50  1  0.54105599  0.14247889  0.14681234  1
  F  F51  1  0.54105599  0.35752111  0.64681234  1
  F  F52  1  0.45894401  0.85752111  0.85318766  1
  F  F53  1  0.45894401  0.64247889  0.35318766  1
  F  F54  1  0.60921781  0.68717298  0.99272449  1
  F  F55  1  0.60921781  0.81282702  0.49272449  1
  F  F56  1  0.61697959  0.48158132  0.83871909  1
  F  F57  1  0.61697959  0.01841868  0.33871909  1
  F  F58  1  0.68514806  0.20086632  0.80761881  1
  F  F59  1  0.68514806  0.29913368  0.30761881  1
  F  F60  1  0.81771653  0.42787424  0.06976199  1
  F  F61  1  0.81771653  0.07212576  0.56976199  1
  F  F62  1  0.68228347  0.57212576  0.56976199  1
  F  F63  1  0.68228347  0.92787424  0.06976199  1
  F  F64  1  0.81485194  0.79913368  0.30761881  1
  F  F65  1  0.81485194  0.70086632  0.80761881  1
  F  F66  1  0.88302041  0.51841868  0.33871909  1
  F  F67  1  0.88302041  0.98158132  0.83871909  1
  F  F68  1  0.89078219  0.31282702  0.49272449  1
  F  F69  1  0.89078219  0.18717298  0.99272449  1
  F  F70  1  0.04105599  0.14247889  0.35318766  1
  F  F71  1  0.04105599  0.35752111  0.85318766  1
