# generated using pymatgen
data_H13Se2N3O8
_symmetry_space_group_name_H-M   'P 1'
_cell_length_a   6.08379549
_cell_length_b   6.09069504
_cell_length_c   16.78189904
_cell_angle_alpha   80.78273401
_cell_angle_beta   79.55680265
_cell_angle_gamma   60.03746509
_symmetry_Int_Tables_number   1
_chemical_formula_structural   H13Se2N3O8
_chemical_formula_sum   'H26 Se4 N6 O16'
_cell_volume   528.03979651
_cell_formula_units_Z   2
loop_
 _symmetry_equiv_pos_site_id
 _symmetry_equiv_pos_as_xyz
  1  'x, y, z'
loop_
 _atom_site_type_symbol
 _atom_site_label
 _atom_site_symmetry_multiplicity
 _atom_site_fract_x
 _atom_site_fract_y
 _atom_site_fract_z
 _atom_site_occupancy
  H  H0  1  0.67741082  0.88982025  0.47361589  1
  H  H1  1  0.95915304  0.38982025  0.97361589  1
  H  H2  1  0.41798392  0.16946446  0.46016030  1
  H  H3  1  0.95239133  0.66946446  0.96016030  1
  H  H4  1  0.51147524  0.06670047  0.55455935  1
  H  H5  1  0.86726494  0.56670047  0.05455935  1
  H  H6  1  0.39030258  0.91811910  0.51299142  1
  H  H7  1  0.17858690  0.41811910  0.01299142  1
  H  H8  1  0.03450687  0.56470695  0.76625816  1
  H  H9  1  0.63452803  0.06470695  0.26625816  1
  H  H10  1  0.25075038  0.46929162  0.68282970  1
  H  H11  1  0.59712830  0.96929162  0.18282970  1
  H  H12  1  0.04976048  0.78629470  0.69219402  1
  H  H13  1  0.47175080  0.28629470  0.19219402  1
  H  H14  1  0.93402596  0.59393527  0.67584408  1
  H  H15  1  0.79619470  0.09393527  0.17584408  1
  H  H16  1  0.87081181  0.46740952  0.24315418  1
  H  H17  1  0.41862449  0.96740952  0.74315418  1
  H  H18  1  0.89840611  0.56244463  0.32838758  1
  H  H19  1  0.21076168  0.06244463  0.82838758  1
  H  H20  1  0.02787011  0.24196433  0.31621789  1
  H  H21  1  0.41394767  0.74196433  0.81621789  1
  H  H22  1  0.70225092  0.43469106  0.33141270  1
  H  H23  1  0.53164532  0.93469106  0.83141270  1
  H  H24  1  0.97447258  0.07086351  0.50135066  1
  H  H25  1  0.45331325  0.57086351  0.00135066  1
  Se  Se26  1  0.78159321  0.28723607  0.61754619  1
  Se  Se27  1  0.31362453  0.78723607  0.11754619  1
  Se  Se28  1  0.18041399  0.74177587  0.38892174  1
  Se  Se29  1  0.68888840  0.24177587  0.88892174  1
  N  N30  1  0.49772180  0.01052250  0.50118919  1
  N  N31  1  0.99056652  0.51052250  0.00118919  1
  N  N32  1  0.06684193  0.60410787  0.70476919  1
  N  N33  1  0.62428101  0.10410787  0.20476919  1
  N  N34  1  0.87538784  0.42546504  0.30458268  1
  N  N35  1  0.39456444  0.92546504  0.80458268  1
  O  O36  1  0.87213272  0.26703786  0.51255629  1
  O  O37  1  0.34827313  0.76703786  0.01255629  1
  O  O38  1  0.68755580  0.58426271  0.63272988  1
  O  O39  1  0.09545161  0.08426271  0.13272988  1
  O  O40  1  0.03778122  0.07835291  0.66241741  1
  O  O41  1  0.22144845  0.57835291  0.16241741  1
  O  O42  1  0.54422820  0.21521846  0.63857849  1
  O  O43  1  0.60197485  0.71521846  0.13857849  1
  O  O44  1  0.13189482  0.80029633  0.48806680  1
  O  O45  1  0.57974205  0.30029633  0.98806680  1
  O  O46  1  0.39668530  0.43694995  0.37736567  1
  O  O47  1  0.78899909  0.93694995  0.87736567  1
  O  O48  1  0.28239014  0.93225149  0.33253255  1
  O  O49  1  0.45282582  0.43225149  0.83253255  1
  O  O50  1  0.89557885  0.80642708  0.36533800  1
  O  O51  1  0.93265607  0.30642708  0.86533800  1
