# generated using pymatgen
data_Na5Sn2P(CO4)4
_symmetry_space_group_name_H-M   'P 1'
_cell_length_a   10.16638179
_cell_length_b   9.94566548
_cell_length_c   10.22968328
_cell_angle_alpha   60.49740385
_cell_angle_beta   60.76876005
_cell_angle_gamma   61.13416608
_symmetry_Int_Tables_number   1
_chemical_formula_structural   Na5Sn2P(CO4)4
_chemical_formula_sum   'Na10 Sn4 P2 C8 O32'
_cell_volume   744.54116188
_cell_formula_units_Z   2
loop_
 _symmetry_equiv_pos_site_id
 _symmetry_equiv_pos_as_xyz
  1  'x, y, z'
loop_
 _atom_site_type_symbol
 _atom_site_label
 _atom_site_symmetry_multiplicity
 _atom_site_fract_x
 _atom_site_fract_y
 _atom_site_fract_z
 _atom_site_occupancy
  Na  Na0  1  0.67306034  0.07045416  0.07069179  1
  Na  Na1  1  0.92930821  0.31420530  0.32693966  1
  Na  Na2  1  0.07012266  0.07275712  0.67169642  1
  Na  Na3  1  0.06955685  0.68044315  0.06955685  1
  Na  Na4  1  0.67169642  0.68542480  0.07012266  1
  Na  Na5  1  0.32830358  0.31457520  0.92987734  1
  Na  Na6  1  0.92987734  0.92724288  0.32830358  1
  Na  Na7  1  0.93044315  0.31955685  0.93044315  1
  Na  Na8  1  0.07069179  0.68579470  0.67306034  1
  Na  Na9  1  0.32693966  0.92954584  0.92930821  1
  Sn  Sn10  1  0.50000000  0.50000000  0.00000000  1
  Sn  Sn11  1  0.50000000  0.00000000  0.50000000  1
  Sn  Sn12  1  0.00000000  0.50000000  0.50000000  1
  Sn  Sn13  1  0.50000000  0.50000000  0.50000000  1
  P  P14  1  0.12550782  0.12449218  0.12550782  1
  P  P15  1  0.87449218  0.87550782  0.87449218  1
  C  C16  1  0.28984772  0.26360978  0.28253806  1
  C  C17  1  0.65901316  0.28147792  0.28725622  1
  C  C18  1  0.28725622  0.27225171  0.65901316  1
  C  C19  1  0.28253806  0.66400444  0.28984772  1
  C  C20  1  0.71746194  0.33599556  0.71015228  1
  C  C21  1  0.71274378  0.72774829  0.34098684  1
  C  C22  1  0.34098684  0.71852208  0.71274378  1
  C  C23  1  0.71015228  0.73639022  0.71746194  1
  O  O24  1  0.30988501  0.06385355  0.05823880  1
  O  O25  1  0.05823011  0.05932733  0.06593370  1
  O  O26  1  0.06593370  0.31650886  0.05823011  1
  O  O27  1  0.05823880  0.06802264  0.30988501  1
  O  O28  1  0.40908835  0.25920680  0.15424864  1
  O  O29  1  0.64834672  0.14349537  0.30966178  1
  O  O30  1  0.68843981  0.38379892  0.14669114  1
  O  O31  1  0.30244149  0.14989810  0.42283865  1
  O  O32  1  0.15540452  0.37803040  0.28523419  1
  O  O33  1  0.64504264  0.30424145  0.40963812  1
  O  O34  1  0.28523419  0.68133090  0.15540452  1
  O  O35  1  0.40963812  0.14107779  0.64504264  1
  O  O36  1  0.84575136  0.32254379  0.59091165  1
  O  O37  1  0.69033822  0.60150287  0.35165328  1
  O  O38  1  0.42283865  0.62482076  0.30244149  1
  O  O39  1  0.14669114  0.28106913  0.68843981  1
  O  O40  1  0.57716135  0.37517924  0.69755851  1
  O  O41  1  0.85330886  0.71893087  0.31156019  1
  O  O42  1  0.30966178  0.39849713  0.64834672  1
  O  O43  1  0.15424864  0.67745621  0.40908835  1
  O  O44  1  0.59036188  0.85892221  0.35495736  1
  O  O45  1  0.71476581  0.31866910  0.84459548  1
  O  O46  1  0.35495736  0.69575855  0.59036188  1
  O  O47  1  0.84459548  0.62196960  0.71476581  1
  O  O48  1  0.31156019  0.61620108  0.85330886  1
  O  O49  1  0.69755851  0.85010190  0.57716135  1
  O  O50  1  0.35165328  0.85650463  0.69033822  1
  O  O51  1  0.59091165  0.74079320  0.84575136  1
  O  O52  1  0.94176120  0.93197736  0.69011499  1
  O  O53  1  0.93406630  0.68349114  0.94176989  1
  O  O54  1  0.94176989  0.94067267  0.93406630  1
  O  O55  1  0.69011499  0.93614645  0.94176120  1
