# generated using pymatgen
data_Li5SbS4
_symmetry_space_group_name_H-M   'P 1'
_cell_length_a   15.08927331
_cell_length_b   6.20361827
_cell_length_c   17.61006042
_cell_angle_alpha   90.00000000
_cell_angle_beta   90.00000000
_cell_angle_gamma   90.00000000
_symmetry_Int_Tables_number   1
_chemical_formula_structural   Li5SbS4
_chemical_formula_sum   'Li40 Sb8 S32'
_cell_volume   1648.44414865
_cell_formula_units_Z   8
loop_
 _symmetry_equiv_pos_site_id
 _symmetry_equiv_pos_as_xyz
  1  'x, y, z'
loop_
 _atom_site_type_symbol
 _atom_site_label
 _atom_site_symmetry_multiplicity
 _atom_site_fract_x
 _atom_site_fract_y
 _atom_site_fract_z
 _atom_site_occupancy
  Li  Li0  1  0.08018738  0.10828402  0.41344387  1
  Li  Li1  1  0.08018738  0.39171598  0.91344387  1
  Li  Li2  1  0.14387983  0.67061878  0.74005224  1
  Li  Li3  1  0.14387983  0.82938122  0.24005224  1
  Li  Li4  1  0.16812820  0.65831950  0.49642072  1
  Li  Li5  1  0.16812820  0.84168050  0.99642072  1
  Li  Li6  1  0.22177805  0.46833938  0.33444520  1
  Li  Li7  1  0.22177805  0.03166062  0.83444520  1
  Li  Li8  1  0.21703470  0.53027236  0.12308187  1
  Li  Li9  1  0.21703470  0.96972764  0.62308187  1
  Li  Li10  1  0.28296530  0.03027236  0.12308187  1
  Li  Li11  1  0.28296530  0.46972764  0.62308187  1
  Li  Li12  1  0.27822195  0.96833938  0.33444520  1
  Li  Li13  1  0.27822195  0.53166062  0.83444520  1
  Li  Li14  1  0.33187180  0.15831950  0.49642072  1
  Li  Li15  1  0.33187180  0.34168050  0.99642072  1
  Li  Li16  1  0.35612017  0.32938122  0.24005224  1
  Li  Li17  1  0.35612017  0.17061878  0.74005224  1
  Li  Li18  1  0.41981262  0.89171598  0.91344387  1
  Li  Li19  1  0.41981262  0.60828402  0.41344387  1
  Li  Li20  1  0.58018738  0.10828402  0.08655613  1
  Li  Li21  1  0.58018738  0.39171598  0.58655613  1
  Li  Li22  1  0.64387983  0.82938122  0.25994776  1
  Li  Li23  1  0.64387983  0.67061878  0.75994776  1
  Li  Li24  1  0.66812820  0.65831950  0.00357928  1
  Li  Li25  1  0.66812820  0.84168050  0.50357928  1
  Li  Li26  1  0.72177805  0.46833938  0.16555480  1
  Li  Li27  1  0.72177805  0.03166062  0.66555480  1
  Li  Li28  1  0.71703470  0.53027236  0.37691813  1
  Li  Li29  1  0.71703470  0.96972764  0.87691813  1
  Li  Li30  1  0.78296530  0.03027236  0.37691813  1
  Li  Li31  1  0.78296530  0.46972764  0.87691813  1
  Li  Li32  1  0.77822195  0.53166062  0.66555480  1
  Li  Li33  1  0.77822195  0.96833938  0.16555480  1
  Li  Li34  1  0.83187180  0.15831950  0.00357928  1
  Li  Li35  1  0.83187180  0.34168050  0.50357928  1
  Li  Li36  1  0.85612017  0.32938122  0.25994776  1
  Li  Li37  1  0.85612017  0.17061878  0.75994776  1
  Li  Li38  1  0.91981262  0.89171598  0.58655613  1
  Li  Li39  1  0.91981262  0.60828402  0.08655613  1
  Sb  Sb40  1  0.06518301  0.16293425  0.12476349  1
  Sb  Sb41  1  0.06518301  0.33706575  0.62476349  1
  Sb  Sb42  1  0.43481699  0.66293425  0.12476349  1
  Sb  Sb43  1  0.43481699  0.83706575  0.62476349  1
  Sb  Sb44  1  0.56518301  0.33706575  0.87523651  1
  Sb  Sb45  1  0.56518301  0.16293425  0.37523651  1
  Sb  Sb46  1  0.93481699  0.66293425  0.37523651  1
  Sb  Sb47  1  0.93481699  0.83706575  0.87523651  1
  S  S48  1  0.07359090  0.75688224  0.11600652  1
  S  S49  1  0.07359090  0.74311776  0.61600652  1
  S  S50  1  0.17000596  0.26219063  0.51879624  1
  S  S51  1  0.17000596  0.23780937  0.01879624  1
  S  S52  1  0.18506651  0.21851394  0.22210082  1
  S  S53  1  0.18506651  0.28148606  0.72210082  1
  S  S54  1  0.14591304  0.77980412  0.37171990  1
  S  S55  1  0.14591304  0.72019588  0.87171990  1
  S  S56  1  0.35408696  0.22019588  0.87171990  1
  S  S57  1  0.35408696  0.27980412  0.37171990  1
  S  S58  1  0.31493349  0.71851394  0.22210082  1
  S  S59  1  0.31493349  0.78148606  0.72210082  1
  S  S60  1  0.32999404  0.73780937  0.01879624  1
  S  S61  1  0.32999404  0.76219063  0.51879624  1
  S  S62  1  0.42640910  0.25688224  0.11600652  1
  S  S63  1  0.42640910  0.24311776  0.61600652  1
  S  S64  1  0.57359090  0.74311776  0.88399348  1
  S  S65  1  0.57359090  0.75688224  0.38399348  1
  S  S66  1  0.67000596  0.26219063  0.98120376  1
  S  S67  1  0.67000596  0.23780937  0.48120376  1
  S  S68  1  0.68506651  0.21851394  0.27789918  1
  S  S69  1  0.68506651  0.28148606  0.77789918  1
  S  S70  1  0.64591304  0.77980412  0.12828010  1
  S  S71  1  0.64591304  0.72019588  0.62828010  1
  S  S72  1  0.85408696  0.22019588  0.62828010  1
  S  S73  1  0.85408696  0.27980412  0.12828010  1
  S  S74  1  0.81493349  0.71851394  0.27789918  1
  S  S75  1  0.81493349  0.78148606  0.77789918  1
  S  S76  1  0.82999404  0.73780937  0.48120376  1
  S  S77  1  0.82999404  0.76219063  0.98120376  1
  S  S78  1  0.92640910  0.25688224  0.38399348  1
  S  S79  1  0.92640910  0.24311776  0.88399348  1
