# generated using pymatgen
data_Li2NbV3O8
_symmetry_space_group_name_H-M   'P 1'
_cell_length_a   6.47637064
_cell_length_b   6.47637063
_cell_length_c   6.72839096
_cell_angle_alpha   73.49922471
_cell_angle_beta   106.50077650
_cell_angle_gamma   142.98287462
_symmetry_Int_Tables_number   1
_chemical_formula_structural   Li2NbV3O8
_chemical_formula_sum   'Li2 Nb1 V3 O8'
_cell_volume   162.10600347
_cell_formula_units_Z   1
loop_
 _symmetry_equiv_pos_site_id
 _symmetry_equiv_pos_as_xyz
  1  'x, y, z'
loop_
 _atom_site_type_symbol
 _atom_site_label
 _atom_site_symmetry_multiplicity
 _atom_site_fract_x
 _atom_site_fract_y
 _atom_site_fract_z
 _atom_site_occupancy
  Li  Li0  1  0.05503718  0.94496282  0.36289504  1
  Li  Li1  1  0.94184998  0.05815002  0.65700497  1
  Nb  Nb2  1  0.70819344  0.29180656  0.28006285  1
  V  V3  1  0.39042936  0.60957064  0.29726768  1
  V  V4  1  0.60921167  0.39078833  0.68788987  1
  V  V5  1  0.29503396  0.70496604  0.72752102  1
  O  O6  1  0.12034484  0.87965516  0.67240207  1
  O  O7  1  0.22186069  0.77813931  0.33201178  1
  O  O8  1  0.35126217  0.64873783  0.00692194  1
  O  O9  1  0.43957109  0.56042891  0.63286954  1
  O  O10  1  0.56432737  0.43567263  0.35486905  1
  O  O11  1  0.64972241  0.35027759  0.00205775  1
  O  O12  1  0.77134503  0.22865497  0.65524285  1
  O  O13  1  0.88180879  0.11819121  0.33098357  1
