# generated using pymatgen
data_Li4CrCo2Ni3(PO4)6
_symmetry_space_group_name_H-M   'P 1'
_cell_length_a   8.35417601
_cell_length_b   8.47245773
_cell_length_c   8.47199422
_cell_angle_alpha   62.99482117
_cell_angle_beta   63.19189418
_cell_angle_gamma   63.22503465
_symmetry_Int_Tables_number   1
_chemical_formula_structural   Li4CrCo2Ni3(PO4)6
_chemical_formula_sum   'Li4 Cr1 Co2 Ni3 P6 O24'
_cell_volume   453.51421078
_cell_formula_units_Z   1
loop_
 _symmetry_equiv_pos_site_id
 _symmetry_equiv_pos_as_xyz
  1  'x, y, z'
loop_
 _atom_site_type_symbol
 _atom_site_label
 _atom_site_symmetry_multiplicity
 _atom_site_fract_x
 _atom_site_fract_y
 _atom_site_fract_z
 _atom_site_occupancy
  Li  Li0  1  0.74811271  0.14657091  0.35447375  1
  Li  Li1  1  0.27060711  0.85134019  0.64560453  1
  Li  Li2  1  0.64360289  0.26990958  0.85366407  1
  Li  Li3  1  0.85328988  0.64441862  0.27203937  1
  Cr  Cr4  1  0.85594285  0.85274814  0.85584841  1
  Co  Co5  1  0.01349998  0.00254429  0.99653168  1
  Co  Co6  1  0.48949005  0.50413573  0.49792288  1
  Ni  Ni7  1  0.14201635  0.14598839  0.14540810  1
  Ni  Ni8  1  0.35755315  0.35573808  0.35468243  1
  Ni  Ni9  1  0.64574591  0.64625155  0.64937964  1
  P  P10  1  0.05273260  0.74734442  0.44954736  1
  P  P11  1  0.44635417  0.04919991  0.75069259  1
  P  P12  1  0.74908265  0.44907246  0.04972148  1
  P  P13  1  0.24820084  0.54472051  0.95373920  1
  P  P14  1  0.55233406  0.95506860  0.24961732  1
  P  P15  1  0.94671767  0.24701185  0.54429220  1
  O  O16  1  0.11106436  0.30505973  0.50128448  1
  O  O17  1  0.31312553  0.51410377  0.10810069  1
  O  O18  1  0.05352994  0.91195778  0.26189725  1
  O  O19  1  0.54442872  0.10397421  0.30939818  1
  O  O20  1  0.01235381  0.81144131  0.61199303  1
  O  O21  1  0.24967889  0.59772820  0.43342188  1
  O  O22  1  0.25088044  0.07112903  0.90399819  1
  O  O23  1  0.45156368  0.23710486  0.58914453  1
  O  O24  1  0.17874152  0.39304197  0.98653687  1
  O  O25  1  0.60152250  0.43010385  0.24954582  1
  O  O26  1  0.09535711  0.74862137  0.92623386  1
  O  O27  1  0.38963010  0.00356182  0.18658008  1
  O  O28  1  0.60833776  0.00615400  0.82072617  1
  O  O29  1  0.89958642  0.25046593  0.07379249  1
  O  O30  1  0.40096512  0.56804034  0.75318994  1
  O  O31  1  0.81535213  0.60922934  0.01114424  1
  O  O32  1  0.56752118  0.75641937  0.40348058  1
  O  O33  1  0.75527322  0.92255527  0.09295730  1
  O  O34  1  0.74716024  0.40315076  0.57207691  1
  O  O35  1  0.95956148  0.18263471  0.39653187  1
  O  O36  1  0.47283838  0.89431814  0.68571967  1
  O  O37  1  0.92695007  0.09237144  0.74671681  1
  O  O38  1  0.68105602  0.47529034  0.89686067  1
  O  O39  1  0.89823954  0.67647922  0.47850148  1
