# generated using pymatgen
data_Li2V5CoO12
_symmetry_space_group_name_H-M   'P 1'
_cell_length_a   6.91783271
_cell_length_b   6.91783259
_cell_length_c   5.70045614
_cell_angle_alpha   73.32229148
_cell_angle_beta   106.67770193
_cell_angle_gamma   99.97749609
_symmetry_Int_Tables_number   1
_chemical_formula_structural   Li2V5CoO12
_chemical_formula_sum   'Li2 V5 Co1 O12'
_cell_volume   249.10349911
_cell_formula_units_Z   1
loop_
 _symmetry_equiv_pos_site_id
 _symmetry_equiv_pos_as_xyz
  1  'x, y, z'
loop_
 _atom_site_type_symbol
 _atom_site_label
 _atom_site_symmetry_multiplicity
 _atom_site_fract_x
 _atom_site_fract_y
 _atom_site_fract_z
 _atom_site_occupancy
  Li  Li0  1  0.27116111  0.27116111  0.25000000  1
  Li  Li1  1  0.74489738  0.74489738  0.75000000  1
  V  V2  1  0.92052620  0.92052620  0.25000000  1
  V  V3  1  0.19544814  0.61334645  0.75783258  1
  V  V4  1  0.38937079  0.81820638  0.24186692  1
  V  V5  1  0.61334645  0.19544814  0.74216742  1
  V  V6  1  0.81820638  0.38937079  0.25813308  1
  Co  Co7  1  0.08871260  0.08871260  0.75000000  1
  O  O8  1  0.02244704  0.79818518  0.65014996  1
  O  O9  1  0.06486770  0.37977773  0.74326385  1
  O  O10  1  0.19249438  0.99696283  0.14822885  1
  O  O11  1  0.37350205  0.66883463  0.57781230  1
  O  O12  1  0.37977773  0.06486770  0.75673615  1
  O  O13  1  0.31610033  0.59543206  0.08050007  1
  O  O14  1  0.66883463  0.37350205  0.92218770  1
  O  O15  1  0.65454024  0.89518778  0.32006848  1
  O  O16  1  0.59543206  0.31610033  0.41949993  1
  O  O17  1  0.79818518  0.02244704  0.84985004  1
  O  O18  1  0.89518778  0.65454024  0.17993152  1
  O  O19  1  0.99696283  0.19249438  0.35177115  1
