# generated using pymatgen
data_Mn3NbCr2(PO4)6
_symmetry_space_group_name_H-M   'P 1'
_cell_length_a   8.56174422
_cell_length_b   8.56174500
_cell_length_c   8.56174434
_cell_angle_alpha   61.57286923
_cell_angle_beta   61.57287157
_cell_angle_gamma   61.57287153
_symmetry_Int_Tables_number   1
_chemical_formula_structural   Mn3NbCr2(PO4)6
_chemical_formula_sum   'Mn3 Nb1 Cr2 P6 O24'
_cell_volume   459.44478927
_cell_formula_units_Z   1
loop_
 _symmetry_equiv_pos_site_id
 _symmetry_equiv_pos_as_xyz
  1  'x, y, z'
loop_
 _atom_site_type_symbol
 _atom_site_label
 _atom_site_symmetry_multiplicity
 _atom_site_fract_x
 _atom_site_fract_y
 _atom_site_fract_z
 _atom_site_occupancy
  Mn  Mn0  1  0.14917841  0.14917841  0.14917841  1
  Mn  Mn1  1  0.35281747  0.35281747  0.35281747  1
  Mn  Mn2  1  0.64654543  0.64654543  0.64654543  1
  Nb  Nb3  1  0.85344517  0.85344517  0.85344517  1
  Cr  Cr4  1  0.00275610  0.00275610  0.00275610  1
  Cr  Cr5  1  0.50149978  0.50149978  0.50149978  1
  P  P6  1  0.74803587  0.44272177  0.05405366  1
  P  P7  1  0.25443720  0.54799477  0.94654014  1
  P  P8  1  0.54799477  0.94654014  0.25443720  1
  P  P9  1  0.94654014  0.25443720  0.54799477  1
  P  P10  1  0.05405366  0.74803587  0.44272177  1
  P  P11  1  0.44272177  0.05405366  0.74803587  1
  O  O12  1  0.09464196  0.32122463  0.51840941  1
  O  O13  1  0.32122463  0.51840941  0.09464196  1
  O  O14  1  0.07000627  0.90415334  0.24677685  1
  O  O15  1  0.51840941  0.09464196  0.32122463  1
  O  O16  1  0.98718465  0.82837693  0.60721643  1
  O  O17  1  0.25034675  0.60364366  0.44655142  1
  O  O18  1  0.24677685  0.07000627  0.90415334  1
  O  O19  1  0.44655142  0.25034675  0.60364366  1
  O  O20  1  0.17492072  0.40257644  0.98868417  1
  O  O21  1  0.60364366  0.44655142  0.25034675  1
  O  O22  1  0.09400407  0.75495159  0.92729897  1
  O  O23  1  0.40257644  0.98868417  0.17492072  1
  O  O24  1  0.60721643  0.98718465  0.82837693  1
  O  O25  1  0.90415334  0.24677685  0.07000627  1
  O  O26  1  0.40146160  0.56718768  0.74419924  1
  O  O27  1  0.82837693  0.60721643  0.98718465  1
  O  O28  1  0.56718768  0.74419924  0.40146160  1
  O  O29  1  0.75495159  0.92729897  0.09400407  1
  O  O30  1  0.74419924  0.40146160  0.56718768  1
  O  O31  1  0.98868417  0.17492072  0.40257644  1
  O  O32  1  0.48569410  0.90280999  0.67765235  1
  O  O33  1  0.92729897  0.09400407  0.75495159  1
  O  O34  1  0.67765235  0.48569410  0.90280999  1
  O  O35  1  0.90280999  0.67765235  0.48569410  1
