# generated using pymatgen
data_Li3Fe4(OF3)3
_symmetry_space_group_name_H-M   'P 1'
_cell_length_a   5.95410644
_cell_length_b   6.03792760
_cell_length_c   6.00913070
_cell_angle_alpha   99.87927527
_cell_angle_beta   98.91735059
_cell_angle_gamma   99.27753525
_symmetry_Int_Tables_number   1
_chemical_formula_structural   Li3Fe4(OF3)3
_chemical_formula_sum   'Li3 Fe4 O3 F9'
_cell_volume   206.30326773
_cell_formula_units_Z   1
loop_
 _symmetry_equiv_pos_site_id
 _symmetry_equiv_pos_as_xyz
  1  'x, y, z'
loop_
 _atom_site_type_symbol
 _atom_site_label
 _atom_site_symmetry_multiplicity
 _atom_site_fract_x
 _atom_site_fract_y
 _atom_site_fract_z
 _atom_site_occupancy
  Li  Li0  1  0.14847466  0.59069231  0.34040181  1
  Li  Li1  1  0.30554899  0.13089583  0.59990135  1
  Li  Li2  1  0.87904143  0.40107988  0.67088819  1
  Fe  Fe3  1  0.40480137  0.68060427  0.87334762  1
  Fe  Fe4  1  0.67607683  0.84889672  0.36450419  1
  Fe  Fe5  1  0.00166217  0.00597569  0.99819276  1
  Fe  Fe6  1  0.57208102  0.30867573  0.11787957  1
  O  O7  1  0.68283172  0.89771511  0.04928688  1
  O  O8  1  0.42470469  0.58147126  0.17690501  1
  O  O9  1  0.30573992  0.10634573  0.94619188  1
  F  F10  1  0.07792849  0.95068887  0.31752949  1
  F  F11  1  0.06606951  0.69134949  0.89436766  1
  F  F12  1  0.43660806  0.82071824  0.59140782  1
  F  F13  1  0.20648858  0.42608910  0.60913516  1
  F  F14  1  0.61273092  0.43482124  0.82547906  1
  F  F15  1  0.82514860  0.59654716  0.43398705  1
  F  F16  1  0.57776671  0.17124759  0.39822239  1
  F  F17  1  0.92105619  0.31333316  0.11828252  1
  F  F18  1  0.87524215  0.04285163  0.67408758  1
