# generated using pymatgen
data_Zr2N2O
_symmetry_space_group_name_H-M   'P 1'
_cell_length_a   9.68123533
_cell_length_b   3.48892906
_cell_length_c   4.35149854
_cell_angle_alpha   90.04503660
_cell_angle_beta   73.68990703
_cell_angle_gamma   69.16909415
_symmetry_Int_Tables_number   1
_chemical_formula_structural   Zr2N2O
_chemical_formula_sum   'Zr4 N4 O2'
_cell_volume   131.01246847
_cell_formula_units_Z   2
loop_
 _symmetry_equiv_pos_site_id
 _symmetry_equiv_pos_as_xyz
  1  'x, y, z'
loop_
 _atom_site_type_symbol
 _atom_site_label
 _atom_site_symmetry_multiplicity
 _atom_site_fract_x
 _atom_site_fract_y
 _atom_site_fract_z
 _atom_site_occupancy
  Zr  Zr0  1  0.10673984  0.63100148  0.18513161  1
  Zr  Zr1  1  0.67097675  0.08325191  0.44869171  1
  Zr  Zr2  1  0.32814461  0.91857077  0.55330578  1
  Zr  Zr3  1  0.89225871  0.37056333  0.81653792  1
  N  N4  1  0.24847611  0.99525699  0.08333250  1
  N  N5  1  0.89985616  0.36409210  0.31385287  1
  N  N6  1  0.09905006  0.63591862  0.68789696  1
  N  N7  1  0.75058455  0.00572148  0.91837557  1
  O  O8  1  0.43776162  0.31051407  0.37381438  1
  O  O9  1  0.56129558  0.69135726  0.62821669  1
