# generated using pymatgen
data_CeNiO3
_symmetry_space_group_name_H-M   'P 1'
_cell_length_a   5.31928408
_cell_length_b   5.71972727
_cell_length_c   7.67099980
_cell_angle_alpha   90.00456376
_cell_angle_beta   90.00302794
_cell_angle_gamma   89.99832727
_symmetry_Int_Tables_number   1
_chemical_formula_structural   CeNiO3
_chemical_formula_sum   'Ce4 Ni4 O12'
_cell_volume   233.38904926
_cell_formula_units_Z   4
loop_
 _symmetry_equiv_pos_site_id
 _symmetry_equiv_pos_as_xyz
  1  'x, y, z'
loop_
 _atom_site_type_symbol
 _atom_site_label
 _atom_site_symmetry_multiplicity
 _atom_site_fract_x
 _atom_site_fract_y
 _atom_site_fract_z
 _atom_site_occupancy
  Ce  Ce0  1  0.02407017  0.92336642  0.74997107  1
  Ce  Ce1  1  0.47593641  0.42340237  0.74998089  1
  Ce  Ce2  1  0.52406979  0.57662019  0.25001894  1
  Ce  Ce3  1  0.97594803  0.07659820  0.25002919  1
  Ni  Ni4  1  0.00000956  0.49996906  0.00000452  1
  Ni  Ni5  1  0.00000878  0.49996887  0.49999505  1
  Ni  Ni6  1  0.50000328  0.00002196  0.99996741  1
  Ni  Ni7  1  0.50000357  0.00002275  0.50003169  1
  O  O8  1  0.12724787  0.45251577  0.25001477  1
  O  O9  1  0.18209985  0.18785041  0.56432807  1
  O  O10  1  0.18212468  0.18783930  0.93560674  1
  O  O11  1  0.31782956  0.68788585  0.56439018  1
  O  O12  1  0.31778614  0.68786510  0.93557340  1
  O  O13  1  0.37281892  0.95250230  0.24998964  1
  O  O14  1  0.62725481  0.04752485  0.75001147  1
  O  O15  1  0.68218954  0.31216019  0.06441126  1
  O  O16  1  0.68214456  0.31214083  0.43562588  1
  O  O17  1  0.81783002  0.81213569  0.06442415  1
  O  O18  1  0.81785379  0.81212522  0.43564006  1
  O  O19  1  0.87277067  0.54748467  0.74998561  1
