# generated using pymatgen
data_Li9V3(WO4)7
_symmetry_space_group_name_H-M   'P 1'
_cell_length_a   8.55141274
_cell_length_b   8.55141274
_cell_length_c   8.55141274
_cell_angle_alpha   89.87868523
_cell_angle_beta   90.12131477
_cell_angle_gamma   90.12131477
_symmetry_Int_Tables_number   1
_chemical_formula_structural   Li9V3(WO4)7
_chemical_formula_sum   'Li9 V3 W7 O28'
_cell_volume   625.33205231
_cell_formula_units_Z   1
loop_
 _symmetry_equiv_pos_site_id
 _symmetry_equiv_pos_as_xyz
  1  'x, y, z'
loop_
 _atom_site_type_symbol
 _atom_site_label
 _atom_site_symmetry_multiplicity
 _atom_site_fract_x
 _atom_site_fract_y
 _atom_site_fract_z
 _atom_site_occupancy
  Li  Li0  1  0.09345348  0.35756813  0.64536449  1
  Li  Li1  1  0.09345348  0.64536449  0.35756813  1
  Li  Li2  1  0.35463551  0.35756813  0.90654652  1
  Li  Li3  1  0.35463551  0.90654652  0.35756813  1
  Li  Li4  1  0.64836391  0.09033890  0.35163609  1
  Li  Li5  1  0.64836391  0.35163609  0.09033890  1
  Li  Li6  1  0.64243187  0.64536449  0.90654652  1
  Li  Li7  1  0.64243187  0.90654652  0.64536449  1
  Li  Li8  1  0.90966110  0.35163609  0.35163609  1
  V  V9  1  0.36711210  0.11518409  0.63288790  1
  V  V10  1  0.36711210  0.63288790  0.11518409  1
  V  V11  1  0.88481591  0.63288790  0.63288790  1
  W  W12  1  0.35705192  0.35841615  0.35841615  1
  W  W13  1  0.34765783  0.65234217  0.65234217  1
  W  W14  1  0.64158385  0.35841615  0.64294808  1
  W  W15  1  0.64158385  0.64294808  0.35841615  1
  W  W16  1  0.00023649  0.99976351  0.49799388  1
  W  W17  1  0.00023649  0.49799388  0.99976351  1
  W  W18  1  0.50200612  0.99976351  0.99976351  1
  O  O19  1  0.14781334  0.38280136  0.38280136  1
  O  O20  1  0.13345033  0.61568022  0.61568022  1
  O  O21  1  0.12285132  0.12468063  0.62159382  1
  O  O22  1  0.12285132  0.62159382  0.12468063  1
  O  O23  1  0.12155932  0.37633864  0.87844068  1
  O  O24  1  0.12155932  0.87844068  0.37633864  1
  O  O25  1  0.37840618  0.12468063  0.87714868  1
  O  O26  1  0.37840618  0.87714868  0.12468063  1
  O  O27  1  0.39012033  0.38059065  0.60987967  1
  O  O28  1  0.39012033  0.60987967  0.38059065  1
  O  O29  1  0.38413913  0.14470683  0.38049432  1
  O  O30  1  0.38413913  0.38049432  0.14470683  1
  O  O31  1  0.38431978  0.61568022  0.86654967  1
  O  O32  1  0.38431978  0.86654967  0.61568022  1
  O  O33  1  0.61950568  0.14470683  0.61586087  1
  O  O34  1  0.61950568  0.61586087  0.14470683  1
  O  O35  1  0.61719864  0.38280136  0.85218666  1
  O  O36  1  0.61719864  0.85218666  0.38280136  1
  O  O37  1  0.60564550  0.39435450  0.39435450  1
  O  O38  1  0.61940935  0.60987967  0.60987967  1
  O  O39  1  0.62162013  0.12292657  0.12292657  1
  O  O40  1  0.62366136  0.87844068  0.87844068  1
  O  O41  1  0.87707343  0.12292657  0.37837987  1
  O  O42  1  0.87707343  0.37837987  0.12292657  1
  O  O43  1  0.87531937  0.62159382  0.87714868  1
  O  O44  1  0.87531937  0.87714868  0.62159382  1
  O  O45  1  0.85529317  0.38049432  0.61586087  1
  O  O46  1  0.85529317  0.61586087  0.38049432  1
