# generated using pymatgen
data_LiV6O7F5
_symmetry_space_group_name_H-M   'P 1'
_cell_length_a   5.66623201
_cell_length_b   5.68737317
_cell_length_c   7.54303828
_cell_angle_alpha   108.25452246
_cell_angle_beta   71.72902474
_cell_angle_gamma   108.27015869
_symmetry_Int_Tables_number   1
_chemical_formula_structural   LiV6O7F5
_chemical_formula_sum   'Li1 V6 O7 F5'
_cell_volume   212.87143422
_cell_formula_units_Z   1
loop_
 _symmetry_equiv_pos_site_id
 _symmetry_equiv_pos_as_xyz
  1  'x, y, z'
loop_
 _atom_site_type_symbol
 _atom_site_label
 _atom_site_symmetry_multiplicity
 _atom_site_fract_x
 _atom_site_fract_y
 _atom_site_fract_z
 _atom_site_occupancy
  Li  Li0  1  0.42656849  0.06127471  0.56923767  1
  V  V1  1  0.99853168  0.00474017  0.99918216  1
  V  V2  1  0.70330320  0.32215141  0.82704719  1
  V  V3  1  0.35118660  0.63514628  0.69168733  1
  V  V4  1  0.66691365  0.34952378  0.32298190  1
  V  V5  1  0.98327856  0.99628483  0.49683241  1
  V  V6  1  0.30375971  0.69683066  0.17087815  1
  O  O7  1  0.21898300  0.77865439  0.97266149  1
  O  O8  1  0.57642528  0.41397682  0.63141746  1
  O  O9  1  0.63019098  0.95250427  0.66351172  1
  O  O10  1  0.04523605  0.35160480  0.66718007  1
  O  O11  1  0.95503065  0.64741950  0.33162814  1
  O  O12  1  0.35493693  0.04806032  0.34128488  1
  O  O13  1  0.77410625  0.22567737  0.03380953  1
  F  F14  1  0.10530071  0.89192444  0.69911566  1
  F  F15  1  0.89240818  0.10748959  0.29557794  1
  F  F16  1  0.42517262  0.58117386  0.36539789  1
  F  F17  1  0.69245321  0.70040366  0.00566133  1
  F  F18  1  0.30780323  0.30904214  0.00046108  1
