# generated using pymatgen
data_Ti3Fe2Te(PO4)6
_symmetry_space_group_name_H-M   'P 1'
_cell_length_a   8.64726108
_cell_length_b   8.64726077
_cell_length_c   8.64726102
_cell_angle_alpha   61.30084750
_cell_angle_beta   61.30085065
_cell_angle_gamma   61.30084244
_symmetry_Int_Tables_number   1
_chemical_formula_structural   Ti3Fe2Te(PO4)6
_chemical_formula_sum   'Ti3 Fe2 Te1 P6 O24'
_cell_volume   470.58475216
_cell_formula_units_Z   1
loop_
 _symmetry_equiv_pos_site_id
 _symmetry_equiv_pos_as_xyz
  1  'x, y, z'
loop_
 _atom_site_type_symbol
 _atom_site_label
 _atom_site_symmetry_multiplicity
 _atom_site_fract_x
 _atom_site_fract_y
 _atom_site_fract_z
 _atom_site_occupancy
  Ti  Ti0  1  0.14410110  0.14410110  0.14410110  1
  Ti  Ti1  1  0.35520543  0.35520543  0.35520543  1
  Ti  Ti2  1  0.64298322  0.64298322  0.64298322  1
  Fe  Fe3  1  0.00351963  0.00351963  0.00351963  1
  Fe  Fe4  1  0.49952346  0.49952346  0.49952346  1
  Te  Te5  1  0.85460037  0.85460037  0.85460037  1
  P  P6  1  0.25690482  0.53782562  0.95688476  1
  P  P7  1  0.53782562  0.95688476  0.25690482  1
  P  P8  1  0.95688476  0.25690482  0.53782562  1
  P  P9  1  0.04925619  0.74732419  0.44607691  1
  P  P10  1  0.44607691  0.04925619  0.74732419  1
  P  P11  1  0.74732419  0.44607691  0.04925619  1
  O  O12  1  0.11120115  0.32812789  0.49078679  1
  O  O13  1  0.32812789  0.49078679  0.11120115  1
  O  O14  1  0.06251593  0.90733135  0.25553962  1
  O  O15  1  0.49078679  0.11120115  0.32812789  1
  O  O16  1  0.02310549  0.81474366  0.59681227  1
  O  O17  1  0.24215332  0.58992208  0.43054678  1
  O  O18  1  0.25553962  0.06251593  0.90733135  1
  O  O19  1  0.43054678  0.24215332  0.58992208  1
  O  O20  1  0.18253727  0.38727965  0.99922393  1
  O  O21  1  0.58992208  0.43054678  0.24215332  1
  O  O22  1  0.10205121  0.73552320  0.94817871  1
  O  O23  1  0.38727965  0.99922393  0.18253727  1
  O  O24  1  0.59681227  0.02310549  0.81474366  1
  O  O25  1  0.90733135  0.25553962  0.06251593  1
  O  O26  1  0.41127485  0.55415264  0.76190896  1
  O  O27  1  0.81474366  0.59681227  0.02310549  1
  O  O28  1  0.55415264  0.76190896  0.41127485  1
  O  O29  1  0.73552320  0.94817871  0.10205121  1
  O  O30  1  0.76190896  0.41127485  0.55415264  1
  O  O31  1  0.99922393  0.18253727  0.38727965  1
  O  O32  1  0.49758466  0.88625383  0.68703804  1
  O  O33  1  0.94817871  0.10205121  0.73552320  1
  O  O34  1  0.68703804  0.49758466  0.88625383  1
  O  O35  1  0.88625383  0.68703804  0.49758466  1
