# generated using pymatgen
data_LiV6O7F5
_symmetry_space_group_name_H-M   'P 1'
_cell_length_a   5.69728652
_cell_length_b   5.71771299
_cell_length_c   7.50424681
_cell_angle_alpha   108.86172265
_cell_angle_beta   71.66211581
_cell_angle_gamma   107.59200848
_symmetry_Int_Tables_number   1
_chemical_formula_structural   LiV6O7F5
_chemical_formula_sum   'Li1 V6 O7 F5'
_cell_volume   214.03859815
_cell_formula_units_Z   1
loop_
 _symmetry_equiv_pos_site_id
 _symmetry_equiv_pos_as_xyz
  1  'x, y, z'
loop_
 _atom_site_type_symbol
 _atom_site_label
 _atom_site_symmetry_multiplicity
 _atom_site_fract_x
 _atom_site_fract_y
 _atom_site_fract_z
 _atom_site_occupancy
  Li  Li0  1  0.05943099  0.43970079  0.43353767  1
  V  V1  1  0.35738011  0.69106657  0.15282340  1
  V  V2  1  0.60714206  0.31690172  0.31080582  1
  V  V3  1  0.35774076  0.67975903  0.67671165  1
  V  V4  1  0.99730295  0.01478110  0.51828097  1
  V  V5  1  0.69723410  0.32327807  0.84264449  1
  V  V6  1  0.98560295  0.97568751  0.00274215  1
  O  O7  1  0.77410061  0.21878999  0.03398992  1
  O  O8  1  0.40881708  0.57158121  0.36693293  1
  O  O9  1  0.33934911  0.03219117  0.33398601  1
  O  O10  1  0.64540652  0.97189623  0.66694552  1
  O  O11  1  0.05516458  0.36900191  0.66102254  1
  O  O12  1  0.23526972  0.77186723  0.96448059  1
  O  O13  1  0.70198188  0.68520562  0.99439893  1
  F  F14  1  0.95029619  0.63367713  0.33665917  1
  F  F15  1  0.88975398  0.11555273  0.30997004  1
  F  F16  1  0.10286920  0.89308338  0.70317437  1
  F  F17  1  0.59150805  0.43379677  0.62130037  1
  F  F18  1  0.30373317  0.29526983  0.99693846  1
