# generated using pymatgen
data_Li4Ti3V3(CuO8)2
_symmetry_space_group_name_H-M   'P 1'
_cell_length_a   5.95497038
_cell_length_b   5.87382660
_cell_length_c   9.81199789
_cell_angle_alpha   91.15023807
_cell_angle_beta   86.50239360
_cell_angle_gamma   120.85425211
_symmetry_Int_Tables_number   1
_chemical_formula_structural   Li4Ti3V3(CuO8)2
_chemical_formula_sum   'Li4 Ti3 V3 Cu2 O16'
_cell_volume   294.06190976
_cell_formula_units_Z   1
loop_
 _symmetry_equiv_pos_site_id
 _symmetry_equiv_pos_as_xyz
  1  'x, y, z'
loop_
 _atom_site_type_symbol
 _atom_site_label
 _atom_site_symmetry_multiplicity
 _atom_site_fract_x
 _atom_site_fract_y
 _atom_site_fract_z
 _atom_site_occupancy
  Li  Li0  1  0.32151682  0.66054532  0.89609916  1
  Li  Li1  1  0.02176626  -0.00016957  0.99519890  1
  Li  Li2  1  0.02017061  0.01351750  0.49664649  1
  Li  Li3  1  0.65359682  0.33149745  0.39600623  1
  Ti  Ti4  1  0.19230666  0.84569206  0.21957494  1
  Ti  Ti5  1  0.15599157  0.33681043  0.22025627  1
  Ti  Ti6  1  0.34375858  0.15239596  0.72005500  1
  V  V7  1  0.66923780  0.81779416  0.20589737  1
  V  V8  1  0.85029689  0.19123265  0.70785307  1
  V  V9  1  0.81867272  0.66883684  0.71506019  1
  Cu  Cu10  1  0.33331310  0.66644875  0.49354463  1
  Cu  Cu11  1  0.66752994  0.33843233  0.99404374  1
  O  O12  1  0.15557448  0.83557210  0.60763211  1
  O  O13  1  0.00774436  0.50027109  0.31738211  1
  O  O14  1  0.34105086  0.66231610  0.10482700  1
  O  O15  1  0.99154231  0.98814334  0.31394234  1
  O  O16  1  0.99719206  0.00849840  0.81268187  1
  O  O17  1  0.17321637  0.33784709  0.60469436  1
  O  O18  1  0.46280864  0.95413357  0.33682294  1
  O  O19  1  0.46993430  0.51775607  0.33039731  1
  O  O20  1  0.33189120  0.16083601  0.10558239  1
  O  O21  1  0.70519187  0.86997155  0.61174153  1
  O  O22  1  0.51391684  0.49654808  0.81755386  1
  O  O23  1  0.49735697  0.03252424  0.83224458  1
  O  O24  1  0.67311291  0.33594393  0.60312265  1
  O  O25  1  0.84361027  0.67317721  0.10373454  1
  O  O26  1  0.94619599  0.46888713  0.83494538  1
  O  O27  1  0.84150079  0.13484022  0.11030004  1
