# generated using pymatgen
data_LiV2(OF)3
_symmetry_space_group_name_H-M   'P 1'
_cell_length_a   5.08641494
_cell_length_b   5.13220704
_cell_length_c   13.58422446
_cell_angle_alpha   88.05147934
_cell_angle_beta   91.30023870
_cell_angle_gamma   118.52020832
_symmetry_Int_Tables_number   1
_chemical_formula_structural   LiV2(OF)3
_chemical_formula_sum   'Li3 V6 O9 F9'
_cell_volume   311.38893389
_cell_formula_units_Z   3
loop_
 _symmetry_equiv_pos_site_id
 _symmetry_equiv_pos_as_xyz
  1  'x, y, z'
loop_
 _atom_site_type_symbol
 _atom_site_label
 _atom_site_symmetry_multiplicity
 _atom_site_fract_x
 _atom_site_fract_y
 _atom_site_fract_z
 _atom_site_occupancy
  Li  Li0  1  0.65422205  0.32804281  0.53702673  1
  Li  Li1  1  0.37681388  0.67433207  0.87400546  1
  Li  Li2  1  0.01899981  0.02179530  0.20458221  1
  V  V3  1  0.94766642  0.00321494  0.49891975  1
  V  V4  1  0.70836521  0.31853917  0.83351521  1
  V  V5  1  0.64307618  0.30211233  0.32089065  1
  V  V6  1  0.35146745  0.68709889  0.16736014  1
  V  V7  1  0.05376620  0.03647213  0.98906955  1
  V  V8  1  0.30792419  0.67473675  0.65575315  1
  O  O9  1  0.91132083  0.26310400  0.42378877  1
  O  O10  1  0.99889206  0.41622248  0.75380475  1
  O  O11  1  0.72956263  0.03696126  0.91658671  1
  O  O12  1  0.62700750  0.02006907  0.25145523  1
  O  O13  1  0.38266462  0.40286900  0.24843364  1
  O  O14  1  0.66653781  0.94389896  0.59067883  1
  O  O15  1  0.35218747  0.28183715  0.92118055  1
  O  O16  1  0.24728578  0.90801551  0.09191755  1
  O  O17  1  0.05333392  0.71654214  0.58102124  1
  F  F18  1  0.98813598  0.66674163  0.91948408  1
  F  F19  1  0.70230259  0.64794660  0.42277812  1
  F  F20  1  0.69072455  0.75155897  0.08783866  1
  F  F21  1  0.32795732  0.07592255  0.41949009  1
  F  F22  1  0.57362845  0.59121579  0.75760521  1
  F  F23  1  0.28381025  0.32997560  0.58442520  1
  F  F24  1  0.06591219  0.32086496  0.08736193  1
  F  F25  1  0.39600068  0.98894230  0.75496440  1
  F  F26  1  0.99311598  0.63612263  0.25625021  1
