# generated using pymatgen
data_Cr(PO4)2
_symmetry_space_group_name_H-M   'P 1'
_cell_length_a   4.77606624
_cell_length_b   8.94663977
_cell_length_c   14.34762844
_cell_angle_alpha   90.00000000
_cell_angle_beta   86.06162012
_cell_angle_gamma   90.00000000
_symmetry_Int_Tables_number   1
_chemical_formula_structural   Cr(PO4)2
_chemical_formula_sum   'Cr4 P8 O32'
_cell_volume   611.62272318
_cell_formula_units_Z   4
loop_
 _symmetry_equiv_pos_site_id
 _symmetry_equiv_pos_as_xyz
  1  'x, y, z'
loop_
 _atom_site_type_symbol
 _atom_site_label
 _atom_site_symmetry_multiplicity
 _atom_site_fract_x
 _atom_site_fract_y
 _atom_site_fract_z
 _atom_site_occupancy
  Cr  Cr0  1  0.36175059  0.93286075  0.84424951  1
  Cr  Cr1  1  0.63824941  0.06713925  0.15575049  1
  Cr  Cr2  1  0.63824941  0.43286075  0.65575049  1
  Cr  Cr3  1  0.36175059  0.56713925  0.34424951  1
  P  P4  1  0.15129336  0.60011496  0.76526570  1
  P  P5  1  0.84870664  0.10011496  0.73473430  1
  P  P6  1  0.86601487  0.77822278  0.42780547  1
  P  P7  1  0.84870664  0.39988504  0.23473430  1
  P  P8  1  0.13398513  0.27822278  0.07219453  1
  P  P9  1  0.86601487  0.72177722  0.92780547  1
  P  P10  1  0.15129336  0.89988504  0.26526570  1
  P  P11  1  0.13398513  0.22177722  0.57219453  1
  O  O12  1  0.73865870  0.66600420  0.02108273  1
  O  O13  1  0.63510802  0.78174543  0.86722938  1
  O  O14  1  0.04796038  0.45469245  0.30641611  1
  O  O15  1  0.95203962  0.95469245  0.19358389  1
  O  O16  1  0.22631989  0.73569007  0.25061016  1
  O  O17  1  0.22631989  0.76430993  0.75061016  1
  O  O18  1  0.04796038  0.04530755  0.80641611  1
  O  O19  1  0.52582646  0.55335099  0.58588319  1
  O  O20  1  0.36489198  0.28174543  0.63277062  1
  O  O21  1  0.10266268  0.83603001  0.93721787  1
  O  O22  1  0.99812726  0.58118821  0.86861924  1
  O  O23  1  0.36489198  0.21825457  0.13277062  1
  O  O24  1  0.00187274  0.41881179  0.13138076  1
  O  O25  1  0.89733732  0.33603001  0.56278213  1
  O  O26  1  0.73865870  0.83399580  0.52108273  1
  O  O27  1  0.00187274  0.08118821  0.63138076  1
  O  O28  1  0.10266268  0.66396999  0.43721787  1
  O  O29  1  0.41198034  0.00273173  0.26559251  1
  O  O30  1  0.58801966  0.50273173  0.23440749  1
  O  O31  1  0.58801966  0.99726827  0.73440749  1
  O  O32  1  0.95203962  0.54530755  0.69358389  1
  O  O33  1  0.77368011  0.26430993  0.74938984  1
  O  O34  1  0.26134130  0.16600420  0.47891727  1
  O  O35  1  0.63510802  0.71825457  0.36722938  1
  O  O36  1  0.52582646  0.94664901  0.08588319  1
  O  O37  1  0.26134130  0.33399580  0.97891727  1
  O  O38  1  0.99812726  0.91881179  0.36861924  1
  O  O39  1  0.89733732  0.16396999  0.06278213  1
  O  O40  1  0.77368011  0.23569007  0.24938984  1
  O  O41  1  0.47417354  0.05335099  0.91411681  1
  O  O42  1  0.47417354  0.44664901  0.41411681  1
  O  O43  1  0.41198034  0.49726827  0.76559251  1
