# generated using pymatgen
data_LiFe3(OF3)2
_symmetry_space_group_name_H-M   'P 1'
_cell_length_a   8.58545112
_cell_length_b   9.62995429
_cell_length_c   3.85036354
_cell_angle_alpha   90.00013723
_cell_angle_beta   89.99999624
_cell_angle_gamma   89.96177643
_symmetry_Int_Tables_number   1
_chemical_formula_structural   LiFe3(OF3)2
_chemical_formula_sum   'Li2 Fe6 O4 F12'
_cell_volume   318.33836794
_cell_formula_units_Z   2
loop_
 _symmetry_equiv_pos_site_id
 _symmetry_equiv_pos_as_xyz
  1  'x, y, z'
loop_
 _atom_site_type_symbol
 _atom_site_label
 _atom_site_symmetry_multiplicity
 _atom_site_fract_x
 _atom_site_fract_y
 _atom_site_fract_z
 _atom_site_occupancy
  Li  Li0  1  0.26523818  0.91766886  0.75000043  1
  Li  Li1  1  0.76545137  0.08237786  0.25000001  1
  Fe  Fe2  1  0.05784149  0.26163496  0.74999742  1
  Fe  Fe3  1  0.23078222  0.44766093  0.24999798  1
  Fe  Fe4  1  0.43290465  0.24467956  0.75000184  1
  Fe  Fe5  1  0.55770523  0.73837688  0.25000085  1
  Fe  Fe6  1  0.73065155  0.55205614  0.75000072  1
  Fe  Fe7  1  0.93301813  0.75531574  0.24999906  1
  O  O8  1  0.08344793  0.29289474  0.24999686  1
  O  O9  1  0.26180822  0.39135394  0.74999816  1
  O  O10  1  0.58351016  0.70704193  0.75000231  1
  O  O11  1  0.76176252  0.60860236  0.25000186  1
  F  F12  1  0.08395733  0.89541515  0.25000287  1
  F  F13  1  0.09837483  0.60993568  0.25000028  1
  F  F14  1  0.25145786  0.11497455  0.74999943  1
  F  F15  1  0.41116409  0.57215994  0.24999873  1
  F  F16  1  0.42712273  0.26472477  0.25000132  1
  F  F17  1  0.39568059  0.87439948  0.25000277  1
  F  F18  1  0.58405033  0.10461828  0.74999753  1
  F  F19  1  0.59819170  0.38989708  0.75000270  1
  F  F20  1  0.75143664  0.88509731  0.25000050  1
  F  F21  1  0.91132644  0.42780423  0.74999968  1
  F  F22  1  0.92721810  0.73541274  0.74999767  1
  F  F23  1  0.89589770  0.12589690  0.74999903  1
