# generated using pymatgen
data_Na7NbO6
_symmetry_space_group_name_H-M   'P 1'
_cell_length_a   6.44242241
_cell_length_b   6.47759437
_cell_length_c   15.71553315
_cell_angle_alpha   89.92549698
_cell_angle_beta   144.49273878
_cell_angle_gamma   120.27551182
_symmetry_Int_Tables_number   1
_chemical_formula_structural   Na7NbO6
_chemical_formula_sum   'Na7 Nb1 O6'
_cell_volume   190.33293223
_cell_formula_units_Z   1
loop_
 _symmetry_equiv_pos_site_id
 _symmetry_equiv_pos_as_xyz
  1  'x, y, z'
loop_
 _atom_site_type_symbol
 _atom_site_label
 _atom_site_symmetry_multiplicity
 _atom_site_fract_x
 _atom_site_fract_y
 _atom_site_fract_z
 _atom_site_occupancy
  Na  Na0  1  0.17826978  0.79482858  0.50016005  1
  Na  Na1  1  0.77810511  0.24318027  0.48611083  1
  Na  Na2  1  0.18226111  0.47569025  0.95675580  1
  Na  Na3  1  0.06236852  0.29808400  0.24825244  1
  Na  Na4  1  0.00643615  0.00468066  0.65704919  1
  Na  Na5  1  0.80579525  0.59310126  0.70800073  1
  Na  Na6  1  0.02134084  0.61787262  0.11522403  1
  Nb  Nb7  1  0.00665226  0.00456505  0.00344303  1
  O  O8  1  0.25756997  0.79238810  0.67888016  1
  O  O9  1  0.79370578  0.27046642  0.33876129  1
  O  O10  1  0.22982818  0.48293527  0.81751472  1
  O  O11  1  0.99462287  0.26050070  0.07177148  1
  O  O12  1  0.89282847  0.68075565  0.89060147  1
  O  O13  1  0.86539571  0.53975417  0.21491179  1
