# generated using pymatgen
data_Tm5Ti5O17
_symmetry_space_group_name_H-M   'P 1'
_cell_length_a   3.80225434
_cell_length_b   5.42297034
_cell_length_c   31.87211774
_cell_angle_alpha   90.00000000
_cell_angle_beta   89.99770243
_cell_angle_gamma   90.00000000
_symmetry_Int_Tables_number   1
_chemical_formula_structural   Tm5Ti5O17
_chemical_formula_sum   'Tm10 Ti10 O34'
_cell_volume   657.18753009
_cell_formula_units_Z   2
loop_
 _symmetry_equiv_pos_site_id
 _symmetry_equiv_pos_as_xyz
  1  'x, y, z'
loop_
 _atom_site_type_symbol
 _atom_site_label
 _atom_site_symmetry_multiplicity
 _atom_site_fract_x
 _atom_site_fract_y
 _atom_site_fract_z
 _atom_site_occupancy
  Tm  Tm0  1  0.01516330  0.18215415  0.01918487  1
  Tm  Tm1  1  0.01464563  0.74288485  0.69786187  1
  Tm  Tm2  1  0.01535343  0.26976483  0.79297163  1
  Tm  Tm3  1  0.01503947  0.32061597  0.56827436  1
  Tm  Tm4  1  0.01578278  0.79392129  0.89133769  1
  Tm  Tm5  1  0.51464563  0.25711515  0.19786187  1
  Tm  Tm6  1  0.51516330  0.81784585  0.51918487  1
  Tm  Tm7  1  0.51535343  0.73023517  0.29297163  1
  Tm  Tm8  1  0.51503947  0.67938403  0.06827436  1
  Tm  Tm9  1  0.51578278  0.20607871  0.39133769  1
  Ti  Ti10  1  0.01431739  0.75231798  0.20625918  1
  Ti  Ti11  1  0.01525059  0.25785891  0.29712087  1
  Ti  Ti12  1  0.01590641  0.76055032  0.38176080  1
  Ti  Ti13  1  0.01584884  0.28428408  0.46837100  1
  Ti  Ti14  1  0.51470528  0.77288141  0.61934078  1
  Ti  Ti15  1  0.51431739  0.24768202  0.70625918  1
  Ti  Ti16  1  0.51525059  0.74214109  0.79712087  1
  Ti  Ti17  1  0.51590641  0.23944968  0.88176080  1
  Ti  Ti18  1  0.51584884  0.71571592  0.96837100  1
  Ti  Ti19  1  0.01470528  0.22711859  0.11934078  1
  O  O20  1  0.01466864  0.18629860  0.71801123  1
  O  O21  1  0.01499390  0.68859816  0.79790246  1
  O  O22  1  0.01581184  0.19789861  0.87045289  1
  O  O23  1  0.01503685  0.45769117  0.07030737  1
  O  O24  1  0.01487004  0.96107114  0.08105598  1
  O  O25  1  0.01582647  0.74648146  0.96296921  1
  O  O26  1  0.01447800  0.54226708  0.16260366  1
  O  O27  1  0.01443888  0.07092418  0.17626338  1
  O  O28  1  0.01486650  0.95916315  0.26872355  1
  O  O29  1  0.01416689  0.45172795  0.24188996  1
  O  O30  1  0.51566197  0.87883025  0.85167077  1
  O  O31  1  0.51537413  0.39041798  0.82495459  1
  O  O32  1  0.51532653  0.44755443  0.00830665  1
  O  O33  1  0.51519044  0.94813143  0.01756573  1
  O  O34  1  0.51584577  0.01320005  0.92741086  1
  O  O35  1  0.51595212  0.53267202  0.91221827  1
  O  O36  1  0.51442991  0.27682316  0.12625837  1
  O  O37  1  0.51466864  0.81370140  0.21801123  1
  O  O38  1  0.51499390  0.31140184  0.29790246  1
  O  O39  1  0.51581184  0.80210139  0.37045289  1
  O  O40  1  0.51582647  0.25351854  0.46296921  1
  O  O41  1  0.51503685  0.54230883  0.57030737  1
  O  O42  1  0.51487004  0.03892886  0.58105598  1
  O  O43  1  0.51447800  0.45773292  0.66260366  1
  O  O44  1  0.51443888  0.92907582  0.67626338  1
  O  O45  1  0.51416689  0.54827205  0.74188996  1
  O  O46  1  0.51486650  0.04083685  0.76872355  1
  O  O47  1  0.01566197  0.12116975  0.35167077  1
  O  O48  1  0.01537413  0.60958202  0.32495459  1
  O  O49  1  0.01584577  0.98679995  0.42741086  1
  O  O50  1  0.01595212  0.46732798  0.41221827  1
  O  O51  1  0.01532653  0.55244557  0.50830665  1
  O  O52  1  0.01519044  0.05186857  0.51756573  1
  O  O53  1  0.01442991  0.72317684  0.62625837  1
