# generated using pymatgen
data_ZnH8(CO2)4
_symmetry_space_group_name_H-M   'P 1'
_cell_length_a   8.10423063
_cell_length_b   8.10423063
_cell_length_c   6.82767897
_cell_angle_alpha   84.79841268
_cell_angle_beta   95.20158732
_cell_angle_gamma   68.09932440
_symmetry_Int_Tables_number   1
_chemical_formula_structural   ZnH8(CO2)4
_chemical_formula_sum   'Zn2 H16 C8 O16'
_cell_volume   410.57915182
_cell_formula_units_Z   2
loop_
 _symmetry_equiv_pos_site_id
 _symmetry_equiv_pos_as_xyz
  1  'x, y, z'
loop_
 _atom_site_type_symbol
 _atom_site_label
 _atom_site_symmetry_multiplicity
 _atom_site_fract_x
 _atom_site_fract_y
 _atom_site_fract_z
 _atom_site_occupancy
  Zn  Zn0  1  0.50000000  0.00000000  0.50000000  1
  Zn  Zn1  1  0.00000000  0.50000000  0.00000000  1
  H  H2  1  0.86009925  0.44439913  0.62798442  1
  H  H3  1  0.44439913  0.86009925  0.87201558  1
  H  H4  1  0.13990075  0.55560087  0.37201558  1
  H  H5  1  0.55560087  0.13990075  0.12798442  1
  H  H6  1  0.84147277  0.64985603  0.61955334  1
  H  H7  1  0.64985603  0.84147277  0.88044666  1
  H  H8  1  0.15852723  0.35014397  0.38044666  1
  H  H9  1  0.35014397  0.15852723  0.11955334  1
  H  H10  1  0.58958726  0.28333886  0.54752547  1
  H  H11  1  0.28333886  0.58958726  0.95247453  1
  H  H12  1  0.41041274  0.71666114  0.45247453  1
  H  H13  1  0.71666114  0.41041274  0.04752547  1
  H  H14  1  0.23575338  0.51682005  0.75865872  1
  H  H15  1  0.51682005  0.23575338  0.74134128  1
  H  H16  1  0.76424662  0.48317995  0.24134128  1
  H  H17  1  0.48317995  0.76424662  0.25865872  1
  C  C18  1  0.10113527  0.04916389  0.49554984  1
  C  C19  1  0.04916389  0.10113527  0.00445016  1
  C  C20  1  0.89886473  0.95083611  0.50445016  1
  C  C21  1  0.95083611  0.89886473  0.99554984  1
  C  C22  1  0.90600662  0.13081250  0.49745852  1
  C  C23  1  0.13081250  0.90600662  0.00254148  1
  C  C24  1  0.09399338  0.86918750  0.50254148  1
  C  C25  1  0.86918750  0.09399338  0.99745852  1
  O  O26  1  0.53020503  0.89370145  0.79994016  1
  O  O27  1  0.89370145  0.53020503  0.70005984  1
  O  O28  1  0.46979497  0.10629855  0.20005984  1
  O  O29  1  0.10629855  0.46979497  0.29994016  1
  O  O30  1  0.49254731  0.24904492  0.59615840  1
  O  O31  1  0.24904492  0.49254731  0.90384160  1
  O  O32  1  0.50745269  0.75095508  0.40384160  1
  O  O33  1  0.75095508  0.50745269  0.09615840  1
  O  O34  1  0.21945277  0.11565773  0.48940802  1
  O  O35  1  0.11565773  0.21945277  0.01059198  1
  O  O36  1  0.78054723  0.88434227  0.51059198  1
  O  O37  1  0.88434227  0.78054723  0.98940802  1
  O  O38  1  0.79404703  0.28963577  0.49606861  1
  O  O39  1  0.28963577  0.79404703  0.00393139  1
  O  O40  1  0.20595297  0.71036423  0.50393139  1
  O  O41  1  0.71036423  0.20595297  0.99606861  1
