# generated using pymatgen
data_Fe6O7F5
_symmetry_space_group_name_H-M   'P 1'
_cell_length_a   4.72740008
_cell_length_b   7.74244178
_cell_length_c   5.60896114
_cell_angle_alpha   94.23121985
_cell_angle_beta   90.79788093
_cell_angle_gamma   89.39582586
_symmetry_Int_Tables_number   1
_chemical_formula_structural   Fe6O7F5
_chemical_formula_sum   'Fe6 O7 F5'
_cell_volume   204.70833484
_cell_formula_units_Z   1
loop_
 _symmetry_equiv_pos_site_id
 _symmetry_equiv_pos_as_xyz
  1  'x, y, z'
loop_
 _atom_site_type_symbol
 _atom_site_label
 _atom_site_symmetry_multiplicity
 _atom_site_fract_x
 _atom_site_fract_y
 _atom_site_fract_z
 _atom_site_occupancy
  Fe  Fe0  1  0.47883650  0.66683664  0.15172800  1
  Fe  Fe1  1  0.49472255  0.99820929  0.50057800  1
  Fe  Fe2  1  0.54308293  0.34079493  0.83775189  1
  Fe  Fe3  1  0.02835360  0.66320509  0.67561777  1
  Fe  Fe4  1  0.94179691  0.32421841  0.34338321  1
  Fe  Fe5  1  0.00571163  0.00438144  0.99626076  1
  O  O6  1  0.81783558  0.44443989  0.63439770  1
  O  O7  1  0.79694111  0.09368710  0.29051322  1
  O  O8  1  0.69771428  0.10277530  0.78783674  1
  O  O9  1  0.68932907  0.44334669  0.13930329  1
  O  O10  1  0.31392535  0.56133312  0.86316351  1
  O  O11  1  0.30158319  0.89522715  0.20792136  1
  O  O12  1  0.19561151  0.89528916  0.70566033  1
  F  F13  1  0.80223818  0.76704244  0.96380219  1
  F  F14  1  0.70203149  0.76081663  0.46298612  1
  F  F15  1  0.29936234  0.23847859  0.53239028  1
  F  F16  1  0.19579146  0.23882259  0.04167215  1
  F  F17  1  0.19513328  0.56109553  0.36503149  1
