# generated using pymatgen
data_Fe6O7F5
_symmetry_space_group_name_H-M   'P 1'
_cell_length_a   4.69450738
_cell_length_b   7.74748068
_cell_length_c   5.63354235
_cell_angle_alpha   94.13525966
_cell_angle_beta   88.87379283
_cell_angle_gamma   90.43484450
_symmetry_Int_Tables_number   1
_chemical_formula_structural   Fe6O7F5
_chemical_formula_sum   'Fe6 O7 F5'
_cell_volume   204.31852842
_cell_formula_units_Z   1
loop_
 _symmetry_equiv_pos_site_id
 _symmetry_equiv_pos_as_xyz
  1  'x, y, z'
loop_
 _atom_site_type_symbol
 _atom_site_label
 _atom_site_symmetry_multiplicity
 _atom_site_fract_x
 _atom_site_fract_y
 _atom_site_fract_z
 _atom_site_occupancy
  Fe  Fe0  1  0.52350880  0.66460109  0.15999802  1
  Fe  Fe1  1  0.46060315  0.01445101  0.47928579  1
  Fe  Fe2  1  0.52607151  0.33674024  0.82371548  1
  Fe  Fe3  1  0.99381901  0.67604476  0.67376634  1
  Fe  Fe4  1  0.96623386  0.32288741  0.34939550  1
  Fe  Fe5  1  0.01564331  0.98290936  0.01385383  1
  O  O6  1  0.80752689  0.44757283  0.63110819  1
  O  O7  1  0.80548147  0.76536711  0.96226608  1
  O  O8  1  0.80353936  0.09320151  0.29574888  1
  O  O9  1  0.69159563  0.43623322  0.12932541  1
  O  O10  1  0.30546994  0.24072188  0.54014965  1
  O  O11  1  0.31204850  0.88599489  0.20139289  1
  O  O12  1  0.19284262  0.89938106  0.70044775  1
  F  F13  1  0.70243629  0.10084596  0.79616820  1
  F  F14  1  0.69245265  0.77010045  0.46634359  1
  F  F15  1  0.29862510  0.56328409  0.87099973  1
  F  F16  1  0.20211908  0.23098785  0.03749011  1
  F  F17  1  0.19998283  0.56867627  0.36854555  1
