# generated using pymatgen
data_LiCr2(PO4)3
_symmetry_space_group_name_H-M   'P 1'
_cell_length_a   6.07359254
_cell_length_b   9.56740639
_cell_length_c   8.10237386
_cell_angle_alpha   73.79548195
_cell_angle_beta   90.00000000
_cell_angle_gamma   71.49359855
_symmetry_Int_Tables_number   1
_chemical_formula_structural   LiCr2(PO4)3
_chemical_formula_sum   'Li2 Cr4 P6 O24'
_cell_volume   426.69952173
_cell_formula_units_Z   2
loop_
 _symmetry_equiv_pos_site_id
 _symmetry_equiv_pos_as_xyz
  1  'x, y, z'
loop_
 _atom_site_type_symbol
 _atom_site_label
 _atom_site_symmetry_multiplicity
 _atom_site_fract_x
 _atom_site_fract_y
 _atom_site_fract_z
 _atom_site_occupancy
  Li  Li0  1  0.58380625  0.00000000  0.75000000  1
  Li  Li1  1  0.41619375  0.00000000  0.25000000  1
  Cr  Cr2  1  0.95976549  0.73351648  0.59224546  1
  Cr  Cr3  1  0.30671803  0.73351648  0.09224546  1
  Cr  Cr4  1  0.69328197  0.26648352  0.90775454  1
  Cr  Cr5  1  0.04023451  0.26648352  0.40775454  1
  P  P6  1  0.49437727  0.64086030  0.72520777  1
  P  P7  1  0.86476243  0.64086030  0.22520777  1
  P  P8  1  0.13523757  0.35913970  0.77479223  1
  P  P9  1  0.50562273  0.35913970  0.27479223  1
  P  P10  1  0.04632552  0.00000000  0.75000000  1
  P  P11  1  0.95367448  0.00000000  0.25000000  1
  O  O12  1  0.23743752  0.93384871  0.90395971  1
  O  O13  1  0.82871377  0.93384871  0.40395971  1
  O  O14  1  0.94281269  0.87464626  0.73211542  1
  O  O15  1  0.18254104  0.87464626  0.23211542  1
  O  O16  1  0.64894248  0.74458257  0.66678458  1
  O  O17  1  0.28786108  0.71542740  0.58164447  1
  O  O18  1  0.41925672  0.64491834  0.90686117  1
  O  O19  1  0.60647495  0.74458257  0.16678458  1
  O  O20  1  0.99671153  0.71542740  0.08164447  1
  O  O21  1  0.08651114  0.52866771  0.76452018  1
  O  O22  1  0.93582494  0.64491834  0.40686117  1
  O  O23  1  0.38482015  0.52866771  0.26452018  1
  O  O24  1  0.61517985  0.47133229  0.73547982  1
  O  O25  1  0.06417506  0.35508166  0.59313883  1
  O  O26  1  0.91348886  0.47133229  0.23547982  1
  O  O27  1  0.00328847  0.28457260  0.91835553  1
  O  O28  1  0.39352505  0.25541743  0.83321542  1
  O  O29  1  0.58074328  0.35508166  0.09313883  1
  O  O30  1  0.71213892  0.28457260  0.41835553  1
  O  O31  1  0.35105752  0.25541743  0.33321542  1
  O  O32  1  0.81745896  0.12535374  0.76788458  1
  O  O33  1  0.05718731  0.12535374  0.26788458  1
  O  O34  1  0.17128623  0.06615129  0.59604029  1
  O  O35  1  0.76256248  0.06615129  0.09604029  1
