# generated using pymatgen
data_Li3Cu3(PO4)2
_symmetry_space_group_name_H-M   'P 1'
_cell_length_a   6.21412443
_cell_length_b   5.44904929
_cell_length_c   10.18835666
_cell_angle_alpha   90.21705959
_cell_angle_beta   89.87409881
_cell_angle_gamma   89.44938995
_symmetry_Int_Tables_number   1
_chemical_formula_structural   Li3Cu3(PO4)2
_chemical_formula_sum   'Li6 Cu6 P4 O16'
_cell_volume   344.96939502
_cell_formula_units_Z   2
loop_
 _symmetry_equiv_pos_site_id
 _symmetry_equiv_pos_as_xyz
  1  'x, y, z'
loop_
 _atom_site_type_symbol
 _atom_site_label
 _atom_site_symmetry_multiplicity
 _atom_site_fract_x
 _atom_site_fract_y
 _atom_site_fract_z
 _atom_site_occupancy
  Li  Li0  1  0.99835237  0.15516992  0.74599525  1
  Li  Li1  1  -0.00009373  0.15324651  0.24833394  1
  Li  Li2  1  0.24561489  0.32831069  0.49796363  1
  Li  Li3  1  0.24899217  0.32852352  0.99648694  1
  Li  Li4  1  0.25448602  0.67329308  0.74520990  1
  Li  Li5  1  0.50109760  0.84717337  0.49617817  1
  Cu  Cu6  1  0.25504801  0.65666427  0.25149304  1
  Cu  Cu7  1  0.49763563  0.81679005  0.99579758  1
  Cu  Cu8  1  0.73622973  0.66538238  0.74464775  1
  Cu  Cu9  1  0.74560890  0.65742390  0.24789917  1
  Cu  Cu10  1  0.75840759  0.33740420  0.49720766  1
  Cu  Cu11  1  0.75021374  0.33090647  0.99862443  1
  P  P12  1  0.00752530  0.83416151  0.99650182  1
  P  P13  1  0.00740200  0.83053006  0.50238008  1
  P  P14  1  0.49522961  0.17527449  0.25193759  1
  P  P15  1  0.49078755  0.17672645  0.74583413  1
  O  O16  1  0.00873046  0.83600475  0.65556887  1
  O  O17  1  0.01467434  0.09583285  0.44555091  1
  O  O18  1  0.00567579  0.84347976  0.14934313  1
  O  O19  1  0.01361353  0.09930136  0.94048272  1
  O  O20  1  0.20999482  0.68229510  0.45530089  1
  O  O21  1  0.20314311  0.68047414  0.94317290  1
  O  O22  1  0.29090724  0.30228429  0.19321882  1
  O  O23  1  0.29146822  0.32015402  0.69251464  1
  O  O24  1  0.48574358  0.18159732  0.89952151  1
  O  O25  1  0.48543411  0.90818266  0.69265892  1
  O  O26  1  0.48753476  0.17566767  0.40466821  1
  O  O27  1  0.49989384  0.90564661  0.20071256  1
  O  O28  1  0.70711219  0.29754017  0.70071595  1
  O  O29  1  0.70854058  0.29896224  0.20430322  1
  O  O30  1  0.79485923  0.70576260  0.45441270  1
  O  O31  1  0.80013580  0.69983258  0.94795497  1
