# generated using pymatgen
data_ErLuO3
_symmetry_space_group_name_H-M   'P 1'
_cell_length_a   5.84386639
_cell_length_b   8.22650539
_cell_length_c   5.58268792
_cell_angle_alpha   90.00000000
_cell_angle_beta   90.00000000
_cell_angle_gamma   90.00000000
_symmetry_Int_Tables_number   1
_chemical_formula_structural   ErLuO3
_chemical_formula_sum   'Er4 Lu4 O12'
_cell_volume   268.38547950
_cell_formula_units_Z   4
loop_
 _symmetry_equiv_pos_site_id
 _symmetry_equiv_pos_as_xyz
  1  'x, y, z'
loop_
 _atom_site_type_symbol
 _atom_site_label
 _atom_site_symmetry_multiplicity
 _atom_site_fract_x
 _atom_site_fract_y
 _atom_site_fract_z
 _atom_site_occupancy
  Er  Er0  1  0.05224796  0.25000000  0.98723775  1
  Er  Er1  1  0.44775204  0.75000000  0.48723775  1
  Er  Er2  1  0.55224796  0.25000000  0.51276225  1
  Er  Er3  1  0.94775204  0.75000000  0.01276225  1
  Lu  Lu4  1  0.00000000  0.00000000  0.50000000  1
  Lu  Lu5  1  0.00000000  0.50000000  0.50000000  1
  Lu  Lu6  1  0.50000000  0.00000000  0.00000000  1
  Lu  Lu7  1  0.50000000  0.50000000  0.00000000  1
  O  O8  1  0.07454933  0.75000000  0.64218719  1
  O  O9  1  0.18205618  0.57403463  0.17818145  1
  O  O10  1  0.18205618  0.92596537  0.17818145  1
  O  O11  1  0.31794382  0.42596537  0.67818145  1
  O  O12  1  0.31794382  0.07403463  0.67818145  1
  O  O13  1  0.42545067  0.25000000  0.14218719  1
  O  O14  1  0.57454933  0.75000000  0.85781281  1
  O  O15  1  0.68205618  0.57403463  0.32181855  1
  O  O16  1  0.68205618  0.92596537  0.32181855  1
  O  O17  1  0.81794382  0.07403463  0.82181855  1
  O  O18  1  0.81794382  0.42596537  0.82181855  1
  O  O19  1  0.92545067  0.25000000  0.35781281  1
