# generated using pymatgen
data_Li4Fe3(SiO4)3
_symmetry_space_group_name_H-M   'P 1'
_cell_length_a   4.35719967
_cell_length_b   11.95148926
_cell_length_c   5.50084754
_cell_angle_alpha   83.48463443
_cell_angle_beta   66.58493789
_cell_angle_gamma   79.64832725
_symmetry_Int_Tables_number   1
_chemical_formula_structural   Li4Fe3(SiO4)3
_chemical_formula_sum   'Li4 Fe3 Si3 O12'
_cell_volume   258.30764869
_cell_formula_units_Z   1
loop_
 _symmetry_equiv_pos_site_id
 _symmetry_equiv_pos_as_xyz
  1  'x, y, z'
loop_
 _atom_site_type_symbol
 _atom_site_label
 _atom_site_symmetry_multiplicity
 _atom_site_fract_x
 _atom_site_fract_y
 _atom_site_fract_z
 _atom_site_occupancy
  Li  Li0  1  0.32565561  0.42471571  0.91441570  1
  Li  Li1  1  0.00808702  0.24911819  0.74511392  1
  Li  Li2  1  0.32794160  0.91787714  0.42487584  1
  Li  Li3  1  0.00282638  0.74456116  0.24620738  1
  Fe  Fe4  1  0.66722314  0.83317301  0.83544082  1
  Fe  Fe5  1  0.00241077  0.50391488  0.48864211  1
  Fe  Fe6  1  0.33143672  0.16351946  0.17207427  1
  Si  Si7  1  0.33020173  0.66908821  0.66409054  1
  Si  Si8  1  0.67581776  0.33058199  0.33352770  1
  Si  Si9  1  0.99495212  0.99877255  0.00345149  1
  O  O10  1  0.19383787  0.11086742  0.91720357  1
  O  O11  1  0.53619322  0.55957738  0.76124821  1
  O  O12  1  0.97386367  0.71885087  0.91674359  1
  O  O13  1  0.31751485  0.36374907  0.58657364  1
  O  O14  1  0.93691198  0.95479746  0.75207244  1
  O  O15  1  0.55726706  0.78098859  0.56551533  1
  O  O16  1  0.23444638  0.64436845  0.42156787  1
  O  O17  1  0.22662671  0.89140994  0.10760584  1
  O  O18  1  0.91019391  0.22159917  0.43260035  1
  O  O19  1  0.61847776  0.03158012  0.24165799  1
  O  O20  1  0.90115280  0.43313675  0.21747298  1
  O  O21  1  0.59362496  0.28708648  0.08523341  1
