# generated using pymatgen
data_Li10Fe3Co2Ni3O16
_symmetry_space_group_name_H-M   'P 1'
_cell_length_a   5.92402563
_cell_length_b   5.89740660
_cell_length_c   9.66737482
_cell_angle_alpha   90.05388951
_cell_angle_beta   89.74908334
_cell_angle_gamma   59.93811109
_symmetry_Int_Tables_number   1
_chemical_formula_structural   Li10Fe3Co2Ni3O16
_chemical_formula_sum   'Li10 Fe3 Co2 Ni3 O16'
_cell_volume   292.30685327
_cell_formula_units_Z   1
loop_
 _symmetry_equiv_pos_site_id
 _symmetry_equiv_pos_as_xyz
  1  'x, y, z'
loop_
 _atom_site_type_symbol
 _atom_site_label
 _atom_site_symmetry_multiplicity
 _atom_site_fract_x
 _atom_site_fract_y
 _atom_site_fract_z
 _atom_site_occupancy
  Li  Li0  1  0.19527713  0.61356034  0.44890870  1
  Li  Li1  1  0.20758139  0.19532121  0.44676327  1
  Li  Li2  1  0.35621849  0.32869255  0.21728354  1
  Li  Li3  1  0.62448944  0.18448697  0.44918880  1
  Li  Li4  1  0.80882404  0.38162909  0.94171663  1
  Li  Li5  1  0.41449981  0.79155999  0.94866660  1
  Li  Li6  1  0.68113682  0.67577097  0.71708052  1
  Li  Li7  1  0.81373640  0.80711603  0.95056035  1
  Li  Li8  1  0.02284982  0.99338513  0.01166801  1
  Li  Li9  1  0.01272724  0.00449243  0.51940736  1
  Fe  Fe10  1  0.35631953  0.82705924  0.21704836  1
  Fe  Fe11  1  0.84822370  0.33620315  0.21477164  1
  Fe  Fe12  1  0.18458826  0.17445866  0.71708272  1
  Co  Co13  1  0.68080638  0.66922243  0.47090766  1
  Co  Co14  1  0.35027709  0.33494740  0.96894169  1
  Ni  Ni15  1  0.18069154  0.66497805  0.71395157  1
  Ni  Ni16  1  0.67134190  0.17392990  0.71253199  1
  Ni  Ni17  1  0.84763531  0.82757692  0.21276254  1
  O  O18  1  0.01031961  0.00954147  0.81960094  1
  O  O19  1  0.01761964  0.00088508  0.32529370  1
  O  O20  1  0.04044356  0.48463870  0.84801088  1
  O  O21  1  0.18918471  0.16442675  0.09397369  1
  O  O22  1  0.49612050  0.02640220  0.84542747  1
  O  O23  1  0.34284455  0.33413597  0.59651300  1
  O  O24  1  0.19663086  0.65751903  0.08867270  1
  O  O25  1  0.49352038  0.48715506  0.84333597  1
  O  O26  1  0.35487382  0.84090165  0.58954694  1
  O  O27  1  0.68159097  0.17258696  0.08504259  1
  O  O28  1  0.52717444  0.50941773  0.34514751  1
  O  O29  1  0.52422063  0.97165591  0.34369745  1
  O  O30  1  0.68083565  0.65894586  0.09533535  1
  O  O31  1  0.84882102  0.34793036  0.59042032  1
  O  O32  1  0.98425578  0.50956176  0.34437866  1
  O  O33  1  0.84120461  0.83290103  0.58338186  1
