# generated using pymatgen
data_Li10Ti2Fe3Co3O16
_symmetry_space_group_name_H-M   'P 1'
_cell_length_a   5.97941851
_cell_length_b   5.98462863
_cell_length_c   9.89450244
_cell_angle_alpha   90.23836183
_cell_angle_beta   90.05328245
_cell_angle_gamma   119.44585557
_symmetry_Int_Tables_number   1
_chemical_formula_structural   Li10Ti2Fe3Co3O16
_chemical_formula_sum   'Li10 Ti2 Fe3 Co3 O16'
_cell_volume   308.32769913
_cell_formula_units_Z   1
loop_
 _symmetry_equiv_pos_site_id
 _symmetry_equiv_pos_as_xyz
  1  'x, y, z'
loop_
 _atom_site_type_symbol
 _atom_site_label
 _atom_site_symmetry_multiplicity
 _atom_site_fract_x
 _atom_site_fract_y
 _atom_site_fract_z
 _atom_site_occupancy
  Li  Li0  1  0.00316999  0.99838429  0.02726277  1
  Li  Li1  1  0.99891834  0.00453129  0.52675335  1
  Li  Li2  1  0.40072986  0.20140091  0.96257398  1
  Li  Li3  1  0.20321977  0.40193090  0.46198162  1
  Li  Li4  1  0.80375016  0.19067721  0.96354405  1
  Li  Li5  1  0.67366578  0.33370052  0.74510058  1
  Li  Li6  1  0.19539167  0.80946906  0.46024411  1
  Li  Li7  1  0.34093796  0.67506137  0.24420440  1
  Li  Li8  1  0.80061550  0.60693664  0.96276706  1
  Li  Li9  1  0.61010890  0.80541699  0.46171566  1
  Ti  Ti10  1  0.31471665  0.65087705  0.98306475  1
  Ti  Ti11  1  0.65435605  0.31946050  0.48278893  1
  Fe  Fe12  1  0.16466189  0.82980942  0.72724321  1
  Fe  Fe13  1  0.65606664  0.82135159  0.72984176  1
  Fe  Fe14  1  0.82408670  0.65684813  0.22957164  1
  Co  Co15  1  0.16731198  0.33639637  0.72535758  1
  Co  Co16  1  0.33805054  0.16899044  0.22570455  1
  Co  Co17  1  0.83181527  0.16664004  0.22649366  1
  O  O18  1  0.98960624  0.99662477  0.83461090  1
  O  O19  1  0.99843315  0.99195931  0.33472952  1
  O  O20  1  0.34529528  0.18500455  0.58625776  1
  O  O21  1  0.17986564  0.34300449  0.08965663  1
  O  O22  1  0.01730006  0.50235756  0.86278222  1
  O  O23  1  0.51121596  0.02217090  0.35988896  1
  O  O24  1  0.49702492  0.51228039  0.85369059  1
  O  O25  1  0.33941317  0.67266575  0.60959865  1
  O  O26  1  0.51564293  0.50008791  0.35396857  1
  O  O27  1  0.67193459  0.33824560  0.10998220  1
  O  O28  1  0.81917872  0.17026574  0.59671193  1
  O  O29  1  0.16951040  0.81917479  0.09629983  1
  O  O30  1  0.49533691  0.97629007  0.85634833  1
  O  O31  1  0.97915801  0.49755119  0.35604785  1
  O  O32  1  0.81946241  0.66340754  0.59948352  1
  O  O33  1  0.66214294  0.81763874  0.09900685  1
