# generated using pymatgen
data_Fe10O11F9
_symmetry_space_group_name_H-M   'P 1'
_cell_length_a   4.78080113
_cell_length_b   4.78080113
_cell_length_c   15.25679634
_cell_angle_alpha   90.00000000
_cell_angle_beta   90.00000000
_cell_angle_gamma   96.12397226
_symmetry_Int_Tables_number   1
_chemical_formula_structural   Fe10O11F9
_chemical_formula_sum   'Fe10 O11 F9'
_cell_volume   346.72029250
_cell_formula_units_Z   1
loop_
 _symmetry_equiv_pos_site_id
 _symmetry_equiv_pos_as_xyz
  1  'x, y, z'
loop_
 _atom_site_type_symbol
 _atom_site_label
 _atom_site_symmetry_multiplicity
 _atom_site_fract_x
 _atom_site_fract_y
 _atom_site_fract_z
 _atom_site_occupancy
  Fe  Fe0  1  0.01025490  0.98974510  0.00553607  1
  Fe  Fe1  1  0.01025490  0.98974510  0.19446393  1
  Fe  Fe2  1  -0.00022802  0.00022802  0.39710490  1
  Fe  Fe3  1  0.00013232  -0.00013232  0.60000000  1
  Fe  Fe4  1  -0.00022802  0.00022802  0.80289510  1
  Fe  Fe5  1  0.46745569  0.53254431  0.10000000  1
  Fe  Fe6  1  0.50006286  0.49993714  0.49942827  1
  Fe  Fe7  1  0.50348110  0.49651890  0.29855240  1
  Fe  Fe8  1  0.50006286  0.49993714  0.70057173  1
  Fe  Fe9  1  0.50348110  0.49651890  0.90144760  1
  O  O10  1  0.18789805  0.81210195  0.10000000  1
  O  O11  1  0.30082787  0.30659759  -0.00146805  1
  O  O12  1  0.30082787  0.30659759  0.20146805  1
  O  O13  1  0.30344314  0.29980745  0.39925038  1
  O  O14  1  0.30052938  0.30077949  0.60000000  1
  O  O15  1  0.30344314  0.29980745  0.80074962  1
  O  O16  1  0.69340241  0.69917213  -0.00146805  1
  O  O17  1  0.69340241  0.69917213  0.20146805  1
  O  O18  1  0.70019255  0.69655686  0.39925038  1
  O  O19  1  0.69922051  0.69947062  0.60000000  1
  O  O20  1  0.70019255  0.69655686  0.80074962  1
  F  F21  1  0.19371229  0.80628771  0.30027992  1
  F  F22  1  0.19220016  0.80779984  0.49962291  1
  F  F23  1  0.19220016  0.80779984  0.70037709  1
  F  F24  1  0.19371229  0.80628771  0.89972008  1
  F  F25  1  0.80862386  0.19137614  0.10000000  1
  F  F26  1  0.80852810  0.19147190  0.49929420  1
  F  F27  1  0.81219324  0.18780676  0.29822208  1
  F  F28  1  0.81219324  0.18780676  0.90177792  1
  F  F29  1  0.80852810  0.19147190  0.70070580  1
