# generated using pymatgen
data_Li10Ti2Mn3Co3O16
_symmetry_space_group_name_H-M   'P 1'
_cell_length_a   6.03746009
_cell_length_b   6.09970366
_cell_length_c   9.95723304
_cell_angle_alpha   91.64337980
_cell_angle_beta   90.88491623
_cell_angle_gamma   58.41027491
_symmetry_Int_Tables_number   1
_chemical_formula_structural   Li10Ti2Mn3Co3O16
_chemical_formula_sum   'Li10 Ti2 Mn3 Co3 O16'
_cell_volume   312.22756749
_cell_formula_units_Z   1
loop_
 _symmetry_equiv_pos_site_id
 _symmetry_equiv_pos_as_xyz
  1  'x, y, z'
loop_
 _atom_site_type_symbol
 _atom_site_label
 _atom_site_symmetry_multiplicity
 _atom_site_fract_x
 _atom_site_fract_y
 _atom_site_fract_z
 _atom_site_occupancy
  Li  Li0  1  0.97793964  0.00106884  0.02848856  1
  Li  Li1  1  0.01959021  0.00319848  0.51664435  1
  Li  Li2  1  0.21761585  0.18405830  0.45847675  1
  Li  Li3  1  0.32645663  0.31755446  0.24127442  1
  Li  Li4  1  0.18184674  0.60310159  0.45496125  1
  Li  Li5  1  0.37829471  0.80927235  0.95553260  1
  Li  Li6  1  0.63170269  0.17397305  0.44471406  1
  Li  Li7  1  0.78548244  0.39630904  0.95870980  1
  Li  Li8  1  0.79378584  0.79241208  0.95978834  1
  Li  Li9  1  0.66051050  0.65974397  0.73330032  1
  Ti  Ti10  1  0.31105572  0.31914117  0.98317124  1
  Ti  Ti11  1  0.65824228  0.64185658  0.46596614  1
  Mn  Mn12  1  0.66289630  0.16036253  0.72186649  1
  Mn  Mn13  1  0.16131042  0.65746228  0.72370909  1
  Mn  Mn14  1  0.82802926  0.81678345  0.22132529  1
  Co  Co15  1  0.16785300  0.16646570  0.72027869  1
  Co  Co16  1  0.32703379  0.82422430  0.21998507  1
  Co  Co17  1  0.81981035  0.33519243  0.21923382  1
  O  O18  1  0.15767522  0.16962956  0.08541241  1
  O  O19  1  0.00605036  0.48119993  0.85198280  1
  O  O20  1  0.98839269  -0.00758750  0.82950738  1
  O  O21  1  0.47975026  0.01447116  0.85312046  1
  O  O22  1  0.14781331  0.65543036  0.08318975  1
  O  O23  1  0.34843312  0.33536922  0.60682629  1
  O  O24  1  0.99087255  0.00074540  0.32897104  1
  O  O25  1  0.48031060  0.48324991  0.83953929  1
  O  O26  1  0.36261909  0.84129980  0.58490867  1
  O  O27  1  0.62777581  0.18776111  0.08593980  1
  O  O28  1  0.49929461  0.50359473  0.35493578  1
  O  O29  1  0.51354344  0.96808982  0.35183620  1
  O  O30  1  0.83984271  0.35367128  0.58420935  1
  O  O31  1  0.64834824  0.66278420  0.10184452  1
  O  O32  1  0.98443935  0.49435967  0.35348838  1
  O  O33  1  0.85426725  0.84168776  0.59874758  1
