# generated using pymatgen
data_H6CSBrN3
_symmetry_space_group_name_H-M   'P 1'
_cell_length_a   12.34572143
_cell_length_b   7.83875140
_cell_length_c   12.08562693
_cell_angle_alpha   90.00000000
_cell_angle_beta   90.00000000
_cell_angle_gamma   90.00000000
_symmetry_Int_Tables_number   1
_chemical_formula_structural   H6CSBrN3
_chemical_formula_sum   'H48 C8 S8 Br8 N24'
_cell_volume   1169.58704339
_cell_formula_units_Z   8
loop_
 _symmetry_equiv_pos_site_id
 _symmetry_equiv_pos_as_xyz
  1  'x, y, z'
loop_
 _atom_site_type_symbol
 _atom_site_label
 _atom_site_symmetry_multiplicity
 _atom_site_fract_x
 _atom_site_fract_y
 _atom_site_fract_z
 _atom_site_occupancy
  H  H0  1  0.87752724  0.31658983  0.30573485  1
  H  H1  1  0.37752724  0.18341017  0.69426515  1
  H  H2  1  0.12247276  0.81658983  0.19426515  1
  H  H3  1  0.62247276  0.68341017  0.80573485  1
  H  H4  1  0.12247276  0.68341017  0.69426515  1
  H  H5  1  0.62247276  0.81658983  0.30573485  1
  H  H6  1  0.87752724  0.18341017  0.80573485  1
  H  H7  1  0.37752724  0.31658983  0.19426515  1
  H  H8  1  0.04851354  0.47368052  0.36124493  1
  H  H9  1  0.54851354  0.02631948  0.63875507  1
  H  H10  1  0.95148646  0.97368052  0.13875507  1
  H  H11  1  0.45148646  0.52631948  0.86124493  1
  H  H12  1  0.95148646  0.52631948  0.63875507  1
  H  H13  1  0.45148646  0.97368052  0.36124493  1
  H  H14  1  0.04851354  0.02631948  0.86124493  1
  H  H15  1  0.54851354  0.47368052  0.13875507  1
  H  H16  1  0.03130395  0.38032447  0.23495396  1
  H  H17  1  0.53130395  0.11967553  0.76504604  1
  H  H18  1  0.96869605  0.88032447  0.26504604  1
  H  H19  1  0.46869605  0.61967553  0.73495396  1
  H  H20  1  0.96869605  0.61967553  0.76504604  1
  H  H21  1  0.46869605  0.88032447  0.23495396  1
  H  H22  1  0.03130395  0.11967553  0.73495396  1
  H  H23  1  0.53130395  0.38032447  0.26504604  1
  H  H24  1  0.10689505  0.27716184  0.32960282  1
  H  H25  1  0.60689505  0.22283816  0.67039718  1
  H  H26  1  0.89310495  0.77716184  0.17039718  1
  H  H27  1  0.39310495  0.72283816  0.82960282  1
  H  H28  1  0.89310495  0.72283816  0.67039718  1
  H  H29  1  0.39310495  0.77716184  0.32960282  1
  H  H30  1  0.10689505  0.22283816  0.82960282  1
  H  H31  1  0.60689505  0.27716184  0.17039718  1
  H  H32  1  0.81384300  0.12865273  0.56260769  1
  H  H33  1  0.31384300  0.37134727  0.43739231  1
  H  H34  1  0.18615700  0.62865273  0.93739231  1
  H  H35  1  0.68615700  0.87134727  0.06260769  1
  H  H36  1  0.18615700  0.87134727  0.43739231  1
  H  H37  1  0.68615700  0.62865273  0.56260769  1
  H  H38  1  0.81384300  0.37134727  0.06260769  1
  H  H39  1  0.31384300  0.12865273  0.93739231  1
  H  H40  1  0.77706193  0.13855277  0.42167576  1
  H  H41  1  0.27706193  0.36144723  0.57832424  1
  H  H42  1  0.22293807  0.63855277  0.07832424  1
  H  H43  1  0.72293807  0.86144723  0.92167576  1
  H  H44  1  0.22293807  0.86144723  0.57832424  1
  H  H45  1  0.72293807  0.63855277  0.42167576  1
  H  H46  1  0.77706193  0.36144723  0.92167576  1
  H  H47  1  0.27706193  0.13855277  0.07832424  1
  C  C48  1  0.92740116  0.23289614  0.46131762  1
  C  C49  1  0.42740116  0.26710386  0.53868238  1
  C  C50  1  0.07259884  0.73289614  0.03868238  1
  C  C51  1  0.57259884  0.76710386  0.96131762  1
  C  C52  1  0.07259884  0.76710386  0.53868238  1
  C  C53  1  0.57259884  0.73289614  0.46131762  1
  C  C54  1  0.92740116  0.26710386  0.96131762  1
  C  C55  1  0.42740116  0.23289614  0.03868238  1
  S  S56  1  0.02712707  0.26282466  0.55527010  1
  S  S57  1  0.52712707  0.23717534  0.44472990  1
  S  S58  1  0.97287293  0.76282466  0.94472990  1
  S  S59  1  0.47287293  0.73717534  0.05527010  1
  S  S60  1  0.97287293  0.73717534  0.44472990  1
  S  S61  1  0.47287293  0.76282466  0.55527010  1
  S  S62  1  0.02712707  0.23717534  0.05527010  1
  S  S63  1  0.52712707  0.26282466  0.94472990  1
  Br  Br64  1  0.71849575  0.04995908  0.22477226  1
  Br  Br65  1  0.21849575  0.45004092  0.77522774  1
  Br  Br66  1  0.28150425  0.54995908  0.27522774  1
  Br  Br67  1  0.78150425  0.95004092  0.72477226  1
  Br  Br68  1  0.28150425  0.95004092  0.77522774  1
  Br  Br69  1  0.78150425  0.54995908  0.22477226  1
  Br  Br70  1  0.71849575  0.45004092  0.72477226  1
  Br  Br71  1  0.21849575  0.04995908  0.27522774  1
  N  N72  1  0.94300328  0.27019182  0.35091785  1
  N  N73  1  0.44300328  0.22980818  0.64908215  1
  N  N74  1  0.05699672  0.77019182  0.14908215  1
  N  N75  1  0.55699672  0.72980818  0.85091785  1
  N  N76  1  0.05699672  0.72980818  0.64908215  1
  N  N77  1  0.55699672  0.77019182  0.35091785  1
  N  N78  1  0.94300328  0.22980818  0.85091785  1
  N  N79  1  0.44300328  0.27019182  0.14908215  1
  N  N80  1  0.03883122  0.35750789  0.31977837  1
  N  N81  1  0.53883122  0.14249211  0.68022163  1
  N  N82  1  0.96116878  0.85750789  0.18022163  1
  N  N83  1  0.46116878  0.64249211  0.81977837  1
  N  N84  1  0.96116878  0.64249211  0.68022163  1
  N  N85  1  0.46116878  0.85750789  0.31977837  1
  N  N86  1  0.03883122  0.14249211  0.81977837  1
  N  N87  1  0.53883122  0.35750789  0.18022163  1
  N  N88  1  0.82923648  0.17188093  0.48394014  1
  N  N89  1  0.32923648  0.32811907  0.51605986  1
  N  N90  1  0.17076352  0.67188093  0.01605986  1
  N  N91  1  0.67076352  0.82811907  0.98394014  1
  N  N92  1  0.17076352  0.82811907  0.51605986  1
  N  N93  1  0.67076352  0.67188093  0.48394014  1
  N  N94  1  0.82923648  0.32811907  0.98394014  1
  N  N95  1  0.32923648  0.17188093  0.01605986  1
