# generated using pymatgen
data_Fe5(OF4)2
_symmetry_space_group_name_H-M   'P 1'
_cell_length_a   4.76895620
_cell_length_b   8.05529417
_cell_length_c   10.15071907
_cell_angle_alpha   108.68565332
_cell_angle_beta   90.00000000
_cell_angle_gamma   90.00000000
_symmetry_Int_Tables_number   1
_chemical_formula_structural   Fe5(OF4)2
_chemical_formula_sum   'Fe10 O4 F16'
_cell_volume   369.38966689
_cell_formula_units_Z   2
loop_
 _symmetry_equiv_pos_site_id
 _symmetry_equiv_pos_as_xyz
  1  'x, y, z'
loop_
 _atom_site_type_symbol
 _atom_site_label
 _atom_site_symmetry_multiplicity
 _atom_site_fract_x
 _atom_site_fract_y
 _atom_site_fract_z
 _atom_site_occupancy
  Fe  Fe0  1  0.52113051  0.30951195  0.91278361  1
  Fe  Fe1  1  0.47326827  0.11722193  0.29356546  1
  Fe  Fe2  1  0.50000000  0.90000000  0.70000000  1
  Fe  Fe3  1  0.52673173  0.68277807  0.10643454  1
  Fe  Fe4  1  0.47886949  0.49048805  0.48721639  1
  Fe  Fe5  1  0.02673173  0.61722193  0.79356546  1
  Fe  Fe6  1  0.97326827  0.18277807  0.60643454  1
  Fe  Fe7  1  0.97886949  0.80951195  0.41278361  1
  Fe  Fe8  1  0.00000000  0.40000000  0.20000000  1
  Fe  Fe9  1  0.02113051  0.99048805  0.98721639  1
  O  O10  1  0.79036880  0.96969308  0.59180783  1
  O  O11  1  0.70963120  0.46969308  0.09180783  1
  O  O12  1  0.29036880  0.33030692  0.30819217  1
  O  O13  1  0.20963120  0.83030692  0.80819117  1
  F  F14  1  0.80343862  0.75126068  0.97145464  1
  F  F15  1  0.80735885  0.56160802  0.38314338  1
  F  F16  1  0.80655706  0.37108954  0.77655597  1
  F  F17  1  0.80583260  0.15329562  0.17443753  1
  F  F18  1  0.69264115  0.06160802  0.88314338  1
  F  F19  1  0.69416740  0.65329562  0.67443753  1
  F  F20  1  0.69344294  0.87108954  0.27655597  1
  F  F21  1  0.69656138  0.25126068  0.47145464  1
  F  F22  1  0.30583260  0.14670438  0.72556247  1
  F  F23  1  0.30735885  0.73839198  0.51685662  1
  F  F24  1  0.30655706  0.92891046  0.12344403  1
  F  F25  1  0.30343862  0.54873932  0.92854536  1
  F  F26  1  0.19344294  0.42891046  0.62344403  1
  F  F27  1  0.19656138  0.04873932  0.42854536  1
  F  F28  1  0.19264115  0.23839198  0.01685662  1
  F  F29  1  0.19416740  0.64670438  0.22556247  1
