# generated using pymatgen
data_Li5NiO4
_symmetry_space_group_name_H-M   'P 1'
_cell_length_a   9.42174602
_cell_length_b   5.15795101
_cell_length_c   15.68748829
_cell_angle_alpha   90.00000000
_cell_angle_beta   90.00000000
_cell_angle_gamma   90.00000000
_symmetry_Int_Tables_number   1
_chemical_formula_structural   Li5NiO4
_chemical_formula_sum   'Li40 Ni8 O32'
_cell_volume   762.36336870
_cell_formula_units_Z   8
loop_
 _symmetry_equiv_pos_site_id
 _symmetry_equiv_pos_as_xyz
  1  'x, y, z'
loop_
 _atom_site_type_symbol
 _atom_site_label
 _atom_site_symmetry_multiplicity
 _atom_site_fract_x
 _atom_site_fract_y
 _atom_site_fract_z
 _atom_site_occupancy
  Li  Li0  1  0.06894811  0.08190314  0.43388367  1
  Li  Li1  1  0.06894811  0.41809686  0.93388367  1
  Li  Li2  1  0.07839853  0.90329300  0.25267046  1
  Li  Li3  1  0.07839853  0.59670700  0.75267046  1
  Li  Li4  1  0.17091102  0.90661337  0.00255890  1
  Li  Li5  1  0.17091102  0.59338663  0.50255890  1
  Li  Li6  1  0.17656707  0.40380537  0.32920278  1
  Li  Li7  1  0.17656707  0.09619463  0.82920278  1
  Li  Li8  1  0.19539469  0.57083352  0.14294355  1
  Li  Li9  1  0.19539469  0.92916648  0.64294355  1
  Li  Li10  1  0.30460531  0.07083352  0.14294355  1
  Li  Li11  1  0.30460531  0.42916648  0.64294355  1
  Li  Li12  1  0.32343293  0.59619463  0.82920278  1
  Li  Li13  1  0.32343293  0.90380537  0.32920278  1
  Li  Li14  1  0.32908898  0.40661337  0.00255890  1
  Li  Li15  1  0.32908898  0.09338663  0.50255890  1
  Li  Li16  1  0.42160147  0.40329300  0.25267046  1
  Li  Li17  1  0.42160147  0.09670700  0.75267046  1
  Li  Li18  1  0.43105189  0.91809686  0.93388367  1
  Li  Li19  1  0.43105189  0.58190314  0.43388367  1
  Li  Li20  1  0.56894811  0.08190314  0.06611633  1
  Li  Li21  1  0.56894811  0.41809686  0.56611633  1
  Li  Li22  1  0.57839853  0.90329300  0.24732954  1
  Li  Li23  1  0.57839853  0.59670700  0.74732954  1
  Li  Li24  1  0.67091102  0.59338663  0.99744110  1
  Li  Li25  1  0.67091102  0.90661337  0.49744110  1
  Li  Li26  1  0.67656707  0.40380537  0.17079722  1
  Li  Li27  1  0.67656707  0.09619463  0.67079722  1
  Li  Li28  1  0.69539469  0.57083352  0.35705645  1
  Li  Li29  1  0.69539469  0.92916648  0.85705645  1
  Li  Li30  1  0.80460531  0.07083352  0.35705645  1
  Li  Li31  1  0.80460531  0.42916648  0.85705645  1
  Li  Li32  1  0.82343293  0.59619463  0.67079722  1
  Li  Li33  1  0.82343293  0.90380537  0.17079722  1
  Li  Li34  1  0.82908898  0.09338663  0.99744110  1
  Li  Li35  1  0.82908898  0.40661337  0.49744110  1
  Li  Li36  1  0.92160147  0.09670700  0.74732954  1
  Li  Li37  1  0.92160147  0.40329300  0.24732954  1
  Li  Li38  1  0.93105189  0.91809686  0.56611633  1
  Li  Li39  1  0.93105189  0.58190314  0.06611633  1
  Ni  Ni40  1  0.03957149  0.17030163  0.12135534  1
  Ni  Ni41  1  0.03957149  0.32969837  0.62135534  1
  Ni  Ni42  1  0.46042851  0.67030163  0.12135534  1
  Ni  Ni43  1  0.46042851  0.82969837  0.62135534  1
  Ni  Ni44  1  0.53957149  0.17030163  0.37864466  1
  Ni  Ni45  1  0.53957149  0.32969837  0.87864466  1
  Ni  Ni46  1  0.96042851  0.67030163  0.37864466  1
  Ni  Ni47  1  0.96042851  0.82969837  0.87864466  1
  O  O48  1  0.04731620  0.81696467  0.12383536  1
  O  O49  1  0.04731620  0.68303533  0.62383536  1
  O  O50  1  0.13604517  0.27238460  0.21924829  1
  O  O51  1  0.13604517  0.22761540  0.71924829  1
  O  O52  1  0.14569525  0.30981341  0.03617135  1
  O  O53  1  0.14569525  0.19018659  0.53617135  1
  O  O54  1  0.14828415  0.72776974  0.87505782  1
  O  O55  1  0.14828415  0.77223026  0.37505782  1
  O  O56  1  0.35171585  0.22776974  0.87505782  1
  O  O57  1  0.35171585  0.27223026  0.37505782  1
  O  O58  1  0.35430475  0.80981341  0.03617135  1
  O  O59  1  0.35430475  0.69018659  0.53617135  1
  O  O60  1  0.36395483  0.77238460  0.21924829  1
  O  O61  1  0.36395483  0.72761540  0.71924829  1
  O  O62  1  0.45268380  0.31696467  0.12383536  1
  O  O63  1  0.45268380  0.18303533  0.62383536  1
  O  O64  1  0.54731620  0.68303533  0.87616464  1
  O  O65  1  0.54731620  0.81696467  0.37616464  1
  O  O66  1  0.63604517  0.27238460  0.28075171  1
  O  O67  1  0.63604517  0.22761540  0.78075171  1
  O  O68  1  0.64569525  0.19018659  0.96382865  1
  O  O69  1  0.64569525  0.30981341  0.46382865  1
  O  O70  1  0.64828415  0.77223026  0.12494218  1
  O  O71  1  0.64828415  0.72776974  0.62494218  1
  O  O72  1  0.85171585  0.22776974  0.62494218  1
  O  O73  1  0.85171585  0.27223026  0.12494218  1
  O  O74  1  0.85430475  0.80981341  0.46382865  1
  O  O75  1  0.85430475  0.69018659  0.96382865  1
  O  O76  1  0.86395483  0.72761540  0.78075171  1
  O  O77  1  0.86395483  0.77238460  0.28075171  1
  O  O78  1  0.95268380  0.31696467  0.37616464  1
  O  O79  1  0.95268380  0.18303533  0.87616464  1
