# generated using pymatgen
data_LiVPH2O5
_symmetry_space_group_name_H-M   'P 1'
_cell_length_a   10.61094586
_cell_length_b   16.47620545
_cell_length_c   5.21707264
_cell_angle_alpha   90.00000000
_cell_angle_beta   90.00000000
_cell_angle_gamma   90.00000000
_symmetry_Int_Tables_number   1
_chemical_formula_structural   LiVPH2O5
_chemical_formula_sum   'Li8 V8 P8 H16 O40'
_cell_volume   912.09102247
_cell_formula_units_Z   8
loop_
 _symmetry_equiv_pos_site_id
 _symmetry_equiv_pos_as_xyz
  1  'x, y, z'
loop_
 _atom_site_type_symbol
 _atom_site_label
 _atom_site_symmetry_multiplicity
 _atom_site_fract_x
 _atom_site_fract_y
 _atom_site_fract_z
 _atom_site_occupancy
  Li  Li0  1  0.16732670  0.50088318  0.47356272  1
  Li  Li1  1  0.16732670  0.00088318  0.52643728  1
  Li  Li2  1  0.40644972  0.25179036  0.91678896  1
  Li  Li3  1  0.40644972  0.75179036  0.08321104  1
  Li  Li4  1  0.66732670  0.99911682  0.47356272  1
  Li  Li5  1  0.66732670  0.49911682  0.52643728  1
  Li  Li6  1  0.90644972  0.74820964  0.08321104  1
  Li  Li7  1  0.90644972  0.24820964  0.91678896  1
  V  V8  1  0.14950381  0.68243900  0.40872058  1
  V  V9  1  0.14950381  0.18243900  0.59127942  1
  V  V10  1  0.42144592  0.93359323  0.16075196  1
  V  V11  1  0.42144592  0.43359323  0.83924804  1
  V  V12  1  0.64950381  0.81756100  0.40872058  1
  V  V13  1  0.64950381  0.31756100  0.59127942  1
  V  V14  1  0.92144592  0.56640677  0.16075196  1
  V  V15  1  0.92144592  0.06640677  0.83924804  1
  P  P16  1  0.23677752  0.09573989  0.02303842  1
  P  P17  1  0.23677752  0.59573989  0.97696158  1
  P  P18  1  0.33497308  0.34404200  0.40559407  1
  P  P19  1  0.33497308  0.84404200  0.59440593  1
  P  P20  1  0.73677752  0.40426011  0.02303842  1
  P  P21  1  0.73677752  0.90426011  0.97696158  1
  P  P22  1  0.83497308  0.65595800  0.59440593  1
  P  P23  1  0.83497308  0.15595800  0.40559407  1
  H  H24  1  0.00237816  0.37048159  0.07930940  1
  H  H25  1  0.00237816  0.87048159  0.92069060  1
  H  H26  1  0.05414987  0.38236090  0.62080465  1
  H  H27  1  0.05414987  0.88236090  0.37919535  1
  H  H28  1  0.11126020  0.30834723  0.14010455  1
  H  H29  1  0.11126020  0.80834723  0.85989545  1
  H  H30  1  0.44959551  0.05248391  0.65458600  1
  H  H31  1  0.44959551  0.55248391  0.34541400  1
  H  H32  1  0.50237816  0.12951841  0.07930940  1
  H  H33  1  0.50237816  0.62951841  0.92069060  1
  H  H34  1  0.55414987  0.11763910  0.62080465  1
  H  H35  1  0.55414987  0.61763910  0.37919535  1
  H  H36  1  0.61126020  0.19165277  0.14010455  1
  H  H37  1  0.61126020  0.69165277  0.85989545  1
  H  H38  1  0.94959551  0.44751609  0.65458600  1
  H  H39  1  0.94959551  0.94751609  0.34541400  1
  O  O40  1  0.01852555  0.43099651  0.53897830  1
  O  O41  1  0.01852555  0.93099651  0.46102170  1
  O  O42  1  0.04550547  0.32217378  0.01157398  1
  O  O43  1  0.04550547  0.82217378  0.98842602  1
  O  O44  1  0.12621968  0.06629277  0.83989900  1
  O  O45  1  0.12621968  0.56629277  0.16010100  1
  O  O46  1  0.19027922  0.09623765  0.30235312  1
  O  O47  1  0.19027922  0.59623765  0.69764688  1
  O  O48  1  0.21641478  0.79053186  0.57752015  1
  O  O49  1  0.21641478  0.29053186  0.42247985  1
  O  O50  1  0.26643251  0.18237610  0.91903614  1
  O  O51  1  0.26643251  0.68237610  0.08096386  1
  O  O52  1  0.30521771  0.93076410  0.48869016  1
  O  O53  1  0.30521771  0.43076410  0.51130984  1
  O  O54  1  0.35450938  0.04170953  0.98874183  1
  O  O55  1  0.35450938  0.54170953  0.01125817  1
  O  O56  1  0.38385937  0.34791334  0.12835908  1
  O  O57  1  0.38385937  0.84791334  0.87164092  1
  O  O58  1  0.44358585  0.31258097  0.58965590  1
  O  O59  1  0.44358585  0.81258097  0.41034410  1
  O  O60  1  0.51852555  0.56900349  0.46102170  1
  O  O61  1  0.51852555  0.06900349  0.53897830  1
  O  O62  1  0.54550547  0.17782622  0.01157398  1
  O  O63  1  0.54550547  0.67782622  0.98842602  1
  O  O64  1  0.62621968  0.93370723  0.16010100  1
  O  O65  1  0.62621968  0.43370723  0.83989900  1
  O  O66  1  0.69027922  0.40376235  0.30235312  1
  O  O67  1  0.69027922  0.90376235  0.69764688  1
  O  O68  1  0.71641478  0.20946814  0.42247985  1
  O  O69  1  0.71641478  0.70946814  0.57752015  1
  O  O70  1  0.76643251  0.31762390  0.91903614  1
  O  O71  1  0.76643251  0.81762390  0.08096386  1
  O  O72  1  0.80521771  0.56923590  0.48869016  1
  O  O73  1  0.80521771  0.06923590  0.51130984  1
  O  O74  1  0.85450938  0.45829047  0.98874183  1
  O  O75  1  0.85450938  0.95829047  0.01125817  1
  O  O76  1  0.88385937  0.65208666  0.87164092  1
  O  O77  1  0.88385937  0.15208666  0.12835908  1
  O  O78  1  0.94358585  0.68741903  0.41034410  1
  O  O79  1  0.94358585  0.18741903  0.58965590  1
