# generated using pymatgen
data_Na5GdO4
_symmetry_space_group_name_H-M   'P 1'
_cell_length_a   11.86886045
_cell_length_b   6.07286425
_cell_length_c   18.45776340
_cell_angle_alpha   90.00000000
_cell_angle_beta   90.00000000
_cell_angle_gamma   90.00000000
_symmetry_Int_Tables_number   1
_chemical_formula_structural   Na5GdO4
_chemical_formula_sum   'Na40 Gd8 O32'
_cell_volume   1330.39827009
_cell_formula_units_Z   8
loop_
 _symmetry_equiv_pos_site_id
 _symmetry_equiv_pos_as_xyz
  1  'x, y, z'
loop_
 _atom_site_type_symbol
 _atom_site_label
 _atom_site_symmetry_multiplicity
 _atom_site_fract_x
 _atom_site_fract_y
 _atom_site_fract_z
 _atom_site_occupancy
  Na  Na0  1  0.07953098  0.10249458  0.42648302  1
  Na  Na1  1  0.07953098  0.39750542  0.92648302  1
  Na  Na2  1  0.05809729  0.58966437  0.76006247  1
  Na  Na3  1  0.05809729  0.91033563  0.26006247  1
  Na  Na4  1  0.18838905  0.86650982  0.98980533  1
  Na  Na5  1  0.18838905  0.63349018  0.48980533  1
  Na  Na6  1  0.19811452  0.08510777  0.81772799  1
  Na  Na7  1  0.19811452  0.41489223  0.31772799  1
  Na  Na8  1  0.19890395  0.57113093  0.15122901  1
  Na  Na9  1  0.19890395  0.92886907  0.65122901  1
  Na  Na10  1  0.30109605  0.07113093  0.15122901  1
  Na  Na11  1  0.30109605  0.42886907  0.65122901  1
  Na  Na12  1  0.30188548  0.91489223  0.31772799  1
  Na  Na13  1  0.30188548  0.58510777  0.81772799  1
  Na  Na14  1  0.31161095  0.36650982  0.98980533  1
  Na  Na15  1  0.31161095  0.13349018  0.48980533  1
  Na  Na16  1  0.44190271  0.41033563  0.26006247  1
  Na  Na17  1  0.44190271  0.08966437  0.76006247  1
  Na  Na18  1  0.42046902  0.89750542  0.92648302  1
  Na  Na19  1  0.42046902  0.60249458  0.42648302  1
  Na  Na20  1  0.57953098  0.10249458  0.07351698  1
  Na  Na21  1  0.57953098  0.39750542  0.57351698  1
  Na  Na22  1  0.55809729  0.91033563  0.23993753  1
  Na  Na23  1  0.55809729  0.58966437  0.73993753  1
  Na  Na24  1  0.68838905  0.63349018  0.01019467  1
  Na  Na25  1  0.68838905  0.86650982  0.51019467  1
  Na  Na26  1  0.69811452  0.41489223  0.18227201  1
  Na  Na27  1  0.69811452  0.08510777  0.68227201  1
  Na  Na28  1  0.69890395  0.57113093  0.34877099  1
  Na  Na29  1  0.69890395  0.92886907  0.84877099  1
  Na  Na30  1  0.80109605  0.07113093  0.34877099  1
  Na  Na31  1  0.80109605  0.42886907  0.84877099  1
  Na  Na32  1  0.80188548  0.58510777  0.68227201  1
  Na  Na33  1  0.80188548  0.91489223  0.18227201  1
  Na  Na34  1  0.81161095  0.36650982  0.51019467  1
  Na  Na35  1  0.81161095  0.13349018  0.01019467  1
  Na  Na36  1  0.94190271  0.08966437  0.73993753  1
  Na  Na37  1  0.94190271  0.41033563  0.23993753  1
  Na  Na38  1  0.92046902  0.89750542  0.57351698  1
  Na  Na39  1  0.92046902  0.60249458  0.07351698  1
  Gd  Gd40  1  0.04285469  0.13580346  0.11529816  1
  Gd  Gd41  1  0.04285469  0.36419654  0.61529816  1
  Gd  Gd42  1  0.45714531  0.63580346  0.11529816  1
  Gd  Gd43  1  0.45714531  0.86419654  0.61529816  1
  Gd  Gd44  1  0.54285469  0.13580346  0.38470184  1
  Gd  Gd45  1  0.54285469  0.36419654  0.88470184  1
  Gd  Gd46  1  0.95714531  0.63580346  0.38470184  1
  Gd  Gd47  1  0.95714531  0.86419654  0.88470184  1
  O  O48  1  0.04901662  0.79049995  0.13531630  1
  O  O49  1  0.04901662  0.70950005  0.63531630  1
  O  O50  1  0.13626597  0.24667119  0.21067711  1
  O  O51  1  0.13626597  0.25332881  0.71067711  1
  O  O52  1  0.14679436  0.22316620  0.02405737  1
  O  O53  1  0.14679436  0.27683380  0.52405737  1
  O  O54  1  0.13491449  0.76196868  0.37124760  1
  O  O55  1  0.13491449  0.73803132  0.87124760  1
  O  O56  1  0.36508551  0.26196868  0.37124760  1
  O  O57  1  0.36508551  0.23803132  0.87124760  1
  O  O58  1  0.35320564  0.72316620  0.02405737  1
  O  O59  1  0.35320564  0.77683380  0.52405737  1
  O  O60  1  0.36373403  0.74667119  0.21067711  1
  O  O61  1  0.36373403  0.75332881  0.71067711  1
  O  O62  1  0.45098338  0.29049995  0.13531630  1
  O  O63  1  0.45098338  0.20950005  0.63531630  1
  O  O64  1  0.54901662  0.70950005  0.86468370  1
  O  O65  1  0.54901662  0.79049995  0.36468370  1
  O  O66  1  0.63626597  0.25332881  0.78932289  1
  O  O67  1  0.63626597  0.24667119  0.28932289  1
  O  O68  1  0.64679436  0.27683380  0.97594263  1
  O  O69  1  0.64679436  0.22316620  0.47594263  1
  O  O70  1  0.63491449  0.76196868  0.12875240  1
  O  O71  1  0.63491449  0.73803132  0.62875240  1
  O  O72  1  0.86508551  0.23803132  0.62875240  1
  O  O73  1  0.86508551  0.26196868  0.12875240  1
  O  O74  1  0.85320564  0.72316620  0.47594263  1
  O  O75  1  0.85320564  0.77683380  0.97594263  1
  O  O76  1  0.86373403  0.74667119  0.28932289  1
  O  O77  1  0.86373403  0.75332881  0.78932289  1
  O  O78  1  0.95098338  0.29049995  0.36468370  1
  O  O79  1  0.95098338  0.20950005  0.86468370  1
