# generated using pymatgen
data_Li6FeO4F
_symmetry_space_group_name_H-M   'P 1'
_cell_length_a   5.00596187
_cell_length_b   5.30453844
_cell_length_c   9.60188575
_cell_angle_alpha   90.00000000
_cell_angle_beta   90.00000000
_cell_angle_gamma   63.11372736
_symmetry_Int_Tables_number   1
_chemical_formula_structural   Li6FeO4F
_chemical_formula_sum   'Li12 Fe2 O8 F2'
_cell_volume   227.41060308
_cell_formula_units_Z   2
loop_
 _symmetry_equiv_pos_site_id
 _symmetry_equiv_pos_as_xyz
  1  'x, y, z'
loop_
 _atom_site_type_symbol
 _atom_site_label
 _atom_site_symmetry_multiplicity
 _atom_site_fract_x
 _atom_site_fract_y
 _atom_site_fract_z
 _atom_site_occupancy
  Li  Li0  1  0.57857083  0.60208713  0.74488042  1
  Li  Li1  1  0.80135388  0.61992706  0.24421376  1
  Li  Li2  1  0.25667956  0.51971787  0.00071948  1
  Li  Li3  1  0.22497162  0.56484590  0.50659056  1
  Li  Li4  1  0.77502838  0.43515410  0.00659056  1
  Li  Li5  1  0.74332044  0.48028213  0.50071948  1
  Li  Li6  1  0.42142917  0.39791287  0.24488042  1
  Li  Li7  1  0.19864612  0.38007294  0.74421376  1
  Li  Li8  1  0.72185267  0.97835250  0.44588729  1
  Li  Li9  1  0.66587669  0.99317947  0.06213678  1
  Li  Li10  1  0.27814733  0.02164750  0.94588729  1
  Li  Li11  1  0.33412331  0.00682053  0.56213678  1
  Fe  Fe12  1  0.81463870  0.01075985  0.73833696  1
  Fe  Fe13  1  0.18536130  0.98924015  0.23833696  1
  O  O14  1  0.44020688  0.71800847  0.09882922  1
  O  O15  1  0.41480991  0.75317231  0.39400194  1
  O  O16  1  0.85926841  0.69753222  0.62001243  1
  O  O17  1  0.14073159  0.30246778  0.12001243  1
  O  O18  1  0.55979312  0.28199153  0.59882922  1
  O  O19  1  0.58519009  0.24682669  0.89400194  1
  O  O20  1  0.79348758  0.01065834  0.25010750  1
  O  O21  1  0.20651242  0.98934166  0.75010750  1
  F  F22  1  0.89890754  0.65684292  0.89428267  1
  F  F23  1  0.10109246  0.34315708  0.39428267  1
