# generated using pymatgen
data_Fe3(OF2)2
_symmetry_space_group_name_H-M   'P 1'
_cell_length_a   7.24336533
_cell_length_b   5.72123069
_cell_length_c   5.72123069
_cell_angle_alpha   75.94171060
_cell_angle_beta   72.87716129
_cell_angle_gamma   72.87716129
_symmetry_Int_Tables_number   1
_chemical_formula_structural   Fe3(OF2)2
_chemical_formula_sum   'Fe6 O4 F8'
_cell_volume   213.34974101
_cell_formula_units_Z   2
loop_
 _symmetry_equiv_pos_site_id
 _symmetry_equiv_pos_as_xyz
  1  'x, y, z'
loop_
 _atom_site_type_symbol
 _atom_site_label
 _atom_site_symmetry_multiplicity
 _atom_site_fract_x
 _atom_site_fract_y
 _atom_site_fract_z
 _atom_site_occupancy
  Fe  Fe0  1  0.83825324  0.66809373  0.66809373  1
  Fe  Fe1  1  0.67226836  0.35258931  0.35258931  1
  Fe  Fe2  1  0.32773164  0.64741069  0.64741069  1
  Fe  Fe3  1  0.16174676  0.33190627  0.33190627  1
  Fe  Fe4  1  0.50000000  0.00000000  0.00000000  1
  Fe  Fe5  1  0.00000000  0.00000000  0.00000000  1
  O  O6  1  0.96371515  0.22684763  0.22684763  1
  O  O7  1  0.62645509  0.57558345  0.57558345  1
  O  O8  1  0.03628485  0.77315237  0.77315237  1
  O  O9  1  0.37354491  0.42441655  0.42441655  1
  F  F10  1  0.67090398  0.03821441  0.63032977  1
  F  F11  1  0.32909602  0.36967023  0.96178559  1
  F  F12  1  0.30032974  0.89549612  0.89549612  1
  F  F13  1  0.69967026  0.10450388  0.10450388  1
  F  F14  1  0.32909602  0.96178559  0.36967023  1
  F  F15  1  0.67090398  0.63032977  0.03821441  1
  F  F16  1  0.00000000  0.29293755  0.70706245  1
  F  F17  1  0.00000000  0.70706245  0.29293755  1
