# generated using pymatgen
data_Fe5O7F3
_symmetry_space_group_name_H-M   'P 1'
_cell_length_a   4.65786833
_cell_length_b   4.66366956
_cell_length_c   15.28141225
_cell_angle_alpha   89.81745380
_cell_angle_beta   90.29120374
_cell_angle_gamma   91.60146675
_symmetry_Int_Tables_number   1
_chemical_formula_structural   Fe5O7F3
_chemical_formula_sum   'Fe10 O14 F6'
_cell_volume   331.81894590
_cell_formula_units_Z   2
loop_
 _symmetry_equiv_pos_site_id
 _symmetry_equiv_pos_as_xyz
  1  'x, y, z'
loop_
 _atom_site_type_symbol
 _atom_site_label
 _atom_site_symmetry_multiplicity
 _atom_site_fract_x
 _atom_site_fract_y
 _atom_site_fract_z
 _atom_site_occupancy
  Fe  Fe0  1  0.99791666  0.99395351  -0.00008185  1
  Fe  Fe1  1  0.01366153  0.02293421  0.20351785  1
  Fe  Fe2  1  0.02665032  0.01031676  0.39449467  1
  Fe  Fe3  1  0.01130333  0.97940658  0.60005740  1
  Fe  Fe4  1  0.01248893  0.98424238  0.80019907  1
  Fe  Fe5  1  0.52252207  0.46005639  0.09296600  1
  Fe  Fe6  1  0.46936505  0.51239702  0.50666908  1
  Fe  Fe7  1  0.48454977  0.48277385  0.29942599  1
  Fe  Fe8  1  0.48254495  0.51350742  0.70178864  1
  Fe  Fe9  1  0.47614181  0.52062866  0.89969115  1
  O  O10  1  0.20482013  0.80486341  0.29733721  1
  O  O11  1  0.18755412  0.81664250  0.49799858  1
  O  O12  1  0.18454547  0.80717603  0.70214769  1
  O  O13  1  0.18076535  0.81280187  0.90356135  1
  O  O14  1  0.29999427  0.29671481  0.99572322  1
  O  O15  1  0.32506561  0.30518673  0.19510125  1
  O  O16  1  0.30887919  0.31954045  0.40380342  1
  O  O17  1  0.29698482  0.30392132  0.60534748  1
  O  O18  1  0.30203666  0.30907029  0.80096876  1
  O  O19  1  0.69666396  0.69121434  0.99737362  1
  O  O20  1  0.68774390  0.69438299  0.60317929  1
  O  O21  1  0.68668838  0.69414658  0.80081809  1
  O  O22  1  0.82413950  0.17687218  0.09692324  1
  O  O23  1  0.80828846  0.20175102  0.30109428  1
  F  F24  1  0.20725270  0.79303882  0.09921664  1
  F  F25  1  0.70926664  0.69329642  0.19681086  1
  F  F26  1  0.69893100  0.70496974  0.40251337  1
  F  F27  1  0.79782432  0.20259461  0.50133880  1
  F  F28  1  0.79624826  0.19674318  0.89885436  1
  F  F29  1  0.79916485  0.19485493  0.70115751  1
