# generated using pymatgen
data_Cr4(OF3)3
_symmetry_space_group_name_H-M   'P 1'
_cell_length_a   5.03302286
_cell_length_b   5.30604842
_cell_length_c   8.82358681
_cell_angle_alpha   72.63457253
_cell_angle_beta   89.54830665
_cell_angle_gamma   62.14917701
_symmetry_Int_Tables_number   1
_chemical_formula_structural   Cr4(OF3)3
_chemical_formula_sum   'Cr4 O3 F9'
_cell_volume   196.41610560
_cell_formula_units_Z   1
loop_
 _symmetry_equiv_pos_site_id
 _symmetry_equiv_pos_as_xyz
  1  'x, y, z'
loop_
 _atom_site_type_symbol
 _atom_site_label
 _atom_site_symmetry_multiplicity
 _atom_site_fract_x
 _atom_site_fract_y
 _atom_site_fract_z
 _atom_site_occupancy
  Cr  Cr0  1  0.74462392  0.50367457  0.24934497  1
  Cr  Cr1  1  0.51027885  0.00880156  0.49850650  1
  Cr  Cr2  1  0.26970957  0.48789695  0.75604100  1
  Cr  Cr3  1  0.96845550  0.00428867  0.99353349  1
  O  O4  1  0.82144588  0.73935661  0.08776188  1
  O  O5  1  0.68868761  0.24092230  0.81642419  1
  O  O6  1  0.67900308  0.26558904  0.41063527  1
  F  F7  1  0.82419721  0.74731695  0.68443465  1
  F  F8  1  0.74876760  0.74339903  0.37801345  1
  F  F9  1  0.74552766  0.25755665  0.12141727  1
  F  F10  1  0.31996381  0.75418235  0.56685877  1
  F  F11  1  0.31206615  0.75800121  0.18074053  1
  F  F12  1  0.23927561  0.74897870  0.87753064  1
  F  F13  1  0.26309866  0.24970835  0.62563260  1
  F  F14  1  0.18124215  0.24245822  0.93836541  1
  F  F15  1  0.18365573  0.24786785  0.31476038  1
