# generated using pymatgen
data_Fe3(OF2)2
_symmetry_space_group_name_H-M   'P 1'
_cell_length_a   4.82827888
_cell_length_b   7.82556229
_cell_length_c   5.77194379
_cell_angle_alpha   95.43388832
_cell_angle_beta   90.91597146
_cell_angle_gamma   89.61818307
_symmetry_Int_Tables_number   1
_chemical_formula_structural   Fe3(OF2)2
_chemical_formula_sum   'Fe6 O4 F8'
_cell_volume   217.07640378
_cell_formula_units_Z   2
loop_
 _symmetry_equiv_pos_site_id
 _symmetry_equiv_pos_as_xyz
  1  'x, y, z'
loop_
 _atom_site_type_symbol
 _atom_site_label
 _atom_site_symmetry_multiplicity
 _atom_site_fract_x
 _atom_site_fract_y
 _atom_site_fract_z
 _atom_site_occupancy
  Fe  Fe0  1  0.56287594  0.65919348  0.17005882  1
  Fe  Fe1  1  0.49346474  0.00661698  0.49689729  1
  Fe  Fe2  1  0.48888478  0.33511983  0.83335388  1
  Fe  Fe3  1  0.95984333  0.68028232  0.66624391  1
  Fe  Fe4  1  0.00896035  0.33471540  0.33220383  1
  Fe  Fe5  1  0.99037826  0.98803025  0.00599727  1
  O  O6  1  0.80023672  0.76174724  0.95434761  1
  O  O7  1  0.69634787  0.77812046  0.46281124  1
  O  O8  1  0.67764629  0.42708592  0.11880617  1
  O  O9  1  0.31830718  0.22796575  0.54731754  1
  F  F10  1  0.79807280  0.44175618  0.63954381  1
  F  F11  1  0.79665161  0.09979357  0.30790021  1
  F  F12  1  0.69853516  0.10469225  0.79235709  1
  F  F13  1  0.28983862  0.56621916  0.86661485  1
  F  F14  1  0.31856059  0.89569973  0.20457178  1
  F  F15  1  0.20073757  0.22026090  0.02589749  1
  F  F16  1  0.19444714  0.57968647  0.38277231  1
  F  F17  1  0.20621105  0.89301511  0.69230489  1
