# generated using pymatgen
data_Fe3(O2F)2
_symmetry_space_group_name_H-M   'P 1'
_cell_length_a   4.69479514
_cell_length_b   7.69033593
_cell_length_c   5.59838589
_cell_angle_alpha   94.54339480
_cell_angle_beta   92.19351020
_cell_angle_gamma   88.84244532
_symmetry_Int_Tables_number   1
_chemical_formula_structural   Fe3(O2F)2
_chemical_formula_sum   'Fe6 O8 F4'
_cell_volume   201.31449983
_cell_formula_units_Z   2
loop_
 _symmetry_equiv_pos_site_id
 _symmetry_equiv_pos_as_xyz
  1  'x, y, z'
loop_
 _atom_site_type_symbol
 _atom_site_label
 _atom_site_symmetry_multiplicity
 _atom_site_fract_x
 _atom_site_fract_y
 _atom_site_fract_z
 _atom_site_occupancy
  Fe  Fe0  1  0.49161198  0.66795558  0.16619533  1
  Fe  Fe1  1  0.51226861  0.98717628  0.50339656  1
  Fe  Fe2  1  0.53367593  0.34499549  0.83126338  1
  Fe  Fe3  1  0.00948860  0.66912452  0.66545121  1
  Fe  Fe4  1  0.94942946  0.32504846  0.34282891  1
  Fe  Fe5  1  0.00334843  0.00335459  0.99653151  1
  O  O6  1  0.81835537  0.44274352  0.63612320  1
  O  O7  1  0.80362611  0.09591048  0.28843940  1
  O  O8  1  0.69656785  0.10529475  0.79131980  1
  O  O9  1  0.69880634  0.75808508  0.45771180  1
  O  O10  1  0.68750990  0.44484857  0.13635649  1
  O  O11  1  0.30665474  0.57064359  0.87145002  1
  O  O12  1  0.30262063  0.89184842  0.20621096  1
  O  O13  1  0.18842914  0.89524545  0.70697020  1
  F  F14  1  0.79969894  0.76891677  0.96301828  1
  F  F15  1  0.30423367  0.23514225  0.53039906  1
  F  F16  1  0.19644829  0.23913690  0.03878730  1
  F  F17  1  0.19722602  0.55452931  0.36754659  1
