# generated using pymatgen
data_LiVP3HO10
_symmetry_space_group_name_H-M   'P 1'
_cell_length_a   6.52101964
_cell_length_b   7.53599988
_cell_length_c   8.24434273
_cell_angle_alpha   106.65100724
_cell_angle_beta   109.38283230
_cell_angle_gamma   83.34471433
_symmetry_Int_Tables_number   1
_chemical_formula_structural   LiVP3HO10
_chemical_formula_sum   'Li2 V2 P6 H2 O20'
_cell_volume   366.06119668
_cell_formula_units_Z   2
loop_
 _symmetry_equiv_pos_site_id
 _symmetry_equiv_pos_as_xyz
  1  'x, y, z'
loop_
 _atom_site_type_symbol
 _atom_site_label
 _atom_site_symmetry_multiplicity
 _atom_site_fract_x
 _atom_site_fract_y
 _atom_site_fract_z
 _atom_site_occupancy
  Li  Li0  1  0.28837786  0.68569541  0.40444662  1
  Li  Li1  1  0.71162214  0.31430459  0.59555338  1
  V  V2  1  0.18927385  0.63843147  0.97987924  1
  V  V3  1  0.81072615  0.36156853  0.02012076  1
  P  P4  1  0.13719199  0.03389260  0.86612620  1
  P  P5  1  0.31334078  0.24574890  0.69382290  1
  P  P6  1  0.37840851  0.31177712  0.16452844  1
  P  P7  1  0.62159149  0.68822288  0.83547156  1
  P  P8  1  0.68665922  0.75425110  0.30617710  1
  P  P9  1  0.86280801  0.96610740  0.13387380  1
  H  H10  1  0.31527767  0.22078104  0.42397734  1
  H  H11  1  0.68472233  0.77921896  0.57602266  1
  O  O12  1  0.10539214  0.83050077  0.82912977  1
  O  O13  1  0.16598472  0.40279999  0.75577492  1
  O  O14  1  0.27134462  0.06086020  0.74338102  1
  O  O15  1  0.23769269  0.16640197  0.48646309  1
  O  O16  1  0.06175926  0.83904877  0.15795230  1
  O  O17  1  0.16740138  0.43824803  0.12197598  1
  O  O18  1  0.29766587  0.10003774  0.06591685  1
  O  O19  1  0.47374016  0.65259267  0.92974441  1
  O  O20  1  0.55627293  0.27988414  0.75465299  1
  O  O21  1  0.47088732  0.31990378  0.36051891  1
  O  O22  1  0.52911268  0.68009622  0.63948109  1
  O  O23  1  0.44372707  0.72011586  0.24534701  1
  O  O24  1  0.52625984  0.34740733  0.07025559  1
  O  O25  1  0.70233413  0.89996226  0.93408315  1
  O  O26  1  0.83259862  0.56175197  0.87802402  1
  O  O27  1  0.93824074  0.16095123  0.84204770  1
  O  O28  1  0.76230731  0.83359803  0.51353691  1
  O  O29  1  0.72865638  0.93913980  0.25661898  1
  O  O30  1  0.83401528  0.59720001  0.24422508  1
  O  O31  1  0.89460786  0.16949923  0.17087023  1
