# generated using pymatgen
data_Li2Cr3FeO8
_symmetry_space_group_name_H-M   'P 1'
_cell_length_a   5.99533582
_cell_length_b   6.00304929
_cell_length_c   6.00382375
_cell_angle_alpha   58.70540303
_cell_angle_beta   120.78134175
_cell_angle_gamma   120.75552474
_symmetry_Int_Tables_number   1
_chemical_formula_structural   Li2Cr3FeO8
_chemical_formula_sum   'Li2 Cr3 Fe1 O8'
_cell_volume   149.49420929
_cell_formula_units_Z   1
loop_
 _symmetry_equiv_pos_site_id
 _symmetry_equiv_pos_as_xyz
  1  'x, y, z'
loop_
 _atom_site_type_symbol
 _atom_site_label
 _atom_site_symmetry_multiplicity
 _atom_site_fract_x
 _atom_site_fract_y
 _atom_site_fract_z
 _atom_site_occupancy
  Li  Li0  1  0.49997923  0.99995137  0.00001533  1
  Li  Li1  1  0.49997784  0.49995511  0.50002766  1
  Cr  Cr2  1  0.49999149  0.00006844  0.50001036  1
  Cr  Cr3  1  0.49999247  0.50006458  -0.00013359  1
  Cr  Cr4  1  -0.00016362  0.50006197  0.49981380  1
  Fe  Fe5  1  0.00008469  -0.00001806  0.00004311  1
  O  O6  1  0.72672755  0.26121768  0.26060815  1
  O  O7  1  0.74645539  0.22890878  0.72920118  1
  O  O8  1  0.27989934  0.24206569  0.24245251  1
  O  O9  1  0.74668559  0.72951718  0.22890163  1
  O  O10  1  0.25330416  0.27048190  0.77118193  1
  O  O11  1  0.72015375  0.75790761  0.75759950  1
  O  O12  1  0.25355397  0.77105075  0.27084782  1
  O  O13  1  0.27335814  0.73876598  0.73942963  1
