# generated using pymatgen
data_Li4Ti3(CoO4)3
_symmetry_space_group_name_H-M   'P 1'
_cell_length_a   5.79254371
_cell_length_b   6.10256033
_cell_length_c   6.54978046
_cell_angle_alpha   104.67196782
_cell_angle_beta   100.17641573
_cell_angle_gamma   91.45193469
_symmetry_Int_Tables_number   1
_chemical_formula_structural   Li4Ti3(CoO4)3
_chemical_formula_sum   'Li4 Ti3 Co3 O12'
_cell_volume   219.85903870
_cell_formula_units_Z   1
loop_
 _symmetry_equiv_pos_site_id
 _symmetry_equiv_pos_as_xyz
  1  'x, y, z'
loop_
 _atom_site_type_symbol
 _atom_site_label
 _atom_site_symmetry_multiplicity
 _atom_site_fract_x
 _atom_site_fract_y
 _atom_site_fract_z
 _atom_site_occupancy
  Li  Li0  1  0.83333300  0.33333300  0.33333300  1
  Li  Li1  1  0.55123103  0.99133831  0.98118505  1
  Li  Li2  1  0.33333300  0.33333300  0.33333300  1
  Li  Li3  1  0.11543597  0.67532769  0.68548195  1
  Ti  Ti4  1  0.16335077  0.15175795  0.68064634  1
  Ti  Ti5  1  0.83333300  0.83333300  0.33333300  1
  Ti  Ti6  1  0.50331523  0.51490805  0.98601966  1
  Co  Co7  1  0.67004035  0.16814156  0.66801616  1
  Co  Co8  1  0.33333300  0.83333300  0.33333300  1
  Co  Co9  1  0.99662565  0.49852544  0.99865084  1
  O  O10  1  0.73715660  0.27565159  0.97773557  1
  O  O11  1  0.23903563  0.28672677  0.99375763  1
  O  O12  1  0.92951040  0.39101541  0.68893043  1
  O  O13  1  0.60405074  0.06949683  0.34816398  1
  O  O14  1  0.42763137  0.37994023  0.67290837  1
  O  O15  1  0.08113868  0.07708729  0.36397946  1
  O  O16  1  0.90654950  0.93272288  0.65076856  1
  O  O17  1  0.58552832  0.58957971  0.30268754  1
  O  O18  1  0.41306927  0.95548150  0.67382786  1
  O  O19  1  0.06261526  0.59717017  0.31850302  1
  O  O20  1  0.76011750  0.73394412  0.01589744  1
  O  O21  1  0.25359673  0.71118550  0.99283814  1
