# generated using pymatgen
data_U(MoO4)2
_symmetry_space_group_name_H-M   'P 1'
_cell_length_a   9.66013272
_cell_length_b   10.28380379
_cell_length_c   14.39065083
_cell_angle_alpha   90.00000000
_cell_angle_beta   90.00000000
_cell_angle_gamma   90.00000000
_symmetry_Int_Tables_number   1
_chemical_formula_structural   U(MoO4)2
_chemical_formula_sum   'U8 Mo16 O64'
_cell_volume   1429.60912273
_cell_formula_units_Z   8
loop_
 _symmetry_equiv_pos_site_id
 _symmetry_equiv_pos_as_xyz
  1  'x, y, z'
loop_
 _atom_site_type_symbol
 _atom_site_label
 _atom_site_symmetry_multiplicity
 _atom_site_fract_x
 _atom_site_fract_y
 _atom_site_fract_z
 _atom_site_occupancy
  U  U0  1  0.72393914  0.53347005  0.38971506  1
  U  U1  1  0.22393914  0.96652995  0.38971506  1
  U  U2  1  0.22393914  0.46652995  0.11028494  1
  U  U3  1  0.27606086  0.96652995  0.88971506  1
  U  U4  1  0.27606086  0.46652995  0.61028494  1
  U  U5  1  0.77606086  0.03347005  0.61028494  1
  U  U6  1  0.72393914  0.03347005  0.11028494  1
  U  U7  1  0.77606086  0.53347005  0.88971506  1
  Mo  Mo8  1  0.00391867  0.22445015  0.93976400  1
  Mo  Mo9  1  0.50391867  0.77554985  0.56023600  1
  Mo  Mo10  1  0.31493530  0.10543104  0.15102043  1
  Mo  Mo11  1  0.81493530  0.89456896  0.34897957  1
  Mo  Mo12  1  0.18506470  0.60543104  0.84897957  1
  Mo  Mo13  1  0.99608133  0.77554985  0.06023600  1
  Mo  Mo14  1  0.00391867  0.72445015  0.56023600  1
  Mo  Mo15  1  0.49608133  0.72445015  0.06023600  1
  Mo  Mo16  1  0.99608133  0.27554985  0.43976400  1
  Mo  Mo17  1  0.81493530  0.39456896  0.15102043  1
  Mo  Mo18  1  0.50391867  0.27554985  0.93976400  1
  Mo  Mo19  1  0.68506470  0.89456896  0.84897957  1
  Mo  Mo20  1  0.18506470  0.10543104  0.65102043  1
  Mo  Mo21  1  0.31493530  0.60543104  0.34897957  1
  Mo  Mo22  1  0.68506470  0.39456896  0.65102043  1
  Mo  Mo23  1  0.49608133  0.22445015  0.43976400  1
  O  O24  1  0.88838168  0.82742652  0.62453626  1
  O  O25  1  0.50011732  0.08129465  0.15240590  1
  O  O26  1  0.26755228  0.27005999  0.17934281  1
  O  O27  1  0.76889652  0.50354541  0.73089864  1
  O  O28  1  0.62464333  0.16687569  0.99381671  1
  O  O29  1  0.50011732  0.58129465  0.34759410  1
  O  O30  1  0.59326748  0.89340184  0.63446578  1
  O  O31  1  0.90673252  0.89340184  0.13446578  1
  O  O32  1  0.41102661  0.85994900  0.47142416  1
  O  O33  1  0.73110348  0.00354541  0.26910136  1
  O  O34  1  0.75590526  0.42730200  0.03490001  1
  O  O35  1  0.58897339  0.14005100  0.52857584  1
  O  O36  1  0.24409474  0.57269800  0.96509999  1
  O  O37  1  0.23110348  0.99645459  0.23089864  1
  O  O38  1  0.73110348  0.50354541  0.23089864  1
  O  O39  1  0.76755228  0.22994001  0.17934281  1
  O  O40  1  0.08897339  0.35994900  0.52857584  1
  O  O41  1  0.23110348  0.49645459  0.26910136  1
  O  O42  1  0.37535667  0.83312431  0.00618329  1
  O  O43  1  0.76755228  0.72994001  0.32065719  1
  O  O44  1  0.91102661  0.14005100  0.02857584  1
  O  O45  1  0.73244772  0.22994001  0.67934281  1
  O  O46  1  0.23244772  0.77005999  0.82065719  1
  O  O47  1  0.41102661  0.35994900  0.02857584  1
  O  O48  1  -0.00011732  0.58129465  0.84759410  1
  O  O49  1  0.74409474  0.92730200  0.96509999  1
  O  O50  1  0.76889652  0.00354541  0.76910136  1
  O  O51  1  0.12464333  0.83312431  0.50618329  1
  O  O52  1  -0.00011732  0.08129465  0.65240590  1
  O  O53  1  0.91102661  0.64005100  0.47142416  1
  O  O54  1  0.26755228  0.77005999  0.32065719  1
  O  O55  1  0.58897339  0.64005100  0.97142416  1
  O  O56  1  0.12464333  0.33312431  0.99381671  1
  O  O57  1  0.59326748  0.39340184  0.86553422  1
  O  O58  1  0.38838168  0.67257348  0.62453626  1
  O  O59  1  0.40673252  0.10659816  0.36553422  1
  O  O60  1  0.00011732  0.41870535  0.15240590  1
  O  O61  1  0.88838168  0.32742652  0.87546374  1
  O  O62  1  0.11161832  0.17257348  0.37546374  1
  O  O63  1  0.87535667  0.16687569  0.49381671  1
  O  O64  1  0.11161832  0.67257348  0.12453626  1
  O  O65  1  0.74409474  0.42730200  0.53490001  1
  O  O66  1  0.00011732  0.91870535  0.34759410  1
  O  O67  1  0.62464333  0.66687569  0.50618329  1
  O  O68  1  0.90673252  0.39340184  0.36553422  1
  O  O69  1  0.08897339  0.85994900  0.97142416  1
  O  O70  1  0.38838168  0.17257348  0.87546374  1
  O  O71  1  0.25590526  0.07269800  0.03490001  1
  O  O72  1  0.75590526  0.92730200  0.46509999  1
  O  O73  1  0.73244772  0.72994001  0.82065719  1
  O  O74  1  0.09326748  0.10659816  0.86553422  1
  O  O75  1  0.09326748  0.60659816  0.63446578  1
  O  O76  1  0.26889652  0.99645459  0.73089864  1
  O  O77  1  0.40673252  0.60659816  0.13446578  1
  O  O78  1  0.37535667  0.33312431  0.49381671  1
  O  O79  1  0.49988268  0.41870535  0.65240590  1
  O  O80  1  0.61161832  0.32742652  0.37546374  1
  O  O81  1  0.61161832  0.82742652  0.12453626  1
  O  O82  1  0.49988268  0.91870535  0.84759410  1
  O  O83  1  0.25590526  0.57269800  0.46509999  1
  O  O84  1  0.23244772  0.27005999  0.67934281  1
  O  O85  1  0.26889652  0.49645459  0.76910136  1
  O  O86  1  0.87535667  0.66687569  0.00618329  1
  O  O87  1  0.24409474  0.07269800  0.53490001  1
