# generated using pymatgen
data_Na5CuO4
_symmetry_space_group_name_H-M   'P 1'
_cell_length_a   10.41431135
_cell_length_b   10.47530057
_cell_length_c   10.53772769
_cell_angle_alpha   90.00000000
_cell_angle_beta   90.00000000
_cell_angle_gamma   90.00000000
_symmetry_Int_Tables_number   1
_chemical_formula_structural   Na5CuO4
_chemical_formula_sum   'Na40 Cu8 O32'
_cell_volume   1149.59276547
_cell_formula_units_Z   8
loop_
 _symmetry_equiv_pos_site_id
 _symmetry_equiv_pos_as_xyz
  1  'x, y, z'
loop_
 _atom_site_type_symbol
 _atom_site_label
 _atom_site_symmetry_multiplicity
 _atom_site_fract_x
 _atom_site_fract_y
 _atom_site_fract_z
 _atom_site_occupancy
  Na  Na0  1  0.10735686  0.83731979  0.11285263  1
  Na  Na1  1  0.10735686  0.66268021  0.61285263  1
  Na  Na2  1  0.11321066  0.14527746  0.39518363  1
  Na  Na3  1  0.11321066  0.35472254  0.89518363  1
  Na  Na4  1  0.12124984  0.39564678  0.16413883  1
  Na  Na5  1  0.12124984  0.10435322  0.66413883  1
  Na  Na6  1  0.11939605  0.59125169  0.35102216  1
  Na  Na7  1  0.11939605  0.90874831  0.85102216  1
  Na  Na8  1  0.15789780  0.86537786  0.38536619  1
  Na  Na9  1  0.15789780  0.63462214  0.88536619  1
  Na  Na10  1  0.34210220  0.13462214  0.88536619  1
  Na  Na11  1  0.34210220  0.36537786  0.38536619  1
  Na  Na12  1  0.38060395  0.09125169  0.35102216  1
  Na  Na13  1  0.38060395  0.40874831  0.85102216  1
  Na  Na14  1  0.37875016  0.60435322  0.66413883  1
  Na  Na15  1  0.37875016  0.89564678  0.16413883  1
  Na  Na16  1  0.38678934  0.64527746  0.39518363  1
  Na  Na17  1  0.38678934  0.85472254  0.89518363  1
  Na  Na18  1  0.39264314  0.16268021  0.61285263  1
  Na  Na19  1  0.39264314  0.33731979  0.11285263  1
  Na  Na20  1  0.60735686  0.66268021  0.88714737  1
  Na  Na21  1  0.60735686  0.83731979  0.38714737  1
  Na  Na22  1  0.61321066  0.14527746  0.10481637  1
  Na  Na23  1  0.61321066  0.35472254  0.60481637  1
  Na  Na24  1  0.62124984  0.39564678  0.33586117  1
  Na  Na25  1  0.62124984  0.10435322  0.83586117  1
  Na  Na26  1  0.61939605  0.59125169  0.14897784  1
  Na  Na27  1  0.61939605  0.90874831  0.64897784  1
  Na  Na28  1  0.65789780  0.63462214  0.61463381  1
  Na  Na29  1  0.65789780  0.86537786  0.11463381  1
  Na  Na30  1  0.84210220  0.13462214  0.61463381  1
  Na  Na31  1  0.84210220  0.36537786  0.11463381  1
  Na  Na32  1  0.88060395  0.09125169  0.14897784  1
  Na  Na33  1  0.88060395  0.40874831  0.64897784  1
  Na  Na34  1  0.87875016  0.60435322  0.83586117  1
  Na  Na35  1  0.87875016  0.89564678  0.33586117  1
  Na  Na36  1  0.88678934  0.64527746  0.10481637  1
  Na  Na37  1  0.88678934  0.85472254  0.60481637  1
  Na  Na38  1  0.89264314  0.16268021  0.88714737  1
  Na  Na39  1  0.89264314  0.33731979  0.38714737  1
  Cu  Cu40  1  0.14912974  0.11574390  0.12236452  1
  Cu  Cu41  1  0.14912974  0.38425610  0.62236452  1
  Cu  Cu42  1  0.35087026  0.88425610  0.62236452  1
  Cu  Cu43  1  0.35087026  0.61574390  0.12236452  1
  Cu  Cu44  1  0.64912974  0.11574390  0.37763548  1
  Cu  Cu45  1  0.64912974  0.38425610  0.87763548  1
  Cu  Cu46  1  0.85087026  0.61574390  0.37763548  1
  Cu  Cu47  1  0.85087026  0.88425610  0.87763548  1
  O  O48  1  0.02154104  0.23403676  0.05378929  1
  O  O49  1  0.02154104  0.26596324  0.55378929  1
  O  O50  1  0.05345190  0.00176025  0.24251356  1
  O  O51  1  0.05345190  0.49823975  0.74251356  1
  O  O52  1  0.23926050  0.99661608  0.02040864  1
  O  O53  1  0.23926050  0.50338392  0.52040864  1
  O  O54  1  0.24260976  0.22624775  0.23687206  1
  O  O55  1  0.24260976  0.27375225  0.73687206  1
  O  O56  1  0.25739024  0.72624775  0.23687206  1
  O  O57  1  0.25739024  0.77375225  0.73687206  1
  O  O58  1  0.26073950  0.00338392  0.52040864  1
  O  O59  1  0.26073950  0.49661608  0.02040864  1
  O  O60  1  0.44654810  0.50176025  0.24251356  1
  O  O61  1  0.44654810  0.99823975  0.74251356  1
  O  O62  1  0.47845896  0.76596324  0.55378929  1
  O  O63  1  0.47845896  0.73403676  0.05378929  1
  O  O64  1  0.52154104  0.26596324  0.94621071  1
  O  O65  1  0.52154104  0.23403676  0.44621071  1
  O  O66  1  0.55345190  0.00176025  0.25748644  1
  O  O67  1  0.55345190  0.49823975  0.75748644  1
  O  O68  1  0.73926050  0.50338392  0.97959136  1
  O  O69  1  0.73926050  0.99661608  0.47959136  1
  O  O70  1  0.74260976  0.22624775  0.26312794  1
  O  O71  1  0.74260976  0.27375225  0.76312794  1
  O  O72  1  0.75739024  0.72624775  0.26312794  1
  O  O73  1  0.75739024  0.77375225  0.76312794  1
  O  O74  1  0.76073950  0.00338392  0.97959136  1
  O  O75  1  0.76073950  0.49661608  0.47959136  1
  O  O76  1  0.94654810  0.99823975  0.75748644  1
  O  O77  1  0.94654810  0.50176025  0.25748644  1
  O  O78  1  0.97845896  0.76596324  0.94621071  1
  O  O79  1  0.97845896  0.73403676  0.44621071  1
