# generated using pymatgen
data_Fe5O7F3
_symmetry_space_group_name_H-M   'P 1'
_cell_length_a   4.68667153
_cell_length_b   4.68123885
_cell_length_c   15.20929412
_cell_angle_alpha   90.00000000
_cell_angle_beta   90.00000000
_cell_angle_gamma   88.33481159
_symmetry_Int_Tables_number   1
_chemical_formula_structural   Fe5O7F3
_chemical_formula_sum   'Fe10 O14 F6'
_cell_volume   333.54231165
_cell_formula_units_Z   2
loop_
 _symmetry_equiv_pos_site_id
 _symmetry_equiv_pos_as_xyz
  1  'x, y, z'
loop_
 _atom_site_type_symbol
 _atom_site_label
 _atom_site_symmetry_multiplicity
 _atom_site_fract_x
 _atom_site_fract_y
 _atom_site_fract_z
 _atom_site_occupancy
  Fe  Fe0  1  0.03782787  0.01950505  0.00686916  1
  Fe  Fe1  1  0.97866460  0.97387588  0.20092485  1
  Fe  Fe2  1  0.97866460  0.97387588  0.39907515  1
  Fe  Fe3  1  0.03782787  0.01950505  0.59313084  1
  Fe  Fe4  1  0.01030609  0.97869418  0.80000000  1
  Fe  Fe5  1  0.50571748  0.49510079  0.09947097  1
  Fe  Fe6  1  0.50571748  0.49510079  0.50052903  1
  Fe  Fe7  1  0.51488208  0.51011729  0.30000000  1
  Fe  Fe8  1  0.47268066  0.51316221  0.70519052  1
  Fe  Fe9  1  0.47268066  0.51316221  0.89480948  1
  O  O10  1  0.19827161  0.79927501  0.10404291  1
  O  O11  1  0.18449641  0.79425649  0.30000000  1
  O  O12  1  0.19827161  0.79927501  0.49595709  1
  O  O13  1  0.18843582  0.82063808  0.69588660  1
  O  O14  1  0.18843582  0.82063808  0.90411340  1
  O  O15  1  0.32175435  0.32126234  0.00216268  1
  O  O16  1  0.32175435  0.32126234  0.59783732  1
  O  O17  1  0.29013041  0.30687541  0.80000000  1
  O  O18  1  0.68374656  0.67611281  0.19771699  1
  O  O19  1  0.68374656  0.67611281  0.40228301  1
  O  O20  1  0.69046294  0.70074097  0.80000000  1
  O  O21  1  0.81093244  0.19118213  0.10223996  1
  O  O22  1  0.81093244  0.19118213  0.49776004  1
  O  O23  1  0.79997241  0.18002585  0.30000000  1
  F  F24  1  0.30198305  0.29211746  0.20163510  1
  F  F25  1  0.30198305  0.29211746  0.39836490  1
  F  F26  1  0.70336637  0.70602455  0.99915600  1
  F  F27  1  0.70336637  0.70602455  0.60084400  1
  F  F28  1  0.80149603  0.20639009  0.90316764  1
  F  F29  1  0.80149603  0.20639009  0.69683236  1
