# generated using pymatgen
data_LaAlO3
_symmetry_space_group_name_H-M   'P 1'
_cell_length_a   8.80158848
_cell_length_b   10.76172664
_cell_length_c   8.92658184
_cell_angle_alpha   90.00000000
_cell_angle_beta   90.00000000
_cell_angle_gamma   100.64168424
_symmetry_Int_Tables_number   1
_chemical_formula_structural   LaAlO3
_chemical_formula_sum   'La12 Al12 O36'
_cell_volume   830.98638916
_cell_formula_units_Z   12
loop_
 _symmetry_equiv_pos_site_id
 _symmetry_equiv_pos_as_xyz
  1  'x, y, z'
loop_
 _atom_site_type_symbol
 _atom_site_label
 _atom_site_symmetry_multiplicity
 _atom_site_fract_x
 _atom_site_fract_y
 _atom_site_fract_z
 _atom_site_occupancy
  La  La0  1  0.04369954  0.82666476  0.47275534  1
  La  La1  1  0.04369954  0.32666476  0.02724466  1
  La  La2  1  0.16950396  0.55697376  0.64039043  1
  La  La3  1  0.16950396  0.05697376  0.85960957  1
  La  La4  1  0.48652712  0.83063722  0.43445151  1
  La  La5  1  0.51347288  0.66936278  0.93445151  1
  La  La6  1  0.48652712  0.33063722  0.06554849  1
  La  La7  1  0.51347288  0.16936278  0.56554849  1
  La  La8  1  0.83049604  0.94302624  0.14039043  1
  La  La9  1  0.83049604  0.44302624  0.35960957  1
  La  La10  1  0.95630046  0.67333524  0.97275534  1
  La  La11  1  0.95630046  0.17333524  0.52724466  1
  Al  Al12  1  0.20644488  0.57935231  0.23430873  1
  Al  Al13  1  0.27023776  0.85743415  0.09064656  1
  Al  Al14  1  0.20644488  0.07935231  0.26569127  1
  Al  Al15  1  0.32083279  0.83817454  0.74589396  1
  Al  Al16  1  0.27023776  0.35743415  0.40935344  1
  Al  Al17  1  0.32083279  0.33817454  0.75410604  1
  Al  Al18  1  0.67916721  0.66182546  0.24589396  1
  Al  Al19  1  0.72976224  0.64256585  0.59064656  1
  Al  Al20  1  0.67916721  0.16182546  0.25410604  1
  Al  Al21  1  0.79355512  0.92064769  0.73430873  1
  Al  Al22  1  0.72976224  0.14256585  0.90935344  1
  Al  Al23  1  0.79355512  0.42064769  0.76569127  1
  O  O24  1  0.98495853  0.98582635  0.66669013  1
  O  O25  1  0.08270996  0.88955638  0.03787072  1
  O  O26  1  0.98495853  0.48582635  0.83330987  1
  O  O27  1  0.12502237  0.75772762  0.74144145  1
  O  O28  1  0.08270996  0.38955638  0.46212928  1
  O  O29  1  0.12502237  0.25772762  0.75855855  1
  O  O30  1  0.23354176  0.67433501  0.40126269  1
  O  O31  1  0.25709868  0.68966016  0.08365667  1
  O  O32  1  0.30040881  0.94198284  0.26431529  1
  O  O33  1  0.34266111  0.95407741  0.60207050  1
  O  O34  1  0.23354176  0.17433501  0.09873731  1
  O  O35  1  0.25709868  0.18966016  0.41634333  1
  O  O36  1  0.30040881  0.44198284  0.23568471  1
  O  O37  1  0.37623539  0.90030159  0.92314288  1
  O  O38  1  0.34266111  0.45407741  0.89792950  1
  O  O39  1  0.42353703  0.71819004  0.69204222  1
  O  O40  1  0.37623539  0.40030159  0.57685712  1
  O  O41  1  0.42353703  0.21819004  0.80795778  1
  O  O42  1  0.57646297  0.78180996  0.19204222  1
  O  O43  1  0.62376461  0.59969841  0.42314288  1
  O  O44  1  0.57646297  0.28180996  0.30795778  1
  O  O45  1  0.65733889  0.54592259  0.10207050  1
  O  O46  1  0.62376461  0.09969841  0.07685712  1
  O  O47  1  0.69959119  0.55801716  0.76431529  1
  O  O48  1  0.74290132  0.81033984  0.58365667  1
  O  O49  1  0.76645824  0.82566499  0.90126269  1
  O  O50  1  0.65733889  0.04592259  0.39792950  1
  O  O51  1  0.69959119  0.05801716  0.73568471  1
  O  O52  1  0.74290132  0.31033984  0.91634333  1
  O  O53  1  0.76645824  0.32566499  0.59873731  1
  O  O54  1  0.87497763  0.74227238  0.24144145  1
  O  O55  1  0.91729004  0.61044362  0.53787072  1
  O  O56  1  0.87497763  0.24227238  0.25855855  1
  O  O57  1  0.01504147  0.51417365  0.16669013  1
  O  O58  1  0.91729004  0.11044362  0.96212928  1
  O  O59  1  0.01504147  0.01417365  0.33330987  1
