# generated using pymatgen
data_Co2O3F
_symmetry_space_group_name_H-M   'P 1'
_cell_length_a   4.37610493
_cell_length_b   4.37610493
_cell_length_c   14.75506411
_cell_angle_alpha   90.00000000
_cell_angle_beta   90.00000000
_cell_angle_gamma   92.53426037
_symmetry_Int_Tables_number   1
_chemical_formula_structural   Co2O3F
_chemical_formula_sum   'Co10 O15 F5'
_cell_volume   282.28746263
_cell_formula_units_Z   5
loop_
 _symmetry_equiv_pos_site_id
 _symmetry_equiv_pos_as_xyz
  1  'x, y, z'
loop_
 _atom_site_type_symbol
 _atom_site_label
 _atom_site_symmetry_multiplicity
 _atom_site_fract_x
 _atom_site_fract_y
 _atom_site_fract_z
 _atom_site_occupancy
  Co  Co0  1  0.00147346  0.99852654  0.99977949  1
  Co  Co1  1  0.00117411  0.99882589  0.20001616  1
  Co  Co2  1  0.00117411  0.99882589  0.39998384  1
  Co  Co3  1  0.00147346  0.99852654  0.60022051  1
  Co  Co4  1  0.01205381  0.98794619  0.80000000  1
  Co  Co5  1  0.52679171  0.47320829  0.09984004  1
  Co  Co6  1  0.52679171  0.47320829  0.50015996  1
  Co  Co7  1  0.47566787  0.52433213  0.30000000  1
  Co  Co8  1  0.47756821  0.52243179  0.90011886  1
  Co  Co9  1  0.47756821  0.52243179  0.69988114  1
  O  O10  1  0.19216022  0.80783978  0.30000000  1
  O  O11  1  0.19559019  0.80440981  0.69913982  1
  O  O12  1  0.19559019  0.80440981  0.90086018  1
  O  O13  1  0.31044601  0.30278684  0.99983761  1
  O  O14  1  0.30636969  0.30536100  0.19996173  1
  O  O15  1  0.31044601  0.30278684  0.60016239  1
  O  O16  1  0.29428002  0.31453466  0.80000000  1
  O  O17  1  0.30636969  0.30536100  0.40003827  1
  O  O18  1  0.69721316  0.68955399  0.99983761  1
  O  O19  1  0.69463900  0.69363031  0.19996173  1
  O  O20  1  0.69463900  0.69363031  0.40003827  1
  O  O21  1  0.69721316  0.68955399  0.60016239  1
  O  O22  1  0.68546534  0.70571998  0.80000000  1
  O  O23  1  0.80940845  0.19059155  0.09992037  1
  O  O24  1  0.80940845  0.19059155  0.50007963  1
  F  F25  1  0.22026857  0.77973143  0.09950786  1
  F  F26  1  0.22026857  0.77973143  0.50049214  1
  F  F27  1  0.78145036  0.21854864  0.30000000  1
  F  F28  1  0.78851865  0.21148135  0.89720929  1
  F  F29  1  0.78851865  0.21148135  0.70279071  1
