# generated using pymatgen
data_Mo2P3Pb2BrO15
_symmetry_space_group_name_H-M   'P 1'
_cell_length_a   9.29947739
_cell_length_b   9.29947682
_cell_length_c   17.85991684
_cell_angle_alpha   104.94180276
_cell_angle_beta   104.94180169
_cell_angle_gamma   90.55176606
_symmetry_Int_Tables_number   1
_chemical_formula_structural   Mo2P3Pb2BrO15
_chemical_formula_sum   'Mo8 P12 Pb8 Br4 O60'
_cell_volume   1437.04949138
_cell_formula_units_Z   4
loop_
 _symmetry_equiv_pos_site_id
 _symmetry_equiv_pos_as_xyz
  1  'x, y, z'
loop_
 _atom_site_type_symbol
 _atom_site_label
 _atom_site_symmetry_multiplicity
 _atom_site_fract_x
 _atom_site_fract_y
 _atom_site_fract_z
 _atom_site_occupancy
  Mo  Mo0  1  0.64740309  0.15535648  0.29381864  1
  Mo  Mo1  1  0.60641140  0.61020534  0.20903797  1
  Mo  Mo2  1  0.36020534  0.85641140  0.70903797  1
  Mo  Mo3  1  0.90535648  0.89740309  0.79381864  1
  Mo  Mo4  1  0.10358445  0.11153783  0.20618136  1
  Mo  Mo5  1  0.86153783  0.35358445  0.70618136  1
  Mo  Mo6  1  0.40116736  0.39737343  0.79096203  1
  Mo  Mo7  1  0.14737343  0.65116736  0.29096203  1
  P  P8  1  0.13271885  0.12697963  0.75013234  1
  P  P9  1  0.62817924  0.12108895  0.74035695  1
  P  P10  1  0.07868278  0.07868278  1.00000000  1
  P  P11  1  0.57533947  0.57533947  1.00000000  1
  P  P12  1  0.13258651  0.62684729  0.74986766  1
  P  P13  1  0.38073200  0.88782229  0.25964305  1
  P  P14  1  0.87108895  0.87817924  0.24035695  1
  P  P15  1  0.32533947  0.82533947  0.50000000  1
  P  P16  1  0.82868278  0.32868278  0.50000000  1
  P  P17  1  0.63782229  0.63073200  0.75964305  1
  P  P18  1  0.37684729  0.38258651  0.24986766  1
  P  P19  1  0.87697963  0.38271885  0.25013234  1
  Pb  Pb20  1  0.82076147  0.82076147  0.00000000  1
  Pb  Pb21  1  0.57076147  0.07076147  0.50000000  1
  Pb  Pb22  1  0.32408923  0.32408923  0.00000000  1
  Pb  Pb23  1  0.05762902  0.05489549  0.43848792  1
  Pb  Pb24  1  0.80489549  0.30762902  0.93848792  1
  Pb  Pb25  1  0.36914109  0.86640757  0.06151208  1
  Pb  Pb26  1  0.61640757  0.61914109  0.56151208  1
  Pb  Pb27  1  0.07408923  0.57408923  0.50000000  1
  Br  Br28  1  0.87175783  0.87322175  0.50531862  1
  Br  Br29  1  0.11643921  0.61790313  0.99468138  1
  Br  Br30  1  0.62322175  0.12175783  0.00531862  1
  Br  Br31  1  0.36790313  0.36643921  0.49468138  1
  O  O32  1  0.41275176  0.91229688  0.81075815  1
  O  O33  1  0.04828997  0.03702954  0.07445056  1
  O  O34  1  0.44413350  0.43952766  0.19012374  1
  O  O35  1  0.06097122  0.74436898  0.80447104  1
  O  O36  1  0.74285417  0.55815356  0.00484764  1
  O  O37  1  0.44254193  0.76320891  0.20287574  1
  O  O38  1  0.55330592  0.73800653  0.99515236  1
  O  O39  1  0.29877765  0.77843528  0.57395523  1
  O  O40  1  0.70972532  0.51911262  0.70151362  1
  O  O41  1  0.48800653  0.80330592  0.49515236  1
  O  O42  1  0.96257898  0.97383941  0.92554944  1
  O  O43  1  0.57575559  0.55394740  0.81281277  1
  O  O44  1  0.50749963  0.00455904  0.31931080  1
  O  O45  1  0.99412630  0.30799535  0.50103655  1
  O  O46  1  0.05799535  0.24412630  0.00103655  1
  O  O47  1  0.80695879  0.49308975  0.49896345  1
  O  O48  1  0.49436898  0.31097122  0.30447104  1
  O  O49  1  0.13774652  0.13889517  0.58074388  1
  O  O50  1  0.66229688  0.66275176  0.31075815  1
  O  O51  1  0.76136794  0.45590613  0.19578821  1
  O  O52  1  0.51320891  0.69254193  0.70287574  1
  O  O53  1  0.30394740  0.82575559  0.31281277  1
  O  O54  1  0.00650018  0.18989794  0.69552896  1
  O  O55  1  0.26011793  0.56557974  0.80421179  1
  O  O56  1  0.93989794  0.25650018  0.19552896  1
  O  O57  1  0.72383941  0.21257898  0.42554944  1
  O  O58  1  0.47482242  0.45448005  0.92604477  1
  O  O59  1  0.01394007  0.49892956  0.69539268  1
  O  O60  1  0.75821170  0.06759899  0.79848638  1
  O  O61  1  0.52843528  0.54877765  0.07395523  1
  O  O62  1  0.06854739  0.05353687  0.80460732  1
  O  O63  1  0.89690399  0.39145518  0.80863376  1
  O  O64  1  0.30815356  0.99285417  0.50484764  1
  O  O65  1  0.20590613  0.01136794  0.69578821  1
  O  O66  1  0.81759899  0.00821170  0.29848638  1
  O  O67  1  0.98966619  0.81033317  0.29712426  1
  O  O68  1  0.80353687  0.31854739  0.30460732  1
  O  O69  1  0.24940392  0.25400976  0.80987626  1
  O  O70  1  0.10153874  0.60199362  0.18924185  1
  O  O71  1  0.83827022  0.83282142  0.69136624  1
  O  O72  1  0.31557974  0.51011793  0.30421179  1
  O  O73  1  0.88889517  0.38774652  0.08074388  1
  O  O74  1  0.35199362  0.35153874  0.68924185  1
  O  O75  1  0.14145518  0.14690399  0.30863376  1
  O  O76  1  0.20448005  0.72482242  0.42604477  1
  O  O77  1  0.18952766  0.69413350  0.69012374  1
  O  O78  1  0.78702954  0.29828997  0.57445056  1
  O  O79  1  0.24308975  0.05695879  0.99896345  1
  O  O80  1  0.93818883  0.93524824  0.18068920  1
  O  O81  1  0.58282142  0.08827022  0.19136624  1
  O  O82  1  0.00400976  0.49940392  0.30987626  1
  O  O83  1  0.24892956  0.26394007  0.19539268  1
  O  O84  1  0.30700264  0.80815129  0.91925612  1
  O  O85  1  0.74113463  0.76294282  0.18718723  1
  O  O86  1  0.51294282  0.99113463  0.68718723  1
  O  O87  1  0.68524824  0.18818883  0.68068920  1
  O  O88  1  0.56033317  0.23966619  0.79712426  1
  O  O89  1  0.75455904  0.75749963  0.81931080  1
  O  O90  1  0.26911262  0.95972532  0.20151362  1
  O  O91  1  0.55815129  0.55700264  0.41925612  1
