# generated using pymatgen
data_Li3Cu3(PO4)2
_symmetry_space_group_name_H-M   'P 1'
_cell_length_a   6.22257636
_cell_length_b   5.44901774
_cell_length_c   10.19925373
_cell_angle_alpha   90.09685868
_cell_angle_beta   90.04627361
_cell_angle_gamma   89.49314084
_symmetry_Int_Tables_number   1
_chemical_formula_structural   Li3Cu3(PO4)2
_chemical_formula_sum   'Li6 Cu6 P4 O16'
_cell_volume   345.81123737
_cell_formula_units_Z   2
loop_
 _symmetry_equiv_pos_site_id
 _symmetry_equiv_pos_as_xyz
  1  'x, y, z'
loop_
 _atom_site_type_symbol
 _atom_site_label
 _atom_site_symmetry_multiplicity
 _atom_site_fract_x
 _atom_site_fract_y
 _atom_site_fract_z
 _atom_site_occupancy
  Li  Li0  1  0.99885432  0.15432954  0.74602710  1
  Li  Li1  1  0.99951436  0.15314164  0.24708962  1
  Li  Li2  1  0.25027582  0.32749751  0.99690166  1
  Li  Li3  1  0.25338325  0.67059094  0.24643293  1
  Li  Li4  1  0.25449832  0.67436238  0.74712199  1
  Li  Li5  1  0.50024501  0.84759929  0.49636428  1
  Cu  Cu6  1  0.24002848  0.34215687  0.50233712  1
  Cu  Cu7  1  0.50120277  0.81835698  0.99742995  1
  Cu  Cu8  1  0.73829589  0.66569147  0.74570774  1
  Cu  Cu9  1  0.74366596  0.66186021  0.24442168  1
  Cu  Cu10  1  0.75926808  0.34162932  0.49918263  1
  Cu  Cu11  1  0.75254315  0.33250728  0.99944395  1
  P  P12  1  0.01090003  0.83035710  0.99923972  1
  P  P13  1  0.00457180  0.82846740  0.49860654  1
  P  P14  1  0.49384984  0.17108944  0.24993246  1
  P  P15  1  0.49260723  0.17464228  0.74958128  1
  O  O16  1  0.01280928  0.83451641  0.65118057  1
  O  O17  1  0.00046564  0.09217593  0.43920464  1
  O  O18  1  0.01343211  0.83135011  0.15205278  1
  O  O19  1  0.01639790  0.09715743  0.94430909  1
  O  O20  1  0.20900567  0.69637776  0.44177353  1
  O  O21  1  0.20543609  0.67838453  0.94416424  1
  O  O22  1  0.29457870  0.31622814  0.19593718  1
  O  O23  1  0.28916865  0.32115762  0.70230956  1
  O  O24  1  0.48967216  0.17692427  0.90201334  1
  O  O25  1  0.48511673  0.90780057  0.69365779  1
  O  O26  1  0.49527572  0.16469610  0.40217739  1
  O  O27  1  0.48529603  0.89942006  0.20081008  1
  O  O28  1  0.70635274  0.29731176  0.70256331  1
  O  O29  1  0.70842656  0.29213874  0.20213276  1
  O  O30  1  0.79221140  0.70040646  0.45313110  1
  O  O31  1  0.80264732  0.69967545  0.94935300  1
