# generated using pymatgen
data_LiMn3(BO3)3
_symmetry_space_group_name_H-M   'P 1'
_cell_length_a   5.79659442
_cell_length_b   14.12442043
_cell_length_c   5.29683991
_cell_angle_alpha   103.42380799
_cell_angle_beta   112.53901266
_cell_angle_gamma   100.80824017
_symmetry_Int_Tables_number   1
_chemical_formula_structural   LiMn3(BO3)3
_chemical_formula_sum   'Li2 Mn6 B6 O18'
_cell_volume   370.69061421
_cell_formula_units_Z   2
loop_
 _symmetry_equiv_pos_site_id
 _symmetry_equiv_pos_as_xyz
  1  'x, y, z'
loop_
 _atom_site_type_symbol
 _atom_site_label
 _atom_site_symmetry_multiplicity
 _atom_site_fract_x
 _atom_site_fract_y
 _atom_site_fract_z
 _atom_site_occupancy
  Li  Li0  1  0.67031392  0.46176918  0.98063810  1
  Li  Li1  1  0.32968608  0.87156482  0.68602890  1
  Mn  Mn2  1  0.72853368  0.25012199  0.85401955  1
  Mn  Mn3  1  0.74401816  0.59675581  0.56120830  1
  Mn  Mn4  1  0.76050054  0.92448262  0.24911041  1
  Mn  Mn5  1  0.27146632  0.08321201  0.81264745  1
  Mn  Mn6  1  0.23949946  0.40885138  0.41755659  1
  Mn  Mn7  1  0.25598184  0.73657719  0.10545870  1
  B  B8  1  0.75349283  0.03257848  0.80991265  1
  B  B9  1  0.74348149  0.37061588  0.45559107  1
  B  B10  1  0.74025905  0.68980917  0.12198872  1
  B  B11  1  0.24650717  0.30075452  0.85675435  1
  B  B12  1  0.25974095  0.64352483  0.54467828  1
  B  B13  1  0.25651851  0.96271712  0.21107593  1
  O  O14  1  0.88884108  0.04879959  0.64491484  1
  O  O15  1  0.82654354  0.38084725  0.24384269  1
  O  O16  1  0.71927514  0.28307516  0.52040618  1
  O  O17  1  0.72129336  0.60208183  0.18747710  1
  O  O18  1  0.64741490  0.10945050  0.89191412  1
  O  O19  1  0.66876206  0.45010716  0.58423413  1
  O  O20  1  0.62898391  0.76326791  0.19909934  1
  O  O21  1  0.87082654  0.70770659  0.95390086  1
  O  O22  1  0.28072486  0.05025784  0.14626082  1
  O  O23  1  0.70297319  0.94380596  0.86033637  1
  O  O24  1  0.11115892  0.28453341  0.02175216  1
  O  O25  1  0.35258510  0.22388250  0.77475288  1
  O  O26  1  0.37101609  0.57006509  0.46756766  1
  O  O27  1  0.33123794  0.88322584  0.08243187  1
  O  O28  1  0.29702681  0.38952704  0.80632963  1
  O  O29  1  0.27870664  0.73125117  0.47918990  1
  O  O30  1  0.12917346  0.62562641  0.71276614  1
  O  O31  1  0.17345646  0.95248675  0.42282431  1
