# generated using pymatgen
data_Li2Co2OF6
_symmetry_space_group_name_H-M   'P 1'
_cell_length_a   8.37365336
_cell_length_b   6.68368919
_cell_length_c   5.33574028
_cell_angle_alpha   97.28759012
_cell_angle_beta   74.80933567
_cell_angle_gamma   108.78365842
_symmetry_Int_Tables_number   1
_chemical_formula_structural   Li2Co2OF6
_chemical_formula_sum   'Li4 Co4 O2 F12'
_cell_volume   272.54691260
_cell_formula_units_Z   2
loop_
 _symmetry_equiv_pos_site_id
 _symmetry_equiv_pos_as_xyz
  1  'x, y, z'
loop_
 _atom_site_type_symbol
 _atom_site_label
 _atom_site_symmetry_multiplicity
 _atom_site_fract_x
 _atom_site_fract_y
 _atom_site_fract_z
 _atom_site_occupancy
  Li  Li0  1  0.25849732  0.57025108  0.10110191  1
  Li  Li1  1  0.34658411  0.74598327  0.56651276  1
  Li  Li2  1  0.65341589  0.25401673  0.43348724  1
  Li  Li3  1  0.74150268  0.42974892  0.89889809  1
  Co  Co4  1  0.19103254  0.99894960  0.30046270  1
  Co  Co5  1  0.29499577  0.20912911  0.78007167  1
  Co  Co6  1  0.70500423  0.79087089  0.21992833  1
  Co  Co7  1  0.80896746  0.00105040  0.69953730  1
  O  O8  1  0.37057977  0.11962914  0.44485625  1
  O  O9  1  0.62942023  0.88037086  0.55514375  1
  F  F10  1  0.15443656  0.71392685  0.38890968  1
  F  F11  1  0.26197132  0.92167554  0.92509963  1
  F  F12  1  0.06412505  0.08131056  0.69574359  1
  F  F13  1  0.20522234  0.26837716  0.13874939  1
  F  F14  1  0.29151022  0.49037819  0.73543175  1
  F  F15  1  0.47513307  0.70494694  0.19302831  1
  F  F16  1  0.52486693  0.29505306  0.80697169  1
  F  F17  1  0.70848978  0.50962181  0.26456825  1
  F  F18  1  0.79477666  0.73162284  0.86125061  1
  F  F19  1  0.93587495  0.91868944  0.30425641  1
  F  F20  1  0.73802868  0.07832446  0.07490037  1
  F  F21  1  0.84556344  0.28607315  0.61109032  1
