# generated using pymatgen
data_Li5Mn2(PO4)3
_symmetry_space_group_name_H-M   'P 1'
_cell_length_a   8.99869919
_cell_length_b   8.94775280
_cell_length_c   12.50761020
_cell_angle_alpha   89.35433284
_cell_angle_beta   86.64414226
_cell_angle_gamma   89.80005264
_symmetry_Int_Tables_number   1
_chemical_formula_structural   Li5Mn2(PO4)3
_chemical_formula_sum   'Li20 Mn8 P12 O48'
_cell_volume   1005.29464832
_cell_formula_units_Z   4
loop_
 _symmetry_equiv_pos_site_id
 _symmetry_equiv_pos_as_xyz
  1  'x, y, z'
loop_
 _atom_site_type_symbol
 _atom_site_label
 _atom_site_symmetry_multiplicity
 _atom_site_fract_x
 _atom_site_fract_y
 _atom_site_fract_z
 _atom_site_occupancy
  Li  Li0  1  0.94873413  0.51898566  0.34687226  1
  Li  Li1  1  0.91471433  0.03409880  0.68644921  1
  Li  Li2  1  0.83959587  0.72585167  0.77047868  1
  Li  Li3  1  0.80140346  0.77958783  0.17425708  1
  Li  Li4  1  0.71625800  0.27900974  0.33946250  1
  Li  Li5  1  0.66432374  0.22845306  0.72994835  1
  Li  Li6  1  0.59167839  0.53178238  0.80948580  1
  Li  Li7  1  0.58396977  0.25539025  0.18811737  1
  Li  Li8  1  0.53825745  0.96784227  0.17383211  1
  Li  Li9  1  0.46833201  0.02080413  0.83571395  1
  Li  Li10  1  0.42199234  0.75076226  0.81187576  1
  Li  Li11  1  0.40341690  0.45933218  0.19967979  1
  Li  Li12  1  0.34244530  0.77214321  0.26692256  1
  Li  Li13  1  0.33414017  0.73055544  0.62742777  1
  Li  Li14  1  0.21753570  0.20297182  0.84889063  1
  Li  Li15  1  0.15450424  0.59067087  0.74188954  1
  Li  Li16  1  0.13872374  0.27772985  0.23908257  1
  Li  Li17  1  0.05784259  0.91093023  0.30526412  1
  Li  Li18  1  0.08546020  0.23985279  0.69674564  1
  Li  Li19  1  0.95927749  0.49053563  0.66192893  1
  Mn  Mn20  1  0.76470234  0.03900279  0.90789031  1
  Mn  Mn21  1  0.71370725  0.55871235  0.58018820  1
  Mn  Mn22  1  0.73992377  0.94891564  0.39595895  1
  Mn  Mn23  1  0.77409872  0.46975135  0.09729630  1
  Mn  Mn24  1  0.26788081  0.52357591  0.93198032  1
  Mn  Mn25  1  0.25800995  0.03860037  0.59167457  1
  Mn  Mn26  1  0.25486133  0.44841864  0.41285790  1
  Mn  Mn27  1  0.23911492  0.96454742  0.09451637  1
  P  P28  1  0.94131154  0.25047371  0.49089884  1
  P  P29  1  0.90058372  0.38031179  0.84476902  1
  P  P30  1  0.89443301  0.09945726  0.15986307  1
  P  P31  1  0.60376975  0.88324463  0.65384207  1
  P  P32  1  0.59464124  0.59826569  0.32826195  1
  P  P33  1  0.55235785  0.75004749  0.00435457  1
  P  P34  1  0.46585716  0.24304149  0.99619742  1
  P  P35  1  0.39264620  0.40778649  0.67007768  1
  P  P36  1  0.39591587  0.11866137  0.33994470  1
  P  P37  1  0.11024468  0.91306795  0.83495776  1
  P  P38  1  0.09866549  0.62101905  0.15590352  1
  P  P39  1  0.04390161  0.74694827  0.51159378  1
  O  O40  1  0.95503948  0.85910680  0.44665336  1
  O  O41  1  0.93903848  0.88578185  0.84450349  1
  O  O42  1  0.94985502  0.68815569  0.61502124  1
  O  O43  1  0.93074117  0.59852286  0.19296307  1
  O  O44  1  0.87946506  0.38132636  0.56201078  1
  O  O45  1  0.89071270  0.38134005  0.96580175  1
  O  O46  1  0.86029064  0.22396197  0.79902707  1
  O  O47  1  0.86699869  0.97413479  0.24715532  1
  O  O48  1  0.81796918  0.24966056  0.19425088  1
  O  O49  1  0.80899656  0.16749272  0.44721256  1
  O  O50  1  0.80720418  0.50490881  0.79173411  1
  O  O51  1  0.82203345  0.03878664  0.06071694  1
  O  O52  1  0.69723402  0.00616952  0.70459550  1
  O  O53  1  0.68056592  0.53784016  0.42372064  1
  O  O54  1  0.64068836  0.72404418  0.70256285  1
  O  O55  1  0.69949879  0.69151052  0.04591685  1
  O  O56  1  0.62025387  0.87248471  0.53259397  1
  O  O57  1  0.64914697  0.75613652  0.29389889  1
  O  O58  1  0.62381180  0.47603518  0.24080909  1
  O  O59  1  0.58067935  0.88045831  0.92079513  1
  O  O60  1  0.56283080  0.19395263  0.89402698  1
  O  O61  1  0.56563053  0.39633434  0.66126135  1
  O  O62  1  0.56642876  0.10376703  0.30388293  1
  O  O63  1  0.54249118  0.36446295  0.06009478  1
  O  O64  1  0.47619966  0.62947305  0.93558176  1
  O  O65  1  0.43559196  0.91002333  0.69267334  1
  O  O66  1  0.42188602  0.60345057  0.34769211  1
  O  O67  1  0.44504751  0.80038778  0.09936383  1
  O  O68  1  0.43512154  0.10877024  0.07389290  1
  O  O69  1  0.35848352  0.52884578  0.76005323  1
  O  O70  1  0.32250542  0.25503386  0.70126508  1
  O  O71  1  0.37350308  0.12007982  0.46179478  1
  O  O72  1  0.31559879  0.30251562  0.95661428  1
  O  O73  1  0.34587067  0.27459552  0.29496929  1
  O  O74  1  0.32415798  0.47895878  0.57094318  1
  O  O75  1  0.31355966  0.98923459  0.28622502  1
  O  O76  1  0.18330431  0.98113237  0.93209516  1
  O  O77  1  0.18891745  0.49516753  0.20904364  1
  O  O78  1  0.18708694  0.81953607  0.55129902  1
  O  O79  1  0.19345505  0.76741780  0.80234537  1
  O  O80  1  0.13182962  0.03686238  0.74538825  1
  O  O81  1  0.14824208  0.77706587  0.19657433  1
  O  O82  1  0.11962891  0.61971153  0.03324807  1
  O  O83  1  0.08628940  0.61335655  0.43841545  1
  O  O84  1  0.06516715  0.40951783  0.79514601  1
  O  O85  1  0.04301234  0.31471636  0.39555206  1
  O  O86  1  0.06613578  0.12087401  0.14705134  1
  O  O87  1  0.03185919  0.14966889  0.56660506  1
