# generated using pymatgen
data_Fe4O3F5
_symmetry_space_group_name_H-M   'P 1'
_cell_length_a   5.88137495
_cell_length_b   9.29526330
_cell_length_c   5.88137495
_cell_angle_alpha   91.42859901
_cell_angle_beta   64.30252364
_cell_angle_gamma   91.42859901
_symmetry_Int_Tables_number   1
_chemical_formula_structural   Fe4O3F5
_chemical_formula_sum   'Fe8 O6 F10'
_cell_volume   289.60241247
_cell_formula_units_Z   2
loop_
 _symmetry_equiv_pos_site_id
 _symmetry_equiv_pos_as_xyz
  1  'x, y, z'
loop_
 _atom_site_type_symbol
 _atom_site_label
 _atom_site_symmetry_multiplicity
 _atom_site_fract_x
 _atom_site_fract_y
 _atom_site_fract_z
 _atom_site_occupancy
  Fe  Fe0  1  0.00000000  0.00000000  0.00000000  1
  Fe  Fe1  1  0.00000000  0.50000000  0.00000000  1
  Fe  Fe2  1  0.51864118  0.26405606  0.01864118  1
  Fe  Fe3  1  0.03719628  0.24091310  0.53719628  1
  Fe  Fe4  1  0.48135882  0.73594394  0.98135882  1
  Fe  Fe5  1  0.96280372  0.75908690  0.46280372  1
  Fe  Fe6  1  0.50000000  0.50000000  0.50000000  1
  Fe  Fe7  1  0.50000000  0.00000000  0.50000000  1
  O  O8  1  0.14872100  0.64343203  0.14404648  1
  O  O9  1  0.35595352  0.35656797  0.35127900  1
  O  O10  1  0.15726817  0.09248982  0.65726817  1
  O  O11  1  0.84273183  0.90751018  0.34273183  1
  O  O12  1  0.64404648  0.64343203  0.64872100  1
  O  O13  1  0.85127900  0.35656797  0.85595352  1
  F  F14  1  0.16906092  0.16288826  0.16279525  1
  F  F15  1  0.33720475  0.83711174  0.33093908  1
  F  F16  1  0.15766629  0.59792703  0.65766629  1
  F  F17  1  0.64106448  0.10165357  0.14106448  1
  F  F18  1  0.65426780  0.60266121  0.15426780  1
  F  F19  1  0.84233371  0.40207297  0.34233371  1
  F  F20  1  0.34573220  0.39733879  0.84573220  1
  F  F21  1  0.35893552  0.89834643  0.85893552  1
  F  F22  1  0.66279525  0.16288826  0.66906092  1
  F  F23  1  0.83093908  0.83711174  0.83720475  1
