# generated using pymatgen
data_Na4Mn2As(CO4)4
_symmetry_space_group_name_H-M   'P 1'
_cell_length_a   10.15977249
_cell_length_b   9.97882901
_cell_length_c   10.15977276
_cell_angle_alpha   59.07159451
_cell_angle_beta   89.44847277
_cell_angle_gamma   59.07160034
_symmetry_Int_Tables_number   1
_chemical_formula_structural   Na4Mn2As(CO4)4
_chemical_formula_sum   'Na8 Mn4 As2 C8 O32'
_cell_volume   711.14197644
_cell_formula_units_Z   2
loop_
 _symmetry_equiv_pos_site_id
 _symmetry_equiv_pos_as_xyz
  1  'x, y, z'
loop_
 _atom_site_type_symbol
 _atom_site_label
 _atom_site_symmetry_multiplicity
 _atom_site_fract_x
 _atom_site_fract_y
 _atom_site_fract_z
 _atom_site_occupancy
  Na  Na0  1  0.08885524  0.82228953  0.83885524  1
  Na  Na1  1  0.08455850  0.25000000  0.83455850  1
  Na  Na2  1  0.33455850  0.75000000  0.58455850  1
  Na  Na3  1  0.33885524  0.32228953  0.58885524  1
  Na  Na4  1  0.66114476  0.67771047  0.41114476  1
  Na  Na5  1  0.66544150  0.25000000  0.41544150  1
  Na  Na6  1  0.91544150  0.75000000  0.16544150  1
  Na  Na7  1  0.91114476  0.17771047  0.16114476  1
  Mn  Mn8  1  0.00000000  0.50000000  0.00000000  1
  Mn  Mn9  1  0.50000000  0.00000000  0.50000000  1
  Mn  Mn10  1  0.50000000  0.50000000  0.00000000  1
  Mn  Mn11  1  0.50000000  0.00000000  0.00000000  1
  As  As12  1  0.12500000  0.75000000  0.37500000  1
  As  As13  1  0.87500000  0.25000000  0.62500000  1
  C  C14  1  0.35994701  0.92850834  0.77672157  1
  C  C15  1  0.27672157  0.42850834  0.85994701  1
  C  C16  1  0.71154565  0.92850834  0.79477009  1
  C  C17  1  0.70522991  0.57149166  0.78845435  1
  C  C18  1  0.29477009  0.42850834  0.21154565  1
  C  C19  1  0.28845435  0.07149166  0.20522991  1
  C  C20  1  0.72327843  0.57149166  0.14005399  1
  C  C21  1  0.64005299  0.07149166  0.22327843  1
  O  O22  1  0.35380227  0.78785789  0.88857523  1
  O  O23  1  0.05693652  0.89738199  0.43772853  1
  O  O24  1  0.36923606  0.94754444  0.64090478  1
  O  O25  1  0.14090478  0.44754444  0.86923606  1
  O  O26  1  0.68321950  0.94754444  0.91155078  1
  O  O27  1  0.30011537  0.54765550  0.84919998  1
  O  O28  1  0.04568149  0.89738199  0.16488948  1
  O  O29  1  0.06227147  0.60261801  0.44306348  1
  O  O30  1  0.39685648  0.95234450  0.34777088  1
  O  O31  1  0.58844922  0.55245556  0.81678050  1
  O  O32  1  0.38857523  0.28785789  0.85380227  1
  O  O33  1  0.33511052  0.60261801  0.45431851  1
  O  O34  1  0.85834084  0.78785789  0.82356689  1
  O  O35  1  0.67643311  0.71214211  0.64165916  1
  O  O36  1  0.34919998  0.04765550  0.80011537  1
  O  O37  1  0.15222912  0.54765550  0.10314352  1
  O  O38  1  0.84777088  0.45234450  0.89685648  1
  O  O39  1  0.65080002  0.95234450  0.19988463  1
  O  O40  1  0.32356689  0.28785789  0.35834084  1
  O  O41  1  0.14165916  0.21214211  0.17643311  1
  O  O42  1  0.66488948  0.39738199  0.54568149  1
  O  O43  1  0.61142477  0.71214211  0.14619773  1
  O  O44  1  0.41155078  0.44754444  0.18321950  1
  O  O45  1  0.60314352  0.04765550  0.65222912  1
  O  O46  1  0.93772853  0.39738199  0.55693652  1
  O  O47  1  0.95431851  0.10261801  0.83511052  1
  O  O48  1  0.69988463  0.45234450  0.15080002  1
  O  O49  1  0.31678050  0.05245556  0.08844922  1
  O  O50  1  0.85909522  0.55245556  0.13076394  1
  O  O51  1  0.63076394  0.05245556  0.35909522  1
  O  O52  1  0.94306348  0.10261801  0.56227147  1
  O  O53  1  0.64619773  0.21214211  0.11142477  1
