# generated using pymatgen
data_Fe5O7F3
_symmetry_space_group_name_H-M   'P 1'
_cell_length_a   4.67708629
_cell_length_b   4.66686723
_cell_length_c   15.23342956
_cell_angle_alpha   89.98625693
_cell_angle_beta   89.90046868
_cell_angle_gamma   91.57366420
_symmetry_Int_Tables_number   1
_chemical_formula_structural   Fe5O7F3
_chemical_formula_sum   'Fe10 O14 F6'
_cell_volume   332.37933624
_cell_formula_units_Z   2
loop_
 _symmetry_equiv_pos_site_id
 _symmetry_equiv_pos_as_xyz
  1  'x, y, z'
loop_
 _atom_site_type_symbol
 _atom_site_label
 _atom_site_symmetry_multiplicity
 _atom_site_fract_x
 _atom_site_fract_y
 _atom_site_fract_z
 _atom_site_occupancy
  Fe  Fe0  1  0.00513786  0.00111397  0.00052122  1
  Fe  Fe1  1  0.96874739  0.98067203  0.20457865  1
  Fe  Fe2  1  0.03602692  0.01456315  0.39395168  1
  Fe  Fe3  1  0.01138761  0.98158666  0.59996125  1
  Fe  Fe4  1  0.01470015  0.98565329  0.80075576  1
  Fe  Fe5  1  0.53587321  0.47765702  0.09307865  1
  Fe  Fe6  1  0.46987815  0.51388806  0.50631023  1
  Fe  Fe7  1  0.50253819  0.49833419  0.29918306  1
  Fe  Fe8  1  0.48304363  0.51639278  0.70184107  1
  Fe  Fe9  1  0.47912498  0.52123931  0.89946977  1
  O  O10  1  0.20195514  0.79730880  0.29652154  1
  O  O11  1  0.19204338  0.82212670  0.49809469  1
  O  O12  1  0.18538844  0.80913782  0.70197918  1
  O  O13  1  0.18506894  0.81790660  0.90350220  1
  O  O14  1  0.30791182  0.30260698  0.99708968  1
  O  O15  1  0.31986520  0.32440568  0.39955025  1
  O  O16  1  0.29778595  0.30792749  0.60561297  1
  O  O17  1  0.30353339  0.31135184  0.80116156  1
  O  O18  1  0.69930303  0.69776318  0.99587219  1
  O  O19  1  0.68696910  0.66858386  0.19845378  1
  O  O20  1  0.68735729  0.69671041  0.60377056  1
  O  O21  1  0.68762672  0.69737335  0.80091424  1
  O  O22  1  0.82005751  0.17264682  0.09787939  1
  O  O23  1  0.80320101  0.19772679  0.30079739  1
  F  F24  1  0.20207756  0.78699935  0.10064319  1
  F  F25  1  0.30368883  0.28208813  0.19473898  1
  F  F26  1  0.70379318  0.70938230  0.40312087  1
  F  F27  1  0.80373138  0.20736681  0.50041417  1
  F  F28  1  0.80156466  0.20336906  0.89820486  1
  F  F29  1  0.80061938  0.19611759  0.70202497  1
