# generated using pymatgen
data_Fe5O7F3
_symmetry_space_group_name_H-M   'P 1'
_cell_length_a   4.66337824
_cell_length_b   4.65506621
_cell_length_c   15.20651063
_cell_angle_alpha   90.03151659
_cell_angle_beta   90.00352874
_cell_angle_gamma   91.48227523
_symmetry_Int_Tables_number   1
_chemical_formula_structural   Fe5O7F3
_chemical_formula_sum   'Fe10 O14 F6'
_cell_volume   329.99750550
_cell_formula_units_Z   2
loop_
 _symmetry_equiv_pos_site_id
 _symmetry_equiv_pos_as_xyz
  1  'x, y, z'
loop_
 _atom_site_type_symbol
 _atom_site_label
 _atom_site_symmetry_multiplicity
 _atom_site_fract_x
 _atom_site_fract_y
 _atom_site_fract_z
 _atom_site_occupancy
  Fe  Fe0  1  0.00000000  0.00000000  0.00000000  1
  Fe  Fe1  1  0.98760279  0.02025981  0.20013164  1
  Fe  Fe2  1  0.96762538  0.98354184  0.40527172  1
  Fe  Fe3  1  0.03237462  0.01645816  0.59472828  1
  Fe  Fe4  1  0.01239721  0.97974019  0.79986836  1
  Fe  Fe5  1  0.52124358  0.47971431  0.09869599  1
  Fe  Fe6  1  0.50000000  0.50000000  0.50000000  1
  Fe  Fe7  1  0.52999947  0.48661096  0.29349086  1
  Fe  Fe8  1  0.47000053  0.51338904  0.70650914  1
  Fe  Fe9  1  0.47875642  0.52028569  0.90130401  1
  O  O10  1  0.19886448  0.79961007  0.49783603  1
  O  O11  1  0.19222217  0.82108262  0.69800687  1
  O  O12  1  0.18041155  0.81374696  0.90432560  1
  O  O13  1  0.30757231  0.30630199  0.00019443  1
  O  O14  1  0.31402070  0.30040115  0.19697814  1
  O  O15  1  0.31787082  0.32445398  0.60024927  1
  O  O16  1  0.29412475  0.30858614  0.80501358  1
  O  O17  1  0.69242769  0.69369801  0.99980557  1
  O  O18  1  0.70587525  0.69141386  0.19498642  1
  O  O19  1  0.68212918  0.67554602  0.39975073  1
  O  O20  1  0.68597930  0.69959885  0.80302186  1
  O  O21  1  0.81958845  0.18625304  0.09567440  1
  O  O22  1  0.80113552  0.20038993  0.50216397  1
  O  O23  1  0.80777783  0.17891738  0.30199313  1
  F  F24  1  0.20308263  0.80044767  0.10140260  1
  F  F25  1  0.19743414  0.79322244  0.29993179  1
  F  F26  1  0.29698528  0.29031320  0.39608017  1
  F  F27  1  0.70301472  0.70968680  0.60391983  1
  F  F28  1  0.79691737  0.19955233  0.89859740  1
  F  F29  1  0.80256586  0.20677756  0.70006821  1
