# generated using pymatgen
data_Al2FeO4
_symmetry_space_group_name_H-M   'P 1'
_cell_length_a   5.81204136
_cell_length_b   5.81204142
_cell_length_c   23.37140860
_cell_angle_alpha   60.17428620
_cell_angle_beta   60.17428589
_cell_angle_gamma   60.00000410
_symmetry_Int_Tables_number   1
_chemical_formula_structural   Al2FeO4
_chemical_formula_sum   'Al16 Fe8 O32'
_cell_volume   559.71425539
_cell_formula_units_Z   8
loop_
 _symmetry_equiv_pos_site_id
 _symmetry_equiv_pos_as_xyz
  1  'x, y, z'
loop_
 _atom_site_type_symbol
 _atom_site_label
 _atom_site_symmetry_multiplicity
 _atom_site_fract_x
 _atom_site_fract_y
 _atom_site_fract_z
 _atom_site_occupancy
  Al  Al0  1  0.00674184  0.49617817  0.12522545  1
  Al  Al1  1  0.49617817  0.49617817  0.12522545  1
  Al  Al2  1  0.00161869  0.49596031  0.37661517  1
  Al  Al3  1  0.49617817  0.00674184  0.12522545  1
  Al  Al4  1  0.49596031  0.49596031  0.37661517  1
  Al  Al5  1  0.00035583  0.50103047  0.62439581  1
  Al  Al6  1  0.88079041  0.88079041  0.21440719  1
  Al  Al7  1  0.50031204  0.50031204  0.49976597  1
  Al  Al8  1  0.49596031  0.00161869  0.37661517  1
  Al  Al9  1  0.50103047  0.50103047  0.62439581  1
  Al  Al10  1  0.00801098  0.49905922  0.87346765  1
  Al  Al11  1  0.50287778  0.50287778  0.74784166  1
  Al  Al12  1  0.50103047  0.00035583  0.62439581  1
  Al  Al13  1  0.49905922  0.49905922  0.87346765  1
  Al  Al14  1  0.49905922  0.00801098  0.87346765  1
  Al  Al15  1  0.87763831  0.87763831  0.96677127  1
  Fe  Fe16  1  0.12425916  0.12425916  0.03180563  1
  Fe  Fe17  1  0.12065108  0.12065108  0.28451169  1
  Fe  Fe18  1  0.49936925  0.49936925  0.00047306  1
  Fe  Fe19  1  0.49668151  0.49668151  0.25248887  1
  Fe  Fe20  1  0.12323272  0.12323272  0.53257546  1
  Fe  Fe21  1  0.12746883  0.12746883  0.77939838  1
  Fe  Fe22  1  0.87777280  0.87777280  0.46667040  1
  Fe  Fe23  1  0.87228913  0.87228913  0.72078315  1
  O  O24  1  0.25053593  0.25053593  0.07293889  1
  O  O25  1  0.26046530  0.26046530  0.17965103  1
  O  O26  1  0.25053593  0.70717259  0.07293889  1
  O  O27  1  0.70717259  0.25053593  0.07293889  1
  O  O28  1  0.24553698  0.24553698  0.32492923  1
  O  O29  1  0.26926782  0.75464707  0.18035951  1
  O  O30  1  0.75464707  0.26926782  0.18035951  1
  O  O31  1  0.26134070  0.26134070  0.42899447  1
  O  O32  1  0.74458568  0.74458568  0.06656074  1
  O  O33  1  0.24553698  0.70920910  0.32492923  1
  O  O34  1  0.75464707  0.75464707  0.18035951  1
  O  O35  1  0.70920910  0.24553698  0.32492923  1
  O  O36  1  0.26621377  0.26621377  0.56586170  1
  O  O37  1  0.30341189  0.73249835  0.43289785  1
  O  O38  1  0.75128197  0.75128197  0.31153852  1
  O  O39  1  0.73249835  0.30341189  0.43289785  1
  O  O40  1  0.26712737  0.26712737  0.67465447  1
  O  O41  1  0.26621377  0.70412565  0.56586170  1
  O  O42  1  0.73249835  0.73249835  0.43289785  1
  O  O43  1  0.70412565  0.26621377  0.56586170  1
  O  O44  1  0.26887296  0.26887296  0.81461301  1
  O  O45  1  0.29705821  0.73598352  0.68274368  1
  O  O46  1  0.73597342  0.73597342  0.57301993  1
  O  O47  1  0.26639441  0.26639441  0.92520419  1
  O  O48  1  0.73598352  0.29705821  0.68274368  1
  O  O49  1  0.26887296  0.70380206  0.81461301  1
  O  O50  1  0.73598352  0.73598352  0.68274368  1
  O  O51  1  0.70380206  0.26887296  0.81461301  1
  O  O52  1  0.25983736  0.75922148  0.93042992  1
  O  O53  1  0.72739963  0.72739963  0.82945027  1
  O  O54  1  0.75922148  0.25983736  0.93042992  1
  O  O55  1  0.75922148  0.75922148  0.93042992  1
