# generated using pymatgen
data_LiMn3(BO3)3
_symmetry_space_group_name_H-M   'P 1'
_cell_length_a   7.72057683
_cell_length_b   9.10603465
_cell_length_c   6.18527364
_cell_angle_alpha   105.43021305
_cell_angle_beta   82.43379319
_cell_angle_gamma   66.43795474
_symmetry_Int_Tables_number   1
_chemical_formula_structural   LiMn3(BO3)3
_chemical_formula_sum   'Li2 Mn6 B6 O18'
_cell_volume   370.02264463
_cell_formula_units_Z   2
loop_
 _symmetry_equiv_pos_site_id
 _symmetry_equiv_pos_as_xyz
  1  'x, y, z'
loop_
 _atom_site_type_symbol
 _atom_site_label
 _atom_site_symmetry_multiplicity
 _atom_site_fract_x
 _atom_site_fract_y
 _atom_site_fract_z
 _atom_site_occupancy
  Li  Li0  1  0.38522768  0.61066815  0.94550988  1
  Li  Li1  1  0.72398895  0.94175699  0.60551367  1
  Mn  Mn2  1  0.99337831  0.40119934  0.75102640  1
  Mn  Mn3  1  0.69289165  0.27264666  0.57311474  1
  Mn  Mn4  1  0.65539062  0.06326589  0.10064474  1
  Mn  Mn5  1  0.33609493  0.95913191  0.92756215  1
  Mn  Mn6  1  0.30862455  0.72970056  0.44553217  1
  Mn  Mn7  1  0.00791736  0.59170156  0.23901521  1
  B  B8  1  0.97878823  0.05987531  0.76777941  1
  B  B9  1  0.36131412  0.27789107  0.87525912  1
  B  B10  1  0.68413364  0.62291246  0.58456231  1
  B  B11  1  0.31609362  0.38254822  0.43380931  1
  B  B12  1  0.63499316  0.72267165  0.09978363  1
  B  B13  1  0.02239968  0.93578550  0.23364470  1
  O  O14  1  0.88266849  0.22350559  0.75667230  1
  O  O15  1  0.84441269  0.63494242  0.02118125  1
  O  O16  1  0.88184842  0.97259340  0.81464087  1
  O  O17  1  0.82094796  0.02346849  0.35717986  1
  O  O18  1  0.46362830  0.10813363  0.85410029  1
  O  O19  1  0.79871595  0.45568103  0.57298066  1
  O  O20  1  0.45119008  0.37218466  0.82877836  1
  O  O21  1  0.76924593  0.71004397  0.50040235  1
  O  O22  1  0.48425649  0.69612317  0.68972368  1
  O  O23  1  0.52181190  0.31223458  0.36152781  1
  O  O24  1  0.23170859  0.29296707  0.50681244  1
  O  O25  1  0.53621482  0.64203440  0.16118545  1
  O  O26  1  0.20757812  0.54016848  0.41402251  1
  O  O27  1  0.54502367  0.88709950  0.08943334  1
  O  O28  1  0.18436927  0.98299891  0.70189974  1
  O  O29  1  0.10800949  0.02703604  0.16831986  1
  O  O30  1  0.15507330  0.36234978  0.97290237  1
  O  O31  1  0.12301704  0.76320262  0.19749143  1
