# generated using pymatgen
data_Li4Co5Te3O16
_symmetry_space_group_name_H-M   'P 1'
_cell_length_a   6.19118492
_cell_length_b   6.18917477
_cell_length_c   9.86318491
_cell_angle_alpha   90.37339092
_cell_angle_beta   91.34628020
_cell_angle_gamma   120.21132838
_symmetry_Int_Tables_number   1
_chemical_formula_structural   Li4Co5Te3O16
_chemical_formula_sum   'Li4 Co5 Te3 O16'
_cell_volume   326.44332326
_cell_formula_units_Z   1
loop_
 _symmetry_equiv_pos_site_id
 _symmetry_equiv_pos_as_xyz
  1  'x, y, z'
loop_
 _atom_site_type_symbol
 _atom_site_label
 _atom_site_symmetry_multiplicity
 _atom_site_fract_x
 _atom_site_fract_y
 _atom_site_fract_z
 _atom_site_occupancy
  Li  Li0  1  0.32361379  0.65542292  0.86902105  1
  Li  Li1  1  0.96077788  0.98159567  0.98825963  1
  Li  Li2  1  0.98077933  0.99276463  0.50724559  1
  Li  Li3  1  0.64491012  0.31959810  0.40326584  1
  Co  Co4  1  0.35533810  0.68466141  0.51951806  1
  Co  Co5  1  0.66208725  0.82949237  0.21652691  1
  Co  Co6  1  0.70384953  0.35434346  0.97205331  1
  Co  Co7  1  0.84062852  0.66542688  0.71306041  1
  Co  Co8  1  0.83844048  0.17217440  0.71425546  1
  Te  Te9  1  0.16922937  0.83212923  0.21492551  1
  Te  Te10  1  0.16748455  0.33687129  0.21658875  1
  Te  Te11  1  0.34653828  0.17393741  0.71648166  1
  O  O12  1  0.17827194  0.86320854  0.60012012  1
  O  O13  1  0.02811054  0.50302059  0.33253969  1
  O  O14  1  0.30946653  0.64131341  0.10134547  1
  O  O15  1  0.01738935  0.01982656  0.32186268  1
  O  O16  1  0.03135319  0.01733295  0.81156674  1
  O  O17  1  0.17976487  0.32081443  0.60324160  1
  O  O18  1  0.47769333  0.96641381  0.33018428  1
  O  O19  1  0.46999856  0.50356121  0.32757606  1
  O  O20  1  0.30426416  0.16448924  0.10462767  1
  O  O21  1  0.68733078  0.86410571  0.60810169  1
  O  O22  1  0.50997622  0.47124085  0.83708515  1
  O  O23  1  0.50397968  0.03399526  0.83599790  1
  O  O24  1  0.64372552  0.32015682  0.60399283  1
  O  O25  1  0.84609787  0.68458782  0.10186795  1
  O  O26  1  0.96216811  0.46033316  0.82891652  1
  O  O27  1  0.85673316  0.16747887  0.10761146  1
