# generated using pymatgen
data_Li3Ti2(CoO4)2
_symmetry_space_group_name_H-M   'P 1'
_cell_length_a   5.98568143
_cell_length_b   6.01658396
_cell_length_c   5.90950910
_cell_angle_alpha   60.54191707
_cell_angle_beta   59.65730543
_cell_angle_gamma   91.02307020
_symmetry_Int_Tables_number   1
_chemical_formula_structural   Li3Ti2(CoO4)2
_chemical_formula_sum   'Li3 Ti2 Co2 O8'
_cell_volume   149.54502669
_cell_formula_units_Z   1
loop_
 _symmetry_equiv_pos_site_id
 _symmetry_equiv_pos_as_xyz
  1  'x, y, z'
loop_
 _atom_site_type_symbol
 _atom_site_label
 _atom_site_symmetry_multiplicity
 _atom_site_fract_x
 _atom_site_fract_y
 _atom_site_fract_z
 _atom_site_occupancy
  Li  Li0  1  -0.00000000  0.50000000  -0.00000000  1
  Li  Li1  1  0.50000000  0.00000000  0.50000000  1
  Li  Li2  1  0.50000000  0.50000000  -0.00000000  1
  Ti  Ti3  1  -0.00000000  0.00000000  0.50000000  1
  Ti  Ti4  1  -0.00000000  0.00000000  -0.00000000  1
  Co  Co5  1  -0.00000000  0.50000000  0.50000000  1
  Co  Co6  1  0.50000000  0.00000000  -0.00000000  1
  O  O7  1  0.24646721  0.78661483  0.46378573  1
  O  O8  1  0.77324381  0.77446540  0.97409415  1
  O  O9  1  0.23354104  0.77029037  0.00129769  1
  O  O10  1  0.22290159  0.22174394  0.52151762  1
  O  O11  1  0.77709841  0.77825606  0.47848238  1
  O  O12  1  0.76645896  0.22970963  -0.00129769  1
  O  O13  1  0.22675619  0.22553460  0.02590585  1
  O  O14  1  0.75353279  0.21338517  0.53621427  1
