# generated using pymatgen
data_LiMnSiO4
_symmetry_space_group_name_H-M   'P 1'
_cell_length_a   5.98560571
_cell_length_b   5.67539357
_cell_length_c   5.69421171
_cell_angle_alpha   59.89026129
_cell_angle_beta   90.00000000
_cell_angle_gamma   121.82520155
_symmetry_Int_Tables_number   1
_chemical_formula_structural   LiMnSiO4
_chemical_formula_sum   'Li2 Mn2 Si2 O8'
_cell_volume   132.65025879
_cell_formula_units_Z   2
loop_
 _symmetry_equiv_pos_site_id
 _symmetry_equiv_pos_as_xyz
  1  'x, y, z'
loop_
 _atom_site_type_symbol
 _atom_site_label
 _atom_site_symmetry_multiplicity
 _atom_site_fract_x
 _atom_site_fract_y
 _atom_site_fract_z
 _atom_site_occupancy
  Li  Li0  1  0.00000000  0.50000000  0.00000000  1
  Li  Li1  1  0.00000000  0.50000000  0.50000000  1
  Mn  Mn2  1  0.00000000  0.00000000  0.00000000  1
  Mn  Mn3  1  0.50000000  0.00000000  0.00000000  1
  Si  Si4  1  0.38339964  0.26679827  0.36660036  1
  Si  Si5  1  0.61660036  0.73320173  0.63339964  1
  O  O6  1  0.25685181  0.01370461  0.25581690  1
  O  O7  1  0.74314819  0.98629539  0.26952151  1
  O  O8  1  0.27125503  0.50543841  0.24728080  1
  O  O9  1  0.73418337  0.50543841  0.24728080  1
  O  O10  1  0.25685181  0.01370461  0.73047849  1
  O  O11  1  0.74314819  0.98629539  0.74418310  1
  O  O12  1  0.26581663  0.49456159  0.75271920  1
  O  O13  1  0.72874497  0.49456159  0.75271920  1
