# generated using pymatgen
data_Na2Cr7O14
_symmetry_space_group_name_H-M   'P 1'
_cell_length_a   5.75510349
_cell_length_b   9.95362735
_cell_length_c   5.75534240
_cell_angle_alpha   106.87719894
_cell_angle_beta   59.99836812
_cell_angle_gamma   106.89657284
_symmetry_Int_Tables_number   1
_chemical_formula_structural   Na2Cr7O14
_chemical_formula_sum   'Na2 Cr7 O14'
_cell_volume   268.97504664
_cell_formula_units_Z   1
loop_
 _symmetry_equiv_pos_site_id
 _symmetry_equiv_pos_as_xyz
  1  'x, y, z'
loop_
 _atom_site_type_symbol
 _atom_site_label
 _atom_site_symmetry_multiplicity
 _atom_site_fract_x
 _atom_site_fract_y
 _atom_site_fract_z
 _atom_site_occupancy
  Na  Na0  1  0.30170721  0.90530557  0.30195284  1
  Na  Na1  1  0.69829063  0.09483518  0.69814643  1
  Cr  Cr2  1  -0.00002201  0.49995387  -0.00008978  1
  Cr  Cr3  1  0.06018793  0.18141874  0.06041238  1
  Cr  Cr4  1  -0.00003323  0.49995168  0.50005081  1
  Cr  Cr5  1  0.50005906  0.49995217  -0.00004978  1
  Cr  Cr6  1  0.57623633  0.72844230  0.57606776  1
  Cr  Cr7  1  0.42373017  0.27151684  0.42388279  1
  Cr  Cr8  1  0.93982202  0.81860800  0.93957575  1
  O  O9  1  0.12841804  0.38579167  0.12855839  1
  O  O10  1  0.11643132  0.39073477  0.63706500  1
  O  O11  1  0.36320491  0.60927624  0.36304684  1
  O  O12  1  0.29905981  0.85544081  0.77855620  1
  O  O13  1  0.22107875  0.14469900  0.22128619  1
  O  O14  1  0.22103567  0.14454949  0.70123792  1
  O  O15  1  0.36307207  0.60927860  0.88345729  1
  O  O16  1  0.63696059  0.39074558  0.11655187  1
  O  O17  1  0.77890100  0.85541697  0.29875060  1
  O  O18  1  0.77896817  0.85526590  0.77862262  1
  O  O19  1  0.70094529  0.14452678  0.22146661  1
  O  O20  1  0.63681569  0.39075369  0.63695676  1
  O  O21  1  0.88360640  0.60929122  0.36293223  1
  O  O22  1  0.87163318  0.61424593  0.87145229  1
