# generated using pymatgen
data_Fe5O7F3
_symmetry_space_group_name_H-M   'P 1'
_cell_length_a   4.67674171
_cell_length_b   4.67455994
_cell_length_c   15.22328144
_cell_angle_alpha   89.87914460
_cell_angle_beta   90.02801887
_cell_angle_gamma   91.58913164
_symmetry_Int_Tables_number   1
_chemical_formula_structural   Fe5O7F3
_chemical_formula_sum   'Fe10 O14 F6'
_cell_volume   332.67818426
_cell_formula_units_Z   2
loop_
 _symmetry_equiv_pos_site_id
 _symmetry_equiv_pos_as_xyz
  1  'x, y, z'
loop_
 _atom_site_type_symbol
 _atom_site_label
 _atom_site_symmetry_multiplicity
 _atom_site_fract_x
 _atom_site_fract_y
 _atom_site_fract_z
 _atom_site_occupancy
  Fe  Fe0  1  0.00367572  0.99597886  -0.00032320  1
  Fe  Fe1  1  0.00525427  0.00164106  0.19995802  1
  Fe  Fe2  1  0.98445289  0.96735312  0.40546613  1
  Fe  Fe3  1  0.03297966  0.01499054  0.59462139  1
  Fe  Fe4  1  0.01228954  0.98044613  0.79993221  1
  Fe  Fe5  1  0.53032619  0.47048480  0.09882935  1
  Fe  Fe6  1  0.50639794  0.49350139  0.49998708  1
  Fe  Fe7  1  0.48193022  0.53543153  0.29299943  1
  Fe  Fe8  1  0.46903469  0.51404077  0.70655633  1
  Fe  Fe9  1  0.48019289  0.51849176  0.90103012  1
  O  O10  1  0.17717262  0.81611091  0.29882493  1
  O  O11  1  0.20406251  0.79595932  0.49983925  1
  O  O12  1  0.19046311  0.82084904  0.69842161  1
  O  O13  1  0.18230104  0.81245303  0.90357852  1
  O  O14  1  0.31267941  0.30153437  0.99958017  1
  O  O15  1  0.31036949  0.30217421  0.19767430  1
  O  O16  1  0.32263555  0.32071049  0.59999619  1
  O  O17  1  0.29505076  0.30899563  0.80501954  1
  O  O18  1  0.69831050  0.68647116  0.99947905  1
  O  O19  1  0.70542421  0.69280863  0.19616319  1
  O  O20  1  0.67570703  0.68000610  0.39970157  1
  O  O21  1  0.68589489  0.69988122  0.80340249  1
  O  O22  1  0.82876034  0.17515142  0.09902083  1
  O  O23  1  0.80603519  0.19419076  0.50029733  1
  F  F24  1  0.21136283  0.79431347  0.09928448  1
  F  F25  1  0.28966644  0.29813668  0.39628919  1
  F  F26  1  0.70588772  0.70639573  0.60356587  1
  F  F27  1  0.78945107  0.19687334  0.30157157  1
  F  F28  1  0.79838164  0.19731550  0.89953549  1
  F  F29  1  0.80385066  0.20730905  0.69969657  1
