# generated using pymatgen
data_Fe4O5F3
_symmetry_space_group_name_H-M   'P 1'
_cell_length_a   4.72375228
_cell_length_b   9.91615620
_cell_length_c   6.09290165
_cell_angle_alpha   72.15150824
_cell_angle_beta   90.00000000
_cell_angle_gamma   90.00000000
_symmetry_Int_Tables_number   1
_chemical_formula_structural   Fe4O5F3
_chemical_formula_sum   'Fe8 O10 F6'
_cell_volume   271.66421272
_cell_formula_units_Z   2
loop_
 _symmetry_equiv_pos_site_id
 _symmetry_equiv_pos_as_xyz
  1  'x, y, z'
loop_
 _atom_site_type_symbol
 _atom_site_label
 _atom_site_symmetry_multiplicity
 _atom_site_fract_x
 _atom_site_fract_y
 _atom_site_fract_z
 _atom_site_occupancy
  Fe  Fe0  1  0.44910000  0.23923937  0.63400261  1
  Fe  Fe1  1  0.52514403  0.75854629  0.87436437  1
  Fe  Fe2  1  0.50553625  0.74789410  0.37205797  1
  Fe  Fe3  1  0.51748941  0.27245576  0.11246614  1
  Fe  Fe4  1  0.01748941  0.97754424  0.51253386  1
  Fe  Fe5  1  0.02514403  0.49145371  0.75063563  1
  Fe  Fe6  1  0.94910000  0.01076063  0.99099739  1
  Fe  Fe7  1  0.00553625  0.50210590  0.25294203  1
  O  O8  1  0.82451334  0.41392486  0.04407925  1
  O  O9  1  0.80342150  0.90090495  0.79823385  1
  O  O10  1  0.80413101  0.90208388  0.29683449  1
  O  O11  1  0.69867177  0.65592075  0.17144739  1
  O  O12  1  0.67219920  0.16025884  0.92125237  1
  O  O13  1  0.32451334  0.83607514  0.58092075  1
  O  O14  1  0.30342150  0.34909505  0.82676615  1
  O  O15  1  0.30413101  0.34791612  0.32816551  1
  O  O16  1  0.19867177  0.59407925  0.45355261  1
  O  O17  1  0.17219920  0.08974116  0.70374763  1
  F  F18  1  0.79750608  0.39866713  0.55029365  1
  F  F19  1  0.68914340  0.15315625  0.42058338  1
  F  F20  1  0.71314501  0.64428655  0.67770786  1
  F  F21  1  0.29750608  0.85133287  0.07470635  1
  F  F22  1  0.21314501  0.60571345  0.94729214  1
  F  F23  1  0.18914340  0.09684375  0.20441662  1
