# generated using pymatgen
data_LiCrP3H8O13
_symmetry_space_group_name_H-M   'P 1'
_cell_length_a   9.68026625
_cell_length_b   8.67382911
_cell_length_c   7.53608515
_cell_angle_alpha   107.48263234
_cell_angle_beta   89.43666270
_cell_angle_gamma   102.74609282
_symmetry_Int_Tables_number   1
_chemical_formula_structural   LiCrP3H8O13
_chemical_formula_sum   'Li2 Cr2 P6 H16 O26'
_cell_volume   587.58098857
_cell_formula_units_Z   2
loop_
 _symmetry_equiv_pos_site_id
 _symmetry_equiv_pos_as_xyz
  1  'x, y, z'
loop_
 _atom_site_type_symbol
 _atom_site_label
 _atom_site_symmetry_multiplicity
 _atom_site_fract_x
 _atom_site_fract_y
 _atom_site_fract_z
 _atom_site_occupancy
  Li  Li0  1  0.30858820  0.39434959  0.71192560  1
  Li  Li1  1  0.69141180  0.60565041  0.28807440  1
  Cr  Cr2  1  0.00000000  0.50000000  0.00000000  1
  Cr  Cr3  1  0.50000000  0.00000000  0.50000000  1
  P  P4  1  0.05850869  0.72393636  0.71489609  1
  P  P5  1  0.24942945  0.35781197  0.20184588  1
  P  P6  1  0.22029033  0.99912249  0.01198630  1
  P  P7  1  0.77970967  0.00087751  0.98801370  1
  P  P8  1  0.75057055  0.64218803  0.79815412  1
  P  P9  1  0.94149131  0.27606364  0.28510391  1
  H  H10  1  0.04933475  0.81553545  0.20324558  1
  H  H11  1  0.03338219  0.70508159  0.33876749  1
  H  H12  1  0.22810023  0.91006719  0.53729179  1
  H  H13  1  0.37164994  0.68369582  0.18732005  1
  H  H14  1  0.24715556  0.00512730  0.38825173  1
  H  H15  1  0.41664529  0.86445976  0.75655012  1
  H  H16  1  0.45684840  0.82780538  0.11460568  1
  H  H17  1  0.52687823  0.75431496  0.65434090  1
  H  H18  1  0.47312177  0.24568504  0.34565910  1
  H  H19  1  0.54315160  0.17219462  0.88539432  1
  H  H20  1  0.58335471  0.13554024  0.24344988  1
  H  H21  1  0.75284444  0.99487270  0.61174827  1
  H  H22  1  0.62835006  0.31630418  0.81267995  1
  H  H23  1  0.77189977  0.08993281  0.46270821  1
  H  H24  1  0.96661781  0.29491841  0.66123251  1
  H  H25  1  0.95066525  0.18446455  0.79675442  1
  O  O26  1  0.98975446  0.71047726  0.22070192  1
  O  O27  1  0.09070712  0.91320345  0.85236313  1
  O  O28  1  0.10376030  0.61559431  0.81690723  1
  O  O29  1  0.12009077  0.72274615  0.53196635  1
  O  O30  1  0.17033138  0.97079611  0.19081463  1
  O  O31  1  0.11134109  0.31839236  0.32095590  1
  O  O32  1  0.23968618  0.49133849  0.11506482  1
  O  O33  1  0.35541908  0.95393683  0.94272187  1
  O  O34  1  0.22766132  0.19084659  0.02369389  1
  O  O35  1  0.28590249  0.01254660  0.51506521  1
  O  O36  1  0.37381511  0.37846577  0.33047007  1
  O  O37  1  0.46068491  0.77050432  0.20844828  1
  O  O38  1  0.45980568  0.82067003  0.63510933  1
  O  O39  1  0.54019432  0.17932997  0.36489067  1
  O  O40  1  0.53931509  0.22949568  0.79155172  1
  O  O41  1  0.62618489  0.62153423  0.66952993  1
  O  O42  1  0.71409751  0.98745340  0.48493479  1
  O  O43  1  0.77233868  0.80915341  0.97630611  1
  O  O44  1  0.64458092  0.04606317  0.05727813  1
  O  O45  1  0.76031382  0.50866151  0.88493518  1
  O  O46  1  0.88865891  0.68160764  0.67904410  1
  O  O47  1  0.82966862  0.02920389  0.80918537  1
  O  O48  1  0.87990923  0.27725385  0.46803365  1
  O  O49  1  0.89623970  0.38440569  0.18309277  1
  O  O50  1  0.90929288  0.08679655  0.14763687  1
  O  O51  1  0.01024554  0.28952274  0.77929808  1
