# generated using pymatgen
data_Li4Fe2Cu3O10
_symmetry_space_group_name_H-M   'P 1'
_cell_length_a   5.02102204
_cell_length_b   5.50173487
_cell_length_c   7.65365798
_cell_angle_alpha   102.27115175
_cell_angle_beta   103.06189257
_cell_angle_gamma   106.53415949
_symmetry_Int_Tables_number   1
_chemical_formula_structural   Li4Fe2Cu3O10
_chemical_formula_sum   'Li4 Fe2 Cu3 O10'
_cell_volume   188.56415642
_cell_formula_units_Z   1
loop_
 _symmetry_equiv_pos_site_id
 _symmetry_equiv_pos_as_xyz
  1  'x, y, z'
loop_
 _atom_site_type_symbol
 _atom_site_label
 _atom_site_symmetry_multiplicity
 _atom_site_fract_x
 _atom_site_fract_y
 _atom_site_fract_z
 _atom_site_occupancy
  Li  Li0  1  0.21794769  0.90432415  0.39791480  1
  Li  Li1  1  0.39363749  0.29446712  0.77153600  1
  Li  Li2  1  0.60636251  0.70553288  0.22846400  1
  Li  Li3  1  0.78205231  0.09567585  0.60208520  1
  Fe  Fe4  1  0.09406884  0.67811860  0.68684594  1
  Fe  Fe5  1  0.90593116  0.32188140  0.31315406  1
  Cu  Cu6  1  0.00000000  0.50000000  0.00000000  1
  Cu  Cu7  1  0.69608926  0.89147774  0.90213503  1
  Cu  Cu8  1  0.30391074  0.10852226  0.09786497  1
  O  O9  1  0.05097323  0.05310588  0.85436049  1
  O  O10  1  0.33796383  0.65779891  0.91646952  1
  O  O11  1  0.11272629  0.30944814  0.53752972  1
  O  O12  1  0.44979074  0.91545377  0.68517122  1
  O  O13  1  0.21172782  0.51898654  0.23674472  1
  O  O14  1  0.78827218  0.48101346  0.76325528  1
  O  O15  1  0.55020926  0.08454623  0.31482878  1
  O  O16  1  0.88727371  0.69055186  0.46247028  1
  O  O17  1  0.66203617  0.34220109  0.08353048  1
  O  O18  1  0.94902677  0.94689412  0.14563951  1
