# generated using pymatgen
data_Li2V5Cr2O12
_symmetry_space_group_name_H-M   'P 1'
_cell_length_a   5.09515012
_cell_length_b   9.09637357
_cell_length_c   9.86779455
_cell_angle_alpha   90.00000243
_cell_angle_beta   102.64002297
_cell_angle_gamma   89.99999938
_symmetry_Int_Tables_number   1
_chemical_formula_structural   Li2V5Cr2O12
_chemical_formula_sum   'Li4 V10 Cr4 O24'
_cell_volume   446.26232720
_cell_formula_units_Z   2
loop_
 _symmetry_equiv_pos_site_id
 _symmetry_equiv_pos_as_xyz
  1  'x, y, z'
loop_
 _atom_site_type_symbol
 _atom_site_label
 _atom_site_symmetry_multiplicity
 _atom_site_fract_x
 _atom_site_fract_y
 _atom_site_fract_z
 _atom_site_occupancy
  Li  Li0  1  0.75378546  0.07934485  0.50835710  1
  Li  Li1  1  0.50600381  0.41946295  0.74361338  1
  Li  Li2  1  0.74621454  0.57934485  0.99164290  1
  Li  Li3  1  0.99399619  0.91946295  0.75638662  1
  V  V4  1  0.00327402  0.08263964  0.24844836  1
  V  V5  1  0.49579048  0.06626105  0.75463473  1
  V  V6  1  0.26276507  0.26188850  0.50961097  1
  V  V7  1  0.73576513  0.25412518  0.99017455  1
  V  V8  1  -0.00037008  0.42751030  0.25746497  1
  V  V9  1  0.00420952  0.56626105  0.74536527  1
  V  V10  1  0.23723493  0.76188850  0.99038903  1
  V  V11  1  0.49672598  0.58263964  0.25155164  1
  V  V12  1  0.76423487  0.75412518  0.50982545  1
  V  V13  1  0.50037008  0.92751030  0.24253503  1
  Cr  Cr14  1  0.00361505  0.24767081  0.75485634  1
  Cr  Cr15  1  0.49595433  0.25730862  0.24566359  1
  Cr  Cr16  1  0.00404567  0.75730862  0.25433641  1
  Cr  Cr17  1  0.49638495  0.74767081  0.74514366  1
  O  O18  1  0.14320009  0.10400950  0.63092018  1
  O  O19  1  0.38086529  0.10253952  0.36115031  1
  O  O20  1  0.38980539  0.22807578  0.86571645  1
  O  O21  1  0.84383118  0.09417998  0.86075275  1
  O  O22  1  0.10024872  0.26117872  0.14054746  1
  O  O23  1  0.62920615  0.09955429  0.13632653  1
  O  O24  1  0.61644581  0.22696503  0.63121075  1
  O  O25  1  0.12506945  0.40426773  0.64594254  1
  O  O26  1  0.37535913  0.41093798  0.36472741  1
  O  O27  1  0.89242715  0.24572883  0.36615264  1
  O  O28  1  0.86996728  0.40358157  0.86643892  1
  O  O29  1  0.63333414  0.41350418  0.13424606  1
  O  O30  1  0.35679991  0.60400950  0.86907982  1
  O  O31  1  0.11913471  0.60253952  0.13884969  1
  O  O32  1  0.11019461  0.72807578  0.63428355  1
  O  O33  1  0.65616882  0.59417998  0.63924725  1
  O  O34  1  0.39975128  0.76117872  0.35945254  1
  O  O35  1  0.87079385  0.59955429  0.36367347  1
  O  O36  1  0.88355419  0.72696503  0.86878925  1
  O  O37  1  0.37493055  0.90426773  0.85405746  1
  O  O38  1  0.12464087  0.91093798  0.13527259  1
  O  O39  1  0.60757285  0.74572883  0.13384736  1
  O  O40  1  0.63003272  0.90358157  0.63356108  1
  O  O41  1  0.86666586  0.91350418  0.36575394  1
