# generated using pymatgen
data_LiMn3(BO3)3
_symmetry_space_group_name_H-M   'P 1'
_cell_length_a   9.14439804
_cell_length_b   7.82076758
_cell_length_c   5.97426387
_cell_angle_alpha   82.02110584
_cell_angle_beta   76.77034246
_cell_angle_gamma   114.62911224
_symmetry_Int_Tables_number   1
_chemical_formula_structural   LiMn3(BO3)3
_chemical_formula_sum   'Li2 Mn6 B6 O18'
_cell_volume   364.59945478
_cell_formula_units_Z   2
loop_
 _symmetry_equiv_pos_site_id
 _symmetry_equiv_pos_as_xyz
  1  'x, y, z'
loop_
 _atom_site_type_symbol
 _atom_site_label
 _atom_site_symmetry_multiplicity
 _atom_site_fract_x
 _atom_site_fract_y
 _atom_site_fract_z
 _atom_site_occupancy
  Li  Li0  1  0.61461517  0.15954970  0.16483637  1
  Li  Li1  1  0.38538483  0.84045030  0.83516363  1
  Mn  Mn2  1  0.25273065  0.14790861  0.10909352  1
  Mn  Mn3  1  0.39642119  0.21170616  0.54655034  1
  Mn  Mn4  1  0.06453720  0.51041570  0.23482256  1
  Mn  Mn5  1  0.93546280  0.48958430  0.76517744  1
  Mn  Mn6  1  0.60357881  0.78829384  0.45344966  1
  Mn  Mn7  1  0.74726935  0.85209139  0.89090648  1
  B  B8  1  0.93261944  0.13386150  0.11802207  1
  B  B9  1  0.72233771  0.19052204  0.56462611  1
  B  B10  1  0.39306046  0.53421941  0.19234982  1
  B  B11  1  0.60693954  0.46578059  0.80765018  1
  B  B12  1  0.27766229  0.80947796  0.43537389  1
  B  B13  1  0.06738056  0.86613850  0.88197793  1
  O  O14  1  0.01026901  0.04663105  0.21931031  1
  O  O15  1  0.76545640  0.02001058  0.11492627  1
  O  O16  1  0.64996868  0.99558090  0.68948963  1
  O  O17  1  0.30952581  0.33391021  0.30391104  1
  O  O18  1  0.64524490  0.26077965  0.43899513  1
  O  O19  1  0.31083696  0.62409903  0.09905530  1
  O  O20  1  0.89463239  0.31766450  0.54862819  1
  O  O21  1  0.56034238  0.64172520  0.17989590  1
  O  O22  1  0.00045521  0.66502634  0.96926195  1
  O  O23  1  0.99954479  0.33497366  0.03073805  1
  O  O24  1  0.43965762  0.35827480  0.82010410  1
  O  O25  1  0.10536761  0.68233550  0.45137181  1
  O  O26  1  0.68916304  0.37590097  0.90094470  1
  O  O27  1  0.35475510  0.73922035  0.56100487  1
  O  O28  1  0.69047419  0.66608979  0.69608896  1
  O  O29  1  0.35003132  0.00441910  0.31051037  1
  O  O30  1  0.23454360  0.97998942  0.88507373  1
  O  O31  1  0.98973099  0.95336895  0.78068969  1
