# generated using pymatgen
data_Li17(WO3)19
_symmetry_space_group_name_H-M   'P 1'
_cell_length_a   75.12164536
_cell_length_b   16.30261165
_cell_length_c   8.83266476
_cell_angle_alpha   29.83704322
_cell_angle_beta   26.62556057
_cell_angle_gamma   14.01120916
_symmetry_Int_Tables_number   1
_chemical_formula_structural   Li17(WO3)19
_chemical_formula_sum   'Li17 W19 O57'
_cell_volume   1173.70995096
_cell_formula_units_Z   1
loop_
 _symmetry_equiv_pos_site_id
 _symmetry_equiv_pos_as_xyz
  1  'x, y, z'
loop_
 _atom_site_type_symbol
 _atom_site_label
 _atom_site_symmetry_multiplicity
 _atom_site_fract_x
 _atom_site_fract_y
 _atom_site_fract_z
 _atom_site_occupancy
  Li  Li0  1  0.05181686  0.00035513  0.00488295  1
  Li  Li1  1  0.10538181  0.99970342  0.00186274  1
  Li  Li2  1  0.15824000  0.00001819  0.99511870  1
  Li  Li3  1  0.21174043  0.99718143  0.99549958  1
  Li  Li4  1  0.26145009  0.00516169  0.00492879  1
  Li  Li5  1  0.31505606  0.00204891  0.00434622  1
  Li  Li6  1  0.36804032  0.00065692  -0.00008823  1
  Li  Li7  1  0.42209113  0.99743074  0.99724864  1
  Li  Li8  1  0.52740832  0.99671546  0.99848104  1
  Li  Li9  1  0.57954361  0.99713839  0.99918969  1
  Li  Li10  1  0.63171166  0.99885614  0.00300091  1
  Li  Li11  1  0.68558157  0.99642047  0.99428907  1
  Li  Li12  1  0.73715865  0.99994517  0.99622343  1
  Li  Li13  1  0.78841724  0.00350373  0.00376557  1
  Li  Li14  1  0.84090549  0.00255495  0.00418836  1
  Li  Li15  1  0.89392016  0.00416186  0.00202043  1
  Li  Li16  1  0.94688418  0.00222424  0.99633986  1
  W  W17  1  0.02592774  0.50333427  0.49755661  1
  W  W18  1  0.07842668  0.50134623  0.50284352  1
  W  W19  1  0.13139891  0.50319042  0.49767967  1
  W  W20  1  0.18366801  0.49935272  0.50440891  1
  W  W21  1  0.23690926  0.49968249  0.49975307  1
  W  W22  1  0.28972515  0.50147112  0.49686293  1
  W  W23  1  0.34196348  0.49872672  0.50195838  1
  W  W24  1  0.39492865  0.50038575  0.49763996  1
  W  W25  1  0.44785830  0.49657950  0.50333568  1
  W  W26  1  0.49923878  0.50439051  0.50031748  1
  W  W27  1  0.55225070  0.50218291  0.49867024  1
  W  W28  1  0.60427521  0.50367383  0.50365360  1
  W  W29  1  0.65760289  0.49910199  0.50250975  1
  W  W30  1  0.71057889  0.49934318  0.50181049  1
  W  W31  1  0.76329052  0.50036263  0.49932009  1
  W  W32  1  0.81612466  0.50069220  0.49515646  1
  W  W33  1  0.86907977  0.49760015  0.49560433  1
  W  W34  1  0.92092109  0.50043462  0.50102657  1
  W  W35  1  0.97471628  0.49376650  0.50184806  1
  O  O36  1  0.02852076  0.98661343  0.49883269  1
  O  O37  1  0.07981282  0.00558052  0.48282800  1
  O  O38  1  0.02467937  0.50627561  0.00027286  1
  O  O39  1  0.99886512  0.50582946  0.50239905  1
  O  O40  1  0.12838524  0.01407649  0.50234493  1
  O  O41  1  0.07916162  0.48999787  0.01336246  1
  O  O42  1  0.05131303  0.50058364  0.50829457  1
  O  O43  1  0.13486572  0.49457373  0.98771469  1
  O  O44  1  0.18256594  0.00467910  0.50488714  1
  O  O45  1  0.10838729  0.48438593  0.49828641  1
  O  O46  1  0.23712767  0.99932133  0.50015533  1
  O  O47  1  0.18627573  0.48955330  0.00024273  1
  O  O48  1  0.16245680  0.48608751  0.48507570  1
  O  O49  1  0.29026588  0.99946482  0.49556670  1
  O  O50  1  0.23696662  0.50029698  0.99841959  1
  O  O51  1  0.21160721  0.50174244  0.49146617  1
  O  O52  1  0.28775580  0.50947655  0.99928802  1
  O  O53  1  0.34486117  0.98676914  0.49795660  1
  O  O54  1  0.26231751  0.49836912  0.50608218  1
  O  O55  1  0.39482101  0.99059522  0.51626958  1
  O  O56  1  0.33851012  0.50648767  0.01399259  1
  O  O57  1  0.31142209  0.51388331  0.51379202  1
  O  O58  1  0.44510036  0.01432823  0.50149572  1
  O  O59  1  0.39369513  0.51245935  0.98783236  1
  O  O60  1  0.36679799  0.50924070  0.50310713  1
  O  O61  1  0.44888042  0.49375116  0.00136198  1
  O  O62  1  0.50257680  0.98919797  0.48634691  1
  O  O63  1  0.42144821  0.49965910  0.49603548  1
  O  O64  1  0.49782490  0.50282964  0.01271952  1
  O  O65  1  0.55060871  0.01332796  0.49459040  1
  O  O66  1  0.47290205  0.50159996  0.49854491  1
  O  O67  1  0.55341845  0.49057055  0.00108245  1
  O  O68  1  0.60333593  0.01124983  0.49489657  1
  O  O69  1  0.52637152  0.49819257  0.51118147  1
  O  O70  1  0.60865347  0.49087525  0.98949851  1
  O  O71  1  0.65868872  0.99280674  0.51010247  1
  O  O72  1  0.57631985  0.50715041  0.50230979  1
  O  O73  1  0.65918567  0.49981302  0.98606423  1
  O  O74  1  0.70803224  0.01079880  0.49639828  1
  O  O75  1  0.63588105  0.48449864  0.48777747  1
  O  O76  1  0.70846973  0.50352632  0.01313613  1
  O  O77  1  0.76508294  0.99110679  0.50277691  1
  O  O78  1  0.68406943  0.50466036  0.49243688  1
  O  O79  1  0.76259700  0.50438847  0.99709723  1
  O  O80  1  0.81667673  0.99853971  0.49552364  1
  O  O81  1  0.73761626  0.49851792  0.49720732  1
  O  O82  1  0.86808068  -0.00005195  0.50353206  1
  O  O83  1  0.81794872  0.49195494  0.00025036  1
  O  O84  1  0.78950061  0.49761167  0.50544596  1
  O  O85  1  0.92145841  0.99051201  0.51172680  1
  O  O86  1  0.86423975  0.51281267  0.01113697  1
  O  O87  1  0.83810287  0.51335646  0.51243923  1
  O  O88  1  0.97385432  0.00100091  0.50301014  1
  O  O89  1  0.92095616  0.50529558  0.99748287  1
  O  O90  1  0.89896654  0.48478726  0.49667281  1
  O  O91  1  0.97537850  0.49709803  0.98952686  1
  O  O92  1  0.94841878  0.49819521  0.48846865  1
