# generated using pymatgen
data_V2O3F
_symmetry_space_group_name_H-M   'P 1'
_cell_length_a   4.68608716
_cell_length_b   5.56549454
_cell_length_c   5.56549454
_cell_angle_alpha   114.76037256
_cell_angle_beta   91.54476362
_cell_angle_gamma   88.45523638
_symmetry_Int_Tables_number   1
_chemical_formula_structural   V2O3F
_chemical_formula_sum   'V4 O6 F2'
_cell_volume   131.73870494
_cell_formula_units_Z   2
loop_
 _symmetry_equiv_pos_site_id
 _symmetry_equiv_pos_as_xyz
  1  'x, y, z'
loop_
 _atom_site_type_symbol
 _atom_site_label
 _atom_site_symmetry_multiplicity
 _atom_site_fract_x
 _atom_site_fract_y
 _atom_site_fract_z
 _atom_site_occupancy
  V  V0  1  0.50000000  0.00000000  0.50000000  1
  V  V1  1  0.50000000  0.50000000  0.00000000  1
  V  V2  1  0.00000000  0.50000000  0.50000000  1
  V  V3  1  0.00000000  0.00000000  0.00000000  1
  O  O4  1  0.80518742  0.15483061  0.34516939  1
  O  O5  1  0.69334572  0.15167642  0.84305285  1
  O  O6  1  0.69334572  0.65694715  0.34832358  1
  O  O7  1  0.30665428  0.84832358  0.15694715  1
  O  O8  1  0.30665428  0.34305285  0.65167642  1
  O  O9  1  0.19481258  0.84516939  0.65483061  1
  F  F10  1  0.79563111  0.64919670  0.85080330  1
  F  F11  1  0.20436889  0.35080330  0.14919670  1
