# generated using pymatgen
data_LiB3H3SeO9
_symmetry_space_group_name_H-M   'P 1'
_cell_length_a   11.48451211
_cell_length_b   8.96324799
_cell_length_c   14.65539213
_cell_angle_alpha   90.00000000
_cell_angle_beta   90.00000000
_cell_angle_gamma   90.00000000
_symmetry_Int_Tables_number   1
_chemical_formula_structural   LiB3H3SeO9
_chemical_formula_sum   'Li8 B24 H24 Se8 O72'
_cell_volume   1508.60452370
_cell_formula_units_Z   8
loop_
 _symmetry_equiv_pos_site_id
 _symmetry_equiv_pos_as_xyz
  1  'x, y, z'
loop_
 _atom_site_type_symbol
 _atom_site_label
 _atom_site_symmetry_multiplicity
 _atom_site_fract_x
 _atom_site_fract_y
 _atom_site_fract_z
 _atom_site_occupancy
  Li  Li0  1  0.00000000  0.17461984  0.25000000  1
  Li  Li1  1  0.00000000  0.50004669  0.25000000  1
  Li  Li2  1  0.00000000  0.49995331  0.75000000  1
  Li  Li3  1  0.00000000  0.82538016  0.75000000  1
  Li  Li4  1  0.50000000  0.67461984  0.25000000  1
  Li  Li5  1  0.50000000  0.99995331  0.75000000  1
  Li  Li6  1  0.50000000  0.32538016  0.75000000  1
  Li  Li7  1  0.50000000  0.00004669  0.25000000  1
  B  B8  1  0.14672794  0.04391306  0.08325218  1
  B  B9  1  0.14672794  0.95608694  0.58325218  1
  B  B10  1  0.14342284  0.53470449  0.07480533  1
  B  B11  1  0.14342284  0.46529551  0.57480533  1
  B  B12  1  0.23939802  0.08249909  0.45096877  1
  B  B13  1  0.23939802  0.91750091  0.95096877  1
  B  B14  1  0.26060198  0.41750091  0.95096877  1
  B  B15  1  0.26060198  0.58249909  0.45096877  1
  B  B16  1  0.35657716  0.03470449  0.07480533  1
  B  B17  1  0.35657716  0.96529551  0.57480533  1
  B  B18  1  0.35327206  0.54391306  0.08325218  1
  B  B19  1  0.35327206  0.45608694  0.58325218  1
  B  B20  1  0.64672794  0.45608694  0.91674782  1
  B  B21  1  0.64672794  0.54391306  0.41674782  1
  B  B22  1  0.64342284  0.03470449  0.42519467  1
  B  B23  1  0.64342284  0.96529551  0.92519467  1
  B  B24  1  0.73939802  0.41750091  0.54903123  1
  B  B25  1  0.73939802  0.58249909  0.04903123  1
  B  B26  1  0.76060198  0.08249909  0.04903123  1
  B  B27  1  0.76060198  0.91750091  0.54903123  1
  B  B28  1  0.85657716  0.46529551  0.92519467  1
  B  B29  1  0.85657716  0.53470449  0.42519467  1
  B  B30  1  0.85327206  0.04391306  0.41674782  1
  B  B31  1  0.85327206  0.95608694  0.91674782  1
  H  H32  1  0.97962098  0.06778026  0.08648323  1
  H  H33  1  0.97962098  0.93221974  0.58648323  1
  H  H34  1  0.02960061  0.55597030  0.42296410  1
  H  H35  1  0.02960061  0.44402970  0.92296410  1
  H  H36  1  0.18861855  0.26151520  0.68562506  1
  H  H37  1  0.18861855  0.73848480  0.18562506  1
  H  H38  1  0.31138145  0.23848480  0.18562506  1
  H  H39  1  0.31138145  0.76151520  0.68562506  1
  H  H40  1  0.47039939  0.05597030  0.42296410  1
  H  H41  1  0.47039939  0.94402970  0.92296410  1
  H  H42  1  0.52037902  0.56778026  0.08648323  1
  H  H43  1  0.52037902  0.43221974  0.58648323  1
  H  H44  1  0.47962098  0.43221974  0.91351677  1
  H  H45  1  0.47962098  0.56778026  0.41351577  1
  H  H46  1  0.52960061  0.05597030  0.07703590  1
  H  H47  1  0.52960061  0.94402970  0.57703590  1
  H  H48  1  0.68861855  0.76151520  0.81437494  1
  H  H49  1  0.68861855  0.23848480  0.31437494  1
  H  H50  1  0.81138145  0.26151520  0.81437494  1
  H  H51  1  0.81138145  0.73848480  0.31437494  1
  H  H52  1  0.97039939  0.44402970  0.57703590  1
  H  H53  1  0.97039939  0.55597030  0.07703590  1
  H  H54  1  0.02037902  0.06778026  0.41351577  1
  H  H55  1  0.02037902  0.93221974  0.91351677  1
  Se  Se56  1  0.24542336  0.33015722  0.32539438  1
  Se  Se57  1  0.24542336  0.66984278  0.82539438  1
  Se  Se58  1  0.25457664  0.16984278  0.82539438  1
  Se  Se59  1  0.25457664  0.83015722  0.32539438  1
  Se  Se60  1  0.74542336  0.16984278  0.67460562  1
  Se  Se61  1  0.74542336  0.83015722  0.17460562  1
  Se  Se62  1  0.75457664  0.33015722  0.17460562  1
  Se  Se63  1  0.75457664  0.66984278  0.67460562  1
  O  O64  1  0.04001122  0.56833923  0.11745640  1
  O  O65  1  0.04001122  0.43166077  0.61745640  1
  O  O66  1  0.04691277  0.09139535  0.12617352  1
  O  O67  1  0.04691277  0.90860465  0.62617352  1
  O  O68  1  0.11046807  0.33436793  0.28360134  1
  O  O69  1  0.11046807  0.66563207  0.78360134  1
  O  O70  1  0.13873961  0.96772496  0.00268374  1
  O  O71  1  0.13873961  0.03227504  0.50268374  1
  O  O72  1  0.14851398  0.54112061  0.49349512  1
  O  O73  1  0.14851398  0.45887939  0.99349512  1
  O  O74  1  0.15802163  0.82750146  0.21895128  1
  O  O75  1  0.15802163  0.17249854  0.71895128  1
  O  O76  1  0.23174401  0.02037049  0.35362651  1
  O  O77  1  0.23174401  0.97962951  0.85362651  1
  O  O78  1  0.22946096  0.24622601  0.44323066  1
  O  O79  1  0.22946096  0.75377399  0.94323066  1
  O  O80  1  0.24429107  0.42080504  0.62036372  1
  O  O81  1  0.24429107  0.57919496  0.12036372  1
  O  O82  1  0.25570893  0.07919496  0.12036372  1
  O  O83  1  0.25570893  0.92080504  0.62036372  1
  O  O84  1  0.27053904  0.74622601  0.44323066  1
  O  O85  1  0.27053904  0.25377399  0.94323066  1
  O  O86  1  0.26825599  0.47962951  0.85362651  1
  O  O87  1  0.26825599  0.52037049  0.35362651  1
  O  O88  1  0.34197837  0.32750146  0.21895128  1
  O  O89  1  0.34197837  0.67249854  0.71895128  1
  O  O90  1  0.35148602  0.04112061  0.49349512  1
  O  O91  1  0.35148602  0.95887939  0.99349512  1
  O  O92  1  0.36126039  0.53227504  0.50268374  1
  O  O93  1  0.36126039  0.46772496  0.00268374  1
  O  O94  1  0.38953193  0.83436793  0.28360134  1
  O  O95  1  0.38953193  0.16563207  0.78360134  1
  O  O96  1  0.45308723  0.59139535  0.12617352  1
  O  O97  1  0.45308723  0.40860465  0.62617352  1
  O  O98  1  0.45998878  0.06833923  0.11745640  1
  O  O99  1  0.45998878  0.93166077  0.61745640  1
  O  O100  1  0.54001122  0.06833923  0.38254360  1
  O  O101  1  0.54001122  0.93166077  0.88254360  1
  O  O102  1  0.54691277  0.59139535  0.37382648  1
  O  O103  1  0.54691277  0.40860465  0.87382648  1
  O  O104  1  0.61046807  0.83436793  0.21639866  1
  O  O105  1  0.61046807  0.16563207  0.71639866  1
  O  O106  1  0.63873961  0.46772496  0.49731626  1
  O  O107  1  0.63873961  0.53227504  0.99731626  1
  O  O108  1  0.64851398  0.04112061  0.00650488  1
  O  O109  1  0.64851398  0.95887939  0.50650488  1
  O  O110  1  0.65802163  0.32750146  0.28104872  1
  O  O111  1  0.65802163  0.67249854  0.78104872  1
  O  O112  1  0.73174401  0.47962951  0.64637349  1
  O  O113  1  0.73174401  0.52037049  0.14637349  1
  O  O114  1  0.72946096  0.25377399  0.55676934  1
  O  O115  1  0.72946096  0.74622601  0.05676934  1
  O  O116  1  0.74429107  0.92080504  0.87963628  1
  O  O117  1  0.74429107  0.07919496  0.37963628  1
  O  O118  1  0.75570893  0.42080504  0.87963628  1
  O  O119  1  0.75570893  0.57919496  0.37963628  1
  O  O120  1  0.77053904  0.24622601  0.05676934  1
  O  O121  1  0.77053904  0.75377399  0.55676934  1
  O  O122  1  0.76825599  0.02037049  0.14637349  1
  O  O123  1  0.76825599  0.97962951  0.64637349  1
  O  O124  1  0.84197837  0.17249854  0.78104872  1
  O  O125  1  0.84197837  0.82750146  0.28104872  1
  O  O126  1  0.85148602  0.45887939  0.50650488  1
  O  O127  1  0.85148602  0.54112061  0.00650488  1
  O  O128  1  0.86126039  0.03227504  0.99731626  1
  O  O129  1  0.86126039  0.96772496  0.49731626  1
  O  O130  1  0.88953193  0.33436793  0.21639866  1
  O  O131  1  0.88953193  0.66563207  0.71639866  1
  O  O132  1  0.95308723  0.09139535  0.37382648  1
  O  O133  1  0.95308723  0.90860465  0.87382648  1
  O  O134  1  0.95998878  0.43166077  0.88254360  1
  O  O135  1  0.95998878  0.56833923  0.38254360  1
