# generated using pymatgen
data_LiCr(Si2O5)2
_symmetry_space_group_name_H-M   'P 1'
_cell_length_a   9.62853379
_cell_length_b   7.41969316
_cell_length_c   7.09060696
_cell_angle_alpha   63.31011888
_cell_angle_beta   76.49545075
_cell_angle_gamma   99.07230823
_symmetry_Int_Tables_number   1
_chemical_formula_structural   LiCr(Si2O5)2
_chemical_formula_sum   'Li2 Cr2 Si8 O20'
_cell_volume   419.49033717
_cell_formula_units_Z   2
loop_
 _symmetry_equiv_pos_site_id
 _symmetry_equiv_pos_as_xyz
  1  'x, y, z'
loop_
 _atom_site_type_symbol
 _atom_site_label
 _atom_site_symmetry_multiplicity
 _atom_site_fract_x
 _atom_site_fract_y
 _atom_site_fract_z
 _atom_site_occupancy
  Li  Li0  1  0.43059101  0.33245489  0.17399240  1
  Li  Li1  1  0.95602143  0.73820239  0.39553981  1
  Cr  Cr2  1  0.42975927  0.32024156  0.74671419  1
  Cr  Cr3  1  0.57276354  0.68504029  0.25393147  1
  Si  Si4  1  0.13833087  0.28107715  0.09389723  1
  Si  Si5  1  0.19271287  0.95121914  0.76027170  1
  Si  Si6  1  0.23417207  0.60567683  0.20821000  1
  Si  Si7  1  0.24619712  0.64300149  0.60550296  1
  Si  Si8  1  0.75208329  0.35918840  0.39061686  1
  Si  Si9  1  0.75959724  0.38510976  0.80429531  1
  Si  Si10  1  0.81007670  0.04918967  0.24109860  1
  Si  Si11  1  0.85866234  0.72706511  0.90382723  1
  O  O12  1  0.01484706  0.91908680  0.78593517  1
  O  O13  1  0.20401660  0.79689823  0.00534998  1
  O  O14  1  0.12977942  0.37846464  0.26180799  1
  O  O15  1  0.16870042  0.64319541  0.42144537  1
  O  O16  1  0.13180996  0.45943310  0.85481335  1
  O  O17  1  0.26693936  0.87533418  0.58331759  1
  O  O18  1  0.29453370  0.22717511  0.04857332  1
  O  O19  1  0.28151906  0.19279226  0.66443140  1
  O  O20  1  0.40604947  0.60518983  0.16058698  1
  O  O21  1  0.41186504  0.60368071  0.55646303  1
  O  O22  1  0.58410319  0.39500346  0.43615182  1
  O  O23  1  0.58080942  0.34240285  0.88707992  1
  O  O24  1  0.73465691  0.80370953  0.33289869  1
  O  O25  1  0.70705544  0.78705033  0.95920408  1
  O  O26  1  0.73773167  0.12727174  0.41548650  1
  O  O27  1  0.86574405  0.53883127  0.13923922  1
  O  O28  1  0.82469716  0.38910465  0.56550041  1
  O  O29  1  0.85785797  0.62442783  0.73680102  1
  O  O30  1  0.80211344  0.20442018  0.99612481  1
  O  O31  1  0.98978593  0.07045921  0.21659859  1
