# generated using pymatgen
data_LiV2(OF)3
_symmetry_space_group_name_H-M   'P 1'
_cell_length_a   5.14437920
_cell_length_b   5.27080432
_cell_length_c   5.30063212
_cell_angle_alpha   61.74248243
_cell_angle_beta   87.50545939
_cell_angle_gamma   58.66789738
_symmetry_Int_Tables_number   1
_chemical_formula_structural   LiV2(OF)3
_chemical_formula_sum   'Li1 V2 O3 F3'
_cell_volume   104.13961433
_cell_formula_units_Z   1
loop_
 _symmetry_equiv_pos_site_id
 _symmetry_equiv_pos_as_xyz
  1  'x, y, z'
loop_
 _atom_site_type_symbol
 _atom_site_label
 _atom_site_symmetry_multiplicity
 _atom_site_fract_x
 _atom_site_fract_y
 _atom_site_fract_z
 _atom_site_occupancy
  Li  Li0  1  0.22629397  0.58199007  0.65690499  1
  V  V1  1  0.49064207  0.99368188  0.47322079  1
  V  V2  1  0.00978492  0.00330226  -0.00030007  1
  O  O3  1  0.76759856  0.07098386  0.24823365  1
  O  O4  1  0.35184521  0.89422191  0.27036633  1
  O  O5  1  0.24636482  0.89690456  0.76222351  1
  F  F6  1  0.61728380  0.14352457  0.72816096  1
  F  F7  1  0.88134653  0.50937780  0.75494411  1
  F  F8  1  0.14948011  0.49496708  0.25389173  1
