# generated using pymatgen
data_Fe10O9F11
_symmetry_space_group_name_H-M   'P 1'
_cell_length_a   4.81994655
_cell_length_b   4.81994655
_cell_length_c   15.35721050
_cell_angle_alpha   90.22110749
_cell_angle_beta   90.22110749
_cell_angle_gamma   94.69940822
_symmetry_Int_Tables_number   1
_chemical_formula_structural   Fe10O9F11
_chemical_formula_sum   'Fe10 O9 F11'
_cell_volume   355.57177530
_cell_formula_units_Z   1
loop_
 _symmetry_equiv_pos_site_id
 _symmetry_equiv_pos_as_xyz
  1  'x, y, z'
loop_
 _atom_site_type_symbol
 _atom_site_label
 _atom_site_symmetry_multiplicity
 _atom_site_fract_x
 _atom_site_fract_y
 _atom_site_fract_z
 _atom_site_occupancy
  Fe  Fe0  1  0.99358155  0.99387962  0.00316526  1
  Fe  Fe1  1  0.00055305  0.99944695  0.20000000  1
  Fe  Fe2  1  0.00612038  0.00641845  0.39683474  1
  Fe  Fe3  1  0.97943025  0.95770486  0.60404527  1
  Fe  Fe4  1  0.04229514  0.02056975  0.79595473  1
  Fe  Fe5  1  0.49850762  0.49873981  0.10459107  1
  Fe  Fe6  1  0.51688837  0.50563758  0.49028229  1
  Fe  Fe7  1  0.50126019  0.50149238  0.29540893  1
  Fe  Fe8  1  0.46119536  0.53880464  0.70000000  1
  Fe  Fe9  1  0.49436242  0.48311163  0.90971771  1
  O  O10  1  0.18738567  0.81261433  0.70000000  1
  O  O11  1  0.29375465  0.29037470  0.99962797  1
  O  O12  1  0.30396515  0.30392064  0.20028227  1
  O  O13  1  0.30296368  0.30026169  0.40324267  1
  O  O14  1  0.32225419  0.32265571  0.79979835  1
  O  O15  1  0.69973831  0.69703632  0.99675733  1
  O  O16  1  0.69607936  0.69603485  0.19971773  1
  O  O17  1  0.70962530  0.70624535  0.40037203  1
  O  O18  1  0.67734429  0.67774581  0.60020165  1
  F  F19  1  0.20013182  0.79356825  0.09239416  1
  F  F20  1  0.20643175  0.79986818  0.30760584  1
  F  F21  1  0.19053493  0.80542168  0.50444618  1
  F  F22  1  0.19457832  0.80946507  0.89555382  1
  F  F23  1  0.28283778  0.29395095  0.60111364  1
  F  F24  1  0.70604905  0.71716222  0.79888636  1
  F  F25  1  0.79433962  0.19995513  0.09240252  1
  F  F26  1  0.81014081  0.18417119  0.50640832  1
  F  F27  1  0.80004487  0.20566038  0.30759748  1
  F  F28  1  0.81582881  0.18985919  0.89359168  1
  F  F29  1  0.81177729  0.18822271  0.70000000  1
