# generated using pymatgen
data_Li4Mn2Co3Sn3O16
_symmetry_space_group_name_H-M   'P 1'
_cell_length_a   6.01038889
_cell_length_b   6.03352428
_cell_length_c   9.58539667
_cell_angle_alpha   89.14941563
_cell_angle_beta   89.59394036
_cell_angle_gamma   120.65136949
_symmetry_Int_Tables_number   1
_chemical_formula_structural   Li4Mn2Co3Sn3O16
_chemical_formula_sum   'Li4 Mn2 Co3 Sn3 O16'
_cell_volume   298.96154415
_cell_formula_units_Z   1
loop_
 _symmetry_equiv_pos_site_id
 _symmetry_equiv_pos_as_xyz
  1  'x, y, z'
loop_
 _atom_site_type_symbol
 _atom_site_label
 _atom_site_symmetry_multiplicity
 _atom_site_fract_x
 _atom_site_fract_y
 _atom_site_fract_z
 _atom_site_occupancy
  Li  Li0  1  0.35342024  0.67525429  0.88900835  1
  Li  Li1  1  0.95385874  0.98065861  0.99027263  1
  Li  Li2  1  0.96774632  0.98831149  0.50162132  1
  Li  Li3  1  0.67388636  0.33498017  0.40277836  1
  Mn  Mn4  1  0.33974568  0.66848237  0.49549904  1
  Mn  Mn5  1  0.68072502  0.33992184  0.97863618  1
  Co  Co6  1  0.65734793  0.82462293  0.21325683  1
  Co  Co7  1  0.83262163  0.66721013  0.71566189  1
  Co  Co8  1  0.83470842  0.17669418  0.71565678  1
  Sn  Sn9  1  0.16776221  0.82582665  0.21280475  1
  Sn  Sn10  1  0.17171080  0.33748559  0.21290271  1
  Sn  Sn11  1  0.33763417  0.16909808  0.71098096  1
  O  O12  1  0.14535580  0.83608899  0.59912118  1
  O  O13  1  0.03458999  0.51130599  0.34665228  1
  O  O14  1  0.35531570  0.67939036  0.09845632  1
  O  O15  1  0.97531275  0.98185798  0.31291224  1
  O  O16  1  0.98101620  0.99406612  0.80843200  1
  O  O17  1  0.15737175  0.33319555  0.59756082  1
  O  O18  1  0.49339476  0.95293107  0.34235608  1
  O  O19  1  0.49906143  0.52096135  0.33199682  1
  O  O20  1  0.32832459  0.16187669  0.08548939  1
  O  O21  1  0.66886235  0.83851416  0.61455813  1
  O  O22  1  0.53833411  0.48839578  0.84623738  1
  O  O23  1  0.54208581  0.05038850  0.84640460  1
  O  O24  1  0.69223861  0.35053756  0.61114351  1
  O  O25  1  0.82643769  0.66604995  0.09479535  1
  O  O26  1  0.96266546  0.48355725  0.83598916  1
  O  O27  1  0.82846648  0.16263437  0.09665595  1
