# generated using pymatgen
data_Fe10O9F11
_symmetry_space_group_name_H-M   'P 1'
_cell_length_a   4.77461518
_cell_length_b   4.78551136
_cell_length_c   15.41743487
_cell_angle_alpha   90.00000000
_cell_angle_beta   90.00000000
_cell_angle_gamma   94.66565635
_symmetry_Int_Tables_number   1
_chemical_formula_structural   Fe10O9F11
_chemical_formula_sum   'Fe10 O9 F11'
_cell_volume   351.10526955
_cell_formula_units_Z   1
loop_
 _symmetry_equiv_pos_site_id
 _symmetry_equiv_pos_as_xyz
  1  'x, y, z'
loop_
 _atom_site_type_symbol
 _atom_site_label
 _atom_site_symmetry_multiplicity
 _atom_site_fract_x
 _atom_site_fract_y
 _atom_site_fract_z
 _atom_site_occupancy
  Fe  Fe0  1  0.99570613  0.99479987  0.99774265  1
  Fe  Fe1  1  0.99863236  0.99836246  0.20000000  1
  Fe  Fe2  1  0.99570613  0.99479987  0.40225735  1
  Fe  Fe3  1  0.02944307  0.01089039  0.60956436  1
  Fe  Fe4  1  0.02944307  0.01089039  0.79043564  1
  Fe  Fe5  1  0.49895772  0.49886072  0.10212188  1
  Fe  Fe6  1  0.49242844  0.48570017  0.49195773  1
  Fe  Fe7  1  0.49895772  0.49886072  0.29787812  1
  Fe  Fe8  1  0.45144276  0.50637654  0.70000000  1
  Fe  Fe9  1  0.49242844  0.48570017  0.90804227  1
  O  O10  1  0.20136010  0.79791171  0.70000000  1
  O  O11  1  0.29670208  0.29367205  0.00403300  1
  O  O12  1  0.29706836  0.29732439  0.20000000  1
  O  O13  1  0.29670208  0.29367205  0.39596700  1
  O  O14  1  0.31491943  0.31874978  0.59476530  1
  O  O15  1  0.31491943  0.31874978  0.80523470  1
  O  O16  1  0.69913696  0.69569633  0.00154134  1
  O  O17  1  0.69908669  0.69912447  0.20000000  1
  O  O18  1  0.69913696  0.69569633  0.39845866  1
  F  F19  1  0.18994489  0.80516511  0.10044552  1
  F  F20  1  0.18994489  0.80516511  0.29955448  1
  F  F21  1  0.19829628  0.80284613  0.49750889  1
  F  F22  1  0.19829628  0.80284613  0.90249111  1
  F  F23  1  0.70416075  0.70807918  0.59674836  1
  F  F24  1  0.70416075  0.70807918  0.80325164  1
  F  F25  1  0.80571858  0.18882062  0.10024922  1
  F  F26  1  0.80676724  0.19185361  0.49873574  1
  F  F27  1  0.80571858  0.18882062  0.29975078  1
  F  F28  1  0.80676724  0.19185361  0.90126426  1
  F  F29  1  0.78804960  0.21063249  0.70000000  1
