# generated using pymatgen
data_Li2V2F7
_symmetry_space_group_name_H-M   'P 1'
_cell_length_a   12.45963172
_cell_length_b   5.30170888
_cell_length_c   7.70017779
_cell_angle_alpha   90.00000000
_cell_angle_beta   90.00000000
_cell_angle_gamma   90.00000000
_symmetry_Int_Tables_number   1
_chemical_formula_structural   Li2V2F7
_chemical_formula_sum   'Li8 V8 F28'
_cell_volume   508.65326335
_cell_formula_units_Z   4
loop_
 _symmetry_equiv_pos_site_id
 _symmetry_equiv_pos_as_xyz
  1  'x, y, z'
loop_
 _atom_site_type_symbol
 _atom_site_label
 _atom_site_symmetry_multiplicity
 _atom_site_fract_x
 _atom_site_fract_y
 _atom_site_fract_z
 _atom_site_occupancy
  Li  Li0  1  0.07264335  0.88346315  0.25207180  1
  Li  Li1  1  0.18107823  0.87589149  0.75351968  1
  Li  Li2  1  0.31892177  0.37589149  0.25351968  1
  Li  Li3  1  0.42735665  0.38346315  0.75207180  1
  Li  Li4  1  0.57264335  0.61653685  0.25207180  1
  Li  Li5  1  0.68107823  0.62410851  0.75351968  1
  Li  Li6  1  0.81892177  0.12410851  0.25351968  1
  Li  Li7  1  0.92735665  0.11653685  0.75207180  1
  V  V8  1  0.12195659  0.35251857  0.52820654  1
  V  V9  1  0.12767993  0.36534998  0.99268191  1
  V  V10  1  0.37232007  0.86534998  0.49268191  1
  V  V11  1  0.37804341  0.85251857  0.02820654  1
  V  V12  1  0.62195659  0.14748143  0.52820654  1
  V  V13  1  0.62767993  0.13465002  0.99268191  1
  V  V14  1  0.87232007  0.63465002  0.49268191  1
  V  V15  1  0.87804341  0.64748143  0.02820654  1
  F  F16  1  0.05419866  0.68623662  0.46119202  1
  F  F17  1  0.04507883  0.70369752  0.03104398  1
  F  F18  1  0.07602096  0.11416813  0.73092535  1
  F  F19  1  0.11569060  0.23563957  0.26683961  1
  F  F20  1  0.15734221  0.53255572  0.74831958  1
  F  F21  1  0.23161888  0.05979327  0.55091439  1
  F  F22  1  0.24058887  0.03525721  0.95228713  1
  F  F23  1  0.25941113  0.53525721  0.45228713  1
  F  F24  1  0.26838112  0.55979327  0.05091439  1
  F  F25  1  0.34265779  0.03255572  0.24831958  1
  F  F26  1  0.38430940  0.73563957  0.76683961  1
  F  F27  1  0.42397904  0.61416813  0.23092535  1
  F  F28  1  0.45492117  0.20369752  0.53104398  1
  F  F29  1  0.44580134  0.18623662  0.96119202  1
  F  F30  1  0.55419866  0.81376338  0.46119202  1
  F  F31  1  0.54507883  0.79630248  0.03104398  1
  F  F32  1  0.57602096  0.38583187  0.73092535  1
  F  F33  1  0.61569060  0.26436043  0.26683961  1
  F  F34  1  0.65734221  0.96744428  0.74831958  1
  F  F35  1  0.73161888  0.44020673  0.55091439  1
  F  F36  1  0.74058887  0.46474279  0.95228713  1
  F  F37  1  0.75941113  0.96474279  0.45228713  1
  F  F38  1  0.76838112  0.94020673  0.05091439  1
  F  F39  1  0.84265779  0.46744428  0.24831958  1
  F  F40  1  0.88430940  0.76436043  0.76683961  1
  F  F41  1  0.92397904  0.88583187  0.23092535  1
  F  F42  1  0.95492117  0.29630248  0.53104398  1
  F  F43  1  0.94580134  0.31376338  0.96119202  1
