# generated using pymatgen
data_Fe3(SiO4)2
_symmetry_space_group_name_H-M   'P 1'
_cell_length_a   5.16432699
_cell_length_b   8.94192498
_cell_length_c   14.05607429
_cell_angle_alpha   111.21034447
_cell_angle_beta   79.01362277
_cell_angle_gamma   90.63613134
_symmetry_Int_Tables_number   1
_chemical_formula_structural   Fe3(SiO4)2
_chemical_formula_sum   'Fe9 Si6 O24'
_cell_volume   592.84679900
_cell_formula_units_Z   3
loop_
 _symmetry_equiv_pos_site_id
 _symmetry_equiv_pos_as_xyz
  1  'x, y, z'
loop_
 _atom_site_type_symbol
 _atom_site_label
 _atom_site_symmetry_multiplicity
 _atom_site_fract_x
 _atom_site_fract_y
 _atom_site_fract_z
 _atom_site_occupancy
  Fe  Fe0  1  0.96704607  0.98745950  0.00073284  1
  Fe  Fe1  1  0.22828863  0.78384291  0.51155924  1
  Fe  Fe2  1  0.22002767  0.54991372  0.82025615  1
  Fe  Fe3  1  0.28343387  0.13472118  0.67173659  1
  Fe  Fe4  1  0.89757098  0.40034582  0.14881383  1
  Fe  Fe5  1  0.62053701  0.48164467  0.95742101  1
  Fe  Fe6  1  0.69288245  0.06609226  0.81147844  1
  Fe  Fe7  1  0.89514542  0.29443034  0.46730285  1
  Fe  Fe8  1  0.97142998  0.87033786  0.31360483  1
  Si  Si9  1  0.04248212  0.68170683  0.06286443  1
  Si  Si10  1  0.44837271  0.20663390  0.04773094  1
  Si  Si11  1  0.18575207  0.85876702  0.75156256  1
  Si  Si12  1  0.41689830  0.06282682  0.42019657  1
  Si  Si13  1  0.80413220  0.59253697  0.39724027  1
  Si  Si14  1  0.77832946  0.34902335  0.71708864  1
  O  O15  1  0.00276532  0.74885837  0.40587549  1
  O  O16  1  0.12516528  0.07993260  0.38586846  1
  O  O17  1  0.97376654  0.46130740  0.41964950  1
  O  O18  1  0.13080336  0.75978393  0.17453390  1
  O  O19  1  0.05120091  0.81896817  0.64905168  1
  O  O20  1  0.31463498  0.03449710  0.01508707  1
  O  O21  1  0.25310704  0.34994996  0.13821081  1
  O  O22  1  0.33900540  0.99941924  0.51951442  1
  O  O23  1  0.54944134  0.23380670  0.45468428  1
  O  O24  1  0.29070353  0.60060307  0.96033881  1
  O  O25  1  0.40057398  0.99074512  0.74116861  1
  O  O26  1  0.61524152  0.92286598  0.32689874  1
  O  O27  1  0.44809442  0.35544210  0.74054460  1
  O  O28  1  0.31222345  0.70947319  0.77048289  1
  O  O29  1  0.53331717  0.65975964  0.48264882  1
  O  O30  1  0.74137746  0.53044419  0.28029174  1
  O  O31  1  0.73611318  0.18847015  0.08589642  1
  O  O32  1  0.87965873  0.80298501  0.02902228  1
  O  O33  1  0.86205774  0.52543320  0.06266596  1
  O  O34  1  0.54040643  0.25642110  0.94523094  1
  O  O35  1  0.91599201  0.36314264  0.60788820  1
  O  O36  1  0.85931204  0.49541920  0.81924515  1
  O  O37  1  0.88805761  0.18121405  0.72068316  1
  O  O38  1  0.95308860  0.95320173  0.85810087  1
