# generated using pymatgen
data_Co6O5F7
_symmetry_space_group_name_H-M   'P 1'
_cell_length_a   4.61128923
_cell_length_b   7.69757360
_cell_length_c   5.55733381
_cell_angle_alpha   92.47378463
_cell_angle_beta   89.88235361
_cell_angle_gamma   87.72962338
_symmetry_Int_Tables_number   1
_chemical_formula_structural   Co6O5F7
_chemical_formula_sum   'Co6 O5 F7'
_cell_volume   196.92172974
_cell_formula_units_Z   1
loop_
 _symmetry_equiv_pos_site_id
 _symmetry_equiv_pos_as_xyz
  1  'x, y, z'
loop_
 _atom_site_type_symbol
 _atom_site_label
 _atom_site_symmetry_multiplicity
 _atom_site_fract_x
 _atom_site_fract_y
 _atom_site_fract_z
 _atom_site_occupancy
  Co  Co0  1  0.52185690  0.00291424  0.49957461  1
  Co  Co1  1  0.45723149  0.35464617  0.82106860  1
  Co  Co2  1  0.53157866  0.67036825  0.15927829  1
  Co  Co3  1  0.98498507  0.67626157  0.66208429  1
  Co  Co4  1  0.01313602  0.30666202  0.35229166  1
  Co  Co5  1  0.96465387  0.98806165  0.01685677  1
  O  O6  1  0.80924900  0.76762232  0.94637021  1
  O  O7  1  0.79957943  0.09395620  0.30790007  1
  O  O8  1  0.70714199  0.77500446  0.46578497  1
  O  O9  1  0.29282772  0.56688099  0.86030876  1
  O  O10  1  0.31336532  0.22666316  0.52915669  1
  F  F11  1  0.80121353  0.42883026  0.62954058  1
  F  F12  1  0.69731927  0.12080924  0.81280678  1
  F  F13  1  0.70619617  0.42273944  0.13753906  1
  F  F14  1  0.30143029  0.89684875  0.19596394  1
  F  F15  1  0.19150607  0.22634668  0.03476116  1
  F  F16  1  0.21644020  0.91162497  0.69749611  1
  F  F17  1  0.19029100  0.56375864  0.37121746  1
