# generated using pymatgen
data_Li3V3Cr2O10
_symmetry_space_group_name_H-M   'P 1'
_cell_length_a   5.16842747
_cell_length_b   5.11729824
_cell_length_c   8.10875104
_cell_angle_alpha   111.38247016
_cell_angle_beta   99.42116350
_cell_angle_gamma   100.36398540
_symmetry_Int_Tables_number   1
_chemical_formula_structural   Li3V3Cr2O10
_chemical_formula_sum   'Li3 V3 Cr2 O10'
_cell_volume   190.18933245
_cell_formula_units_Z   1
loop_
 _symmetry_equiv_pos_site_id
 _symmetry_equiv_pos_as_xyz
  1  'x, y, z'
loop_
 _atom_site_type_symbol
 _atom_site_label
 _atom_site_symmetry_multiplicity
 _atom_site_fract_x
 _atom_site_fract_y
 _atom_site_fract_z
 _atom_site_occupancy
  Li  Li0  1  0.21178501  0.93082798  0.42525491  1
  Li  Li1  1  0.50000000  0.50000000  0.50000000  1
  Li  Li2  1  0.78821499  0.06917202  0.57474509  1
  V  V3  1  0.00000000  0.50000000  0.00000000  1
  V  V4  1  0.68231807  0.87778290  0.88245216  1
  V  V5  1  0.31768193  0.12221710  0.11754784  1
  Cr  Cr6  1  0.10565422  0.70375627  0.69024643  1
  Cr  Cr7  1  0.89434578  0.29624373  0.30975357  1
  O  O8  1  0.02917601  0.09640896  0.86365885  1
  O  O9  1  0.32631378  0.74350556  0.93998583  1
  O  O10  1  0.11630255  0.31149258  0.53238851  1
  O  O11  1  0.22128977  0.46731381  0.22146496  1
  O  O12  1  0.47094594  0.87800270  0.67208401  1
  O  O13  1  0.52905406  0.12199730  0.32791599  1
  O  O14  1  0.77871023  0.53268619  0.77853504  1
  O  O15  1  0.88369745  0.68850742  0.46761149  1
  O  O16  1  0.67368622  0.25649444  0.06001417  1
  O  O17  1  0.97082399  0.90359104  0.13634115  1
