# generated using pymatgen
data_H24C8S(NO2)2
_symmetry_space_group_name_H-M   'P 1'
_cell_length_a   7.71831586
_cell_length_b   7.71831586
_cell_length_c   11.19779214
_cell_angle_alpha   90.00000000
_cell_angle_beta   90.00000000
_cell_angle_gamma   90.00000000
_symmetry_Int_Tables_number   1
_chemical_formula_structural   H24C8S(NO2)2
_chemical_formula_sum   'H48 C16 S2 N4 O8'
_cell_volume   667.07934929
_cell_formula_units_Z   2
loop_
 _symmetry_equiv_pos_site_id
 _symmetry_equiv_pos_as_xyz
  1  'x, y, z'
loop_
 _atom_site_type_symbol
 _atom_site_label
 _atom_site_symmetry_multiplicity
 _atom_site_fract_x
 _atom_site_fract_y
 _atom_site_fract_z
 _atom_site_occupancy
  H  H0  1  0.61618538  0.84787059  0.82777286  1
  H  H1  1  0.38381462  0.15212941  0.82777286  1
  H  H2  1  0.11618538  0.34787059  0.67222714  1
  H  H3  1  0.88381462  0.65212941  0.67222714  1
  H  H4  1  0.38381462  0.84787059  0.82777286  1
  H  H5  1  0.61618538  0.15212941  0.82777286  1
  H  H6  1  0.88381462  0.34787059  0.67222714  1
  H  H7  1  0.11618538  0.65212941  0.67222714  1
  H  H8  1  0.15212941  0.61618538  0.17222714  1
  H  H9  1  0.84787059  0.38381462  0.17222714  1
  H  H10  1  0.65212941  0.11618538  0.32777286  1
  H  H11  1  0.34787059  0.88381462  0.32777286  1
  H  H12  1  0.84787059  0.61618538  0.17222714  1
  H  H13  1  0.15212941  0.38381462  0.17222714  1
  H  H14  1  0.34787059  0.11618538  0.32777286  1
  H  H15  1  0.65212941  0.88381462  0.32777286  1
  H  H16  1  0.50000000  0.72654848  0.71378086  1
  H  H17  1  0.50000000  0.27345152  0.71378086  1
  H  H18  1  0.00000000  0.22654848  0.78621914  1
  H  H19  1  0.00000000  0.77345152  0.78621914  1
  H  H20  1  0.27345152  0.50000000  0.28621914  1
  H  H21  1  0.72654848  0.50000000  0.28621914  1
  H  H22  1  0.77345152  0.00000000  0.21378086  1
  H  H23  1  0.22654848  0.00000000  0.21378086  1
  H  H24  1  0.34114064  0.11689498  0.56096472  1
  H  H25  1  0.65885936  0.88310502  0.56096472  1
  H  H26  1  0.84114064  0.61689498  0.93903528  1
  H  H27  1  0.15885936  0.38310502  0.93903528  1
  H  H28  1  0.65885936  0.11689498  0.56096472  1
  H  H29  1  0.34114064  0.88310502  0.56096472  1
  H  H30  1  0.15885936  0.61689498  0.93903528  1
  H  H31  1  0.84114064  0.38310502  0.93903528  1
  H  H32  1  0.88310502  0.34114064  0.43903528  1
  H  H33  1  0.11689498  0.65885936  0.43903528  1
  H  H34  1  0.38310502  0.84114064  0.06096472  1
  H  H35  1  0.61689498  0.15885936  0.06096472  1
  H  H36  1  0.11689498  0.34114064  0.43903528  1
  H  H37  1  0.88310502  0.65885936  0.43903528  1
  H  H38  1  0.61689498  0.84114064  0.06096472  1
  H  H39  1  0.38310502  0.15885936  0.06096472  1
  H  H40  1  0.22838771  0.00000000  0.67728819  1
  H  H41  1  0.77161229  0.00000000  0.67728819  1
  H  H42  1  0.72838771  0.50000000  0.82271181  1
  H  H43  1  0.27161229  0.50000000  0.82271181  1
  H  H44  1  0.00000000  0.22838771  0.32271181  1
  H  H45  1  0.00000000  0.77161229  0.32271181  1
  H  H46  1  0.50000000  0.72838771  0.17728819  1
  H  H47  1  0.50000000  0.27161229  0.17728819  1
  C  C48  1  0.50000000  0.84164920  0.77154917  1
  C  C49  1  0.50000000  0.15835080  0.77154917  1
  C  C50  1  0.00000000  0.34164920  0.72845083  1
  C  C51  1  0.00000000  0.65835080  0.72845083  1
  C  C52  1  0.15835080  0.50000000  0.22845083  1
  C  C53  1  0.84164920  0.50000000  0.22845083  1
  C  C54  1  0.65835080  0.00000000  0.27154917  1
  C  C55  1  0.34164920  0.00000000  0.27154917  1
  C  C56  1  0.33968421  0.00000000  0.61686421  1
  C  C57  1  0.66031579  0.00000000  0.61686421  1
  C  C58  1  0.83968421  0.50000000  0.88313579  1
  C  C59  1  0.16031579  0.50000000  0.88313579  1
  C  C60  1  0.00000000  0.33968421  0.38313579  1
  C  C61  1  0.00000000  0.66031579  0.38313579  1
  C  C62  1  0.50000000  0.83968421  0.11686421  1
  C  C63  1  0.50000000  0.16031579  0.11686421  1
  S  S64  1  0.50000000  0.50000000  0.50000000  1
  S  S65  1  0.00000000  0.00000000  0.00000000  1
  N  N66  1  0.50000000  0.00000000  0.69329611  1
  N  N67  1  0.00000000  0.50000000  0.80670389  1
  N  N68  1  0.00000000  0.50000000  0.30670389  1
  N  N69  1  0.50000000  0.00000000  0.19329611  1
  O  O70  1  0.34092850  0.50000000  0.57720653  1
  O  O71  1  0.65907150  0.50000000  0.57720653  1
  O  O72  1  0.84092850  0.00000000  0.92279347  1
  O  O73  1  0.15907150  0.00000000  0.92279347  1
  O  O74  1  0.50000000  0.34092850  0.42279347  1
  O  O75  1  0.50000000  0.65907150  0.42279347  1
  O  O76  1  0.00000000  0.84092850  0.07720653  1
  O  O77  1  0.00000000  0.15907150  0.07720653  1
