# generated using pymatgen
data_Fe3(O2F)2
_symmetry_space_group_name_H-M   'P 1'
_cell_length_a   7.51987297
_cell_length_b   5.62529727
_cell_length_c   5.62529727
_cell_angle_alpha   69.38085230
_cell_angle_beta   69.64745869
_cell_angle_gamma   69.64745869
_symmetry_Int_Tables_number   1
_chemical_formula_structural   Fe3(O2F)2
_chemical_formula_sum   'Fe6 O8 F4'
_cell_volume   201.81054793
_cell_formula_units_Z   2
loop_
 _symmetry_equiv_pos_site_id
 _symmetry_equiv_pos_as_xyz
  1  'x, y, z'
loop_
 _atom_site_type_symbol
 _atom_site_label
 _atom_site_symmetry_multiplicity
 _atom_site_fract_x
 _atom_site_fract_y
 _atom_site_fract_z
 _atom_site_occupancy
  Fe  Fe0  1  0.83800459  0.66854893  0.66854893  1
  Fe  Fe1  1  0.66666700  0.33333300  0.33333300  1
  Fe  Fe2  1  0.32896517  0.64868169  0.64868169  1
  Fe  Fe3  1  0.16666700  0.33333300  0.33333300  1
  Fe  Fe4  1  0.49532841  0.99811807  0.99811807  1
  Fe  Fe5  1  0.00436783  0.01798531  0.01798531  1
  O  O6  1  0.66666700  0.02636673  0.64030027  1
  O  O7  1  0.32928261  0.35736772  0.96662712  1
  O  O8  1  0.95022377  0.23912185  0.23912185  1
  O  O9  1  0.38310923  0.42754515  0.42754515  1
  O  O10  1  0.32928261  0.96662712  0.35736772  1
  O  O11  1  0.66666700  0.64030027  0.02636673  1
  O  O12  1  0.00405039  0.30929928  0.70003888  1
  O  O13  1  0.00405039  0.70003888  0.30929928  1
  F  F14  1  0.29962733  0.88828569  0.88828569  1
  F  F15  1  0.63050505  0.56822761  0.56822761  1
  F  F16  1  0.03370567  0.77838131  0.77838131  1
  F  F17  1  0.70282795  0.09843939  0.09843939  1
