# generated using pymatgen
data_NiS2
_symmetry_space_group_name_H-M   'P 1'
_cell_length_a   4.48929109
_cell_length_b   6.55675553
_cell_length_c   6.17952092
_cell_angle_alpha   90.00000000
_cell_angle_beta   89.98122104
_cell_angle_gamma   90.00000000
_symmetry_Int_Tables_number   1
_chemical_formula_structural   NiS2
_chemical_formula_sum   'Ni4 S8'
_cell_volume   181.89532675
_cell_formula_units_Z   4
loop_
 _symmetry_equiv_pos_site_id
 _symmetry_equiv_pos_as_xyz
  1  'x, y, z'
loop_
 _atom_site_type_symbol
 _atom_site_label
 _atom_site_symmetry_multiplicity
 _atom_site_fract_x
 _atom_site_fract_y
 _atom_site_fract_z
 _atom_site_occupancy
  Ni  Ni0  1  0.00000000  0.85936224  0.75000000  1
  Ni  Ni1  1  0.00000000  0.14063776  0.25000000  1
  Ni  Ni2  1  0.50000000  0.64020859  0.25000000  1
  Ni  Ni3  1  0.50000000  0.35979141  0.75000000  1
  S  S4  1  0.30874217  0.91199493  0.45479908  1
  S  S5  1  0.69125783  0.91199493  0.04520092  1
  S  S6  1  0.80869330  0.58796637  0.54519743  1
  S  S7  1  0.80869330  0.41203363  0.04519743  1
  S  S8  1  0.69125783  0.08800507  0.54520092  1
  S  S9  1  0.30874217  0.08800507  0.95479908  1
  S  S10  1  0.19130670  0.41203363  0.45480257  1
  S  S11  1  0.19130670  0.58796637  0.95480257  1
