# generated using pymatgen
data_LiFeP2O7
_symmetry_space_group_name_H-M   'P 1'
_cell_length_a   9.70418830
_cell_length_b   9.70751558
_cell_length_c   11.09988229
_cell_angle_alpha   89.81947869
_cell_angle_beta   101.84381881
_cell_angle_gamma   90.06063689
_symmetry_Int_Tables_number   1
_chemical_formula_structural   LiFeP2O7
_chemical_formula_sum   'Li8 Fe8 P16 O56'
_cell_volume   1023.38213236
_cell_formula_units_Z   8
loop_
 _symmetry_equiv_pos_site_id
 _symmetry_equiv_pos_as_xyz
  1  'x, y, z'
loop_
 _atom_site_type_symbol
 _atom_site_label
 _atom_site_symmetry_multiplicity
 _atom_site_fract_x
 _atom_site_fract_y
 _atom_site_fract_z
 _atom_site_occupancy
  Li  Li0  1  0.17186920  0.42436177  0.54199347  1
  Li  Li1  1  0.41418562  0.59735971  0.97421697  1
  Li  Li2  1  0.35077928  0.93495528  0.47227946  1
  Li  Li3  1  0.84858747  0.58503890  0.95686539  1
  Li  Li4  1  0.64810515  0.10138464  0.04311220  1
  Li  Li5  1  0.91772464  0.90049930  0.97280797  1
  Li  Li6  1  0.82684103  0.58557631  0.45671190  1
  Li  Li7  1  0.87808116  0.27869793  0.54907218  1
  Fe  Fe8  1  0.20322842  0.92030633  0.67449930  1
  Fe  Fe9  1  0.25034181  0.20815063  0.82866963  1
  Fe  Fe10  1  0.24616101  0.71741265  0.17561462  1
  Fe  Fe11  1  0.29735472  0.41826173  0.32155729  1
  Fe  Fe12  1  0.69963162  0.58259214  0.67199786  1
  Fe  Fe13  1  0.74634409  0.28700756  0.82678257  1
  Fe  Fe14  1  0.74599465  0.78363123  0.17728527  1
  Fe  Fe15  1  0.79317403  0.07354804  0.33161559  1
  P  P16  1  0.02347084  0.44897409  0.75438792  1
  P  P17  1  0.11710359  0.71018296  0.88640610  1
  P  P18  1  0.06532303  0.92212468  0.24006282  1
  P  P19  1  0.12151297  0.14701293  0.42237606  1
  P  P20  1  0.37720115  0.64650113  0.57582277  1
  P  P21  1  0.43417329  0.42382077  0.76336871  1
  P  P22  1  0.52167345  0.05190158  0.74545587  1
  P  P23  1  0.38471660  0.20938496  0.11227613  1
  P  P24  1  0.61198062  0.79108854  0.88540584  1
  P  P25  1  0.47415334  0.94620461  0.24669407  1
  P  P26  1  0.56542429  0.57797114  0.24001044  1
  P  P27  1  0.61968376  0.35189331  0.42107672  1
  P  P28  1  0.87716900  0.85585862  0.57465120  1
  P  P29  1  0.93405359  0.07664000  0.76322310  1
  P  P30  1  0.89209849  0.28566339  0.11285172  1
  P  P31  1  0.97678092  0.54896984  0.24734050  1
  O  O32  1  0.01655249  0.41903629  0.61985128  1
  O  O33  1  0.03338938  0.84581977  0.57060898  1
  O  O34  1  0.08650833  0.08694060  0.73525708  1
  O  O35  1  0.10414092  0.59261112  0.78088916  1
  O  O36  1  0.10749821  0.34556708  0.84379783  1
  O  O37  1  0.17621931  0.83175266  0.82558471  1
  O  O38  1  0.22334735  0.65675521  0.00156435  1
  O  O39  1  0.03332428  0.26207613  0.08897715  1
  O  O40  1  0.11696814  0.07148431  0.29289486  1
  O  O41  1  0.07183914  0.91179328  0.10668193  1
  O  O42  1  0.13028291  0.54127962  0.22170655  1
  O  O43  1  0.17986811  0.29166295  0.40686601  1
  O  O44  1  0.17233369  0.81686170  0.31005839  1
  O  O45  1  0.21198651  0.05911517  0.52208735  1
  O  O46  1  0.28594260  0.55999081  0.47642437  1
  O  O47  1  0.32872062  0.31501123  0.69725887  1
  O  O48  1  0.32157009  0.79195338  0.59320123  1
  O  O49  1  0.36837101  0.03829867  0.77478242  1
  O  O50  1  0.37605804  0.57039770  0.70547105  1
  O  O51  1  0.43175822  0.42563712  0.89707307  1
  O  O52  1  0.47198627  0.76293234  0.91218887  1
  O  O53  1  0.27922918  0.15852036  0.99627896  1
  O  O54  1  0.32491313  0.33098644  0.17421075  1
  O  O55  1  0.39445617  0.09019150  0.21765311  1
  O  O56  1  0.41235508  0.58884382  0.26523439  1
  O  O57  1  0.39110438  0.84432439  0.15253824  1
  O  O58  1  0.46735160  0.34592140  0.43286106  1
  O  O59  1  0.52505283  0.08522847  0.61700273  1
  O  O60  1  0.47977970  0.91156981  0.37759809  1
  O  O61  1  0.53249278  0.65246074  0.56592749  1
  O  O62  1  0.60898327  0.14604591  0.84898159  1
  O  O63  1  0.58736245  0.41210034  0.73417573  1
  O  O64  1  0.59958033  0.90411053  0.77843975  1
  O  O65  1  0.68647442  0.66923427  0.83268691  1
  O  O66  1  0.72032044  0.84948927  0.00141183  1
  O  O67  1  0.52805595  0.22915784  0.08760787  1
  O  O68  1  0.57507116  0.59029682  0.10707446  1
  O  O69  1  0.62300661  0.43113705  0.29310739  1
  O  O70  1  0.62786377  0.96198348  0.21534393  1
  O  O71  1  0.68925286  0.21314362  0.40735913  1
  O  O72  1  0.67329776  0.68395412  0.31058872  1
  O  O73  1  0.71785157  0.43599304  0.52276914  1
  O  O74  1  0.79070889  0.93511474  0.46766259  1
  O  O75  1  0.84096601  0.19740152  0.70002971  1
  O  O76  1  0.81866954  0.71071344  0.59411277  1
  O  O77  1  0.87075664  0.46793940  0.78285474  1
  O  O78  1  0.92156320  0.07194807  0.89475984  1
  O  O79  1  0.86945017  0.93612790  0.70030286  1
  O  O80  1  0.97310302  0.72810008  0.91374127  1
  O  O81  1  0.78648886  0.34606791  0.99543647  1
  O  O82  1  0.81639868  0.16616184  0.16871069  1
  O  O83  1  0.88871298  0.64777260  0.14879043  1
  O  O84  1  0.89927966  0.40373462  0.21889970  1
  O  O85  1  0.91073552  0.90895600  0.26447987  1
  O  O86  1  0.96713453  0.15927935  0.43689989  1
  O  O87  1  0.97422143  0.58145051  0.37791576  1
