# generated using pymatgen
data_Fe5O7F3
_symmetry_space_group_name_H-M   'P 1'
_cell_length_a   4.66987280
_cell_length_b   4.67468235
_cell_length_c   15.21695500
_cell_angle_alpha   89.60903562
_cell_angle_beta   90.07515546
_cell_angle_gamma   92.74449941
_symmetry_Int_Tables_number   1
_chemical_formula_structural   Fe5O7F3
_chemical_formula_sum   'Fe10 O14 F6'
_cell_volume   331.79983397
_cell_formula_units_Z   2
loop_
 _symmetry_equiv_pos_site_id
 _symmetry_equiv_pos_as_xyz
  1  'x, y, z'
loop_
 _atom_site_type_symbol
 _atom_site_label
 _atom_site_symmetry_multiplicity
 _atom_site_fract_x
 _atom_site_fract_y
 _atom_site_fract_z
 _atom_site_occupancy
  Fe  Fe0  1  0.99726118  0.99612329  0.00920846  1
  Fe  Fe1  1  0.01732883  0.02682972  0.19560656  1
  Fe  Fe2  1  0.99952062  0.99348885  0.40008982  1
  Fe  Fe3  1  0.01319158  0.98542566  0.59887145  1
  Fe  Fe4  1  0.00396978  0.99413199  0.79636476  1
  Fe  Fe5  1  0.48985069  0.49380876  0.09459696  1
  Fe  Fe6  1  0.47561237  0.52216753  0.50152550  1
  Fe  Fe7  1  0.52429199  0.45979146  0.30539047  1
  Fe  Fe8  1  0.47588960  0.52286118  0.70047179  1
  Fe  Fe9  1  0.50014883  0.49646525  0.89913358  1
  O  O10  1  0.20025691  0.80464501  0.10135211  1
  O  O11  1  0.18010195  0.81400012  0.49721668  1
  O  O12  1  0.18498826  0.81383888  0.70053476  1
  O  O13  1  0.30261661  0.30155739  0.99162069  1
  O  O14  1  0.32821740  0.31319542  0.20107228  1
  O  O15  1  0.30182540  0.30009902  0.40379674  1
  O  O16  1  0.29735710  0.31449259  0.60049115  1
  O  O17  1  0.30625329  0.30861744  0.80097833  1
  O  O18  1  0.69004496  0.69030276  0.99432427  1
  O  O19  1  0.69494515  0.69037687  0.40224228  1
  O  O20  1  0.68364159  0.70103072  0.60049143  1
  O  O21  1  0.68901022  0.69191434  0.80118912  1
  O  O22  1  0.80424337  0.20173398  0.09980392  1
  O  O23  1  0.82625767  0.17838777  0.30240266  1
  F  F24  1  0.21120835  0.79670588  0.29901395  1
  F  F25  1  0.18924172  0.80321658  0.89899278  1
  F  F26  1  0.71257789  0.69703230  0.20379787  1
  F  F27  1  0.79559771  0.19931092  0.50214175  1
  F  F28  1  0.80734450  0.18651924  0.89735618  1
  F  F29  1  0.79720449  0.20193007  0.69992271  1
