# generated using pymatgen
data_Co3(OF2)2
_symmetry_space_group_name_H-M   'P 1'
_cell_length_a   7.13662519
_cell_length_b   5.50760071
_cell_length_c   5.57278085
_cell_angle_alpha   72.03467738
_cell_angle_beta   73.76559026
_cell_angle_gamma   73.51580533
_symmetry_Int_Tables_number   1
_chemical_formula_structural   Co3(OF2)2
_chemical_formula_sum   'Co6 O4 F8'
_cell_volume   195.31948657
_cell_formula_units_Z   2
loop_
 _symmetry_equiv_pos_site_id
 _symmetry_equiv_pos_as_xyz
  1  'x, y, z'
loop_
 _atom_site_type_symbol
 _atom_site_label
 _atom_site_symmetry_multiplicity
 _atom_site_fract_x
 _atom_site_fract_y
 _atom_site_fract_z
 _atom_site_occupancy
  Co  Co0  1  0.84058850  0.69426094  0.67808889  1
  Co  Co1  1  0.32218335  0.69178544  0.63230986  1
  Co  Co2  1  0.67781665  0.30821456  0.36769014  1
  Co  Co3  1  0.15941150  0.30573906  0.32191111  1
  Co  Co4  1  0.50000000  0.00000000  0.00000000  1
  Co  Co5  1  0.00000000  0.00000000  0.00000000  1
  O  O6  1  0.66827860  0.02230340  0.66671130  1
  O  O7  1  0.96788410  0.20985693  0.23545787  1
  O  O8  1  0.03211590  0.79014307  0.76454213  1
  O  O9  1  0.33172140  0.97769660  0.33328870  1
  F  F10  1  0.33668126  0.37725608  0.94202862  1
  F  F11  1  0.63407975  0.58184420  0.57420350  1
  F  F12  1  0.29732000  0.91000990  0.88922174  1
  F  F13  1  0.36592025  0.41815580  0.42579650  1
  F  F14  1  0.70268000  0.08999010  0.11077826  1
  F  F15  1  0.66331874  0.62274392  0.05797138  1
  F  F16  1  0.99369446  0.32102243  0.70380649  1
  F  F17  1  0.00630554  0.67897757  0.29619351  1
