# generated using pymatgen
data_Li6Co2C4SO16
_symmetry_space_group_name_H-M   'P 1'
_cell_length_a   9.37427454
_cell_length_b   9.37427475
_cell_length_c   9.37427448
_cell_angle_alpha   60.00000160
_cell_angle_beta   59.99999980
_cell_angle_gamma   60.00000075
_symmetry_Int_Tables_number   1
_chemical_formula_structural   Li6Co2C4SO16
_chemical_formula_sum   'Li12 Co4 C8 S2 O32'
_cell_volume   582.50280564
_cell_formula_units_Z   2
loop_
 _symmetry_equiv_pos_site_id
 _symmetry_equiv_pos_as_xyz
  1  'x, y, z'
loop_
 _atom_site_type_symbol
 _atom_site_label
 _atom_site_symmetry_multiplicity
 _atom_site_fract_x
 _atom_site_fract_y
 _atom_site_fract_z
 _atom_site_occupancy
  Li  Li0  1  0.09341042  0.65658958  0.09341042  1
  Li  Li1  1  0.09341042  0.09341042  0.65658958  1
  Li  Li2  1  0.09341042  0.65658958  0.65658958  1
  Li  Li3  1  0.65658958  0.09341042  0.09341042  1
  Li  Li4  1  0.34341042  0.90658958  0.34341042  1
  Li  Li5  1  0.34341042  0.34341042  0.90658958  1
  Li  Li6  1  0.65658958  0.65658958  0.09341042  1
  Li  Li7  1  0.65658958  0.09341042  0.65658958  1
  Li  Li8  1  0.90658958  0.34341042  0.34341042  1
  Li  Li9  1  0.34341042  0.90658958  0.90658958  1
  Li  Li10  1  0.90658958  0.34341042  0.90658958  1
  Li  Li11  1  0.90658958  0.90658958  0.34341042  1
  Co  Co12  1  0.00000000  0.50000000  0.50000000  1
  Co  Co13  1  0.50000000  0.50000000  0.00000000  1
  Co  Co14  1  0.50000000  0.00000000  0.50000000  1
  Co  Co15  1  0.50000000  0.50000000  0.50000000  1
  C  C16  1  0.27588651  0.27588651  0.27588651  1
  C  C17  1  0.27588651  0.27588651  0.67234048  1
  C  C18  1  0.27588651  0.67234048  0.27588651  1
  C  C19  1  0.67234048  0.27588651  0.27588651  1
  C  C20  1  0.32765952  0.72411349  0.72411349  1
  C  C21  1  0.72411349  0.32765952  0.72411349  1
  C  C22  1  0.72411349  0.72411349  0.32765952  1
  C  C23  1  0.72411349  0.72411349  0.72411349  1
  S  S24  1  0.12500000  0.12500000  0.12500000  1
  S  S25  1  0.87500000  0.87500000  0.87500000  1
  O  O26  1  0.05989516  0.05989516  0.05989516  1
  O  O27  1  0.05989516  0.05989516  0.32031552  1
  O  O28  1  0.05989516  0.32031552  0.05989516  1
  O  O29  1  0.32031552  0.05989516  0.05989516  1
  O  O30  1  0.13230718  0.40855223  0.28579660  1
  O  O31  1  0.28579660  0.13230718  0.40855223  1
  O  O32  1  0.13230718  0.28579660  0.67334398  1
  O  O33  1  0.40855223  0.28579660  0.13230718  1
  O  O34  1  0.13230718  0.67334398  0.40855223  1
  O  O35  1  0.28579660  0.67334398  0.13230718  1
  O  O36  1  0.40855223  0.13230718  0.67334398  1
  O  O37  1  0.28579660  0.40855223  0.67334398  1
  O  O38  1  0.67334398  0.13230718  0.28579660  1
  O  O39  1  0.40855223  0.67334398  0.28579660  1
  O  O40  1  0.67334398  0.40855223  0.13230718  1
  O  O41  1  0.32665602  0.71420340  0.59144777  1
  O  O42  1  0.67334398  0.28579660  0.40855223  1
  O  O43  1  0.32665602  0.59144777  0.86769282  1
  O  O44  1  0.59144777  0.32665602  0.71420340  1
  O  O45  1  0.32665602  0.86769282  0.71420340  1
  O  O46  1  0.71420340  0.59144777  0.32665602  1
  O  O47  1  0.59144777  0.86769282  0.32665602  1
  O  O48  1  0.71420340  0.32665602  0.86769282  1
  O  O49  1  0.86769282  0.32665602  0.59144777  1
  O  O50  1  0.59144777  0.71420340  0.86769282  1
  O  O51  1  0.86769282  0.71420340  0.32665602  1
  O  O52  1  0.71420340  0.86769282  0.59144777  1
  O  O53  1  0.86769282  0.59144777  0.71420340  1
  O  O54  1  0.67968448  0.94010484  0.94010484  1
  O  O55  1  0.94010484  0.67968448  0.94010484  1
  O  O56  1  0.94010484  0.94010484  0.67968448  1
  O  O57  1  0.94010484  0.94010484  0.94010484  1
