# generated using pymatgen
data_Li4VF6
_symmetry_space_group_name_H-M   'P 1'
_cell_length_a   7.59751947
_cell_length_b   14.15209236
_cell_length_c   3.25838892
_cell_angle_alpha   90.00000000
_cell_angle_beta   90.00000000
_cell_angle_gamma   90.00000000
_symmetry_Int_Tables_number   1
_chemical_formula_structural   Li4VF6
_chemical_formula_sum   'Li8 V2 F12'
_cell_volume   350.34457442
_cell_formula_units_Z   2
loop_
 _symmetry_equiv_pos_site_id
 _symmetry_equiv_pos_as_xyz
  1  'x, y, z'
loop_
 _atom_site_type_symbol
 _atom_site_label
 _atom_site_symmetry_multiplicity
 _atom_site_fract_x
 _atom_site_fract_y
 _atom_site_fract_z
 _atom_site_occupancy
  Li  Li0  1  0.00135295  0.24358330  0.50000000  1
  Li  Li1  1  0.24836773  0.61712703  0.00000000  1
  Li  Li2  1  0.25163227  0.11712703  0.00000000  1
  Li  Li3  1  0.49864705  0.74358330  0.50000000  1
  Li  Li4  1  0.50135295  0.25641670  0.50000000  1
  Li  Li5  1  0.74836773  0.88287297  0.00000000  1
  Li  Li6  1  0.75163227  0.38287297  0.00000000  1
  Li  Li7  1  0.99864705  0.75641670  0.50000000  1
  V  V8  1  0.00000000  0.50000000  0.50000000  1
  V  V9  1  0.50000000  0.00000000  0.50000000  1
  F  F10  1  0.06267338  0.19770703  0.00000000  1
  F  F11  1  0.11371243  0.63975592  0.50000000  1
  F  F12  1  0.17731312  0.48613932  0.00000000  1
  F  F13  1  0.32268688  0.98613932  0.00000000  1
  F  F14  1  0.38628757  0.13975592  0.50000000  1
  F  F15  1  0.43732662  0.69770703  0.00000000  1
  F  F16  1  0.56267338  0.30229297  0.00000000  1
  F  F17  1  0.61371243  0.86024408  0.50000000  1
  F  F18  1  0.67731312  0.01386068  0.00000000  1
  F  F19  1  0.82268688  0.51386068  0.00000000  1
  F  F20  1  0.88628757  0.36024408  0.50000000  1
  F  F21  1  0.93732662  0.80229297  0.00000000  1
