# generated using pymatgen
data_LiMnPO4
_symmetry_space_group_name_H-M   'P 1'
_cell_length_a   8.61766575
_cell_length_b   5.26397136
_cell_length_c   8.03190053
_cell_angle_alpha   90.00000000
_cell_angle_beta   90.00000000
_cell_angle_gamma   90.00000000
_symmetry_Int_Tables_number   1
_chemical_formula_structural   LiMnPO4
_chemical_formula_sum   'Li4 Mn4 P4 O16'
_cell_volume   364.35227397
_cell_formula_units_Z   4
loop_
 _symmetry_equiv_pos_site_id
 _symmetry_equiv_pos_as_xyz
  1  'x, y, z'
loop_
 _atom_site_type_symbol
 _atom_site_label
 _atom_site_symmetry_multiplicity
 _atom_site_fract_x
 _atom_site_fract_y
 _atom_site_fract_z
 _atom_site_occupancy
  Li  Li0  1  0.20135736  0.36005934  0.53010838  1
  Li  Li1  1  0.29864264  0.36005934  0.03010838  1
  Li  Li2  1  0.70135736  0.86005934  0.96989162  1
  Li  Li3  1  0.79864264  0.86005934  0.46989162  1
  Mn  Mn4  1  0.06251337  0.96662990  0.82374662  1
  Mn  Mn5  1  0.43748663  0.96662990  0.32374662  1
  Mn  Mn6  1  0.56251337  0.46662990  0.67625338  1
  Mn  Mn7  1  0.93748663  0.46662990  0.17625338  1
  P  P8  1  0.07440853  0.00226050  0.24978064  1
  P  P9  1  0.42559147  0.00226050  0.74978064  1
  P  P10  1  0.57440853  0.50226050  0.25021936  1
  P  P11  1  0.92559147  0.50226050  0.75021936  1
  O  O12  1  0.06060094  0.24036708  0.36341691  1
  O  O13  1  0.07723069  0.34292475  0.73782744  1
  O  O14  1  0.08768132  0.12678623  0.06922037  1
  O  O15  1  0.21407418  0.83033620  0.28628703  1
  O  O16  1  0.28592582  0.83033620  0.78628703  1
  O  O17  1  0.41231868  0.12678623  0.56922037  1
  O  O18  1  0.42276931  0.34292475  0.23782744  1
  O  O19  1  0.43939906  0.24036708  0.86341691  1
  O  O20  1  0.56060094  0.74036708  0.13658309  1
  O  O21  1  0.57723069  0.84292475  0.76217256  1
  O  O22  1  0.58768132  0.62678623  0.43077963  1
  O  O23  1  0.71407418  0.33033620  0.21371297  1
  O  O24  1  0.78592582  0.33033620  0.71371297  1
  O  O25  1  0.91231868  0.62678623  0.93077963  1
  O  O26  1  0.92276931  0.84292475  0.26217256  1
  O  O27  1  0.93939906  0.74036708  0.63658309  1
