# generated using pymatgen
data_AgH2C2N3O
_symmetry_space_group_name_H-M   'P 1'
_cell_length_a   6.59418947
_cell_length_b   9.95903814
_cell_length_c   13.20437976
_cell_angle_alpha   90.00000000
_cell_angle_beta   90.00000000
_cell_angle_gamma   90.00000000
_symmetry_Int_Tables_number   1
_chemical_formula_structural   AgH2C2N3O
_chemical_formula_sum   'Ag8 H16 C16 N24 O8'
_cell_volume   867.15518118
_cell_formula_units_Z   8
loop_
 _symmetry_equiv_pos_site_id
 _symmetry_equiv_pos_as_xyz
  1  'x, y, z'
loop_
 _atom_site_type_symbol
 _atom_site_label
 _atom_site_symmetry_multiplicity
 _atom_site_fract_x
 _atom_site_fract_y
 _atom_site_fract_z
 _atom_site_occupancy
  Ag  Ag0  1  0.55459126  0.21018136  0.32768034  1
  Ag  Ag1  1  0.05459126  0.28981864  0.67231966  1
  Ag  Ag2  1  0.44540874  0.71018136  0.17231966  1
  Ag  Ag3  1  0.94540874  0.78981864  0.82768034  1
  Ag  Ag4  1  0.44540874  0.78981864  0.67231966  1
  Ag  Ag5  1  0.94540874  0.71018136  0.32768034  1
  Ag  Ag6  1  0.55459126  0.28981864  0.82768034  1
  Ag  Ag7  1  0.05459126  0.21018136  0.17231966  1
  H  H8  1  0.14921451  0.25513383  0.41841387  1
  H  H9  1  0.64921451  0.24486617  0.58158613  1
  H  H10  1  0.85078549  0.75513383  0.08158613  1
  H  H11  1  0.35078549  0.74486617  0.91841387  1
  H  H12  1  0.85078549  0.74486617  0.58158613  1
  H  H13  1  0.35078549  0.75513383  0.41841387  1
  H  H14  1  0.14921451  0.24486617  0.91841387  1
  H  H15  1  0.64921451  0.25513383  0.08158613  1
  H  H16  1  0.98437549  0.38193929  0.46477216  1
  H  H17  1  0.48437549  0.11806071  0.53522784  1
  H  H18  1  0.01562451  0.88193929  0.03522784  1
  H  H19  1  0.51562451  0.61806071  0.96477216  1
  H  H20  1  0.01562451  0.61806071  0.53522784  1
  H  H21  1  0.51562451  0.88193929  0.46477216  1
  H  H22  1  0.98437549  0.11806071  0.96477216  1
  H  H23  1  0.48437549  0.38193929  0.03522784  1
  C  C24  1  0.55857286  0.50564083  0.34460127  1
  C  C25  1  0.05857286  0.99435917  0.65539873  1
  C  C26  1  0.44142714  0.00564083  0.15539873  1
  C  C27  1  0.94142714  0.49435917  0.84460127  1
  C  C28  1  0.44142714  0.49435917  0.65539873  1
  C  C29  1  0.94142714  0.00564083  0.34460127  1
  C  C30  1  0.55857286  0.99435917  0.84460127  1
  C  C31  1  0.05857286  0.50564083  0.15539873  1
  C  C32  1  0.24794639  0.45082577  0.40716055  1
  C  C33  1  0.74794639  0.04917423  0.59283945  1
  C  C34  1  0.75205361  0.95082577  0.09283945  1
  C  C35  1  0.25205361  0.54917423  0.90716055  1
  C  C36  1  0.75205361  0.54917423  0.59283945  1
  C  C37  1  0.25205361  0.95082577  0.40716055  1
  C  C38  1  0.24794639  0.04917423  0.90716055  1
  C  C39  1  0.74794639  0.45082577  0.09283945  1
  N  N40  1  0.67832421  0.58908347  0.32172863  1
  N  N41  1  0.17832421  0.91091653  0.67827137  1
  N  N42  1  0.32167579  0.08908347  0.17827137  1
  N  N43  1  0.82167579  0.41091653  0.82172863  1
  N  N44  1  0.32167579  0.41091653  0.67827137  1
  N  N45  1  0.82167579  0.08908347  0.32172863  1
  N  N46  1  0.67832421  0.91091653  0.82172863  1
  N  N47  1  0.17832421  0.58908347  0.17827137  1
  N  N48  1  0.43071981  0.41015763  0.36421691  1
  N  N49  1  0.93071981  0.08984237  0.63578309  1
  N  N50  1  0.56928019  0.91015763  0.13578309  1
  N  N51  1  0.06928019  0.58984237  0.86421691  1
  N  N52  1  0.56928019  0.58984237  0.63578309  1
  N  N53  1  0.06928019  0.91015763  0.36421691  1
  N  N54  1  0.43071981  0.08984237  0.86421691  1
  N  N55  1  0.93071981  0.41015763  0.13578309  1
  N  N56  1  0.10908029  0.35422743  0.42289673  1
  N  N57  1  0.60908029  0.14577257  0.57710327  1
  N  N58  1  0.89091971  0.85422743  0.07710327  1
  N  N59  1  0.39091971  0.64577257  0.92289673  1
  N  N60  1  0.89091971  0.64577257  0.57710327  1
  N  N61  1  0.39091971  0.85422743  0.42289673  1
  N  N62  1  0.10908029  0.14577257  0.92289673  1
  N  N63  1  0.60908029  0.35422743  0.07710327  1
  O  O64  1  0.21354895  0.57263810  0.42929645  1
  O  O65  1  0.71354895  0.92736190  0.57070355  1
  O  O66  1  0.78645105  0.07263810  0.07070355  1
  O  O67  1  0.28645105  0.42736190  0.92929645  1
  O  O68  1  0.78645105  0.42736190  0.57070355  1
  O  O69  1  0.28645105  0.07263810  0.42929645  1
  O  O70  1  0.21354895  0.92736190  0.92929645  1
  O  O71  1  0.71354895  0.57263810  0.07070355  1
