# generated using pymatgen
data_Mg2PbO4
_symmetry_space_group_name_H-M   'P 1'
_cell_length_a   5.36328947
_cell_length_b   9.77307149
_cell_length_c   3.18650334
_cell_angle_alpha   90.00128631
_cell_angle_beta   90.00506799
_cell_angle_gamma   89.99259824
_symmetry_Int_Tables_number   1
_chemical_formula_structural   Mg2PbO4
_chemical_formula_sum   'Mg4 Pb2 O8'
_cell_volume   167.02315612
_cell_formula_units_Z   2
loop_
 _symmetry_equiv_pos_site_id
 _symmetry_equiv_pos_as_xyz
  1  'x, y, z'
loop_
 _atom_site_type_symbol
 _atom_site_label
 _atom_site_symmetry_multiplicity
 _atom_site_fract_x
 _atom_site_fract_y
 _atom_site_fract_z
 _atom_site_occupancy
  Mg  Mg0  1  0.05419536  0.31723773  0.50001871  1
  Mg  Mg1  1  0.44579290  0.81720270  0.50004746  1
  Mg  Mg2  1  0.55419944  0.18280489  0.50003266  1
  Mg  Mg3  1  0.94583671  0.68279224  0.50002264  1
  Pb  Pb4  1  0.00001713  0.00001479  0.00012523  1
  Pb  Pb5  1  0.49995456  0.50006022  0.99986395  1
  O  O6  1  0.17389382  0.79670328  0.00001886  1
  O  O7  1  0.26516332  0.04747586  0.50023880  1
  O  O8  1  0.23483655  0.54746763  0.49985782  1
  O  O9  1  0.32609743  0.29674537  0.00015127  1
  O  O10  1  0.67396226  0.70324730  0.00005227  1
  O  O11  1  0.76500259  0.45252107  0.49985190  1
  O  O12  1  0.73497991  0.95244266  0.49997965  1
  O  O13  1  0.82606804  0.20328425  0.99973877  1
