# generated using pymatgen
data_Fe5O7F3
_symmetry_space_group_name_H-M   'P 1'
_cell_length_a   4.66629595
_cell_length_b   4.66629595
_cell_length_c   15.26319065
_cell_angle_alpha   90.07107228
_cell_angle_beta   90.07107228
_cell_angle_gamma   88.49820310
_symmetry_Int_Tables_number   1
_chemical_formula_structural   Fe5O7F3
_chemical_formula_sum   'Fe10 O14 F6'
_cell_volume   332.23090805
_cell_formula_units_Z   2
loop_
 _symmetry_equiv_pos_site_id
 _symmetry_equiv_pos_as_xyz
  1  'x, y, z'
loop_
 _atom_site_type_symbol
 _atom_site_label
 _atom_site_symmetry_multiplicity
 _atom_site_fract_x
 _atom_site_fract_y
 _atom_site_fract_z
 _atom_site_occupancy
  Fe  Fe0  1  0.98536312  0.96718566  0.00620025  1
  Fe  Fe1  1  0.98100652  0.97629378  0.20111128  1
  Fe  Fe2  1  0.02370622  0.01899348  0.39888872  1
  Fe  Fe3  1  0.03281434  0.01463688  0.59379975  1
  Fe  Fe4  1  0.01486750  0.98513250  0.80000000  1
  Fe  Fe5  1  0.51914490  0.50898025  0.09916407  1
  Fe  Fe6  1  0.49101975  0.48085510  0.50083593  1
  Fe  Fe7  1  0.50209992  0.49790008  0.30000000  1
  Fe  Fe8  1  0.47481518  0.51295993  0.70448177  1
  Fe  Fe9  1  0.48704007  0.52518482  0.89551823  1
  O  O10  1  0.19300865  0.79123799  0.10468302  1
  O  O11  1  0.19674153  0.80325847  0.30000000  1
  O  O12  1  0.20876201  0.80699135  0.49531698  1
  O  O13  1  0.19092774  0.82099943  0.69613006  1
  O  O14  1  0.17900057  0.80907226  0.90386994  1
  O  O15  1  0.32174699  0.31312110  0.39622585  1
  O  O16  1  0.31421212  0.31814478  0.60211189  1
  O  O17  1  0.29429246  0.30768539  0.80197042  1
  O  O18  1  0.68185522  0.68578788  0.99788811  1
  O  O19  1  0.68687890  0.67825301  0.20377415  1
  O  O20  1  0.69231461  0.70570754  0.79802958  1
  O  O21  1  0.80115956  0.18347480  0.10192857  1
  O  O22  1  0.81652520  0.19884044  0.49807143  1
  O  O23  1  0.80885100  0.19114900  0.30000000  1
  F  F24  1  0.29624819  0.29659540  -0.00006333  1
  F  F25  1  0.30093406  0.29436053  0.19847812  1
  F  F26  1  0.70563947  0.69906594  0.40152188  1
  F  F27  1  0.70340460  0.70375181  0.60006333  1
  F  F28  1  0.79438256  0.19876397  0.90212104  1
  F  F29  1  0.80123603  0.20561744  0.69787896  1
