# generated using pymatgen
data_Li2FeF4
_symmetry_space_group_name_H-M   'P 1'
_cell_length_a   8.78959044
_cell_length_b   7.49218843
_cell_length_c   15.61222363
_cell_angle_alpha   90.00000000
_cell_angle_beta   90.35472780
_cell_angle_gamma   90.00000000
_symmetry_Int_Tables_number   1
_chemical_formula_structural   Li2FeF4
_chemical_formula_sum   'Li24 Fe12 F48'
_cell_volume   1028.09623913
_cell_formula_units_Z   12
loop_
 _symmetry_equiv_pos_site_id
 _symmetry_equiv_pos_as_xyz
  1  'x, y, z'
loop_
 _atom_site_type_symbol
 _atom_site_label
 _atom_site_symmetry_multiplicity
 _atom_site_fract_x
 _atom_site_fract_y
 _atom_site_fract_z
 _atom_site_occupancy
  Li  Li0  1  0.06596812  0.65307784  0.91131921  1
  Li  Li1  1  0.05362744  0.23414630  0.91237352  1
  Li  Li2  1  0.08013400  0.83051841  0.25859891  1
  Li  Li3  1  0.07732457  0.24776142  0.26957695  1
  Li  Li4  1  0.09911175  0.66969750  0.57682096  1
  Li  Li5  1  0.11573376  0.25666350  0.57296498  1
  Li  Li6  1  0.38426624  0.75666350  0.92703502  1
  Li  Li7  1  0.40088825  0.16969750  0.92317904  1
  Li  Li8  1  0.42267543  0.74776142  0.23042305  1
  Li  Li9  1  0.41986600  0.33051841  0.24140109  1
  Li  Li10  1  0.44637256  0.73414630  0.58762648  1
  Li  Li11  1  0.43403188  0.15307784  0.58868079  1
  Li  Li12  1  0.56596812  0.84692216  0.41131921  1
  Li  Li13  1  0.55362744  0.26585370  0.41237352  1
  Li  Li14  1  0.58013400  0.66948159  0.75859891  1
  Li  Li15  1  0.57732457  0.25223858  0.76957695  1
  Li  Li16  1  0.59911175  0.83030250  0.07682096  1
  Li  Li17  1  0.61573376  0.24333650  0.07296498  1
  Li  Li18  1  0.88426624  0.74333650  0.42703502  1
  Li  Li19  1  0.90088825  0.33030250  0.42317904  1
  Li  Li20  1  0.92267543  0.75223858  0.73042305  1
  Li  Li21  1  0.91986600  0.16948159  0.74140109  1
  Li  Li22  1  0.94637256  0.76585370  0.08762648  1
  Li  Li23  1  0.93403188  0.34692216  0.08868079  1
  Fe  Fe24  1  0.23996887  0.95629371  0.41547314  1
  Fe  Fe25  1  0.28816847  0.95307871  0.73471849  1
  Fe  Fe26  1  0.24801538  0.05329130  0.08560714  1
  Fe  Fe27  1  0.21183153  0.45307871  0.76528151  1
  Fe  Fe28  1  0.25198462  0.55329130  0.41439286  1
  Fe  Fe29  1  0.26003113  0.45629371  0.08452686  1
  Fe  Fe30  1  0.73996887  0.54370629  0.91547314  1
  Fe  Fe31  1  0.74801538  0.44670870  0.58560714  1
  Fe  Fe32  1  0.78816847  0.54692129  0.23471849  1
  Fe  Fe33  1  0.75198462  0.94670870  0.91439286  1
  Fe  Fe34  1  0.71183153  0.04692129  0.26528151  1
  Fe  Fe35  1  0.76003113  0.04370629  0.58452686  1
  F  F36  1  0.05398887  0.55346536  0.12030932  1
  F  F37  1  0.06922832  0.92659393  0.14770535  1
  F  F38  1  0.08689373  0.76834645  0.46558143  1
  F  F39  1  0.07122636  0.03537145  0.33249784  1
  F  F40  1  0.08300068  0.40039980  0.36656836  1
  F  F41  1  0.11855335  0.69029838  0.79050741  1
  F  F42  1  0.09512015  0.23853954  0.03103342  1
  F  F43  1  0.09116654  0.29024655  0.69504009  1
  F  F44  1  0.21221555  0.46665744  0.53915861  1
  F  F45  1  0.24506188  0.58880876  0.96911689  1
  F  F46  1  0.25508340  0.77518178  0.64474201  1
  F  F47  1  0.23603835  0.25095809  0.18910234  1
  F  F48  1  0.24491660  0.27518178  0.85525799  1
  F  F49  1  0.26396165  0.75095809  0.31089766  1
  F  F50  1  0.25493812  0.08880876  0.53088311  1
  F  F51  1  0.28778445  0.96665744  0.96084139  1
  F  F52  1  0.40883346  0.79024655  0.80495991  1
  F  F53  1  0.38144665  0.19029838  0.70949259  1
  F  F54  1  0.40487985  0.73853954  0.46896658  1
  F  F55  1  0.41699932  0.90039980  0.13343164  1
  F  F56  1  0.42877364  0.53537145  0.16750216  1
  F  F57  1  0.41310627  0.26834645  0.03441857  1
  F  F58  1  0.43077168  0.42659393  0.35229465  1
  F  F59  1  0.44601113  0.05346536  0.37969068  1
  F  F60  1  0.55398887  0.94653464  0.62030932  1
  F  F61  1  0.56922832  0.57340607  0.64770535  1
  F  F62  1  0.58689373  0.73165355  0.96558143  1
  F  F63  1  0.57122636  0.46462855  0.83249784  1
  F  F64  1  0.58300068  0.09960020  0.86656836  1
  F  F65  1  0.59512015  0.26146046  0.53103342  1
  F  F66  1  0.61855335  0.80970162  0.29050741  1
  F  F67  1  0.59116654  0.20975345  0.19504009  1
  F  F68  1  0.71221555  0.03334256  0.03915861  1
  F  F69  1  0.74506188  0.91119124  0.46911689  1
  F  F70  1  0.73603835  0.24904191  0.68910234  1
  F  F71  1  0.75508340  0.72481822  0.14474201  1
  F  F72  1  0.76396165  0.74904191  0.81089766  1
  F  F73  1  0.74491660  0.22481822  0.35525799  1
  F  F74  1  0.75493812  0.41119124  0.03088311  1
  F  F75  1  0.78778445  0.53334256  0.46084139  1
  F  F76  1  0.90883346  0.70975345  0.30495991  1
  F  F77  1  0.90487985  0.76146046  0.96896658  1
  F  F78  1  0.88144665  0.30970162  0.20949259  1
  F  F79  1  0.91699932  0.59960020  0.63343164  1
  F  F80  1  0.92877364  0.96462855  0.66750216  1
  F  F81  1  0.91310627  0.23165355  0.53441857  1
  F  F82  1  0.93077168  0.07340607  0.85229465  1
  F  F83  1  0.94601113  0.44653464  0.87969068  1
