# generated using pymatgen
data_Mn7(OF3)3
_symmetry_space_group_name_H-M   'P 1'
_cell_length_a   6.31961714
_cell_length_b   6.36859712
_cell_length_c   6.47183281
_cell_angle_alpha   90.19035670
_cell_angle_beta   89.10617418
_cell_angle_gamma   90.61207801
_symmetry_Int_Tables_number   1
_chemical_formula_structural   Mn7(OF3)3
_chemical_formula_sum   'Mn7 O3 F9'
_cell_volume   260.42462114
_cell_formula_units_Z   1
loop_
 _symmetry_equiv_pos_site_id
 _symmetry_equiv_pos_as_xyz
  1  'x, y, z'
loop_
 _atom_site_type_symbol
 _atom_site_label
 _atom_site_symmetry_multiplicity
 _atom_site_fract_x
 _atom_site_fract_y
 _atom_site_fract_z
 _atom_site_occupancy
  Mn  Mn0  1  0.06728975  0.75735724  0.56362781  1
  Mn  Mn1  1  0.24311999  0.45586691  0.91701188  1
  Mn  Mn2  1  0.43679373  0.93109825  0.26641441  1
  Mn  Mn3  1  0.57122046  0.05862834  0.76153307  1
  Mn  Mn4  1  0.74009579  0.57821609  0.05618880  1
  Mn  Mn5  1  0.95234066  0.24756385  0.42435175  1
  Mn  Mn6  1  0.98627057  0.96944031  0.02468844  1
  O  O7  1  0.02751747  0.70006741  0.89437524  1
  O  O8  1  0.11183404  0.97335810  0.31906672  1
  O  O9  1  0.68399831  0.91299085  0.04204922  1
  F  F10  1  0.17355758  0.42241991  0.59870852  1
  F  F11  1  0.28332413  0.10396365  0.94291860  1
  F  F12  1  0.40664555  0.59538712  0.16794023  1
  F  F13  1  0.41106991  0.82006882  0.59713462  1
  F  F14  1  0.57408149  0.39181411  0.83740513  1
  F  F15  1  0.61612690  0.15839379  0.43397277  1
  F  F16  1  0.84697190  0.57305158  0.37933953  1
  F  F17  1  0.90995165  0.06123397  0.69992921  1
  F  F18  1  0.94937310  0.29902270  0.08012802  1
