# generated using pymatgen
data_ThF4
_symmetry_space_group_name_H-M   'P 1'
_cell_length_a   8.26967410
_cell_length_b   8.26999063
_cell_length_c   9.17137426
_cell_angle_alpha   56.74603798
_cell_angle_beta   123.25236774
_cell_angle_gamma   108.50739693
_symmetry_Int_Tables_number   1
_chemical_formula_structural   ThF4
_chemical_formula_sum   'Th6 F24'
_cell_volume   438.51207955
_cell_formula_units_Z   6
loop_
 _symmetry_equiv_pos_site_id
 _symmetry_equiv_pos_as_xyz
  1  'x, y, z'
loop_
 _atom_site_type_symbol
 _atom_site_label
 _atom_site_symmetry_multiplicity
 _atom_site_fract_x
 _atom_site_fract_y
 _atom_site_fract_z
 _atom_site_occupancy
  Th  Th0  1  0.80291847  0.80293608  0.25000141  1
  Th  Th1  1  0.19706178  0.19705720  0.75000538  1
  Th  Th2  1  0.59020581  0.23999654  0.26392751  1
  Th  Th3  1  0.23999640  0.59020341  0.23607257  1
  Th  Th4  1  0.40978514  0.75998984  0.73607061  1
  Th  Th5  1  0.76000834  0.40980290  0.76393924  1
  F  F6  1  0.35875866  0.35872974  0.25002328  1
  F  F7  1  0.64126971  0.64129952  0.74996878  1
  F  F8  1  0.73556540  0.45506039  0.42730970  1
  F  F9  1  0.45498917  0.73549773  0.07266320  1
  F  F10  1  0.26448036  0.54496956  0.57268761  1
  F  F11  1  0.54500349  0.26450629  0.92731373  1
  F  F12  1  0.67268163  0.55324003  0.08571986  1
  F  F13  1  0.55325573  0.67271557  0.41422178  1
  F  F14  1  0.32730549  0.44673905  0.91426433  1
  F  F15  1  0.44676550  0.32732343  0.58573714  1
  F  F16  1  0.99999482  0.49997319  0.00003957  1
  F  F17  1  0.49996387  0.99998656  0.49996805  1
  F  F18  1  0.99292316  0.26224255  0.80689580  1
  F  F19  1  0.26222902  0.99291413  0.69310625  1
  F  F20  1  0.00708335  0.73775166  0.19312653  1
  F  F21  1  0.73780229  0.00711592  0.30689599  1
  F  F22  1  0.65260904  0.93177574  0.88893301  1
  F  F23  1  0.93178869  0.65264959  0.61109103  1
  F  F24  1  0.34739703  0.06820061  0.11105239  1
  F  F25  1  0.06822012  0.34734755  0.38896210  1
  F  F26  1  0.87263992  0.12828144  0.06532533  1
  F  F27  1  0.12827919  0.87262835  0.43466074  1
  F  F28  1  0.12734092  0.87169486  0.93466194  1
  F  F29  1  0.87168250  0.12736657  0.56535714  1
