# generated using pymatgen
data_Mn5(OF3)2
_symmetry_space_group_name_H-M   'P 1'
_cell_length_a   3.21117420
_cell_length_b   8.07850458
_cell_length_c   7.93769192
_cell_angle_alpha   82.16043557
_cell_angle_beta   101.66995251
_cell_angle_gamma   78.53624517
_symmetry_Int_Tables_number   1
_chemical_formula_structural   Mn5(OF3)2
_chemical_formula_sum   'Mn5 O2 F6'
_cell_volume   194.26170444
_cell_formula_units_Z   1
loop_
 _symmetry_equiv_pos_site_id
 _symmetry_equiv_pos_as_xyz
  1  'x, y, z'
loop_
 _atom_site_type_symbol
 _atom_site_label
 _atom_site_symmetry_multiplicity
 _atom_site_fract_x
 _atom_site_fract_y
 _atom_site_fract_z
 _atom_site_occupancy
  Mn  Mn0  1  0.82749362  0.82699094  0.48197817  1
  Mn  Mn1  1  0.68362641  0.45948629  0.82674010  1
  Mn  Mn2  1  0.30905332  0.54905524  0.16716188  1
  Mn  Mn3  1  0.17503867  0.17378894  0.52386529  1
  Mn  Mn4  1  0.98540793  0.18571370  0.15653055  1
  O  O5  1  0.33541231  0.33804704  0.00887167  1
  O  O6  1  0.62642603  0.09110007  0.34395213  1
  F  F7  1  0.36241602  0.90998827  0.63482030  1
  F  F8  1  0.30110242  0.73398239  0.33618623  1
  F  F9  1  0.04160934  0.58837109  0.67158976  1
  F  F10  1  0.67643816  0.65354419  0.00641951  1
  F  F11  1  0.95645795  0.41040444  0.32331933  1
  F  F12  1  0.70191883  0.26122742  0.66506507  1
