# generated using pymatgen
data_Li3Ti2VO6
_symmetry_space_group_name_H-M   'P 1'
_cell_length_a   15.87550686
_cell_length_b   10.15398345
_cell_length_c   10.15398340
_cell_angle_alpha   16.71698711
_cell_angle_beta   16.06497498
_cell_angle_gamma   16.06497806
_symmetry_Int_Tables_number   1
_chemical_formula_structural   Li3Ti2VO6
_chemical_formula_sum   'Li3 Ti2 V1 O6'
_cell_volume   112.05517312
_cell_formula_units_Z   1
loop_
 _symmetry_equiv_pos_site_id
 _symmetry_equiv_pos_as_xyz
  1  'x, y, z'
loop_
 _atom_site_type_symbol
 _atom_site_label
 _atom_site_symmetry_multiplicity
 _atom_site_fract_x
 _atom_site_fract_y
 _atom_site_fract_z
 _atom_site_occupancy
  Li  Li0  1  0.16666700  0.50000000  0.50000000  1
  Li  Li1  1  0.50629267  0.49397065  0.49397065  1
  Li  Li2  1  0.82704133  0.50602935  0.50602935  1
  Ti  Ti3  1  0.03029511  0.97718524  0.97718524  1
  Ti  Ti4  1  0.30303789  0.02281476  0.02281476  1
  V  V5  1  0.66666700  0.00000000  0.00000000  1
  O  O6  1  0.23919292  0.25952780  0.25952780  1
  O  O7  1  0.57571930  0.26429522  0.26429522  1
  O  O8  1  0.09414108  0.74047220  0.74047220  1
  O  O9  1  0.91747838  0.25092723  0.25092723  1
  O  O10  1  0.41585462  0.74907277  0.74907277  1
  O  O11  1  0.75761370  0.73570478  0.73570478  1
