# generated using pymatgen
data_Li3Si2BiO7
_symmetry_space_group_name_H-M   'P 1'
_cell_length_a   5.10786149
_cell_length_b   9.44608805
_cell_length_c   13.28535437
_cell_angle_alpha   90.00000000
_cell_angle_beta   90.00000000
_cell_angle_gamma   90.00000000
_symmetry_Int_Tables_number   1
_chemical_formula_structural   Li3Si2BiO7
_chemical_formula_sum   'Li12 Si8 Bi4 O28'
_cell_volume   641.00917324
_cell_formula_units_Z   4
loop_
 _symmetry_equiv_pos_site_id
 _symmetry_equiv_pos_as_xyz
  1  'x, y, z'
loop_
 _atom_site_type_symbol
 _atom_site_label
 _atom_site_symmetry_multiplicity
 _atom_site_fract_x
 _atom_site_fract_y
 _atom_site_fract_z
 _atom_site_occupancy
  Li  Li0  1  0.04423652  0.33220320  0.09287163  1
  Li  Li1  1  0.04423652  0.33220320  0.40712837  1
  Li  Li2  1  0.05106931  0.01611574  0.25000000  1
  Li  Li3  1  0.44893069  0.51611574  0.25000000  1
  Li  Li4  1  0.45576348  0.83220320  0.09287163  1
  Li  Li5  1  0.45576348  0.83220320  0.40712837  1
  Li  Li6  1  0.54423652  0.16779680  0.59287163  1
  Li  Li7  1  0.54423652  0.16779680  0.90712837  1
  Li  Li8  1  0.55106931  0.48388426  0.75000000  1
  Li  Li9  1  0.94893069  0.98388426  0.75000000  1
  Li  Li10  1  0.95576348  0.66779680  0.90712837  1
  Li  Li11  1  0.95576348  0.66779680  0.59287163  1
  Si  Si12  1  0.02602331  0.30982491  0.64015534  1
  Si  Si13  1  0.02602331  0.30982491  0.85984466  1
  Si  Si14  1  0.47397669  0.80982491  0.64015534  1
  Si  Si15  1  0.47397669  0.80982491  0.85984466  1
  Si  Si16  1  0.52602331  0.19017509  0.14015534  1
  Si  Si17  1  0.52602331  0.19017509  0.35984466  1
  Si  Si18  1  0.97397669  0.69017509  0.14015534  1
  Si  Si19  1  0.97397669  0.69017509  0.35984466  1
  Bi  Bi20  1  0.00000000  0.00000000  0.00000000  1
  Bi  Bi21  1  0.00000000  0.00000000  0.50000000  1
  Bi  Bi22  1  0.50000000  0.50000000  0.50000000  1
  Bi  Bi23  1  0.50000000  0.50000000  0.00000000  1
  O  O24  1  0.07563163  0.85700312  0.14155737  1
  O  O25  1  0.07563163  0.85700312  0.35844263  1
  O  O26  1  0.07496478  0.61678852  0.25000000  1
  O  O27  1  0.11093642  0.61450493  0.04331322  1
  O  O28  1  0.11093642  0.61450493  0.45668678  1
  O  O29  1  0.15563115  0.83188892  0.63118257  1
  O  O30  1  0.15563115  0.83188892  0.86881743  1
  O  O31  1  0.34436885  0.33188892  0.63118257  1
  O  O32  1  0.34436885  0.33188892  0.86881743  1
  O  O33  1  0.38906358  0.11450493  0.04331322  1
  O  O34  1  0.38906358  0.11450493  0.45668678  1
  O  O35  1  0.42503522  0.11678852  0.25000000  1
  O  O36  1  0.42436837  0.35700312  0.14155737  1
  O  O37  1  0.42436837  0.35700312  0.35844263  1
  O  O38  1  0.57563163  0.64299688  0.64155737  1
  O  O39  1  0.57563163  0.64299688  0.85844263  1
  O  O40  1  0.57496478  0.88321148  0.75000000  1
  O  O41  1  0.61093642  0.88549507  0.54331322  1
  O  O42  1  0.61093642  0.88549507  0.95668678  1
  O  O43  1  0.65563115  0.66811108  0.13118257  1
  O  O44  1  0.65563115  0.66811108  0.36881743  1
  O  O45  1  0.84436885  0.16811108  0.36881743  1
  O  O46  1  0.84436885  0.16811108  0.13118257  1
  O  O47  1  0.88906358  0.38549507  0.54331322  1
  O  O48  1  0.88906358  0.38549507  0.95668678  1
  O  O49  1  0.92503522  0.38321148  0.75000000  1
  O  O50  1  0.92436837  0.14299688  0.64155737  1
  O  O51  1  0.92436837  0.14299688  0.85844263  1
