# generated using pymatgen
data_Li2Si3NiO8
_symmetry_space_group_name_H-M   'P 1'
_cell_length_a   6.77956019
_cell_length_b   10.07986445
_cell_length_c   4.93573740
_cell_angle_alpha   90.00000000
_cell_angle_beta   89.42279743
_cell_angle_gamma   90.00000000
_symmetry_Int_Tables_number   1
_chemical_formula_structural   Li2Si3NiO8
_chemical_formula_sum   'Li4 Si6 Ni2 O16'
_cell_volume   337.27660720
_cell_formula_units_Z   2
loop_
 _symmetry_equiv_pos_site_id
 _symmetry_equiv_pos_as_xyz
  1  'x, y, z'
loop_
 _atom_site_type_symbol
 _atom_site_label
 _atom_site_symmetry_multiplicity
 _atom_site_fract_x
 _atom_site_fract_y
 _atom_site_fract_z
 _atom_site_occupancy
  Li  Li0  1  0.99942943  0.14673129  0.17995489  1
  Li  Li1  1  0.50057057  0.64673129  0.32004511  1
  Li  Li2  1  0.48609162  0.34130165  0.65790443  1
  Li  Li3  1  0.01390838  0.84130165  0.84209557  1
  Si  Si4  1  0.97592647  0.33633041  0.69342544  1
  Si  Si5  1  0.26949800  0.91236840  0.30152157  1
  Si  Si6  1  0.23050200  0.41236840  0.19847843  1
  Si  Si7  1  0.52407353  0.83633041  0.80657456  1
  Si  Si8  1  0.77690311  0.59424652  0.84561050  1
  Si  Si9  1  0.72309689  0.09424652  0.65438950  1
  Ni  Ni10  1  0.49824549  0.16122607  0.17071803  1
  Ni  Ni11  1  0.00175451  0.66122607  0.32928197  1
  O  O12  1  0.06345133  0.84230068  0.23081172  1
  O  O13  1  0.04284575  0.33922635  0.37238585  1
  O  O14  1  0.33196140  0.87901264  0.62420962  1
  O  O15  1  0.24803928  0.56784337  0.26261749  1
  O  O16  1  0.16803860  0.37901264  0.87579038  1
  O  O17  1  0.25196072  0.06784337  0.23738251  1
  O  O18  1  0.45715425  0.83922635  0.12761415  1
  O  O19  1  0.43654867  0.34230068  0.26918828  1
  O  O20  1  0.58116159  0.68097892  0.71962499  1
  O  O21  1  0.52707082  0.16497916  0.77271545  1
  O  O22  1  0.72163669  0.93390034  0.76170750  1
  O  O23  1  0.75062224  0.59955420  0.16897782  1
  O  O24  1  0.77836331  0.43390034  0.73829250  1
  O  O25  1  0.74937776  0.09955420  0.33102218  1
  O  O26  1  0.97292918  0.66497916  0.72728455  1
  O  O27  1  0.91883841  0.18097892  0.78037501  1
