# generated using pymatgen
data_Li2Fe3SnO8
_symmetry_space_group_name_H-M   'P 1'
_cell_length_a   8.53140441
_cell_length_b   8.52150441
_cell_length_c   8.53775839
_cell_angle_alpha   90.00584005
_cell_angle_beta   90.26422197
_cell_angle_gamma   90.00079375
_symmetry_Int_Tables_number   1
_chemical_formula_structural   Li2Fe3SnO8
_chemical_formula_sum   'Li8 Fe12 Sn4 O32'
_cell_volume   620.69184950
_cell_formula_units_Z   4
loop_
 _symmetry_equiv_pos_site_id
 _symmetry_equiv_pos_as_xyz
  1  'x, y, z'
loop_
 _atom_site_type_symbol
 _atom_site_label
 _atom_site_symmetry_multiplicity
 _atom_site_fract_x
 _atom_site_fract_y
 _atom_site_fract_z
 _atom_site_occupancy
  Li  Li0  1  0.12082542  0.87515715  0.37550286  1
  Li  Li1  1  0.24870554  0.74718536  0.75124162  1
  Li  Li2  1  0.24880812  0.24989298  0.24937786  1
  Li  Li3  1  0.37565459  0.12335336  0.87900641  1
  Li  Li4  1  0.62402570  0.62334086  0.62166352  1
  Li  Li5  1  0.75120182  0.74945923  0.24999500  1
  Li  Li6  1  0.75135569  0.24724261  0.74871106  1
  Li  Li7  1  0.87965605  0.37548204  0.12446141  1
  Fe  Fe8  1  0.11390496  0.61978467  0.12297590  1
  Fe  Fe9  1  0.11911544  0.37868852  0.88253395  1
  Fe  Fe10  1  0.12468850  0.11531914  0.61936622  1
  Fe  Fe11  1  0.37653189  0.88642681  0.11792983  1
  Fe  Fe12  1  0.38087539  0.62378838  0.38730115  1
  Fe  Fe13  1  0.38700041  0.38171389  0.62408978  1
  Fe  Fe14  1  0.61267855  0.88163067  0.87577296  1
  Fe  Fe15  1  0.61900400  0.12389184  0.11279773  1
  Fe  Fe16  1  0.62341107  0.38626309  0.38206427  1
  Fe  Fe17  1  0.87541349  0.61555465  0.88079471  1
  Fe  Fe18  1  0.88088289  0.87855369  0.61732599  1
  Fe  Fe19  1  0.88638846  0.11961147  0.37705453  1
  Sn  Sn20  1  0.00210750  0.50211274  0.50340167  1
  Sn  Sn21  1  0.49466622  0.50223657  0.00349100  1
  Sn  Sn22  1  0.50527340  0.00235168  0.49656822  1
  Sn  Sn23  1  0.99772585  0.00203983  0.99657405  1
  O  O24  1  0.10822836  0.12655773  0.38930256  1
  O  O25  1  0.09794097  0.88541154  0.62712881  1
  O  O26  1  0.11631029  0.60369202  0.88437377  1
  O  O27  1  0.12672062  0.38823620  0.10017628  1
  O  O28  1  0.12539420  0.14681694  0.86448093  1
  O  O29  1  0.13363899  0.36307081  0.64416780  1
  O  O30  1  0.13662703  0.62563762  0.35986802  1
  O  O31  1  0.13620928  0.86355311  0.12433151  1
  O  O32  1  0.36118400  0.13282156  0.62501580  1
  O  O33  1  0.35442421  0.37400215  0.86427552  1
  O  O34  1  0.35861872  0.63892171  0.13866011  1
  O  O35  1  0.37358289  0.86211699  0.36394833  1
  O  O36  1  0.37358945  0.61333278  0.61082852  1
  O  O37  1  0.38413836  0.38605947  0.38668812  1
  O  O38  1  0.38944265  0.11050462  0.12856804  1
  O  O39  1  0.38662654  0.87378890  0.88845915  1
  O  O40  1  0.61327994  0.37398966  0.61125420  1
  O  O41  1  0.61073027  0.60998427  0.37160747  1
  O  O42  1  0.61554069  0.88612067  0.11328518  1
  O  O43  1  0.62629472  0.11335652  0.88928037  1
  O  O44  1  0.62654622  0.36228264  0.13633555  1
  O  O45  1  0.64153098  0.13916316  0.36164310  1
  O  O46  1  0.64559835  0.87405641  0.63559396  1
  O  O47  1  0.63881344  0.63261874  0.87501456  1
  O  O48  1  0.86405534  0.36327562  0.37553448  1
  O  O49  1  0.86320194  0.12545415  0.14021332  1
  O  O50  1  0.86620431  0.86306829  0.85573091  1
  O  O51  1  0.87443686  0.64683196  0.63552930  1
  O  O52  1  0.87324983  0.88811717  0.39967158  1
  O  O53  1  0.88387437  0.10356812  0.61562870  1
  O  O54  1  0.90209019  0.38565535  0.87281428  1
  O  O55  1  0.89197304  0.62692988  0.11067106  1
