# generated using pymatgen
data_LiNi(PO3)3
_symmetry_space_group_name_H-M   'P 1'
_cell_length_a   8.10985322
_cell_length_b   9.04429711
_cell_length_c   12.31996317
_cell_angle_alpha   90.00000000
_cell_angle_beta   90.00000000
_cell_angle_gamma   90.00000000
_symmetry_Int_Tables_number   1
_chemical_formula_structural   LiNi(PO3)3
_chemical_formula_sum   'Li4 Ni4 P12 O36'
_cell_volume   903.64369813
_cell_formula_units_Z   4
loop_
 _symmetry_equiv_pos_site_id
 _symmetry_equiv_pos_as_xyz
  1  'x, y, z'
loop_
 _atom_site_type_symbol
 _atom_site_label
 _atom_site_symmetry_multiplicity
 _atom_site_fract_x
 _atom_site_fract_y
 _atom_site_fract_z
 _atom_site_occupancy
  Li  Li0  1  0.99751981  0.33122073  0.00750711  1
  Li  Li1  1  0.50248019  0.66877927  0.50750711  1
  Li  Li2  1  0.49751981  0.16877927  0.99249289  1
  Li  Li3  1  0.00248019  0.83122073  0.49249289  1
  Ni  Ni4  1  0.17821745  0.20830045  0.62402509  1
  Ni  Ni5  1  0.32178255  0.79169955  0.12402509  1
  Ni  Ni6  1  0.67821745  0.29169955  0.37597491  1
  Ni  Ni7  1  0.82178255  0.70830045  0.87597491  1
  P  P8  1  0.17448545  -0.00013978  0.31890268  1
  P  P9  1  0.18246206  0.48736404  0.18374409  1
  P  P10  1  0.21474077  0.69480761  0.87341715  1
  P  P11  1  0.28525923  0.30519239  0.37341715  1
  P  P12  1  0.31753794  0.51263596  0.68374409  1
  P  P13  1  0.32551455  0.00013978  0.81890268  1
  P  P14  1  0.67448545  0.50013978  0.68109732  1
  P  P15  1  0.68246206  0.01263596  0.81625591  1
  P  P16  1  0.71474077  0.80519239  0.12658285  1
  P  P17  1  0.78525923  0.19480761  0.62658285  1
  P  P18  1  0.81753794  0.98736404  0.31625591  1
  P  P19  1  0.82551455  0.49986022  0.18109732  1
  O  O20  1  0.00730245  0.57565402  0.18466264  1
  O  O21  1  0.04442712  0.62897520  0.86443356  1
  O  O22  1  0.16367612  0.39514852  0.29598338  1
  O  O23  1  0.18747562  0.39635003  0.70201837  1
  O  O24  1  0.20744358  0.85683874  0.82000419  1
  O  O25  1  0.20224712  0.93074058  0.20966211  1
  O  O26  1  0.19199495  0.90978247  0.42056368  1
  O  O27  1  0.18920502  0.38341518  0.08917921  1
  O  O28  1  0.20319582  0.29823636  0.48175652  1
  O  O29  1  0.29680418  0.70176364  0.98175652  1
  O  O30  1  0.31079498  0.61658482  0.58917921  1
  O  O31  1  0.30800505  0.09021753  0.92056368  1
  O  O32  1  0.29775288  0.06925942  0.70966211  1
  O  O33  1  0.29255642  0.14316126  0.32000419  1
  O  O34  1  0.31252438  0.60364997  0.20201837  1
  O  O35  1  0.33632388  0.60485148  0.79598338  1
  O  O36  1  0.45557288  0.37102480  0.36443356  1
  O  O37  1  0.49269755  0.42434598  0.68466264  1
  O  O38  1  0.50730245  0.92434598  0.81533736  1
  O  O39  1  0.54442712  0.87102480  0.13556644  1
  O  O40  1  0.66367612  0.10485148  0.70401662  1
  O  O41  1  0.68747562  0.10364997  0.29798163  1
  O  O42  1  0.70744358  0.64316126  0.17999581  1
  O  O43  1  0.70224712  0.56925942  0.79033789  1
  O  O44  1  0.69199495  0.59021753  0.57943632  1
  O  O45  1  0.68920502  0.11658482  0.91082079  1
  O  O46  1  0.70319582  0.20176364  0.51824348  1
  O  O47  1  0.79680418  0.79823636  0.01824348  1
  O  O48  1  0.81079498  0.88341518  0.41082079  1
  O  O49  1  0.80800505  0.40978247  0.07943632  1
  O  O50  1  0.79775288  0.43074058  0.29033789  1
  O  O51  1  0.79255642  0.35683874  0.67999581  1
  O  O52  1  0.81252438  0.89635003  0.79798163  1
  O  O53  1  0.83632388  0.89514852  0.20401662  1
  O  O54  1  0.95557288  0.12897620  0.63556644  1
  O  O55  1  0.99269755  0.07565402  0.31533736  1
