# generated using pymatgen
data_LiFe(Si3O7)2
_symmetry_space_group_name_H-M   'P 1'
_cell_length_a   12.78056103
_cell_length_b   12.78056103
_cell_length_c   7.40563851
_cell_angle_alpha   73.15863960
_cell_angle_beta   106.84136040
_cell_angle_gamma   82.51199662
_symmetry_Int_Tables_number   1
_chemical_formula_structural   LiFe(Si3O7)2
_chemical_formula_sum   'Li4 Fe4 Si24 O56'
_cell_volume   1077.38353953
_cell_formula_units_Z   4
loop_
 _symmetry_equiv_pos_site_id
 _symmetry_equiv_pos_as_xyz
  1  'x, y, z'
loop_
 _atom_site_type_symbol
 _atom_site_label
 _atom_site_symmetry_multiplicity
 _atom_site_fract_x
 _atom_site_fract_y
 _atom_site_fract_z
 _atom_site_occupancy
  Li  Li0  1  0.75000000  0.75000000  0.00000000  1
  Li  Li1  1  0.25000000  0.25000000  0.00000000  1
  Li  Li2  1  0.00000000  0.00000000  0.50000000  1
  Li  Li3  1  0.50000000  0.50000000  0.50000000  1
  Fe  Fe4  1  0.95622056  0.54377944  0.20622056  1
  Fe  Fe5  1  0.45622056  0.04377944  0.20622056  1
  Fe  Fe6  1  0.54377944  0.95622056  0.79377944  1
  Fe  Fe7  1  0.04377944  0.45622056  0.79377944  1
  Si  Si8  1  0.87149800  0.12850200  0.05607674  1
  Si  Si9  1  0.62850200  0.37149800  0.31307974  1
  Si  Si10  1  0.33514944  0.66485056  0.07263171  1
  Si  Si11  1  0.72950545  0.57486403  0.33774638  1
  Si  Si12  1  0.77049455  0.92513597  0.18310396  1
  Si  Si13  1  0.07486403  0.22950545  0.18310396  1
  Si  Si14  1  0.42513597  0.27049455  0.33774638  1
  Si  Si15  1  0.83514944  0.16485056  0.59766717  1
  Si  Si16  1  0.22121657  0.47003112  0.21897456  1
  Si  Si17  1  0.52996888  0.77878343  0.21897456  1
  Si  Si18  1  0.97003112  0.72121657  0.46778912  1
  Si  Si19  1  0.27878343  0.02996888  0.46778912  1
  Si  Si20  1  0.47003112  0.22121657  0.78102544  1
  Si  Si21  1  0.02996888  0.27878343  0.53221088  1
  Si  Si22  1  0.72121657  0.97003112  0.53221088  1
  Si  Si23  1  0.77878343  0.52996888  0.78102544  1
  Si  Si24  1  0.16485056  0.83514944  0.40233283  1
  Si  Si25  1  0.27049455  0.42513597  0.66225362  1
  Si  Si26  1  0.57486403  0.72950545  0.66225362  1
  Si  Si27  1  0.22950545  0.07486403  0.81689604  1
  Si  Si28  1  0.92513597  0.77049455  0.81689604  1
  Si  Si29  1  0.66485056  0.33514944  0.92736829  1
  Si  Si30  1  0.37149800  0.62850200  0.68692026  1
  Si  Si31  1  0.12850200  0.87149800  0.94392326  1
  O  O32  1  0.99346660  0.13855283  0.18949700  1
  O  O33  1  0.86144717  0.00653340  0.18949700  1
  O  O34  1  0.77200233  0.22799767  0.03828113  1
  O  O35  1  0.30136356  0.06758034  0.03889392  1
  O  O36  1  0.93241966  0.69863644  0.03889392  1
  O  O37  1  0.62821745  0.37178255  0.09551497  1
  O  O38  1  0.43241966  0.19863644  0.19488829  1
  O  O39  1  0.80136356  0.56758034  0.19488829  1
  O  O40  1  0.94237476  0.19292927  0.53233038  1
  O  O41  1  0.80707073  0.05762524  0.53233038  1
  O  O42  1  0.98919831  0.39809129  0.55163450  1
  O  O43  1  0.60190871  0.01080169  0.55163450  1
  O  O44  1  0.50653340  0.36144717  0.33458323  1
  O  O45  1  0.63855283  0.49346660  0.33458323  1
  O  O46  1  0.72799767  0.27200233  0.49427646  1
  O  O47  1  0.10190871  0.51080169  0.03947352  1
  O  O48  1  0.48919931  0.89809129  0.03947352  1
  O  O49  1  0.29652395  0.34826820  0.24841381  1
  O  O50  1  0.20347605  0.15173180  0.30015806  1
  O  O51  1  0.65173180  0.70347605  0.24841381  1
  O  O52  1  0.84826820  0.79652395  0.30015806  1
  O  O53  1  0.30707073  0.55762524  0.21711512  1
  O  O54  1  0.44237476  0.69292927  0.21711512  1
  O  O55  1  0.69278966  0.95772396  0.30854851  1
  O  O56  1  0.04227604  0.30721034  0.30854851  1
  O  O57  1  0.80721034  0.54227604  0.57348281  1
  O  O58  1  0.45772396  0.19278966  0.57348281  1
  O  O59  1  0.87178255  0.12821745  0.83908107  1
  O  O60  1  0.12821745  0.87178255  0.16091893  1
  O  O61  1  0.54227604  0.80721034  0.42651719  1
  O  O62  1  0.95772396  0.69278966  0.69145149  1
  O  O63  1  0.19278966  0.45772396  0.42651719  1
  O  O64  1  0.30721034  0.04227604  0.69145149  1
  O  O65  1  0.55762524  0.30707073  0.78288488  1
  O  O66  1  0.69292927  0.44237476  0.78288488  1
  O  O67  1  0.34826820  0.29652395  0.75158619  1
  O  O68  1  0.15173180  0.20347605  0.69984194  1
  O  O69  1  0.79652395  0.84826820  0.69984194  1
  O  O70  1  0.70347605  0.65173180  0.75158619  1
  O  O71  1  0.51080169  0.10190871  0.96052648  1
  O  O72  1  0.89809129  0.48919931  0.96052648  1
  O  O73  1  0.27200233  0.72799767  0.50572354  1
  O  O74  1  0.36144717  0.50653340  0.66541677  1
  O  O75  1  0.49346660  0.63855283  0.66541677  1
  O  O76  1  0.01080169  0.60190871  0.44836550  1
  O  O77  1  0.39809129  0.98919831  0.44836550  1
  O  O78  1  0.19292927  0.94237476  0.46766962  1
  O  O79  1  0.05762524  0.80707073  0.46766962  1
  O  O80  1  0.19863644  0.43241966  0.80511071  1
  O  O81  1  0.56758034  0.80136356  0.80511071  1
  O  O82  1  0.37178255  0.62821745  0.90448503  1
  O  O83  1  0.06758034  0.30136356  0.96110608  1
  O  O84  1  0.69863644  0.93241966  0.96110608  1
  O  O85  1  0.22799767  0.77200233  0.96171887  1
  O  O86  1  0.00653340  0.86144717  0.81050300  1
  O  O87  1  0.13855283  0.99346660  0.81050300  1
