# generated using pymatgen
data_VPO5
_symmetry_space_group_name_H-M   'P 1'
_cell_length_a   6.95391414
_cell_length_b   6.95391341
_cell_length_c   8.73521289
_cell_angle_alpha   101.46305114
_cell_angle_beta   101.46305197
_cell_angle_gamma   120.04716759
_symmetry_Int_Tables_number   1
_chemical_formula_structural   VPO5
_chemical_formula_sum   'V4 P4 O20'
_cell_volume   335.47343272
_cell_formula_units_Z   4
loop_
 _symmetry_equiv_pos_site_id
 _symmetry_equiv_pos_as_xyz
  1  'x, y, z'
loop_
 _atom_site_type_symbol
 _atom_site_label
 _atom_site_symmetry_multiplicity
 _atom_site_fract_x
 _atom_site_fract_y
 _atom_site_fract_z
 _atom_site_occupancy
  V  V0  1  0.87808727  0.59906491  0.26426103  1
  V  V1  1  0.33480387  0.61382524  0.73573897  1
  V  V2  1  0.86382524  0.08480387  0.23573897  1
  V  V3  1  0.84906491  0.62808727  0.76426103  1
  P  P4  1  0.02973693  0.03202067  0.57065151  1
  P  P5  1  0.70908542  0.21136916  0.92934849  1
  P  P6  1  0.46136916  0.45908542  0.42934849  1
  P  P7  1  0.28202067  0.77973693  0.07065151  1
  O  O8  1  0.60753661  0.56567523  0.31998873  1
  O  O9  1  0.66834014  0.66401086  0.84170456  1
  O  O10  1  0.31547387  0.60784361  0.95211241  1
  O  O11  1  0.81567523  0.35753661  0.81998873  1
  O  O12  1  0.21229222  0.24222253  0.31487370  1
  O  O13  1  0.42447850  0.63323395  0.54138535  1
  O  O14  1  0.07663558  0.57230630  0.65829544  1
  O  O15  1  0.82230630  0.82663558  0.15829544  1
  O  O16  1  0.91401086  0.41834014  0.34170456  1
  O  O17  1  0.14741852  0.67734883  0.18512630  1
  O  O18  1  0.24568650  0.28754988  0.68001127  1
  O  O19  1  0.49222253  0.96229222  0.81487370  1
  O  O20  1  0.92734883  0.89741852  0.68512630  1
  O  O21  1  0.13309515  0.84184960  0.95861465  1
  O  O22  1  0.09184960  0.88309515  0.45861465  1
  O  O23  1  0.88323395  0.17447850  0.04138535  1
  O  O24  1  0.85784361  0.06547387  0.45211241  1
  O  O25  1  0.65573119  0.36336146  0.04788759  1
  O  O26  1  0.53754988  0.99568650  0.18001127  1
  O  O27  1  0.61336146  0.40573119  0.54788759  1
