# generated using pymatgen
data_ZnIn3
_symmetry_space_group_name_H-M   'P 1'
_cell_length_a   7.06049433
_cell_length_b   6.25920509
_cell_length_c   5.05886675
_cell_angle_alpha   90.00000000
_cell_angle_beta   90.00000000
_cell_angle_gamma   116.24406392
_symmetry_Int_Tables_number   1
_chemical_formula_structural   ZnIn3
_chemical_formula_sum   'Zn2 In6'
_cell_volume   200.52131393
_cell_formula_units_Z   2
loop_
 _symmetry_equiv_pos_site_id
 _symmetry_equiv_pos_as_xyz
  1  'x, y, z'
loop_
 _atom_site_type_symbol
 _atom_site_label
 _atom_site_symmetry_multiplicity
 _atom_site_fract_x
 _atom_site_fract_y
 _atom_site_fract_z
 _atom_site_occupancy
  Zn  Zn0  1  0.33749275  0.66837739  0.75000000  1
  Zn  Zn1  1  0.66199081  0.33122115  0.25000000  1
  In  In2  1  0.15927850  0.33095722  0.25000000  1
  In  In3  1  0.62583078  0.81293842  0.25000000  1
  In  In4  1  0.16132439  0.82650068  0.25000000  1
  In  In5  1  0.84087526  0.66922109  0.75000000  1
  In  In6  1  0.37313509  0.18702455  0.75000000  1
  In  In7  1  0.84006742  0.17375649  0.75000000  1
