# generated using pymatgen
data_NiAu3
_symmetry_space_group_name_H-M   'P 1'
_cell_length_a   4.02816629
_cell_length_b   4.02816890
_cell_length_c   4.02816749
_cell_angle_alpha   90.00001892
_cell_angle_beta   89.99993386
_cell_angle_gamma   89.99994766
_symmetry_Int_Tables_number   1
_chemical_formula_structural   NiAu3
_chemical_formula_sum   'Ni1 Au3'
_cell_volume   65.36158617
_cell_formula_units_Z   1
loop_
 _symmetry_equiv_pos_site_id
 _symmetry_equiv_pos_as_xyz
  1  'x, y, z'
loop_
 _atom_site_type_symbol
 _atom_site_label
 _atom_site_symmetry_multiplicity
 _atom_site_fract_x
 _atom_site_fract_y
 _atom_site_fract_z
 _atom_site_occupancy
  Ni  Ni0  1  0.00000039  0.99999732  0.99999918  1
  Au  Au1  1  0.49999902  0.00000035  0.49999955  1
  Au  Au2  1  0.99999939  0.50000031  0.49999940  1
  Au  Au3  1  0.49999920  0.50000002  0.99999987  1
