# generated using pymatgen
data_HN
_symmetry_space_group_name_H-M   'P 1'
_cell_length_a   5.78999952
_cell_length_b   12.65945159
_cell_length_c   5.49909456
_cell_angle_alpha   90.00000000
_cell_angle_beta   90.00000000
_cell_angle_gamma   114.91188469
_symmetry_Int_Tables_number   1
_chemical_formula_structural   HN
_chemical_formula_sum   'H20 N20'
_cell_volume   365.57049971
_cell_formula_units_Z   20
loop_
 _symmetry_equiv_pos_site_id
 _symmetry_equiv_pos_as_xyz
  1  'x, y, z'
loop_
 _atom_site_type_symbol
 _atom_site_label
 _atom_site_symmetry_multiplicity
 _atom_site_fract_x
 _atom_site_fract_y
 _atom_site_fract_z
 _atom_site_occupancy
  H  H0  1  0.27472396  0.93486375  0.32231037  1
  H  H1  1  0.72527604  0.56513625  0.82231037  1
  H  H2  1  0.72527604  0.06513625  0.67768963  1
  H  H3  1  0.27472396  0.43486375  0.17768963  1
  H  H4  1  0.63266903  0.64214076  0.02782691  1
  H  H5  1  0.36733097  0.85785924  0.52782691  1
  H  H6  1  0.36733097  0.35785924  0.97217309  1
  H  H7  1  0.63266903  0.14214076  0.47217309  1
  H  H8  1  0.13211196  0.64988436  0.99273155  1
  H  H9  1  0.86788804  0.85011564  0.49273155  1
  H  H10  1  0.86788804  0.35011564  0.00726845  1
  H  H11  1  0.13211196  0.14988436  0.50726845  1
  H  H12  1  0.08629398  0.91482097  0.70004395  1
  H  H13  1  0.91370602  0.58517903  0.20004395  1
  H  H14  1  0.91370602  0.08517903  0.29995605  1
  H  H15  1  0.08629398  0.41482097  0.79995605  1
  H  H16  1  0.85449319  0.71671209  0.80193579  1
  H  H17  1  0.14550681  0.78328791  0.30193579  1
  H  H18  1  0.14550681  0.28328791  0.19806421  1
  H  H19  1  0.85449319  0.21671209  0.69806421  1
  N  N20  1  0.34492284  0.59939890  0.47656987  1
  N  N21  1  0.65507716  0.90060110  0.97656987  1
  N  N22  1  0.65507716  0.40060110  0.52343013  1
  N  N23  1  0.34492284  0.09939890  0.02343013  1
  N  N24  1  0.40634326  0.57504714  0.28489847  1
  N  N25  1  0.59365674  0.92495286  0.78489847  1
  N  N26  1  0.59365674  0.42495286  0.71510153  1
  N  N27  1  0.40634326  0.07504714  0.21510153  1
  N  N28  1  0.28246459  0.62271663  0.66551978  1
  N  N29  1  0.71753541  0.87728337  0.16551978  1
  N  N30  1  0.71753541  0.37728337  0.33448022  1
  N  N31  1  0.28246459  0.12271663  0.83448022  1
  N  N32  1  0.21264810  0.85479753  0.42300762  1
  N  N33  1  0.78735190  0.64520247  0.92300762  1
  N  N34  1  0.78735190  0.14520247  0.57699238  1
  N  N35  1  0.21264810  0.35479753  0.07699238  1
  N  N36  1  0.98944659  0.65801907  0.09208759  1
  N  N37  1  0.01055341  0.84198093  0.59208759  1
  N  N38  1  0.01055341  0.34198093  0.90791241  1
  N  N39  1  0.98944659  0.15801907  0.40791241  1
