# generated using pymatgen
data_Fe3P3O13
_symmetry_space_group_name_H-M   'P 1'
_cell_length_a   6.38644597
_cell_length_b   7.61526505
_cell_length_c   10.43376669
_cell_angle_alpha   99.07365521
_cell_angle_beta   90.00000000
_cell_angle_gamma   90.00000000
_symmetry_Int_Tables_number   1
_chemical_formula_structural   Fe3P3O13
_chemical_formula_sum   'Fe6 P6 O26'
_cell_volume   501.09090543
_cell_formula_units_Z   2
loop_
 _symmetry_equiv_pos_site_id
 _symmetry_equiv_pos_as_xyz
  1  'x, y, z'
loop_
 _atom_site_type_symbol
 _atom_site_label
 _atom_site_symmetry_multiplicity
 _atom_site_fract_x
 _atom_site_fract_y
 _atom_site_fract_z
 _atom_site_occupancy
  Fe  Fe0  1  0.25000000  0.36156393  0.19181144  1
  Fe  Fe1  1  0.75000000  0.63843607  0.80818856  1
  Fe  Fe2  1  0.25000000  0.78699091  0.43921669  1
  Fe  Fe3  1  0.50000000  0.00000000  0.00000000  1
  Fe  Fe4  1  0.75000000  0.21300909  0.56078331  1
  Fe  Fe5  1  0.00000000  0.00000000  0.00000000  1
  P  P6  1  0.25000000  0.21665417  0.48196227  1
  P  P7  1  0.75000000  0.78334583  0.51803773  1
  P  P8  1  0.25000000  0.74318445  0.76435348  1
  P  P9  1  0.75000000  0.25681555  0.23564652  1
  P  P10  1  0.75000000  0.30746176  0.88396286  1
  P  P11  1  0.25000000  0.69253824  0.11603714  1
  O  O12  1  0.75000000  0.34573900  0.74102452  1
  O  O13  1  0.55415204  0.74437447  0.43351488  1
  O  O14  1  0.25000000  0.79425838  0.62757657  1
  O  O15  1  0.55209660  0.20524028  0.91247715  1
  O  O16  1  0.75000000  0.64944533  0.61537777  1
  O  O17  1  0.75000000  0.87947949  0.90665531  1
  O  O18  1  0.25000000  0.35055467  0.38462223  1
  O  O19  1  0.05209660  0.79475972  0.08752285  1
  O  O20  1  0.25000000  0.02496467  0.40687115  1
  O  O21  1  0.75000000  0.97503533  0.59312885  1
  O  O22  1  0.05472891  0.63344874  0.78554882  1
  O  O23  1  0.25000000  0.12052051  0.09334469  1
  O  O24  1  0.55472891  0.36655126  0.21445118  1
  O  O25  1  0.75000000  0.50104734  0.95614432  1
  O  O26  1  0.75000000  0.20574162  0.37242343  1
  O  O27  1  0.44790340  0.79475972  0.08752285  1
  O  O28  1  0.94584796  0.74437447  0.43351488  1
  O  O29  1  0.44584796  0.25562553  0.56648512  1
  O  O30  1  0.44527109  0.63344874  0.78554882  1
  O  O31  1  0.25000000  0.65426100  0.25897548  1
  O  O32  1  0.75000000  0.08385861  0.13064303  1
  O  O33  1  0.25000000  0.91614139  0.86935697  1
  O  O34  1  0.94527109  0.36655126  0.21445118  1
  O  O35  1  0.94790340  0.20524028  0.91247715  1
  O  O36  1  0.05415204  0.25562553  0.56648512  1
  O  O37  1  0.25000000  0.49895266  0.04385568  1
