# generated using pymatgen
data_Zn2CrSbO6
_symmetry_space_group_name_H-M   'P 1'
_cell_length_a   5.23149950
_cell_length_b   5.30389507
_cell_length_c   7.71114186
_cell_angle_alpha   90.00000000
_cell_angle_beta   90.00000000
_cell_angle_gamma   90.01322360
_symmetry_Int_Tables_number   1
_chemical_formula_structural   Zn2CrSbO6
_chemical_formula_sum   'Zn4 Cr2 Sb2 O12'
_cell_volume   213.96354905
_cell_formula_units_Z   2
loop_
 _symmetry_equiv_pos_site_id
 _symmetry_equiv_pos_as_xyz
  1  'x, y, z'
loop_
 _atom_site_type_symbol
 _atom_site_label
 _atom_site_symmetry_multiplicity
 _atom_site_fract_x
 _atom_site_fract_y
 _atom_site_fract_z
 _atom_site_occupancy
  Zn  Zn0  1  0.51505952  0.55719389  0.75000000  1
  Zn  Zn1  1  0.48494048  0.44280611  0.25000000  1
  Zn  Zn2  1  0.01548170  0.02171425  0.75000000  1
  Zn  Zn3  1  0.98451830  0.97828575  0.25000000  1
  Cr  Cr4  1  0.50000000  0.00000000  0.50000000  1
  Cr  Cr5  1  0.50000000  0.00000000  0.00000000  1
  Sb  Sb6  1  0.00000000  0.50000000  0.50000000  1
  Sb  Sb7  1  0.00000000  0.50000000  0.00000000  1
  O  O8  1  0.31773322  0.67787123  0.43166573  1
  O  O9  1  0.17357592  0.18373789  0.06814796  1
  O  O10  1  0.68226678  0.32212877  0.93166573  1
  O  O11  1  0.82642408  0.81626211  0.56814796  1
  O  O12  1  0.17357592  0.18373789  0.43185204  1
  O  O13  1  0.82642408  0.81626211  0.93185204  1
  O  O14  1  0.86854285  0.57415703  0.25000000  1
  O  O15  1  0.31773322  0.67787123  0.06833427  1
  O  O16  1  0.38464550  0.92491424  0.75000000  1
  O  O17  1  0.68226678  0.32212877  0.56833427  1
  O  O18  1  0.13145715  0.42584297  0.75000000  1
  O  O19  1  0.61535450  0.07508576  0.25000000  1
