# generated using pymatgen
data_MgV4O8
_symmetry_space_group_name_H-M   'P 1'
_cell_length_a   3.01135211
_cell_length_b   7.38621094
_cell_length_c   7.47276394
_cell_angle_alpha   79.55270952
_cell_angle_beta   78.36948057
_cell_angle_gamma   78.24255299
_symmetry_Int_Tables_number   1
_chemical_formula_structural   MgV4O8
_chemical_formula_sum   'Mg1 V4 O8'
_cell_volume   157.67043869
_cell_formula_units_Z   1
loop_
 _symmetry_equiv_pos_site_id
 _symmetry_equiv_pos_as_xyz
  1  'x, y, z'
loop_
 _atom_site_type_symbol
 _atom_site_label
 _atom_site_symmetry_multiplicity
 _atom_site_fract_x
 _atom_site_fract_y
 _atom_site_fract_z
 _atom_site_occupancy
  Mg  Mg0  1  0.33628280  0.13692451  0.20252422  1
  V  V1  1  0.63317903  0.17658178  0.56879239  1
  V  V2  1  0.14977294  0.51344540  0.19936972  1
  V  V3  1  0.84689573  0.48361973  0.83450399  1
  V  V4  1  0.35785095  0.80555045  0.49064751  1
  O  O5  1  0.86343508  0.66679607  0.61856219  1
  O  O6  1  0.47084620  0.32199746  0.74808383  1
  O  O7  1  0.54260001  0.64119086  0.28599490  1
  O  O8  1  0.14927356  0.30415798  0.40922781  1
  O  O9  1  0.17496583  0.01402012  0.64775952  1
  O  O10  1  0.79142557  0.32882235  0.10033523  1
  O  O11  1  0.84093413  0.98592103  0.34405204  1
  O  O12  1  0.22070119  0.61161026  0.95893864  1
