# generated using pymatgen
data_MgVO3
_symmetry_space_group_name_H-M   'P 1'
_cell_length_a   5.09273399
_cell_length_b   5.24987679
_cell_length_c   7.44973499
_cell_angle_alpha   89.99816383
_cell_angle_beta   89.99801278
_cell_angle_gamma   90.00143579
_symmetry_Int_Tables_number   1
_chemical_formula_structural   MgVO3
_chemical_formula_sum   'Mg4 V4 O12'
_cell_volume   199.17779798
_cell_formula_units_Z   4
loop_
 _symmetry_equiv_pos_site_id
 _symmetry_equiv_pos_as_xyz
  1  'x, y, z'
loop_
 _atom_site_type_symbol
 _atom_site_label
 _atom_site_symmetry_multiplicity
 _atom_site_fract_x
 _atom_site_fract_y
 _atom_site_fract_z
 _atom_site_occupancy
  Mg  Mg0  1  0.99126666  0.05494841  0.24977931  1
  Mg  Mg1  1  0.49135149  0.44502636  0.75019244  1
  Mg  Mg2  1  0.50871112  0.55476738  0.24981068  1
  Mg  Mg3  1  0.00865479  0.94524069  0.75021694  1
  V  V4  1  0.50006785  0.00016384  -0.00003087  1
  V  V5  1  -0.00003241  0.49986487  0.00003744  1
  V  V6  1  -0.00004340  0.49991207  0.49998132  1
  V  V7  1  0.50003978  0.00017390  0.50001173  1
  O  O8  1  0.87532069  0.56151157  0.75016718  1
  O  O9  1  0.37524240  0.93848565  0.24992184  1
  O  O10  1  0.62469318  0.06140487  0.75007471  1
  O  O11  1  0.12472825  0.43859396  0.24983393  1
  O  O12  1  0.67739403  0.30606479  0.43569191  1
  O  O13  1  0.17733652  0.19394731  0.56429777  1
  O  O14  1  0.82230245  0.80640563  0.06434899  1
  O  O15  1  0.32239448  0.69360227  0.93566690  1
  O  O16  1  0.67760514  0.30631938  0.06428162  1
  O  O17  1  0.17770262  0.19360823  0.93567179  1
  O  O18  1  0.32260291  0.69386981  0.56436095  1
  O  O19  1  0.82266145  0.80609101  0.43568141  1
