# generated using pymatgen
data_SnH3S4N4Cl5O
_symmetry_space_group_name_H-M   'P 1'
_cell_length_a   9.35834106
_cell_length_b   24.37560484
_cell_length_c   6.84285049
_cell_angle_alpha   90.00000000
_cell_angle_beta   101.91464309
_cell_angle_gamma   90.00000000
_symmetry_Int_Tables_number   1
_chemical_formula_structural   SnH3S4N4Cl5O
_chemical_formula_sum   'Sn4 H12 S16 N16 Cl20 O4'
_cell_volume   1527.32947838
_cell_formula_units_Z   4
loop_
 _symmetry_equiv_pos_site_id
 _symmetry_equiv_pos_as_xyz
  1  'x, y, z'
loop_
 _atom_site_type_symbol
 _atom_site_label
 _atom_site_symmetry_multiplicity
 _atom_site_fract_x
 _atom_site_fract_y
 _atom_site_fract_z
 _atom_site_occupancy
  Sn  Sn0  1  0.75139514  0.63798289  0.47799578  1
  Sn  Sn1  1  0.24860486  0.13798289  0.02200422  1
  Sn  Sn2  1  0.24860486  0.36201711  0.52200422  1
  Sn  Sn3  1  0.75139514  0.86201711  0.97799578  1
  H  H4  1  0.49255034  0.60913307  0.06693672  1
  H  H5  1  0.50744966  0.10913307  0.43306328  1
  H  H6  1  0.50744966  0.39086693  0.93306328  1
  H  H7  1  0.49255034  0.89086693  0.56693672  1
  H  H8  1  0.74038315  0.71546147  0.78689493  1
  H  H9  1  0.25961685  0.21546147  0.71310507  1
  H  H10  1  0.25961685  0.28453853  0.21310507  1
  H  H11  1  0.74038315  0.78453853  0.28689493  1
  H  H12  1  0.73766355  0.65707285  0.88995812  1
  H  H13  1  0.26233645  0.15707285  0.61004188  1
  H  H14  1  0.26233645  0.34292715  0.11004188  1
  H  H15  1  0.73766355  0.84292715  0.38995812  1
  S  S16  1  0.32532248  0.65728314  0.82351061  1
  S  S17  1  0.67467752  0.15728314  0.67648939  1
  S  S18  1  0.67467752  0.34271686  0.17648939  1
  S  S19  1  0.32532248  0.84271686  0.32351061  1
  S  S20  1  0.15970683  0.67711211  0.14395354  1
  S  S21  1  0.84029317  0.17711211  0.35604646  1
  S  S22  1  0.84029317  0.32288789  0.85604646  1
  S  S23  1  0.15970683  0.82288789  0.64395354  1
  S  S24  1  0.17689934  0.55762024  0.24180469  1
  S  S25  1  0.82310066  0.05762024  0.25819531  1
  S  S26  1  0.82310066  0.44237976  0.75819531  1
  S  S27  1  0.17689934  0.94237976  0.74180469  1
  S  S28  1  0.32831647  0.54160866  0.90449740  1
  S  S29  1  0.67168353  0.04160866  0.59550260  1
  S  S30  1  0.67168353  0.45839134  0.09550260  1
  S  S31  1  0.32831647  0.95839134  0.40449740  1
  N  N32  1  0.41044974  0.60293045  0.94344996  1
  N  N33  1  0.58955026  0.10293045  0.55655004  1
  N  N34  1  0.58955026  0.39706955  0.05655004  1
  N  N35  1  0.41044974  0.89706955  0.44344996  1
  N  N36  1  0.21905965  0.68512566  0.94887397  1
  N  N37  1  0.78094035  0.18512566  0.55112603  1
  N  N38  1  0.78094035  0.31487434  0.05112603  1
  N  N39  1  0.21905965  0.81487434  0.44887397  1
  N  N40  1  0.19470665  0.62215381  0.27049531  1
  N  N41  1  0.80529335  0.12215381  0.22950469  1
  N  N42  1  0.80529335  0.37784619  0.72950469  1
  N  N43  1  0.19470665  0.87784619  0.77049531  1
  N  N44  1  0.23213161  0.52947965  0.06702753  1
  N  N45  1  0.76786839  0.02947965  0.43297247  1
  N  N46  1  0.76786839  0.47052035  0.93297247  1
  N  N47  1  0.23213161  0.97052035  0.56702753  1
  Cl  Cl48  1  0.94183228  0.58378624  0.68382024  1
  Cl  Cl49  1  0.05816772  0.08378624  0.81617976  1
  Cl  Cl50  1  0.05816772  0.41621376  0.31617976  1
  Cl  Cl51  1  0.94183228  0.91621376  0.18382024  1
  Cl  Cl52  1  0.92092523  0.71413487  0.47653314  1
  Cl  Cl53  1  0.07907477  0.21413487  0.02346686  1
  Cl  Cl54  1  0.07907477  0.28586513  0.52346686  1
  Cl  Cl55  1  0.92092523  0.78586513  0.97653314  1
  Cl  Cl56  1  0.55608722  0.69747896  0.30122683  1
  Cl  Cl57  1  0.44391278  0.19747896  0.19877317  1
  Cl  Cl58  1  0.44391278  0.30252104  0.69877317  1
  Cl  Cl59  1  0.55608722  0.80252104  0.80122683  1
  Cl  Cl60  1  0.56996450  0.56857409  0.50499296  1
  Cl  Cl61  1  0.43003550  0.06857409  0.99500704  1
  Cl  Cl62  1  0.43003550  0.43142591  0.49500704  1
  Cl  Cl63  1  0.56996450  0.93142591  0.00499296  1
  Cl  Cl64  1  0.79052764  0.60076630  0.15559362  1
  Cl  Cl65  1  0.20947236  0.10076630  0.34440638  1
  Cl  Cl66  1  0.20947236  0.39923370  0.84440638  1
  Cl  Cl67  1  0.79052764  0.89923370  0.65559362  1
  O  O68  1  0.70346226  0.67771758  0.76377138  1
  O  O69  1  0.29653774  0.17771758  0.73622862  1
  O  O70  1  0.29653774  0.32228242  0.23622862  1
  O  O71  1  0.70346226  0.82228242  0.26377138  1
