# generated using pymatgen
data_MgTi2O4
_symmetry_space_group_name_H-M   'P 1'
_cell_length_a   5.01970902
_cell_length_b   5.80455339
_cell_length_c   10.52677702
_cell_angle_alpha   89.96379165
_cell_angle_beta   89.97484353
_cell_angle_gamma   90.02577576
_symmetry_Int_Tables_number   1
_chemical_formula_structural   MgTi2O4
_chemical_formula_sum   'Mg4 Ti8 O16'
_cell_volume   306.72035915
_cell_formula_units_Z   4
loop_
 _symmetry_equiv_pos_site_id
 _symmetry_equiv_pos_as_xyz
  1  'x, y, z'
loop_
 _atom_site_type_symbol
 _atom_site_label
 _atom_site_symmetry_multiplicity
 _atom_site_fract_x
 _atom_site_fract_y
 _atom_site_fract_z
 _atom_site_occupancy
  Mg  Mg0  1  0.83490635  0.25004210  0.75009812  1
  Mg  Mg1  1  0.16471589  0.74995721  0.24985864  1
  Mg  Mg2  1  0.52681379  0.24994304  0.24988951  1
  Mg  Mg3  1  0.47330648  0.75005808  0.75007983  1
  Ti  Ti4  1  0.53358266  0.74992094  0.48689994  1
  Ti  Ti5  1  0.53410934  0.75024114  0.01299353  1
  Ti  Ti6  1  0.46632501  0.25008045  0.51315665  1
  Ti  Ti7  1  0.46582712  0.24975925  0.98706725  1
  Ti  Ti8  1  0.00035694  0.49974051  0.49995605  1
  Ti  Ti9  1  0.99998984  0.99999375  -0.00002847  1
  Ti  Ti10  1  0.00035343  0.00025855  0.49995535  1
  Ti  Ti11  1  0.99998652  0.50000484  -0.00002956  1
  O  O12  1  0.86315986  0.75007856  0.38175052  1
  O  O13  1  0.86370783  0.74960584  0.11880593  1
  O  O14  1  0.13630742  0.24992312  0.61895388  1
  O  O15  1  0.13637080  0.25039493  0.88138089  1
  O  O16  1  0.18795819  0.74998339  0.59871004  1
  O  O17  1  0.18772183  0.75014346  0.90124348  1
  O  O18  1  0.81221889  0.25001558  0.40112777  1
  O  O19  1  0.81226663  0.24985607  0.09875445  1
  O  O20  1  0.66006521  0.50134905  0.61726806  1
  O  O21  1  0.66001339  0.99902267  0.88238599  1
  O  O22  1  0.33989413  0.00123965  0.38253827  1
  O  O23  1  0.33988315  0.49853331  0.11731137  1
  O  O24  1  0.33992042  0.49893345  0.38245459  1
  O  O25  1  0.34000465  0.00100649  0.11758212  1
  O  O26  1  0.66009823  0.99848137  0.61717930  1
  O  O27  1  0.66013598  0.50143321  0.88265648  1
