# generated using pymatgen
data_ZnCrSiO5
_symmetry_space_group_name_H-M   'P 1'
_cell_length_a   5.42224722
_cell_length_b   7.07333978
_cell_length_c   8.18753225
_cell_angle_alpha   89.79068851
_cell_angle_beta   40.34393461
_cell_angle_gamma   72.55648825
_symmetry_Int_Tables_number   1
_chemical_formula_structural   ZnCrSiO5
_chemical_formula_sum   'Zn2 Cr2 Si2 O10'
_cell_volume   180.63373917
_cell_formula_units_Z   2
loop_
 _symmetry_equiv_pos_site_id
 _symmetry_equiv_pos_as_xyz
  1  'x, y, z'
loop_
 _atom_site_type_symbol
 _atom_site_label
 _atom_site_symmetry_multiplicity
 _atom_site_fract_x
 _atom_site_fract_y
 _atom_site_fract_z
 _atom_site_occupancy
  Zn  Zn0  1  0.44057425  0.22917305  0.70776891  1
  Zn  Zn1  1  0.59052854  0.72257145  0.26546277  1
  Cr  Cr2  1  0.49587725  0.48963080  -0.00000706  1
  Cr  Cr3  1  0.50118265  0.98947185  0.99250015  1
  Si  Si4  1  0.52566052  0.23204208  0.32571535  1
  Si  Si5  1  0.46379645  0.74142676  0.66991415  1
  O  O6  1  0.47400935  0.05196597  0.24356055  1
  O  O7  1  0.64576522  0.39236985  0.15646217  1
  O  O8  1  0.52027836  0.92464679  0.74430838  1
  O  O9  1  0.32738044  0.59301175  0.85463894  1
  O  O10  1  0.88785535  0.60009074  0.34104710  1
  O  O11  1  0.12299962  0.84374500  0.68643133  1
  O  O12  1  0.11060203  0.36187900  0.65757371  1
  O  O13  1  0.87993253  0.12252597  0.29786020  1
  O  O14  1  0.49292394  0.73692511  0.07581288  1
  O  O15  1  0.50736451  0.23565285  0.91296548  1
