# generated using pymatgen
data_Mg2V3O8
_symmetry_space_group_name_H-M   'P 1'
_cell_length_a   4.87059698
_cell_length_b   5.80724608
_cell_length_c   6.10641132
_cell_angle_alpha   118.39217225
_cell_angle_beta   109.95916752
_cell_angle_gamma   89.99999716
_symmetry_Int_Tables_number   1
_chemical_formula_structural   Mg2V3O8
_chemical_formula_sum   'Mg2 V3 O8'
_cell_volume   140.03782433
_cell_formula_units_Z   1
loop_
 _symmetry_equiv_pos_site_id
 _symmetry_equiv_pos_as_xyz
  1  'x, y, z'
loop_
 _atom_site_type_symbol
 _atom_site_label
 _atom_site_symmetry_multiplicity
 _atom_site_fract_x
 _atom_site_fract_y
 _atom_site_fract_z
 _atom_site_occupancy
  Mg  Mg0  1  0.66507879  0.73201071  0.46402042  1
  Mg  Mg1  1  0.33492021  0.26799029  0.53597958  1
  V  V2  1  0.50000000  0.99999900  0.00000000  1
  V  V3  1  0.99999900  0.71025522  0.00000000  1
  V  V4  1  0.99999900  0.28974478  1.00000000  1
  O  O5  1  0.08086971  0.38513931  0.77027962  1
  O  O6  1  0.91913029  0.61485969  0.22972038  1
  O  O7  1  0.09003938  0.89697391  0.79394783  1
  O  O8  1  0.90996062  0.10302509  0.20605117  1
  O  O9  1  0.39980183  0.34785578  0.23162015  1
  O  O10  1  0.39980183  0.88376438  0.23162015  1
  O  O11  1  0.60019917  0.11623462  0.76837985  1
  O  O12  1  0.60019917  0.65214422  0.76837985  1
