# generated using pymatgen
data_VP2(HO)6
_symmetry_space_group_name_H-M   'P 1'
_cell_length_a   7.34086371
_cell_length_b   7.34086371
_cell_length_c   7.68889259
_cell_angle_alpha   63.60039261
_cell_angle_beta   116.39960739
_cell_angle_gamma   112.31349086
_symmetry_Int_Tables_number   1
_chemical_formula_structural   VP2(HO)6
_chemical_formula_sum   'V2 P4 H12 O12'
_cell_volume   323.76382913
_cell_formula_units_Z   2
loop_
 _symmetry_equiv_pos_site_id
 _symmetry_equiv_pos_as_xyz
  1  'x, y, z'
loop_
 _atom_site_type_symbol
 _atom_site_label
 _atom_site_symmetry_multiplicity
 _atom_site_fract_x
 _atom_site_fract_y
 _atom_site_fract_z
 _atom_site_occupancy
  V  V0  1  0.24159082  0.24159082  0.75000000  1
  V  V1  1  0.75840918  0.75840918  0.25000000  1
  P  P2  1  0.56733733  0.10868928  0.21079479  1
  P  P3  1  0.10868928  0.56733733  0.28920521  1
  P  P4  1  0.43266267  0.89131072  0.78920521  1
  P  P5  1  0.89131072  0.43266267  0.71079479  1
  H  H6  1  0.91353125  0.86039236  0.87080023  1
  H  H7  1  0.86039236  0.91353125  0.62919977  1
  H  H8  1  0.08646875  0.13960764  0.12919977  1
  H  H9  1  0.13960764  0.08646875  0.37080023  1
  H  H10  1  0.54459862  0.17357908  0.34632128  1
  H  H11  1  0.17357908  0.54459862  0.15367872  1
  H  H12  1  0.45540138  0.82642092  0.65367872  1
  H  H13  1  0.82642092  0.45540138  0.84632128  1
  H  H14  1  0.70195478  0.27975260  0.11413680  1
  H  H15  1  0.27975260  0.70195478  0.38586320  1
  H  H16  1  0.29804522  0.72024740  0.88586320  1
  H  H17  1  0.72024740  0.29804522  0.61413680  1
  O  O18  1  0.35442453  0.06256091  0.04909233  1
  O  O19  1  0.06256091  0.35442453  0.45090767  1
  O  O20  1  0.64557547  0.93743909  0.95090767  1
  O  O21  1  0.93743909  0.64557547  0.54909233  1
  O  O22  1  0.32848217  0.07843981  0.65206649  1
  O  O23  1  0.07843981  0.32848217  0.84793351  1
  O  O24  1  0.67151783  0.92156019  0.34793351  1
  O  O25  1  0.92156019  0.67151783  0.15206649  1
  O  O26  1  0.95629527  0.95629527  0.75000000  1
  O  O27  1  0.04370473  0.04370473  0.25000000  1
  O  O28  1  0.44090230  0.44090230  0.75000000  1
  O  O29  1  0.55909770  0.55909770  0.25000000  1
