# generated using pymatgen
data_ZnFeF4
_symmetry_space_group_name_H-M   'P 1'
_cell_length_a   5.08070182
_cell_length_b   5.29771057
_cell_length_c   6.39161891
_cell_angle_alpha   114.70761169
_cell_angle_beta   113.85313904
_cell_angle_gamma   89.82623663
_symmetry_Int_Tables_number   1
_chemical_formula_structural   ZnFeF4
_chemical_formula_sum   'Zn2 Fe2 F8'
_cell_volume   140.05660054
_cell_formula_units_Z   2
loop_
 _symmetry_equiv_pos_site_id
 _symmetry_equiv_pos_as_xyz
  1  'x, y, z'
loop_
 _atom_site_type_symbol
 _atom_site_label
 _atom_site_symmetry_multiplicity
 _atom_site_fract_x
 _atom_site_fract_y
 _atom_site_fract_z
 _atom_site_occupancy
  Zn  Zn0  1  0.24900566  0.25024601  0.49831293  1
  Zn  Zn1  1  0.74934320  0.74570956  0.49988252  1
  Fe  Fe2  1  0.00212538  0.50008533  0.00144128  1
  Fe  Fe3  1  0.50268033  0.00453304  0.99660215  1
  F  F4  1  0.85943309  0.43848449  0.25088251  1
  F  F5  1  0.60761719  0.19062350  0.75157583  1
  F  F6  1  0.13394784  0.55704428  0.74684905  1
  F  F7  1  0.10605132  0.05730134  0.74394639  1
  F  F8  1  0.39273751  0.81115970  0.25398331  1
  F  F9  1  0.35580566  0.30727849  0.24612628  1
  F  F10  1  0.89082323  0.93712141  0.24507894  1
  F  F11  1  0.62990759  0.68477985  0.74171082  1
