# generated using pymatgen
data_Ca2TaCuO6
_symmetry_space_group_name_H-M   'P 1'
_cell_length_a   5.47685809
_cell_length_b   5.70409007
_cell_length_c   7.69375722
_cell_angle_alpha   90.00000000
_cell_angle_beta   90.00000000
_cell_angle_gamma   85.50252752
_symmetry_Int_Tables_number   1
_chemical_formula_structural   Ca2TaCuO6
_chemical_formula_sum   'Ca4 Ta2 Cu2 O12'
_cell_volume   239.61665190
_cell_formula_units_Z   2
loop_
 _symmetry_equiv_pos_site_id
 _symmetry_equiv_pos_as_xyz
  1  'x, y, z'
loop_
 _atom_site_type_symbol
 _atom_site_label
 _atom_site_symmetry_multiplicity
 _atom_site_fract_x
 _atom_site_fract_y
 _atom_site_fract_z
 _atom_site_occupancy
  Ca  Ca0  1  0.02187987  0.95327159  0.25000000  1
  Ca  Ca1  1  0.49504994  0.42875384  0.25000000  1
  Ca  Ca2  1  0.50495006  0.57124616  0.75000000  1
  Ca  Ca3  1  0.97812013  0.04672841  0.75000000  1
  Ta  Ta4  1  0.00000000  0.50000000  0.00000000  1
  Ta  Ta5  1  0.00000000  0.50000000  0.50000000  1
  Cu  Cu6  1  0.50000000  0.00000000  0.00000000  1
  Cu  Cu7  1  0.50000000  0.00000000  0.50000000  1
  O  O8  1  0.79600410  0.79934860  0.54711303  1
  O  O9  1  0.28056944  0.68561698  0.45288078  1
  O  O10  1  0.20399590  0.20065140  0.45288697  1
  O  O11  1  0.71943056  0.31438302  0.95288078  1
  O  O12  1  0.09659564  0.47230821  0.75000000  1
  O  O13  1  0.71943056  0.31438302  0.54711922  1
  O  O14  1  0.28056944  0.68561698  0.04711922  1
  O  O15  1  0.79600410  0.79934860  0.95288697  1
  O  O16  1  0.59534360  0.02743488  0.25000000  1
  O  O17  1  0.20399590  0.20065140  0.04711303  1
  O  O18  1  0.40465640  0.97256512  0.75000000  1
  O  O19  1  0.90340436  0.52769179  0.25000000  1
