# generated using pymatgen
data_Mg3Fe2(Si2O7)2
_symmetry_space_group_name_H-M   'P 1'
_cell_length_a   7.65361252
_cell_length_b   9.58129382
_cell_length_c   9.25565797
_cell_angle_alpha   64.13372862
_cell_angle_beta   65.57788560
_cell_angle_gamma   66.45907858
_symmetry_Int_Tables_number   1
_chemical_formula_structural   Mg3Fe2(Si2O7)2
_chemical_formula_sum   'Mg6 Fe4 Si8 O28'
_cell_volume   535.84787787
_cell_formula_units_Z   2
loop_
 _symmetry_equiv_pos_site_id
 _symmetry_equiv_pos_as_xyz
  1  'x, y, z'
loop_
 _atom_site_type_symbol
 _atom_site_label
 _atom_site_symmetry_multiplicity
 _atom_site_fract_x
 _atom_site_fract_y
 _atom_site_fract_z
 _atom_site_occupancy
  Mg  Mg0  1  0.93105305  0.88947027  0.44777939  1
  Mg  Mg1  1  0.26830271  0.61052973  0.05222061  1
  Mg  Mg2  1  0.73169729  0.38947027  0.94777939  1
  Mg  Mg3  1  0.60549837  0.25000000  0.75000000  1
  Mg  Mg4  1  0.06894695  0.11052973  0.55222061  1
  Mg  Mg5  1  0.39450163  0.75000000  0.25000000  1
  Fe  Fe6  1  0.20137508  0.25000000  0.75000000  1
  Fe  Fe7  1  0.79862492  0.75000000  0.25000000  1
  Fe  Fe8  1  0.00000000  0.00000000  0.00000000  1
  Fe  Fe9  1  0.00000000  0.50000000  0.50000000  1
  Si  Si10  1  0.45526614  0.29378432  0.33774282  1
  Si  Si11  1  0.91320571  0.79378432  0.83774282  1
  Si  Si12  1  0.48206018  0.89947435  0.86640886  1
  Si  Si13  1  0.75205761  0.39947435  0.36640886  1
  Si  Si14  1  0.08679429  0.20621568  0.16225718  1
  Si  Si15  1  0.51793982  0.10052565  0.13359114  1
  Si  Si16  1  0.24794239  0.60052565  0.63359114  1
  Si  Si17  1  0.54473386  0.70621568  0.66225718  1
  O  O18  1  0.16963842  0.67049111  0.46503303  1
  O  O19  1  0.04329383  0.58060175  0.26469335  1
  O  O20  1  0.54278111  0.91059435  0.18272147  1
  O  O21  1  0.11141107  0.08060175  0.76469335  1
  O  O22  1  0.76061242  0.69624917  0.51636794  1
  O  O23  1  0.93370314  0.37320426  0.19735060  1
  O  O24  1  0.36390207  0.41059435  0.68272147  1
  O  O25  1  0.97322954  0.80375083  0.98363206  1
  O  O26  1  0.06629686  0.62679574  0.80264940  1
  O  O27  1  0.38115425  0.72525770  0.57875942  1
  O  O28  1  0.95670617  0.41939825  0.73530665  1
  O  O29  1  0.23938758  0.30375083  0.48363206  1
  O  O30  1  0.50425901  0.12679574  0.30264940  1
  O  O31  1  0.69483643  0.17049111  0.96503303  1
  O  O32  1  0.31482863  0.22525770  0.07875942  1
  O  O33  1  0.02677046  0.19624917  0.01636794  1
  O  O34  1  0.07950482  0.06150421  0.34106118  1
  O  O35  1  0.61884575  0.27474230  0.42124058  1
  O  O36  1  0.48206921  0.43849579  0.15893882  1
  O  O37  1  0.68517137  0.77474230  0.92124058  1
  O  O38  1  0.49574099  0.87320426  0.69735060  1
  O  O39  1  0.88858893  0.91939825  0.23530665  1
  O  O40  1  0.51793079  0.56150421  0.84106118  1
  O  O41  1  0.45721889  0.08940565  0.81727853  1
  O  O42  1  0.92049518  0.93849579  0.65893882  1
  O  O43  1  0.63609793  0.58940565  0.31727853  1
  O  O44  1  0.30516357  0.82950889  0.03496697  1
  O  O45  1  0.83036158  0.32950889  0.53496697  1
