# generated using pymatgen
data_Ca2TiSbO6
_symmetry_space_group_name_H-M   'P 1'
_cell_length_a   5.51761125
_cell_length_b   5.70249920
_cell_length_c   7.95551589
_cell_angle_alpha   90.00000000
_cell_angle_beta   90.00000000
_cell_angle_gamma   90.08154599
_symmetry_Int_Tables_number   1
_chemical_formula_structural   Ca2TiSbO6
_chemical_formula_sum   'Ca4 Ti2 Sb2 O12'
_cell_volume   250.31348060
_cell_formula_units_Z   2
loop_
 _symmetry_equiv_pos_site_id
 _symmetry_equiv_pos_as_xyz
  1  'x, y, z'
loop_
 _atom_site_type_symbol
 _atom_site_label
 _atom_site_symmetry_multiplicity
 _atom_site_fract_x
 _atom_site_fract_y
 _atom_site_fract_z
 _atom_site_occupancy
  Ca  Ca0  1  0.51540279  0.56135176  0.75000000  1
  Ca  Ca1  1  0.48459721  0.43864824  0.25000000  1
  Ca  Ca2  1  0.99130078  0.04555929  0.75000000  1
  Ca  Ca3  1  0.00869922  0.95444071  0.25000000  1
  Ti  Ti4  1  0.50000000  0.00000000  0.50000000  1
  Ti  Ti5  1  0.50000000  0.00000000  0.00000000  1
  Sb  Sb6  1  0.00000000  0.50000000  0.50000000  1
  Sb  Sb7  1  0.00000000  0.50000000  0.00000000  1
  O  O8  1  0.31215012  0.70851446  0.44955209  1
  O  O9  1  0.20675553  0.19188982  0.05064422  1
  O  O10  1  0.68784988  0.29148554  0.94955209  1
  O  O11  1  0.79324447  0.80811018  0.55064422  1
  O  O12  1  0.20675553  0.19188982  0.44935578  1
  O  O13  1  0.79324447  0.80811018  0.94935578  1
  O  O14  1  0.90474440  0.53164004  0.25000000  1
  O  O15  1  0.31215012  0.70851446  0.05044791  1
  O  O16  1  0.40901476  0.96798225  0.75000000  1
  O  O17  1  0.68784988  0.29148554  0.55044791  1
  O  O18  1  0.09525560  0.46835996  0.75000000  1
  O  O19  1  0.59098524  0.03201775  0.25000000  1
