# generated using pymatgen
data_Zn3Cu2(Si2O7)2
_symmetry_space_group_name_H-M   'P 1'
_cell_length_a   7.67839048
_cell_length_b   9.53205830
_cell_length_c   9.58371831
_cell_angle_alpha   62.91882916
_cell_angle_beta   66.38458269
_cell_angle_gamma   66.24874845
_symmetry_Int_Tables_number   1
_chemical_formula_structural   Zn3Cu2(Si2O7)2
_chemical_formula_sum   'Zn6 Cu4 Si8 O28'
_cell_volume   550.95663079
_cell_formula_units_Z   2
loop_
 _symmetry_equiv_pos_site_id
 _symmetry_equiv_pos_as_xyz
  1  'x, y, z'
loop_
 _atom_site_type_symbol
 _atom_site_label
 _atom_site_symmetry_multiplicity
 _atom_site_fract_x
 _atom_site_fract_y
 _atom_site_fract_z
 _atom_site_occupancy
  Zn  Zn0  1  0.93869109  0.86668418  0.43022567  1
  Zn  Zn1  1  0.23560093  0.63331582  0.06977433  1
  Zn  Zn2  1  0.76439907  0.36668418  0.93022567  1
  Zn  Zn3  1  0.61236653  0.25000000  0.75000000  1
  Zn  Zn4  1  0.06130891  0.13331582  0.56977433  1
  Zn  Zn5  1  0.38763347  0.75000000  0.25000000  1
  Cu  Cu6  1  0.22555744  0.25000000  0.75000000  1
  Cu  Cu7  1  0.77444256  0.75000000  0.25000000  1
  Cu  Cu8  1  0.00000000  0.00000000  0.00000000  1
  Cu  Cu9  1  0.00000000  0.50000000  0.50000000  1
  Si  Si10  1  0.42920194  0.30543109  0.32594055  1
  Si  Si11  1  0.93942542  0.80543109  0.82594055  1
  Si  Si12  1  0.49587097  0.89415279  0.86907950  1
  Si  Si13  1  0.74089774  0.39415279  0.36907950  1
  Si  Si14  1  0.06057458  0.19456891  0.17405945  1
  Si  Si15  1  0.50412903  0.10584721  0.13092050  1
  Si  Si16  1  0.25910226  0.60584721  0.63092050  1
  Si  Si17  1  0.57079806  0.69456891  0.67405945  1
  O  O18  1  0.19370944  0.67698738  0.46144109  1
  O  O19  1  0.00536099  0.59479456  0.28378957  1
  O  O20  1  0.54332825  0.90747637  0.18835461  1
  O  O21  1  0.11605487  0.09479456  0.78378957  1
  O  O22  1  0.79196413  0.69611333  0.54106062  1
  O  O23  1  0.92751611  0.36385756  0.21276812  1
  O  O24  1  0.36083977  0.40747637  0.68835461  1
  O  O25  1  0.02913808  0.80388667  0.95893938  1
  O  O26  1  0.07248389  0.63614244  0.78723188  1
  O  O27  1  0.41440797  0.70693182  0.58927060  1
  O  O28  1  0.99463901  0.40520544  0.71621043  1
  O  O29  1  0.20803587  0.30388667  0.45893938  1
  O  O30  1  0.50414279  0.13614244  0.28723188  1
  O  O31  1  0.66786110  0.17698738  0.96144109  1
  O  O32  1  0.28938960  0.20693182  0.08927060  1
  O  O33  1  0.97086192  0.19611333  0.04106062  1
  O  O34  1  0.05931392  0.03850956  0.33827609  1
  O  O35  1  0.58559203  0.29306818  0.41072940  1
  O  O36  1  0.43609858  0.46149044  0.16172391  1
  O  O37  1  0.71061040  0.79306818  0.91072940  1
  O  O38  1  0.49585721  0.86385756  0.71276812  1
  O  O39  1  0.88394513  0.90520544  0.21621043  1
  O  O40  1  0.56390142  0.53850956  0.83827609  1
  O  O41  1  0.45667175  0.09252363  0.81164539  1
  O  O42  1  0.94068608  0.96149044  0.66172391  1
  O  O43  1  0.63916023  0.59252363  0.31164539  1
  O  O44  1  0.33213890  0.82301262  0.03855891  1
  O  O45  1  0.80629056  0.32301262  0.53855891  1
