# generated using pymatgen
data_Ca(SnO2)2
_symmetry_space_group_name_H-M   'P 1'
_cell_length_a   6.73859444
_cell_length_b   6.38000059
_cell_length_c   20.62403406
_cell_angle_alpha   62.34677265
_cell_angle_beta   65.84606955
_cell_angle_gamma   61.74599276
_symmetry_Int_Tables_number   1
_chemical_formula_structural   Ca(SnO2)2
_chemical_formula_sum   'Ca6 Sn12 O24'
_cell_volume   671.10675376
_cell_formula_units_Z   6
loop_
 _symmetry_equiv_pos_site_id
 _symmetry_equiv_pos_as_xyz
  1  'x, y, z'
loop_
 _atom_site_type_symbol
 _atom_site_label
 _atom_site_symmetry_multiplicity
 _atom_site_fract_x
 _atom_site_fract_y
 _atom_site_fract_z
 _atom_site_occupancy
  Ca  Ca0  1  0.13015242  0.12381349  0.04071367  1
  Ca  Ca1  1  0.49986943  0.49983015  0.33347978  1
  Ca  Ca2  1  0.00577262  0.49468350  0.16829717  1
  Ca  Ca3  1  0.49743332  0.50188992  0.66630541  1
  Ca  Ca4  1  -0.00005907  0.49993810  0.50011631  1
  Ca  Ca5  1  0.99361143  0.50565315  0.83162867  1
  Sn  Sn6  1  0.50657577  0.99522715  0.16677795  1
  Sn  Sn7  1  0.12927081  0.12064114  0.37650807  1
  Sn  Sn8  1  0.48968880  0.49159665  0.00904856  1
  Sn  Sn9  1  0.50653023  0.49798912  0.16677053  1
  Sn  Sn10  1  0.49998329  0.00016492  0.49993656  1
  Sn  Sn11  1  0.12337867  0.12074939  0.71167989  1
  Sn  Sn12  1  0.49997571  0.50014759  0.49991782  1
  Sn  Sn13  1  0.49151069  0.00396917  0.83437629  1
  Sn  Sn14  1  0.87559115  0.87781110  0.28957494  1
  Sn  Sn15  1  0.49150417  0.50113221  0.83441876  1
  Sn  Sn16  1  0.87011826  0.87968214  0.62358385  1
  Sn  Sn17  1  0.87428066  0.88331021  0.95297023  1
  O  O18  1  0.28087470  0.23358130  0.09337315  1
  O  O19  1  0.32006053  0.25086659  0.22610368  1
  O  O20  1  0.28098459  0.70535251  0.09336206  1
  O  O21  1  0.71286543  0.24135929  0.10152092  1
  O  O22  1  0.27367755  0.23123057  0.42514492  1
  O  O23  1  0.31539787  0.74609743  0.23082290  1
  O  O24  1  0.30751849  0.25634395  0.55994330  1
  O  O25  1  0.72876033  0.27883158  0.24226864  1
  O  O26  1  0.27373271  0.71969314  0.42511629  1
  O  O27  1  0.69826516  0.73866250  0.10819743  1
  O  O28  1  0.68613233  0.25353280  0.43563858  1
  O  O29  1  0.72874623  0.76566613  0.24226276  1
  O  O30  1  0.26967402  0.23527055  0.75823621  1
  O  O31  1  0.31244636  0.74770649  0.56407059  1
  O  O32  1  0.72575850  0.28077152  0.57484395  1
  O  O33  1  0.26962760  0.72020183  0.75825460  1
  O  O34  1  0.28777471  0.25515791  0.90056989  1
  O  O35  1  0.69232098  0.74329518  0.44044280  1
  O  O36  1  0.66909573  0.26091745  0.76962477  1
  O  O37  1  0.72578676  0.76915628  0.57485233  1
  O  O38  1  0.29614706  0.75951517  0.89487916  1
  O  O39  1  0.73835685  0.27479264  0.89997457  1
  O  O40  1  0.68241590  0.74701747  0.77441953  1
  O  O41  1  0.73839024  0.78674863  0.89997350  1
