# generated using pymatgen
data_MnZn2WO6
_symmetry_space_group_name_H-M   'P 1'
_cell_length_a   5.32093075
_cell_length_b   5.31591405
_cell_length_c   7.97457661
_cell_angle_alpha   90.00000000
_cell_angle_beta   88.51677333
_cell_angle_gamma   90.00000000
_symmetry_Int_Tables_number   1
_chemical_formula_structural   MnZn2WO6
_chemical_formula_sum   'Mn2 Zn4 W2 O12'
_cell_volume   225.49019124
_cell_formula_units_Z   2
loop_
 _symmetry_equiv_pos_site_id
 _symmetry_equiv_pos_as_xyz
  1  'x, y, z'
loop_
 _atom_site_type_symbol
 _atom_site_label
 _atom_site_symmetry_multiplicity
 _atom_site_fract_x
 _atom_site_fract_y
 _atom_site_fract_z
 _atom_site_occupancy
  Mn  Mn0  1  0.50000000  0.00000000  0.00000000  1
  Mn  Mn1  1  0.00000100  0.49999900  0.50000000  1
  Zn  Zn2  1  0.01299322  0.02594162  0.25834932  1
  Zn  Zn3  1  0.48700678  0.52594262  0.24165068  1
  Zn  Zn4  1  0.98700778  0.97405938  0.74165068  1
  Zn  Zn5  1  0.51299222  0.47405838  0.75834932  1
  W  W6  1  0.50000000  0.00000000  0.49999900  1
  W  W7  1  0.00000000  0.49999900  0.00000000  1
  O  O8  1  0.64422348  0.31012566  0.41528082  1
  O  O9  1  0.85577652  0.81012666  0.08471918  1
  O  O10  1  0.35577552  0.68987434  0.58471918  1
  O  O11  1  0.14422448  0.18987334  0.91528082  1
  O  O12  1  0.18309387  0.16126023  0.55555955  1
  O  O13  1  0.31690613  0.66125923  0.94444045  1
  O  O14  1  0.81690713  0.83873977  0.44444045  1
  O  O15  1  0.68309287  0.33874077  0.05555955  1
  O  O16  1  0.11995843  0.40139140  0.22816352  1
  O  O17  1  0.38004257  0.90139240  0.27183548  1
  O  O18  1  0.61995843  0.09860760  0.72816452  1
  O  O19  1  0.88004257  0.59860860  0.77183648  1
