# generated using pymatgen
data_Zn(CuO2)2
_symmetry_space_group_name_H-M   'P 1'
_cell_length_a   5.92715830
_cell_length_b   5.94467982
_cell_length_c   17.75820606
_cell_angle_alpha   59.89546121
_cell_angle_beta   60.15145042
_cell_angle_gamma   59.86210371
_symmetry_Int_Tables_number   1
_chemical_formula_structural   Zn(CuO2)2
_chemical_formula_sum   'Zn6 Cu12 O24'
_cell_volume   442.13373406
_cell_formula_units_Z   6
loop_
 _symmetry_equiv_pos_site_id
 _symmetry_equiv_pos_as_xyz
  1  'x, y, z'
loop_
 _atom_site_type_symbol
 _atom_site_label
 _atom_site_symmetry_multiplicity
 _atom_site_fract_x
 _atom_site_fract_y
 _atom_site_fract_z
 _atom_site_occupancy
  Zn  Zn0  1  0.13809854  0.11886692  0.04124324  1
  Zn  Zn1  1  0.50093979  0.50033189  0.33284360  1
  Zn  Zn2  1  0.00000609  0.49830839  0.16773569  1
  Zn  Zn3  1  0.49968967  0.49956669  0.66701742  1
  Zn  Zn4  1  0.99975642  0.50014881  0.49998000  1
  Zn  Zn5  1  0.00015080  0.50158269  0.83226266  1
  Cu  Cu6  1  0.49980911  0.00019395  0.16697238  1
  Cu  Cu7  1  0.12944341  0.11843754  0.37781075  1
  Cu  Cu8  1  0.50028594  0.49995757  -0.00004767  1
  Cu  Cu9  1  0.50008420  0.49898328  0.16694259  1
  Cu  Cu10  1  0.49993711  0.00011073  0.49993295  1
  Cu  Cu11  1  0.13164113  0.12157520  0.70826454  1
  Cu  Cu12  1  0.50007948  0.50011895  0.49992590  1
  Cu  Cu13  1  0.50082321  -0.00057288  0.83288272  1
  Cu  Cu14  1  0.86888856  0.87903639  0.29116370  1
  Cu  Cu15  1  0.50074394  0.50119410  0.83299013  1
  Cu  Cu16  1  0.86989911  0.88077425  0.62289409  1
  Cu  Cu17  1  0.87245140  0.87629489  0.95801139  1
  O  O18  1  0.27946051  0.25405500  0.08543520  1
  O  O19  1  0.26943157  0.24708136  0.24537930  1
  O  O20  1  0.27985993  0.70933092  0.08542657  1
  O  O21  1  0.72638032  0.25589160  0.08696535  1
  O  O22  1  0.26882815  0.24241679  0.42296547  1
  O  O23  1  0.26355563  0.75503802  0.24228387  1
  O  O24  1  0.26942115  0.24937466  0.57709536  1
  O  O25  1  0.73165217  0.27844346  0.24313670  1
  O  O26  1  0.26949800  0.71935248  0.42306433  1
  O  O27  1  0.72457548  0.75079322  0.09159765  1
  O  O28  1  0.73291174  0.24924605  0.42306971  1
  O  O29  1  0.73188384  0.76074526  0.24305057  1
  O  O30  1  0.26720739  0.24013961  0.75562437  1
  O  O31  1  0.26686303  0.75047562  0.57717023  1
  O  O32  1  0.73035404  0.28025683  0.57698532  1
  O  O33  1  0.26796332  0.72516885  0.75572312  1
  O  O34  1  0.27927218  0.25440412  0.90381150  1
  O  O35  1  0.73120935  0.75061304  0.42261429  1
  O  O36  1  0.74154586  0.24737853  0.75447307  1
  O  O37  1  0.73105327  0.75786272  0.57705182  1
  O  O38  1  0.26319895  0.74377021  0.91679524  1
  O  O39  1  0.71844561  0.28381058  0.91674489  1
  O  O40  1  0.72362455  0.75151173  0.75802341  1
  O  O41  1  0.71907508  0.74792796  0.91668759  1
