# generated using pymatgen
data_MnO2
_symmetry_space_group_name_H-M   'P 1'
_cell_length_a   5.81891634
_cell_length_b   5.81775215
_cell_length_c   17.51616865
_cell_angle_alpha   59.97740712
_cell_angle_beta   60.23882714
_cell_angle_gamma   59.96993964
_symmetry_Int_Tables_number   1
_chemical_formula_structural   MnO2
_chemical_formula_sum   'Mn12 O24'
_cell_volume   419.88042937
_cell_formula_units_Z   12
loop_
 _symmetry_equiv_pos_site_id
 _symmetry_equiv_pos_as_xyz
  1  'x, y, z'
loop_
 _atom_site_type_symbol
 _atom_site_label
 _atom_site_symmetry_multiplicity
 _atom_site_fract_x
 _atom_site_fract_y
 _atom_site_fract_z
 _atom_site_occupancy
  Mn  Mn0  1  0.49418782  0.49421164  0.16808939  1
  Mn  Mn1  1  0.00191878  0.50114987  0.49887678  1
  Mn  Mn2  1  0.50171490  0.50007409  0.33231563  1
  Mn  Mn3  1  0.49404632  0.00911916  0.16744932  1
  Mn  Mn4  1  0.50085263  0.50094895  0.49898274  1
  Mn  Mn5  1  0.00486860  0.49423447  0.16878855  1
  Mn  Mn6  1  0.50241706  0.50485144  0.66384430  1
  Mn  Mn7  1  0.50089479  0.00225670  0.49884708  1
  Mn  Mn8  1  0.50226000  0.50213171  0.83107279  1
  Mn  Mn9  1  0.50201849  0.00512616  0.83014417  1
  Mn  Mn10  1  0.00158610  0.50236854  0.83102716  1
  Mn  Mn11  1  0.88157571  0.87245046  0.95512345  1
  O  O12  1  0.23825766  0.23818511  0.10412029  1
  O  O13  1  0.23843460  0.71210749  0.10343144  1
  O  O14  1  0.26105929  0.26040640  0.23929162  1
  O  O15  1  0.71073114  0.23772792  0.10430295  1
  O  O16  1  0.26380925  0.26458493  0.42204086  1
  O  O17  1  0.29767245  0.73162026  0.24597992  1
  O  O18  1  0.73628166  0.74051789  0.09473248  1
  O  O19  1  0.73295282  0.29610637  0.24608168  1
  O  O20  1  0.26506119  0.70515342  0.42162072  1
  O  O21  1  0.26676869  0.26582635  0.56725985  1
  O  O22  1  0.70590960  0.26386970  0.42235215  1
  O  O23  1  0.73286550  0.73145464  0.24610462  1
  O  O24  1  0.26722879  0.26869616  0.75253748  1
  O  O25  1  0.29603888  0.73680923  0.57725503  1
  O  O26  1  0.73479013  0.73616646  0.43128498  1
  O  O27  1  0.73538312  0.29714406  0.57793515  1
  O  O28  1  0.26744477  0.26609528  0.89967889  1
  O  O29  1  0.26655370  0.70722986  0.75310627  1
  O  O30  1  0.70667479  0.26748704  0.75315335  1
  O  O31  1  0.73657211  0.73635925  0.57736102  1
  O  O32  1  0.28214789  0.75455847  0.90236547  1
  O  O33  1  0.75783364  0.28224015  0.90109269  1
  O  O34  1  0.73401734  0.73638226  0.76466162  1
  O  O35  1  0.75556681  0.75275110  0.90258709  1
