# generated using pymatgen
data_YHfMg6
_symmetry_space_group_name_H-M   'P 1'
_cell_length_a   6.26092088
_cell_length_b   7.80793279
_cell_length_c   4.88992794
_cell_angle_alpha   90.00000000
_cell_angle_beta   90.00000000
_cell_angle_gamma   128.57548695
_symmetry_Int_Tables_number   1
_chemical_formula_structural   YHfMg6
_chemical_formula_sum   'Y1 Hf1 Mg6'
_cell_volume   186.88109152
_cell_formula_units_Z   1
loop_
 _symmetry_equiv_pos_site_id
 _symmetry_equiv_pos_as_xyz
  1  'x, y, z'
loop_
 _atom_site_type_symbol
 _atom_site_label
 _atom_site_symmetry_multiplicity
 _atom_site_fract_x
 _atom_site_fract_y
 _atom_site_fract_z
 _atom_site_occupancy
  Y  Y0  1  0.24868707  0.37434353  0.25000000  1
  Hf  Hf1  1  0.25012498  0.87506199  0.25000000  1
  Mg  Mg2  1  0.74914427  0.37502575  0.25000000  1
  Mg  Mg3  1  0.74914427  0.87411752  0.25000000  1
  Mg  Mg4  1  0.25077461  0.11549076  0.75000000  1
  Mg  Mg5  1  0.25077461  0.63528485  0.75000000  1
  Mg  Mg6  1  0.73837455  0.11918828  0.75000000  1
  Mg  Mg7  1  0.76297464  0.63148832  0.75000000  1
