# generated using pymatgen
data_Mg15Cr
_symmetry_space_group_name_H-M   'P 1'
_cell_length_a   6.35024606
_cell_length_b   6.35024554
_cell_length_c   10.21471018
_cell_angle_alpha   90.00000000
_cell_angle_beta   90.00000000
_cell_angle_gamma   120.00000270
_symmetry_Int_Tables_number   1
_chemical_formula_structural   Mg15Cr
_chemical_formula_sum   'Mg15 Cr1'
_cell_volume   356.72844511
_cell_formula_units_Z   1
loop_
 _symmetry_equiv_pos_site_id
 _symmetry_equiv_pos_as_xyz
  1  'x, y, z'
loop_
 _atom_site_type_symbol
 _atom_site_label
 _atom_site_symmetry_multiplicity
 _atom_site_fract_x
 _atom_site_fract_y
 _atom_site_fract_z
 _atom_site_occupancy
  Mg  Mg0  1  0.16666700  0.33333300  0.62500000  1
  Mg  Mg1  1  0.16707518  0.83353709  0.12500000  1
  Mg  Mg2  1  0.16687158  0.83343529  0.62500000  1
  Mg  Mg3  1  0.66646291  0.33292482  0.12500000  1
  Mg  Mg4  1  0.66656471  0.33312842  0.62500000  1
  Mg  Mg5  1  0.66646291  0.83353709  0.12500000  1
  Mg  Mg6  1  0.66656471  0.83343529  0.62500000  1
  Mg  Mg7  1  0.33149195  0.16850805  0.37236962  1
  Mg  Mg8  1  0.33149195  0.16850805  0.87763038  1
  Mg  Mg9  1  0.33149195  0.66298489  0.37236962  1
  Mg  Mg10  1  0.33149195  0.66298489  0.87763038  1
  Mg  Mg11  1  0.83701511  0.16850805  0.37236962  1
  Mg  Mg12  1  0.83701511  0.16850805  0.87763038  1
  Mg  Mg13  1  0.83333300  0.66666700  0.37598322  1
  Mg  Mg14  1  0.83333300  0.66666700  0.87401678  1
  Cr  Cr15  1  0.16666700  0.33333300  0.12500000  1
