# generated using pymatgen
data_ZnCuAsO5
_symmetry_space_group_name_H-M   'P 1'
_cell_length_a   7.77097989
_cell_length_b   5.87544821
_cell_length_c   8.81300865
_cell_angle_alpha   90.00452323
_cell_angle_beta   90.20759923
_cell_angle_gamma   90.02236583
_symmetry_Int_Tables_number   1
_chemical_formula_structural   ZnCuAsO5
_chemical_formula_sum   'Zn4 Cu4 As4 O20'
_cell_volume   402.38158636
_cell_formula_units_Z   4
loop_
 _symmetry_equiv_pos_site_id
 _symmetry_equiv_pos_as_xyz
  1  'x, y, z'
loop_
 _atom_site_type_symbol
 _atom_site_label
 _atom_site_symmetry_multiplicity
 _atom_site_fract_x
 _atom_site_fract_y
 _atom_site_fract_z
 _atom_site_occupancy
  Zn  Zn0  1  0.94116285  0.69815105  0.05548519  1
  Zn  Zn1  1  0.55768743  0.30118072  0.55564690  1
  Zn  Zn2  1  0.44230517  0.80099924  0.94435483  1
  Zn  Zn3  1  0.05880581  0.19840574  0.44451007  1
  Cu  Cu4  1  0.99883133  0.49644664  0.74639933  1
  Cu  Cu5  1  0.50117671  0.50390797  0.24637146  1
  Cu  Cu6  1  0.49879713  0.00376094  0.25352229  1
  Cu  Cu7  1  0.00136263  0.99630904  0.75370883  1
  As  As8  1  0.65480354  0.27432821  0.90754976  1
  As  As9  1  0.84570881  0.72559390  0.40769481  1
  As  As10  1  0.15415442  0.22548406  0.09228541  1
  As  As11  1  0.34528736  0.77445349  0.59238795  1
  O  O12  1  0.85577743  0.24688162  0.81283750  1
  O  O13  1  0.64408192  0.75316092  0.31326339  1
  O  O14  1  0.35584217  0.25282240  0.18664412  1
  O  O15  1  0.14423894  0.74725004  0.68706470  1
  O  O16  1  0.50420534  0.30735441  0.76892052  1
  O  O17  1  0.99550554  0.69262539  0.26906356  1
  O  O18  1  0.00441351  0.19257860  0.23099178  1
  O  O19  1  0.49587036  0.80740735  0.73116937  1
  O  O20  1  0.62952312  0.03019298  0.01132727  1
  O  O21  1  0.87134281  0.97001865  0.51137730  1
  O  O22  1  0.12876042  0.47000272  0.98881449  1
  O  O23  1  0.37044216  0.53017482  0.48881736  1
  O  O24  1  0.67041768  0.51123517  0.02202802  1
  O  O25  1  0.83042521  0.48882597  0.52236721  1
  O  O26  1  0.16919866  0.98871481  0.97752194  1
  O  O27  1  0.32992722  0.01122182  0.47790740  1
  O  O28  1  0.88708065  0.74795051  0.83868747  1
  O  O29  1  0.61306544  0.25234935  0.33968355  1
  O  O30  1  0.38678631  0.75242491  0.16038236  1
  O  O31  1  0.11300996  0.24778854  0.66121387  1
