# generated using pymatgen
data_BaNb2Fe2O9
_symmetry_space_group_name_H-M   'P 1'
_cell_length_a   5.62313913
_cell_length_b   5.62194447
_cell_length_c   13.50555204
_cell_angle_alpha   102.01305548
_cell_angle_beta   90.00000000
_cell_angle_gamma   90.00000000
_symmetry_Int_Tables_number   1
_chemical_formula_structural   BaNb2Fe2O9
_chemical_formula_sum   'Ba2 Nb4 Fe4 O18'
_cell_volume   417.60055716
_cell_formula_units_Z   2
loop_
 _symmetry_equiv_pos_site_id
 _symmetry_equiv_pos_as_xyz
  1  'x, y, z'
loop_
 _atom_site_type_symbol
 _atom_site_label
 _atom_site_symmetry_multiplicity
 _atom_site_fract_x
 _atom_site_fract_y
 _atom_site_fract_z
 _atom_site_occupancy
  Ba  Ba0  1  0.47252127  0.24989108  0.00000000  1
  Ba  Ba1  1  0.97252127  0.75010892  0.00000000  1
  Nb  Nb2  1  0.96463783  0.16610808  0.83207210  1
  Nb  Nb3  1  0.96463783  0.33403597  0.16792790  1
  Nb  Nb4  1  0.46463783  0.83389192  0.16792790  1
  Nb  Nb5  1  0.46463783  0.66596403  0.83207210  1
  Fe  Fe6  1  0.98655246  0.02594393  0.54956842  1
  Fe  Fe7  1  0.98655246  0.47637551  0.45043158  1
  Fe  Fe8  1  0.48655246  0.97405607  0.45043158  1
  Fe  Fe9  1  0.48655246  0.52362449  0.54956842  1
  O  O10  1  0.97768111  0.24897316  0.00000000  1
  O  O11  1  0.47768111  0.75102684  0.00000000  1
  O  O12  1  0.98119359  0.09559839  0.68669758  1
  O  O13  1  0.98119359  0.40890081  0.31330242  1
  O  O14  1  0.48119359  0.90440161  0.31330242  1
  O  O15  1  0.48119359  0.59109919  0.68669758  1
  O  O16  1  0.23656391  0.24982723  0.49964111  1
  O  O17  1  0.23656391  0.75018612  0.50035889  1
  O  O18  1  0.73656391  0.75017277  0.50035889  1
  O  O19  1  0.73656391  0.24981388  0.49964111  1
  O  O20  1  0.23109720  0.07838116  0.15357657  1
  O  O21  1  0.23109720  0.92480459  0.84642343  1
  O  O22  1  0.73109720  0.92161884  0.84642343  1
  O  O23  1  0.73109720  0.07519541  0.15357657  1
  O  O24  1  0.23085382  0.57493200  0.15269086  1
  O  O25  1  0.23085382  0.42224114  0.84730914  1
  O  O26  1  0.73085382  0.42506800  0.84730914  1
  O  O27  1  0.73085382  0.57775886  0.15269086  1
