# generated using pymatgen
data_K6Te2P6(H4O11)3
_symmetry_space_group_name_H-M   'P 1'
_cell_length_a   13.93864715
_cell_length_b   13.93864715
_cell_length_c   13.93864732
_cell_angle_alpha   56.67735555
_cell_angle_beta   56.67735555
_cell_angle_gamma   56.67735756
_symmetry_Int_Tables_number   1
_chemical_formula_structural   K6Te2P6(H4O11)3
_chemical_formula_sum   'K12 Te4 P12 H24 O66'
_cell_volume   1767.96675432
_cell_formula_units_Z   2
loop_
 _symmetry_equiv_pos_site_id
 _symmetry_equiv_pos_as_xyz
  1  'x, y, z'
loop_
 _atom_site_type_symbol
 _atom_site_label
 _atom_site_symmetry_multiplicity
 _atom_site_fract_x
 _atom_site_fract_y
 _atom_site_fract_z
 _atom_site_occupancy
  K  K0  1  0.68621931  0.81378069  0.25000000  1
  K  K1  1  0.81378069  0.25000000  0.68621931  1
  K  K2  1  0.25000000  0.68621931  0.81378069  1
  K  K3  1  0.18621931  0.75000000  0.31378069  1
  K  K4  1  0.75000000  0.31378069  0.18621931  1
  K  K5  1  0.31378069  0.18621931  0.75000000  1
  K  K6  1  0.50000000  0.50000000  0.00000000  1
  K  K7  1  0.50000000  0.00000000  0.50000000  1
  K  K8  1  0.00000000  0.50000000  0.50000000  1
  K  K9  1  0.00000000  0.50000000  0.00000000  1
  K  K10  1  0.50000000  0.00000000  0.00000000  1
  K  K11  1  0.00000000  0.00000000  0.50000000  1
  Te  Te12  1  0.36100943  0.36100943  0.36100943  1
  Te  Te13  1  0.86100943  0.86100943  0.86100943  1
  Te  Te14  1  0.63899057  0.63899057  0.63899057  1
  Te  Te15  1  0.13899057  0.13899057  0.13899057  1
  P  P16  1  0.75755183  0.17325261  0.02235997  1
  P  P17  1  0.17325261  0.02235997  0.75755183  1
  P  P18  1  0.02235997  0.75755183  0.17325261  1
  P  P19  1  0.25755183  0.52235997  0.67325261  1
  P  P20  1  0.52235997  0.67325261  0.25755183  1
  P  P21  1  0.67325261  0.25755183  0.52235997  1
  P  P22  1  0.24244817  0.82674739  0.97764003  1
  P  P23  1  0.82674739  0.97764003  0.24244817  1
  P  P24  1  0.97764003  0.24244817  0.82674739  1
  P  P25  1  0.74244817  0.47764003  0.32674739  1
  P  P26  1  0.47764003  0.32674739  0.74244817  1
  P  P27  1  0.32674739  0.74244817  0.47764003  1
  H  H28  1  0.24187506  0.21965786  0.53802663  1
  H  H29  1  0.21965786  0.53802663  0.24187506  1
  H  H30  1  0.53802663  0.24187506  0.21965786  1
  H  H31  1  0.74187506  0.03802663  0.71965786  1
  H  H32  1  0.03802663  0.71965786  0.74187506  1
  H  H33  1  0.71965786  0.74187506  0.03802663  1
  H  H34  1  0.75812494  0.78034214  0.46197337  1
  H  H35  1  0.78034214  0.46197337  0.75812494  1
  H  H36  1  0.46197337  0.75812494  0.78034214  1
  H  H37  1  0.25812494  0.96197337  0.28034214  1
  H  H38  1  0.96197337  0.28034214  0.25812494  1
  H  H39  1  0.28034214  0.25812494  0.96197337  1
  H  H40  1  0.53669083  0.48941570  0.73777667  1
  H  H41  1  0.48941570  0.73777667  0.53669083  1
  H  H42  1  0.73777667  0.53669083  0.48941570  1
  H  H43  1  0.03669083  0.23777667  0.98941570  1
  H  H44  1  0.23777667  0.98941570  0.03669083  1
  H  H45  1  0.98941570  0.03669083  0.23777667  1
  H  H46  1  0.46330917  0.51058430  0.26222333  1
  H  H47  1  0.51058430  0.26222333  0.46330917  1
  H  H48  1  0.26222333  0.46330917  0.51058430  1
  H  H49  1  0.96330917  0.76222333  0.01058430  1
  H  H50  1  0.76222333  0.01058430  0.96330917  1
  H  H51  1  0.01058430  0.96330917  0.76222333  1
  O  O52  1  0.27167534  0.03601609  0.20425760  1
  O  O53  1  0.03601609  0.20425760  0.27167534  1
  O  O54  1  0.20425760  0.27167534  0.03601609  1
  O  O55  1  0.77167534  0.70425760  0.53601609  1
  O  O56  1  0.70425760  0.53601609  0.77167534  1
  O  O57  1  0.53601609  0.77167534  0.70425760  1
  O  O58  1  0.72832466  0.96398391  0.79574240  1
  O  O59  1  0.96398391  0.79574240  0.72832466  1
  O  O60  1  0.79574240  0.72832466  0.96398391  1
  O  O61  1  0.22832466  0.29574240  0.46398391  1
  O  O62  1  0.29574240  0.46398391  0.22832466  1
  O  O63  1  0.46398391  0.22832466  0.29574240  1
  O  O64  1  0.42949448  0.25607938  0.49259710  1
  O  O65  1  0.25607938  0.49259710  0.42949448  1
  O  O66  1  0.49259710  0.42949448  0.25607938  1
  O  O67  1  0.92949448  0.99259710  0.75607938  1
  O  O68  1  0.99259710  0.75607938  0.92949448  1
  O  O69  1  0.75607938  0.92949448  0.99259710  1
  O  O70  1  0.57050552  0.74392062  0.50740290  1
  O  O71  1  0.74392062  0.50740290  0.57050552  1
  O  O72  1  0.50740290  0.57050552  0.74392062  1
  O  O73  1  0.07050552  0.00740290  0.24392062  1
  O  O74  1  0.00740290  0.24392062  0.07050552  1
  O  O75  1  0.24392062  0.07050552  0.00740290  1
  O  O76  1  0.26288839  0.08742693  0.65549714  1
  O  O77  1  0.08742693  0.65549714  0.26288839  1
  O  O78  1  0.65549714  0.26288839  0.08742693  1
  O  O79  1  0.76288839  0.15549714  0.58742693  1
  O  O80  1  0.15549714  0.58742693  0.76288839  1
  O  O81  1  0.58742693  0.76288839  0.15549714  1
  O  O82  1  0.73711161  0.91257307  0.34450286  1
  O  O83  1  0.91257307  0.34450286  0.73711161  1
  O  O84  1  0.34450286  0.73711161  0.91257307  1
  O  O85  1  0.23711161  0.84450286  0.41257307  1
  O  O86  1  0.84450286  0.41257307  0.23711161  1
  O  O87  1  0.41257307  0.23711161  0.84450286  1
  O  O88  1  0.34166692  0.75544419  0.56765579  1
  O  O89  1  0.75544419  0.56765579  0.34166692  1
  O  O90  1  0.56765579  0.34166692  0.75544419  1
  O  O91  1  0.84166692  0.06765579  0.25544419  1
  O  O92  1  0.06765579  0.25544419  0.84166692  1
  O  O93  1  0.25544419  0.84166692  0.06765579  1
  O  O94  1  0.65833308  0.24455581  0.43234421  1
  O  O95  1  0.24455581  0.43234421  0.65833308  1
  O  O96  1  0.43234421  0.65833308  0.24455581  1
  O  O97  1  0.15833308  0.93234421  0.74455581  1
  O  O98  1  0.93234421  0.74455581  0.15833308  1
  O  O99  1  0.74455581  0.15833308  0.93234421  1
  O  O100  1  0.46354420  0.70646852  0.37815932  1
  O  O101  1  0.70646852  0.37815932  0.46354420  1
  O  O102  1  0.37815932  0.46354420  0.70646852  1
  O  O103  1  0.96354420  0.87815932  0.20646852  1
  O  O104  1  0.87815932  0.20646852  0.96354420  1
  O  O105  1  0.20646852  0.96354420  0.87815932  1
  O  O106  1  0.53645580  0.29353148  0.62184068  1
  O  O107  1  0.29353148  0.62184068  0.53645580  1
  O  O108  1  0.62184068  0.53645580  0.29353148  1
  O  O109  1  0.03645580  0.12184068  0.79353148  1
  O  O110  1  0.12184068  0.79353148  0.03645580  1
  O  O111  1  0.79353148  0.03645580  0.12184068  1
  O  O112  1  0.46107268  0.03892732  0.25000000  1
  O  O113  1  0.03892732  0.25000000  0.46107268  1
  O  O114  1  0.25000000  0.46107268  0.03892732  1
  O  O115  1  0.96107268  0.75000000  0.53892732  1
  O  O116  1  0.75000000  0.53892732  0.96107268  1
  O  O117  1  0.53892732  0.96107268  0.75000000  1
