# generated using pymatgen
data_Mg14CrCd
_symmetry_space_group_name_H-M   'P 1'
_cell_length_a   6.31570903
_cell_length_b   6.31570853
_cell_length_c   10.19701968
_cell_angle_alpha   90.00000000
_cell_angle_beta   90.00000000
_cell_angle_gamma   120.00000268
_symmetry_Int_Tables_number   1
_chemical_formula_structural   Mg14CrCd
_chemical_formula_sum   'Mg14 Cr1 Cd1'
_cell_volume   352.24762198
_cell_formula_units_Z   1
loop_
 _symmetry_equiv_pos_site_id
 _symmetry_equiv_pos_as_xyz
  1  'x, y, z'
loop_
 _atom_site_type_symbol
 _atom_site_label
 _atom_site_symmetry_multiplicity
 _atom_site_fract_x
 _atom_site_fract_y
 _atom_site_fract_z
 _atom_site_occupancy
  Mg  Mg0  1  0.16735540  0.83367720  0.12500000  1
  Mg  Mg1  1  0.16568306  0.83284103  0.62500000  1
  Mg  Mg2  1  0.66632280  0.33264460  0.12500000  1
  Mg  Mg3  1  0.66715897  0.33431694  0.62500000  1
  Mg  Mg4  1  0.66632280  0.83367720  0.12500000  1
  Mg  Mg5  1  0.66715897  0.83284103  0.62500000  1
  Mg  Mg6  1  0.33126897  0.16873103  0.37354234  1
  Mg  Mg7  1  0.33126897  0.16873103  0.87645766  1
  Mg  Mg8  1  0.33126897  0.66253894  0.37354234  1
  Mg  Mg9  1  0.33126897  0.66253894  0.87645766  1
  Mg  Mg10  1  0.83746106  0.16873103  0.37354234  1
  Mg  Mg11  1  0.83746106  0.16873103  0.87645766  1
  Mg  Mg12  1  0.83333300  0.66666700  0.37528914  1
  Mg  Mg13  1  0.83333300  0.66666700  0.87471086  1
  Cr  Cr14  1  0.16666700  0.33333300  0.12500000  1
  Cd  Cd15  1  0.16666700  0.33333300  0.62500000  1
