# generated using pymatgen
data_Ba4Y2Cu4W2O17
_symmetry_space_group_name_H-M   'P 1'
_cell_length_a   6.03672993
_cell_length_b   17.82731808
_cell_length_c   15.32751045
_cell_angle_alpha   18.54310637
_cell_angle_beta   51.42152959
_cell_angle_gamma   54.52807290
_symmetry_Int_Tables_number   1
_chemical_formula_structural   Ba4Y2Cu4W2O17
_chemical_formula_sum   'Ba4 Y2 Cu4 W2 O17'
_cell_volume   409.69746168
_cell_formula_units_Z   1
loop_
 _symmetry_equiv_pos_site_id
 _symmetry_equiv_pos_as_xyz
  1  'x, y, z'
loop_
 _atom_site_type_symbol
 _atom_site_label
 _atom_site_symmetry_multiplicity
 _atom_site_fract_x
 _atom_site_fract_y
 _atom_site_fract_z
 _atom_site_occupancy
  Ba  Ba0  1  0.98368818  0.97216707  0.03934230  1
  Ba  Ba1  1  0.01896984  0.34640895  0.97444922  1
  Ba  Ba2  1  0.98446022  0.67572959  0.98769093  1
  Ba  Ba3  1  0.49407428  0.17664744  0.48972579  1
  Y  Y4  1  0.56437378  0.53035522  0.47354276  1
  Y  Y5  1  0.40207664  0.77630897  0.54242059  1
  Cu  Cu6  1  0.26944690  0.25909245  0.22662133  1
  Cu  Cu7  1  0.22904968  0.57412748  0.26861946  1
  Cu  Cu8  1  0.24164267  0.92715331  0.23262640  1
  Cu  Cu9  1  0.78984532  0.38851653  0.77530593  1
  W  W10  1  0.73105120  0.09643183  0.74391294  1
  W  W11  1  0.73654989  0.76468084  0.73310445  1
  O  O12  1  0.46994338  0.10909590  0.89842788  1
  O  O13  1  0.56467768  0.12436710  0.07966405  1
  O  O14  1  0.00087828  0.49685980  0.99231413  1
  O  O15  1  0.56342921  0.41134722  0.91130426  1
  O  O16  1  0.97578863  0.13008141  0.54627984  1
  O  O17  1  0.52095586  0.02475031  0.47189792  1
  O  O18  1  0.52010374  0.53985879  0.96816216  1
  O  O19  1  0.96827174  0.84261415  0.01694210  1
  O  O20  1  0.95555282  0.32834491  0.49834164  1
  O  O21  1  0.94116555  0.43870713  0.56683371  1
  O  O22  1  0.52127271  0.70367764  0.95862301  1
  O  O23  1  0.52668698  0.81577622  0.05733058  1
  O  O24  1  0.09465900  0.56864164  0.55741185  1
  O  O25  1  0.48853837  0.31388173  0.50889282  1
  O  O26  1  0.49432643  0.67574781  0.48003014  1
  O  O27  1  0.03227300  0.94702218  0.52656881  1
  O  O28  1  0.99626401  0.83770335  0.48721400  1
