# generated using pymatgen
data_Te2Mo3W(SeS2)2
_symmetry_space_group_name_H-M   'P 1'
_cell_length_a   3.31169569
_cell_length_b   3.31173395
_cell_length_c   39.12188104
_cell_angle_alpha   89.99882243
_cell_angle_beta   90.00000000
_cell_angle_gamma   119.99961772
_symmetry_Int_Tables_number   1
_chemical_formula_structural   Te2Mo3W(SeS2)2
_chemical_formula_sum   'Te2 Mo3 W1 Se2 S4'
_cell_volume   371.58476187
_cell_formula_units_Z   1
loop_
 _symmetry_equiv_pos_site_id
 _symmetry_equiv_pos_as_xyz
  1  'x, y, z'
loop_
 _atom_site_type_symbol
 _atom_site_label
 _atom_site_symmetry_multiplicity
 _atom_site_fract_x
 _atom_site_fract_y
 _atom_site_fract_z
 _atom_site_occupancy
  Te  Te0  1  0.33330872  0.66661844  0.70849255  1
  Te  Te1  1  0.33334249  0.66668598  0.61024984  1
  Mo  Mo2  1  0.33327346  0.66654693  0.09371144  1
  Mo  Mo3  1  0.33339726  0.66679452  0.46816674  1
  Mo  Mo4  1  0.66665240  0.33330480  0.28165659  1
  W  W5  1  0.66665569  0.33331138  0.65938839  1
  Se  Se6  1  0.66673255  0.33346411  0.42527440  1
  Se  Se7  1  0.66677931  0.33355761  0.51107865  1
  S  S8  1  0.33333763  0.66667625  0.32071655  1
  S  S9  1  0.66658046  0.33315992  0.05465981  1
  S  S10  1  0.66661504  0.33322908  0.13276015  1
  S  S11  1  0.33332499  0.66665098  0.24259288  1
