# generated using pymatgen
data_SnCl8O25
_symmetry_space_group_name_H-M   'P 1'
_cell_length_a   16.43380995
_cell_length_b   16.42874281
_cell_length_c   7.56881289
_cell_angle_alpha   90.01467322
_cell_angle_beta   89.97698698
_cell_angle_gamma   120.00118956
_symmetry_Int_Tables_number   1
_chemical_formula_structural   SnCl8O25
_chemical_formula_sum   'Sn3 Cl24 O75'
_cell_volume   1769.68410422
_cell_formula_units_Z   3
loop_
 _symmetry_equiv_pos_site_id
 _symmetry_equiv_pos_as_xyz
  1  'x, y, z'
loop_
 _atom_site_type_symbol
 _atom_site_label
 _atom_site_symmetry_multiplicity
 _atom_site_fract_x
 _atom_site_fract_y
 _atom_site_fract_z
 _atom_site_occupancy
  Sn  Sn0  1  0.00006515  0.99991268  0.15521089  1
  Sn  Sn1  1  0.33326080  0.66679387  0.63179803  1
  Sn  Sn2  1  0.66662453  0.33332155  0.06607990  1
  Cl  Cl3  1  0.01059192  0.67169666  0.88522341  1
  Cl  Cl4  1  0.66138248  0.98952229  0.88529287  1
  Cl  Cl5  1  0.32826357  0.33874826  0.88544019  1
  Cl  Cl6  1  0.99339157  0.28990540  0.45635523  1
  Cl  Cl7  1  0.29669777  0.00620450  0.45626245  1
  Cl  Cl8  1  0.70976803  0.70327666  0.45608691  1
  Cl  Cl9  1  0.00249714  0.82172254  0.37500642  1
  Cl  Cl10  1  0.81925956  0.99757288  0.37474423  1
  Cl  Cl11  1  0.17838649  0.18077077  0.37485531  1
  Cl  Cl12  1  0.83746787  0.81237860  0.93441447  1
  Cl  Cl13  1  0.97481387  0.16238668  0.93442947  1
  Cl  Cl14  1  0.18773551  0.02517324  0.93433442  1
  Cl  Cl15  1  0.16775925  0.69416835  0.41180931  1
  Cl  Cl16  1  0.52645495  0.83230992  0.41159593  1
  Cl  Cl17  1  0.30584379  0.47358588  0.41168270  1
  Cl  Cl18  1  0.35653254  0.85855326  0.84616210  1
  Cl  Cl19  1  0.50196575  0.64381720  0.84640904  1
  Cl  Cl20  1  0.14175473  0.49795402  0.84654466  1
  Cl  Cl21  1  0.48168596  0.30765299  0.31143868  1
  Cl  Cl22  1  0.82599789  0.51838090  0.31139980  1
  Cl  Cl23  1  0.69230294  0.17396531  0.31149065  1
  Cl  Cl24  1  0.63702862  0.50031806  0.85946138  1
  Cl  Cl25  1  0.86333091  0.36298027  0.85948127  1
  Cl  Cl26  1  0.49960471  0.13671525  0.85941843  1
  O  O27  1  0.95313461  0.87997694  0.31422814  1
  O  O28  1  0.92680705  0.04683441  0.31411752  1
  O  O29  1  0.12004333  0.07321190  0.31426362  1
  O  O30  1  0.02171736  0.78471717  0.21894370  1
  O  O31  1  0.76299712  0.97825011  0.21899507  1
  O  O32  1  0.21529263  0.23702013  0.21902196  1
  O  O33  1  0.93249462  0.75154774  0.48781465  1
  O  O34  1  0.81900709  0.06745796  0.48788092  1
  O  O35  1  0.24844257  0.18103514  0.48788940  1
  O  O36  1  0.08638133  0.88513377  0.46926078  1
  O  O37  1  0.79865890  0.91349790  0.46927935  1
  O  O38  1  0.11482174  0.20133919  0.46940179  1
  O  O39  1  0.89504613  0.92058660  0.96556346  1
  O  O40  1  0.02544049  0.10486619  0.96563846  1
  O  O41  1  0.07936358  0.97449856  0.96555996  1
  O  O42  1  0.77571078  0.77084014  0.08258650  1
  O  O43  1  0.99502941  0.22426302  0.08271849  1
  O  O44  1  0.22907595  0.00495676  0.08252300  1
  O  O45  1  0.78736260  0.80568672  0.77460220  1
  O  O46  1  0.01840384  0.21264561  0.77463304  1
  O  O47  1  0.19415034  0.98154827  0.77476219  1
  O  O48  1  0.90269934  0.77899551  0.91635783  1
  O  O49  1  0.87620593  0.09717948  0.91624275  1
  O  O50  1  0.22095586  0.12369587  0.91603768  1
  O  O51  1  0.21957476  0.63880924  0.46351946  1
  O  O52  1  0.41931483  0.78043028  0.46345135  1
  O  O53  1  0.36111050  0.58075359  0.46364609  1
  O  O54  1  0.08942799  0.66515800  0.53189710  1
  O  O55  1  0.57580080  0.91046702  0.53181626  1
  O  O56  1  0.33466965  0.42426636  0.53196032  1
  O  O57  1  0.23343754  0.79293299  0.42526306  1
  O  O58  1  0.55955533  0.76663816  0.42513887  1
  O  O59  1  0.20702288  0.44042049  0.42523817  1
  O  O60  1  0.13603071  0.66396270  0.23508202  1
  O  O61  1  0.52798132  0.86390812  0.23500081  1
  O  O62  1  0.33597860  0.47211069  0.23509355  1
  O  O63  1  0.29998372  0.75061084  0.79164958  1
  O  O64  1  0.45072082  0.70026915  0.79182268  1
  O  O65  1  0.24951457  0.54925634  0.79187122  1
  O  O66  1  0.35761332  0.91230671  0.69536341  1
  O  O67  1  0.55475068  0.64256246  0.69559663  1
  O  O68  1  0.08778540  0.44520001  0.69572726  1
  O  O69  1  0.30257389  0.86300047  0.99021492  1
  O  O70  1  0.56030666  0.69767715  0.99033706  1
  O  O71  1  0.13731704  0.43971644  0.99036546  1
  O  O72  1  0.44968612  0.88040939  0.89549736  1
  O  O73  1  0.43083575  0.55059908  0.89573935  1
  O  O74  1  0.11977863  0.56916589  0.89576164  1
  O  O75  1  0.58354793  0.36367735  0.23378939  1
  O  O76  1  0.78012414  0.41645451  0.23371284  1
  O  O77  1  0.63636468  0.21990178  0.23385652  1
  O  O78  1  0.41787363  0.30368068  0.17680524  1
  O  O79  1  0.88583193  0.58212582  0.17683762  1
  O  O80  1  0.69617765  0.11412230  0.17691306  1
  O  O81  1  0.48429215  0.36185329  0.46154458  1
  O  O82  1  0.87756053  0.51575897  0.46170019  1
  O  O83  1  0.63816512  0.12247864  0.46168313  1
  O  O84  1  0.46404913  0.21529606  0.35738987  1
  O  O85  1  0.75119671  0.53595253  0.35737435  1
  O  O86  1  0.78468978  0.24878062  0.35737431  1
  O  O87  1  0.69344264  0.44800146  0.90634458  1
  O  O88  1  0.75450184  0.30651560  0.90634207  1
  O  O89  1  0.55201906  0.24551056  0.90642145  1
  O  O90  1  0.63616845  0.55080678  0.01340887  1
  O  O91  1  0.91454137  0.36380652  0.01332496  1
  O  O92  1  0.44919176  0.08538958  0.01343231  1
  O  O93  1  0.54365128  0.43081337  0.80579266  1
  O  O94  1  0.88714632  0.45628514  0.80594580  1
  O  O95  1  0.56913010  0.11279000  0.80571850  1
  O  O96  1  0.69250737  0.56109942  0.71800021  1
  O  O97  1  0.86851668  0.30749576  0.71802015  1
  O  O98  1  0.43889689  0.13145706  0.71809014  1
  O  O99  1  0.01554788  0.37165461  0.33771620  1
  O  O100  1  0.35639922  0.98437906  0.33709130  1
  O  O101  1  0.62798337  0.64370790  0.33726548  1
