# generated using pymatgen
data_Te2Mo3W(SeS2)2
_symmetry_space_group_name_H-M   'P 1'
_cell_length_a   3.31142615
_cell_length_b   3.31152870
_cell_length_c   38.11998869
_cell_angle_alpha   89.99626456
_cell_angle_beta   90.00000000
_cell_angle_gamma   119.99897177
_symmetry_Int_Tables_number   1
_chemical_formula_structural   Te2Mo3W(SeS2)2
_chemical_formula_sum   'Te2 Mo3 W1 Se2 S4'
_cell_volume   362.01910563
_cell_formula_units_Z   1
loop_
 _symmetry_equiv_pos_site_id
 _symmetry_equiv_pos_as_xyz
  1  'x, y, z'
loop_
 _atom_site_type_symbol
 _atom_site_label
 _atom_site_symmetry_multiplicity
 _atom_site_fract_x
 _atom_site_fract_y
 _atom_site_fract_z
 _atom_site_occupancy
  Te  Te0  1  0.33332303  0.66664707  0.70799730  1
  Te  Te1  1  0.33338960  0.66678020  0.60702531  1
  Mo  Mo2  1  0.33331618  0.66663236  0.09393982  1
  Mo  Mo3  1  0.33332044  0.66664088  0.46964335  1
  Mo  Mo4  1  0.66668673  0.33337345  0.28180228  1
  W  W5  1  0.66667489  0.33334979  0.65751360  1
  Se  Se6  1  0.33334003  0.66668106  0.32578331  1
  Se  Se7  1  0.33338093  0.66676287  0.23782080  1
  S  S8  1  0.66665476  0.33330851  0.05385198  1
  S  S9  1  0.66665118  0.33330135  0.42961707  1
  S  S10  1  0.66662807  0.33325514  0.13403464  1
  S  S11  1  0.66663416  0.33326732  0.50971855  1
