# generated using pymatgen
data_Te2Mo3W(SeS2)2
_symmetry_space_group_name_H-M   'P 1'
_cell_length_a   3.30902907
_cell_length_b   3.30896120
_cell_length_c   38.53505326
_cell_angle_alpha   90.00317775
_cell_angle_beta   90.00000000
_cell_angle_gamma   120.00067862
_symmetry_Int_Tables_number   1
_chemical_formula_structural   Te2Mo3W(SeS2)2
_chemical_formula_sum   'Te2 Mo3 W1 Se2 S4'
_cell_volume   365.40617440
_cell_formula_units_Z   1
loop_
 _symmetry_equiv_pos_site_id
 _symmetry_equiv_pos_as_xyz
  1  'x, y, z'
loop_
 _atom_site_type_symbol
 _atom_site_label
 _atom_site_symmetry_multiplicity
 _atom_site_fract_x
 _atom_site_fract_y
 _atom_site_fract_z
 _atom_site_occupancy
  Te  Te0  1  0.66663425  0.33326750  0.42033048  1
  Te  Te1  1  0.66668237  0.33336375  0.52011891  1
  Mo  Mo2  1  0.33329089  0.66658178  0.09381109  1
  Mo  Mo3  1  0.66672880  0.33345761  0.28096656  1
  Mo  Mo4  1  0.66667661  0.33335322  0.65790777  1
  W  W5  1  0.33331559  0.66663118  0.47022921  1
  Se  Se6  1  0.33342996  0.66686092  0.32457591  1
  Se  Se7  1  0.33334628  0.66669357  0.23739344  1
  S  S8  1  0.33332690  0.66665480  0.69754032  1
  S  S9  1  0.66661671  0.33323241  0.05425491  1
  S  S10  1  0.66664996  0.33329892  0.13337171  1
  S  S11  1  0.33330167  0.66660434  0.61824769  1
