# generated using pymatgen
data_Te2Mo3W(SeS2)2
_symmetry_space_group_name_H-M   'P 1'
_cell_length_a   3.31055255
_cell_length_b   3.31055112
_cell_length_c   37.63057286
_cell_angle_alpha   90.00020886
_cell_angle_beta   90.00000000
_cell_angle_gamma   120.00001419
_symmetry_Int_Tables_number   1
_chemical_formula_structural   Te2Mo3W(SeS2)2
_chemical_formula_sum   'Te2 Mo3 W1 Se2 S4'
_cell_volume   357.16770544
_cell_formula_units_Z   1
loop_
 _symmetry_equiv_pos_site_id
 _symmetry_equiv_pos_as_xyz
  1  'x, y, z'
loop_
 _atom_site_type_symbol
 _atom_site_label
 _atom_site_symmetry_multiplicity
 _atom_site_fract_x
 _atom_site_fract_y
 _atom_site_fract_z
 _atom_site_occupancy
  Te  Te0  1  0.33334955  0.66670009  0.33294504  1
  Te  Te1  1  0.33334906  0.66669912  0.23065080  1
  Mo  Mo2  1  0.33330518  0.66661037  0.09389926  1
  Mo  Mo3  1  0.33330800  0.66661600  0.46968627  1
  Mo  Mo4  1  0.66669237  0.33338474  0.65753155  1
  W  W5  1  0.66668652  0.33337304  0.28180283  1
  Se  Se6  1  0.33336518  0.66673135  0.70217422  1
  Se  Se7  1  0.33334989  0.66670077  0.61288883  1
  S  S8  1  0.66665611  0.33331123  0.05331040  1
  S  S9  1  0.66664232  0.33328364  0.42907970  1
  S  S10  1  0.66665497  0.33330894  0.13450751  1
  S  S11  1  0.66664085  0.33328070  0.51027159  1
