# generated using pymatgen
data_Te2Mo3W(SeS2)2
_symmetry_space_group_name_H-M   'P 1'
_cell_length_a   3.31065176
_cell_length_b   3.31071800
_cell_length_c   37.61577396
_cell_angle_alpha   89.99993722
_cell_angle_beta   90.00000000
_cell_angle_gamma   119.99933810
_symmetry_Int_Tables_number   1
_chemical_formula_structural   Te2Mo3W(SeS2)2
_chemical_formula_sum   'Te2 Mo3 W1 Se2 S4'
_cell_volume   357.05837298
_cell_formula_units_Z   1
loop_
 _symmetry_equiv_pos_site_id
 _symmetry_equiv_pos_as_xyz
  1  'x, y, z'
loop_
 _atom_site_type_symbol
 _atom_site_label
 _atom_site_symmetry_multiplicity
 _atom_site_fract_x
 _atom_site_fract_y
 _atom_site_fract_z
 _atom_site_occupancy
  Te  Te0  1  0.33335767  0.66671633  0.70870156  1
  Te  Te1  1  0.33335324  0.66670747  0.60637432  1
  Mo  Mo2  1  0.33330916  0.66661832  0.09391951  1
  Mo  Mo3  1  0.33329465  0.66658930  0.46963725  1
  Mo  Mo4  1  0.66669190  0.33338379  0.28179610  1
  W  W5  1  0.66668990  0.33337980  0.65757512  1
  Se  Se6  1  0.66664518  0.33328936  0.04928448  1
  Se  Se7  1  0.66664545  0.33328989  0.13857465  1
  S  S8  1  0.33335192  0.66670484  0.32238927  1
  S  S9  1  0.66665605  0.33331111  0.42903311  1
  S  S10  1  0.66665057  0.33330014  0.51025724  1
  S  S11  1  0.33335432  0.66670964  0.24120540  1
