# generated using pymatgen
data_TeMoWSeS2
_symmetry_space_group_name_H-M   'P 1'
_cell_length_a   3.30435644
_cell_length_b   3.30438795
_cell_length_c   39.11745476
_cell_angle_alpha   89.99793321
_cell_angle_beta   90.00000000
_cell_angle_gamma   119.99968459
_symmetry_Int_Tables_number   1
_chemical_formula_structural   TeMoWSeS2
_chemical_formula_sum   'Te2 Mo2 W2 Se2 S4'
_cell_volume   369.89675232
_cell_formula_units_Z   2
loop_
 _symmetry_equiv_pos_site_id
 _symmetry_equiv_pos_as_xyz
  1  'x, y, z'
loop_
 _atom_site_type_symbol
 _atom_site_label
 _atom_site_symmetry_multiplicity
 _atom_site_fract_x
 _atom_site_fract_y
 _atom_site_fract_z
 _atom_site_occupancy
  Te  Te0  1  0.33325926  0.66651952  0.33011300  1
  Te  Te1  1  0.33329785  0.66659669  0.23172247  1
  Mo  Mo2  1  0.33324951  0.66649903  0.09333683  1
  Mo  Mo3  1  0.33336018  0.66672035  0.47087643  1
  W  W4  1  0.66663428  0.33326856  0.28096217  1
  W  W5  1  0.66668828  0.33337656  0.65778282  1
  Se  Se6  1  0.66671980  0.33343860  0.42787282  1
  Se  Se7  1  0.66671250  0.33342401  0.51378242  1
  S  S8  1  0.33337285  0.66674670  0.69699736  1
  S  S9  1  0.66669548  0.33338996  0.05432088  1
  S  S10  1  0.66666321  0.33332542  0.13243519  1
  S  S11  1  0.33334680  0.66669459  0.61854561  1
