# generated using pymatgen
data_Te4MoW3S4
_symmetry_space_group_name_H-M   'P 1'
_cell_length_a   3.35753718
_cell_length_b   3.35754843
_cell_length_c   39.95439265
_cell_angle_alpha   89.99725491
_cell_angle_beta   90.00000000
_cell_angle_gamma   119.99988917
_symmetry_Int_Tables_number   1
_chemical_formula_structural   Te4MoW3S4
_chemical_formula_sum   'Te4 Mo1 W3 S4'
_cell_volume   390.06660066
_cell_formula_units_Z   1
loop_
 _symmetry_equiv_pos_site_id
 _symmetry_equiv_pos_as_xyz
  1  'x, y, z'
loop_
 _atom_site_type_symbol
 _atom_site_label
 _atom_site_symmetry_multiplicity
 _atom_site_fract_x
 _atom_site_fract_y
 _atom_site_fract_z
 _atom_site_occupancy
  Te  Te0  1  0.33330676  0.66661452  0.32780115  1
  Te  Te1  1  0.66669662  0.33339225  0.42342670  1
  Te  Te2  1  0.66664155  0.33328210  0.51852601  1
  Te  Te3  1  0.33333072  0.66666244  0.23310456  1
  Mo  Mo4  1  0.66665398  0.33330796  0.28045485  1
  W  W5  1  0.33331250  0.66662500  0.09376969  1
  W  W6  1  0.33333459  0.66666918  0.47099918  1
  W  W7  1  0.66670354  0.33340708  0.65770781  1
  S  S8  1  0.33334190  0.66668480  0.69568013  1
  S  S9  1  0.66666361  0.33332623  0.05579667  1
  S  S10  1  0.66663611  0.33327122  0.13181405  1
  S  S11  1  0.33337812  0.66675724  0.61966721  1
