# generated using pymatgen
data_Te4MoW3S4
_symmetry_space_group_name_H-M   'P 1'
_cell_length_a   3.35722063
_cell_length_b   3.35726724
_cell_length_c   38.35284175
_cell_angle_alpha   89.99981079
_cell_angle_beta   90.00000000
_cell_angle_gamma   119.99954069
_symmetry_Int_Tables_number   1
_chemical_formula_structural   Te4MoW3S4
_chemical_formula_sum   'Te4 Mo1 W3 S4'
_cell_volume   374.36564343
_cell_formula_units_Z   1
loop_
 _symmetry_equiv_pos_site_id
 _symmetry_equiv_pos_as_xyz
  1  'x, y, z'
loop_
 _atom_site_type_symbol
 _atom_site_label
 _atom_site_symmetry_multiplicity
 _atom_site_fract_x
 _atom_site_fract_y
 _atom_site_fract_z
 _atom_site_occupancy
  Te  Te0  1  0.33335918  0.66671937  0.70714762  1
  Te  Te1  1  0.66664055  0.33328010  0.04460464  1
  Te  Te2  1  0.66664763  0.33329427  0.14323269  1
  Te  Te3  1  0.33335724  0.66671549  0.60793675  1
  Mo  Mo4  1  0.33331000  0.66661999  0.09390588  1
  W  W5  1  0.33330836  0.66661672  0.46964169  1
  W  W6  1  0.66668723  0.33337446  0.28181499  1
  W  W7  1  0.66669228  0.33338456  0.65754837  1
  S  S8  1  0.33335242  0.66670583  0.32141178  1
  S  S9  1  0.66664447  0.33328793  0.43005430  1
  S  S10  1  0.66664343  0.33328586  0.50924282  1
  S  S11  1  0.33335721  0.66671541  0.24220646  1
