# generated using pymatgen
data_MoH4O5
_symmetry_space_group_name_H-M   'P 1'
_cell_length_a   10.64384096
_cell_length_b   14.18474000
_cell_length_c   11.22715883
_cell_angle_alpha   90.00000000
_cell_angle_beta   89.32839682
_cell_angle_gamma   90.00000000
_symmetry_Int_Tables_number   1
_chemical_formula_structural   MoH4O5
_chemical_formula_sum   'Mo16 H64 O80'
_cell_volume   1694.96130035
_cell_formula_units_Z   16
loop_
 _symmetry_equiv_pos_site_id
 _symmetry_equiv_pos_as_xyz
  1  'x, y, z'
loop_
 _atom_site_type_symbol
 _atom_site_label
 _atom_site_symmetry_multiplicity
 _atom_site_fract_x
 _atom_site_fract_y
 _atom_site_fract_z
 _atom_site_occupancy
  Mo  Mo0  1  0.36112412  0.73966395  0.39741320  1
  Mo  Mo1  1  0.86112412  0.76033605  0.89741320  1
  Mo  Mo2  1  0.63887588  0.26033605  0.60258680  1
  Mo  Mo3  1  0.13887588  0.23966395  0.10258680  1
  Mo  Mo4  1  0.12041464  0.74591220  0.13585588  1
  Mo  Mo5  1  0.62041464  0.75408780  0.63585588  1
  Mo  Mo6  1  0.87958536  0.25408780  0.86414412  1
  Mo  Mo7  1  0.37958536  0.24591220  0.36414412  1
  Mo  Mo8  1  0.40836629  0.77579043  0.12951467  1
  Mo  Mo9  1  0.90836629  0.72420957  0.62951467  1
  Mo  Mo10  1  0.59163371  0.22420957  0.87048533  1
  Mo  Mo11  1  0.09163371  0.27579043  0.37048533  1
  Mo  Mo12  1  0.35007067  0.73093528  0.86036439  1
  Mo  Mo13  1  0.85007067  0.76906472  0.36036439  1
  Mo  Mo14  1  0.64992933  0.26906472  0.13963561  1
  Mo  Mo15  1  0.14992933  0.23093528  0.63963561  1
  H  H16  1  0.50706694  0.55889972  0.38694523  1
  H  H17  1  0.00706694  0.94110028  0.88694523  1
  H  H18  1  0.49293306  0.44110028  0.61305477  1
  H  H19  1  0.99293306  0.05889972  0.11305477  1
  H  H20  1  0.39354894  0.55553520  0.48371023  1
  H  H21  1  0.89354894  0.94446480  0.98371023  1
  H  H22  1  0.60645106  0.44446480  0.51628977  1
  H  H23  1  0.10645106  0.05553520  0.01628977  1
  H  H24  1  0.13565362  0.58352423  0.22277559  1
  H  H25  1  0.63565362  0.91647577  0.72277559  1
  H  H26  1  0.86434638  0.41647577  0.77722441  1
  H  H27  1  0.36434638  0.08352423  0.27722441  1
  H  H28  1  0.96743509  0.53229967  0.13235352  1
  H  H29  1  0.46743509  0.96770033  0.63235352  1
  H  H30  1  0.03256491  0.46770033  0.86764648  1
  H  H31  1  0.53256491  0.03229967  0.36764648  1
  H  H32  1  0.46708830  0.96099969  0.13629620  1
  H  H33  1  0.96708830  0.53900031  0.63629620  1
  H  H34  1  0.53291170  0.03900031  0.86370380  1
  H  H35  1  0.03291170  0.46099969  0.36370380  1
  H  H36  1  0.57086452  0.90901762  0.22146439  1
  H  H37  1  0.07086452  0.59098238  0.72146439  1
  H  H38  1  0.42913548  0.09098238  0.77853561  1
  H  H39  1  0.92913548  0.40901762  0.27853561  1
  H  H40  1  0.38405776  0.55255916  0.96913900  1
  H  H41  1  0.88405776  0.94744084  0.46913900  1
  H  H42  1  0.61594224  0.44744084  0.03086100  1
  H  H43  1  0.11594224  0.05255916  0.53086100  1
  H  H44  1  0.50267191  0.55376451  0.88200802  1
  H  H45  1  0.00267191  0.94623549  0.38200802  1
  H  H46  1  0.49732809  0.44623549  0.11799198  1
  H  H47  1  0.99732809  0.05376451  0.61799198  1
  H  H48  1  0.20973591  0.95093690  0.38663814  1
  H  H49  1  0.70973591  0.54906310  0.88663814  1
  H  H50  1  0.79026409  0.04906310  0.61336186  1
  H  H51  1  0.29026409  0.45093690  0.11336186  1
  H  H52  1  0.15330639  0.03784685  0.31345449  1
  H  H53  1  0.65330639  0.46215315  0.81345449  1
  H  H54  1  0.84669361  0.96215315  0.68654551  1
  H  H55  1  0.34669361  0.53784685  0.18654551  1
  H  H56  1  0.14715212  0.03464994  0.80178238  1
  H  H57  1  0.64715212  0.46535006  0.30178238  1
  H  H58  1  0.85284788  0.96535006  0.19821762  1
  H  H59  1  0.35284788  0.53464994  0.69821762  1
  H  H60  1  0.20804729  0.94599481  0.86010618  1
  H  H61  1  0.70804729  0.55400519  0.36010618  1
  H  H62  1  0.79195271  0.05400519  0.13989382  1
  H  H63  1  0.29195271  0.44599481  0.63989382  1
  H  H64  1  0.28297165  0.97806076  0.11345406  1
  H  H65  1  0.78297165  0.52193924  0.61345406  1
  H  H66  1  0.71702835  0.02193924  0.88654594  1
  H  H67  1  0.21702835  0.47806076  0.38654594  1
  H  H68  1  0.33827597  0.07220577  0.05598103  1
  H  H69  1  0.83827597  0.42779423  0.55598103  1
  H  H70  1  0.66172403  0.92779423  0.94401897  1
  H  H71  1  0.16172403  0.57220577  0.44401897  1
  H  H72  1  0.60500178  0.95442264  0.44024907  1
  H  H73  1  0.10500178  0.54557736  0.94024907  1
  H  H74  1  0.39499822  0.04557736  0.55975093  1
  H  H75  1  0.89499822  0.45442264  0.05975093  1
  H  H76  1  0.74253020  0.06664690  0.37490162  1
  H  H77  1  0.24253020  0.43335310  0.87490162  1
  H  H78  1  0.25746980  0.93335310  0.62509838  1
  H  H79  1  0.75746980  0.56664690  0.12509838  1
  O  O80  1  0.51426368  0.74418061  0.51144999  1
  O  O81  1  0.01426368  0.75581939  0.01144999  1
  O  O82  1  0.48573632  0.25581939  0.48855001  1
  O  O83  1  0.98573632  0.24418061  0.98855001  1
  O  O84  1  0.27516103  0.70348029  0.24570540  1
  O  O85  1  0.77516103  0.79651971  0.74570540  1
  O  O86  1  0.72483897  0.29651971  0.75429460  1
  O  O87  1  0.22483897  0.20348029  0.25429460  1
  O  O88  1  0.24689591  0.69479257  0.49257170  1
  O  O89  1  0.74689591  0.80520743  0.99257170  1
  O  O90  1  0.75310409  0.30520743  0.50742830  1
  O  O91  1  0.25310409  0.19479257  0.00742830  1
  O  O92  1  0.49846019  0.73897906  0.26180851  1
  O  O93  1  0.99846019  0.76102094  0.76180851  1
  O  O94  1  0.50153981  0.26102094  0.73819149  1
  O  O95  1  0.00153981  0.23897906  0.23819149  1
  O  O96  1  0.01316903  0.78025191  0.25442171  1
  O  O97  1  0.51316903  0.71974809  0.75442171  1
  O  O98  1  0.98683097  0.21974809  0.74557829  1
  O  O99  1  0.48683097  0.28025191  0.24557829  1
  O  O100  1  0.27047177  0.70183973  0.01250237  1
  O  O101  1  0.77047177  0.79816027  0.51250237  1
  O  O102  1  0.72952823  0.29816027  0.98749763  1
  O  O103  1  0.22952823  0.20183973  0.48749763  1
  O  O104  1  0.75014437  0.81810725  0.25773058  1
  O  O105  1  0.25014437  0.68189275  0.75773058  1
  O  O106  1  0.24985563  0.18189275  0.74226942  1
  O  O107  1  0.74985563  0.31810725  0.24226942  1
  O  O108  1  0.49467112  0.75344267  0.99507972  1
  O  O109  1  0.99467112  0.74655733  0.49507972  1
  O  O110  1  0.50532888  0.24655733  0.00492028  1
  O  O111  1  0.00532888  0.25344267  0.50492028  1
  O  O112  1  0.33388057  0.86155735  0.39324878  1
  O  O113  1  0.83388057  0.63844265  0.89324878  1
  O  O114  1  0.66611943  0.13844265  0.60675122  1
  O  O115  1  0.16611943  0.36155735  0.10675122  1
  O  O116  1  0.23363165  0.84983370  0.13023167  1
  O  O117  1  0.73363165  0.65016630  0.63023167  1
  O  O118  1  0.76636835  0.15016630  0.86976833  1
  O  O119  1  0.26636835  0.34983370  0.36976833  1
  O  O120  1  0.67043476  0.59182351  0.11776355  1
  O  O121  1  0.17043476  0.90817649  0.61776355  1
  O  O122  1  0.32956524  0.40817649  0.88223645  1
  O  O123  1  0.82956524  0.09182351  0.38223645  1
  O  O124  1  0.32357929  0.85262320  0.85000853  1
  O  O125  1  0.82357929  0.64737680  0.35000853  1
  O  O126  1  0.67642071  0.14737680  0.14999147  1
  O  O127  1  0.17642071  0.35262320  0.64999147  1
  O  O128  1  0.41980605  0.58235895  0.40564943  1
  O  O129  1  0.91980605  0.91764105  0.90564943  1
  O  O130  1  0.58019395  0.41764105  0.59435057  1
  O  O131  1  0.08019395  0.08235895  0.09435057  1
  O  O132  1  0.09311579  0.60970350  0.15206169  1
  O  O133  1  0.59311579  0.89029650  0.65206169  1
  O  O134  1  0.90688421  0.39029650  0.84793831  1
  O  O135  1  0.40688421  0.10970350  0.34793831  1
  O  O136  1  0.51948110  0.90237088  0.14827394  1
  O  O137  1  0.01948110  0.59762912  0.64827394  1
  O  O138  1  0.48051890  0.09762912  0.85172606  1
  O  O139  1  0.98051890  0.40237088  0.35172606  1
  O  O140  1  0.41312161  0.57582374  0.88986928  1
  O  O141  1  0.91312161  0.92417626  0.38986928  1
  O  O142  1  0.58687839  0.42417626  0.11013072  1
  O  O143  1  0.08687839  0.07582374  0.61013072  1
  O  O144  1  0.13984281  0.99715528  0.38246593  1
  O  O145  1  0.63984281  0.50284472  0.88246593  1
  O  O146  1  0.86015719  0.00284472  0.61753407  1
  O  O147  1  0.36015719  0.49715528  0.11753407  1
  O  O148  1  0.14378415  0.99561822  0.87409311  1
  O  O149  1  0.64378415  0.50438178  0.37409311  1
  O  O150  1  0.85621585  0.00438178  0.12590689  1
  O  O151  1  0.35621585  0.49561822  0.62590689  1
  O  O152  1  0.34958813  0.02636855  0.12046098  1
  O  O153  1  0.84958813  0.47363145  0.62046098  1
  O  O154  1  0.65041187  0.97363145  0.87953902  1
  O  O155  1  0.15041187  0.52636855  0.37953902  1
  O  O156  1  0.60584170  0.98932613  0.36497066  1
  O  O157  1  0.10584170  0.51067387  0.86497066  1
  O  O158  1  0.39415830  0.01067387  0.63502934  1
  O  O159  1  0.89415830  0.48932613  0.13502934  1
