# generated using pymatgen
data_Te4MoW3S4
_symmetry_space_group_name_H-M   'P 1'
_cell_length_a   3.35657113
_cell_length_b   3.35650606
_cell_length_c   38.37686255
_cell_angle_alpha   90.00067126
_cell_angle_beta   90.00000000
_cell_angle_gamma   120.00064115
_symmetry_Int_Tables_number   1
_chemical_formula_structural   Te4MoW3S4
_chemical_formula_sum   'Te4 Mo1 W3 S4'
_cell_volume   374.43857485
_cell_formula_units_Z   1
loop_
 _symmetry_equiv_pos_site_id
 _symmetry_equiv_pos_as_xyz
  1  'x, y, z'
loop_
 _atom_site_type_symbol
 _atom_site_label
 _atom_site_symmetry_multiplicity
 _atom_site_fract_x
 _atom_site_fract_y
 _atom_site_fract_z
 _atom_site_occupancy
  Te  Te0  1  0.66664381  0.33328662  0.04461332  1
  Te  Te1  1  0.66663417  0.33326735  0.42007120  1
  Te  Te2  1  0.66664153  0.33328207  0.14321782  1
  Te  Te3  1  0.66664731  0.33329362  0.51925644  1
  Mo  Mo4  1  0.33330785  0.66661571  0.09391233  1
  W  W5  1  0.33330948  0.66661896  0.46965846  1
  W  W6  1  0.66669132  0.33338265  0.28178483  1
  W  W7  1  0.66669319  0.33338638  0.65756052  1
  S  S8  1  0.33335619  0.66671338  0.32138506  1
  S  S9  1  0.33335823  0.66671747  0.69714781  1
  S  S10  1  0.33336218  0.66672535  0.24218806  1
  S  S11  1  0.33335473  0.66671046  0.61795215  1
