# generated using pymatgen
data_Te4MoW3S4
_symmetry_space_group_name_H-M   'P 1'
_cell_length_a   3.35655281
_cell_length_b   3.35656110
_cell_length_c   38.36234942
_cell_angle_alpha   89.99975851
_cell_angle_beta   90.00000000
_cell_angle_gamma   119.99991842
_symmetry_Int_Tables_number   1
_chemical_formula_structural   Te4MoW3S4
_chemical_formula_sum   'Te4 Mo1 W3 S4'
_cell_volume   374.30379197
_cell_formula_units_Z   1
loop_
 _symmetry_equiv_pos_site_id
 _symmetry_equiv_pos_as_xyz
  1  'x, y, z'
loop_
 _atom_site_type_symbol
 _atom_site_label
 _atom_site_symmetry_multiplicity
 _atom_site_fract_x
 _atom_site_fract_y
 _atom_site_fract_z
 _atom_site_occupancy
  Te  Te0  1  0.33335186  0.66670471  0.33108775  1
  Te  Te1  1  0.33335979  0.66672058  0.70714296  1
  Te  Te2  1  0.33335317  0.66670735  0.23251192  1
  Te  Te3  1  0.33335706  0.66671512  0.60793805  1
  Mo  Mo4  1  0.66668943  0.33337885  0.28179212  1
  W  W5  1  0.33330942  0.66661885  0.09391778  1
  W  W6  1  0.33331095  0.66662190  0.46965467  1
  W  W7  1  0.66669102  0.33338205  0.65754525  1
  S  S8  1  0.66664182  0.33328264  0.05431904  1
  S  S9  1  0.66664642  0.33329185  0.43005360  1
  S  S10  1  0.66664476  0.33328852  0.13353279  1
  S  S11  1  0.66664430  0.33328759  0.50925208  1
