# generated using pymatgen
data_Te4MoW3S4
_symmetry_space_group_name_H-M   'P 1'
_cell_length_a   3.35642461
_cell_length_b   3.35641289
_cell_length_c   41.28314283
_cell_angle_alpha   90.00356714
_cell_angle_beta   90.00000000
_cell_angle_gamma   120.00011561
_symmetry_Int_Tables_number   1
_chemical_formula_structural   Te4MoW3S4
_chemical_formula_sum   'Te4 Mo1 W3 S4'
_cell_volume   402.76818122
_cell_formula_units_Z   1
loop_
 _symmetry_equiv_pos_site_id
 _symmetry_equiv_pos_as_xyz
  1  'x, y, z'
loop_
 _atom_site_type_symbol
 _atom_site_label
 _atom_site_symmetry_multiplicity
 _atom_site_fract_x
 _atom_site_fract_y
 _atom_site_fract_z
 _atom_site_occupancy
  Te  Te0  1  0.33334497  0.66669095  0.33011401  1
  Te  Te1  1  0.66670146  0.33340193  0.04552026  1
  Te  Te2  1  0.66671217  0.33342334  0.13710636  1
  Te  Te3  1  0.33328457  0.66657014  0.23801366  1
  Mo  Mo4  1  0.33337414  0.66674828  0.09130313  1
  W  W5  1  0.33332510  0.66665019  0.46997298  1
  W  W6  1  0.66664416  0.33328832  0.28408244  1
  W  W7  1  0.66665559  0.33331118  0.65756341  1
  S  S8  1  0.33333507  0.66667114  0.69433144  1
  S  S9  1  0.66664211  0.33328322  0.43319735  1
  S  S10  1  0.66667421  0.33334742  0.50674435  1
  S  S11  1  0.33330644  0.66661389  0.62079862  1
