# generated using pymatgen
data_Te4MoW3S4
_symmetry_space_group_name_H-M   'P 1'
_cell_length_a   3.35849533
_cell_length_b   3.35847018
_cell_length_c   39.99822690
_cell_angle_alpha   90.00090223
_cell_angle_beta   90.00000000
_cell_angle_gamma   120.00024759
_symmetry_Int_Tables_number   1
_chemical_formula_structural   Te4MoW3S4
_chemical_formula_sum   'Te4 Mo1 W3 S4'
_cell_volume   390.71180527
_cell_formula_units_Z   1
loop_
 _symmetry_equiv_pos_site_id
 _symmetry_equiv_pos_as_xyz
  1  'x, y, z'
loop_
 _atom_site_type_symbol
 _atom_site_label
 _atom_site_symmetry_multiplicity
 _atom_site_fract_x
 _atom_site_fract_y
 _atom_site_fract_z
 _atom_site_occupancy
  Te  Te0  1  0.33332605  0.66665310  0.70696799  1
  Te  Te1  1  0.66666263  0.33332425  0.42074025  1
  Te  Te2  1  0.66667190  0.33334280  0.51529767  1
  Te  Te3  1  0.33331602  0.66663305  0.61193125  1
  Mo  Mo4  1  0.33333126  0.66666252  0.46801425  1
  W  W5  1  0.33329951  0.66659903  0.09387118  1
  W  W6  1  0.66672465  0.33344931  0.28156275  1
  W  W7  1  0.66665387  0.33330773  0.65949604  1
  S  S8  1  0.33339579  0.66679258  0.31947175  1
  S  S9  1  0.66661846  0.33323591  0.05596064  1
  S  S10  1  0.66662480  0.33324860  0.13177755  1
  S  S11  1  0.33337506  0.66675112  0.24365668  1
