# generated using pymatgen
data_HfMg30CuO32
_symmetry_space_group_name_H-M   'P 1'
_cell_length_a   8.59346056
_cell_length_b   8.61074827
_cell_length_c   8.61074827
_cell_angle_alpha   90.00000000
_cell_angle_beta   90.00000000
_cell_angle_gamma   90.00000000
_symmetry_Int_Tables_number   1
_chemical_formula_structural   HfMg30CuO32
_chemical_formula_sum   'Hf1 Mg30 Cu1 O32'
_cell_volume   637.16201093
_cell_formula_units_Z   1
loop_
 _symmetry_equiv_pos_site_id
 _symmetry_equiv_pos_as_xyz
  1  'x, y, z'
loop_
 _atom_site_type_symbol
 _atom_site_label
 _atom_site_symmetry_multiplicity
 _atom_site_fract_x
 _atom_site_fract_y
 _atom_site_fract_z
 _atom_site_occupancy
  Hf  Hf0  1  -0.00000000  0.50000000  0.50000000  1
  Mg  Mg1  1  -0.00000000  0.00000000  0.50000000  1
  Mg  Mg2  1  -0.00000000  0.50000000  -0.00000000  1
  Mg  Mg3  1  0.50000000  0.00000000  -0.00000000  1
  Mg  Mg4  1  0.50000000  0.00000000  0.50000000  1
  Mg  Mg5  1  0.50000000  0.50000000  -0.00000000  1
  Mg  Mg6  1  0.50000000  0.50000000  0.50000000  1
  Mg  Mg7  1  -0.00000000  0.23965037  0.23965037  1
  Mg  Mg8  1  -0.00000000  0.23965037  0.76034963  1
  Mg  Mg9  1  -0.00000000  0.76034963  0.23965037  1
  Mg  Mg10  1  -0.00000000  0.76034963  0.76034963  1
  Mg  Mg11  1  0.50000000  0.24768404  0.24768404  1
  Mg  Mg12  1  0.50000000  0.24768404  0.75231596  1
  Mg  Mg13  1  0.50000000  0.75231596  0.24768404  1
  Mg  Mg14  1  0.50000000  0.75231596  0.75231596  1
  Mg  Mg15  1  0.24856797  0.00000000  0.24607290  1
  Mg  Mg16  1  0.24856797  0.00000000  0.75392710  1
  Mg  Mg17  1  0.25604710  0.50000000  0.24220185  1
  Mg  Mg18  1  0.25604710  0.50000000  0.75779815  1
  Mg  Mg19  1  0.75143203  0.00000000  0.24607290  1
  Mg  Mg20  1  0.75143203  0.00000000  0.75392710  1
  Mg  Mg21  1  0.74395290  0.50000000  0.24220185  1
  Mg  Mg22  1  0.74395290  0.50000000  0.75779815  1
  Mg  Mg23  1  0.24856797  0.24607290  -0.00000000  1
  Mg  Mg24  1  0.25604710  0.24220185  0.50000000  1
  Mg  Mg25  1  0.24856797  0.75392710  -0.00000000  1
  Mg  Mg26  1  0.25604710  0.75779815  0.50000000  1
  Mg  Mg27  1  0.75143203  0.24607290  0.00000000  1
  Mg  Mg28  1  0.74395290  0.24220185  0.50000000  1
  Mg  Mg29  1  0.75143203  0.75392710  0.00000000  1
  Mg  Mg30  1  0.74395290  0.75779815  0.50000000  1
  Cu  Cu31  1  -0.00000000  0.00000000  -0.00000000  1
  O  O32  1  0.26358671  0.00000000  -0.00000000  1
  O  O33  1  0.25148400  0.00000000  0.50000000  1
  O  O34  1  0.25148400  0.50000000  0.00000000  1
  O  O35  1  0.24532186  0.50000000  0.50000000  1
  O  O36  1  0.73641329  0.00000000  0.00000000  1
  O  O37  1  0.74851600  0.00000000  0.50000000  1
  O  O38  1  0.74851600  0.50000000  -0.00000000  1
  O  O39  1  0.75467814  0.50000000  0.50000000  1
  O  O40  1  0.24872240  0.25126642  0.25126642  1
  O  O41  1  0.24872240  0.25126642  0.74873358  1
  O  O42  1  0.24872240  0.74873358  0.25126642  1
  O  O43  1  0.24872240  0.74873358  0.74873358  1
  O  O44  1  0.75127760  0.25126642  0.25126642  1
  O  O45  1  0.75127760  0.25126642  0.74873358  1
  O  O46  1  0.75127760  0.74873358  0.25126642  1
  O  O47  1  0.75127760  0.74873358  0.74873358  1
  O  O48  1  -0.00000000  0.00000000  0.26705636  1
  O  O49  1  -0.00000000  0.00000000  0.73294364  1
  O  O50  1  -0.00000000  0.50000000  0.25706930  1
  O  O51  1  -0.00000000  0.50000000  0.74293070  1
  O  O52  1  0.50000000  0.00000000  0.25313495  1
  O  O53  1  0.50000000  0.00000000  0.74686505  1
  O  O54  1  0.50000000  0.50000000  0.25239291  1
  O  O55  1  0.50000000  0.50000000  0.74760709  1
  O  O56  1  -0.00000000  0.26705636  -0.00000000  1
  O  O57  1  -0.00000000  0.25706930  0.50000000  1
  O  O58  1  -0.00000000  0.73294364  0.00000000  1
  O  O59  1  -0.00000000  0.74293070  0.50000000  1
  O  O60  1  0.50000000  0.25313495  -0.00000000  1
  O  O61  1  0.50000000  0.25239291  0.50000000  1
  O  O62  1  0.50000000  0.74686505  0.00000000  1
  O  O63  1  0.50000000  0.74760709  0.50000000  1
