# generated using pymatgen
data_BaMg30VO32
_symmetry_space_group_name_H-M   'P 1'
_cell_length_a   8.65220138
_cell_length_b   8.65220138
_cell_length_c   8.71217998
_cell_angle_alpha   90.00000000
_cell_angle_beta   90.00000000
_cell_angle_gamma   90.00000000
_symmetry_Int_Tables_number   1
_chemical_formula_structural   BaMg30VO32
_chemical_formula_sum   'Ba1 Mg30 V1 O32'
_cell_volume   652.19892234
_cell_formula_units_Z   1
loop_
 _symmetry_equiv_pos_site_id
 _symmetry_equiv_pos_as_xyz
  1  'x, y, z'
loop_
 _atom_site_type_symbol
 _atom_site_label
 _atom_site_symmetry_multiplicity
 _atom_site_fract_x
 _atom_site_fract_y
 _atom_site_fract_z
 _atom_site_occupancy
  Ba  Ba0  1  0.00000000  0.00000000  0.50000000  1
  Mg  Mg1  1  0.00000000  0.50000000  0.00000000  1
  Mg  Mg2  1  0.00000000  0.50000000  0.50000000  1
  Mg  Mg3  1  0.50000000  0.00000000  0.00000000  1
  Mg  Mg4  1  0.50000000  0.00000000  0.50000000  1
  Mg  Mg5  1  0.50000000  0.50000000  0.00000000  1
  Mg  Mg6  1  0.50000000  0.50000000  0.50000000  1
  Mg  Mg7  1  0.00000000  0.25754169  0.24317530  1
  Mg  Mg8  1  0.00000000  0.25754169  0.75682470  1
  Mg  Mg9  1  0.00000000  0.74245831  0.24317530  1
  Mg  Mg10  1  0.00000000  0.74245831  0.75682470  1
  Mg  Mg11  1  0.50000000  0.25086056  0.24888984  1
  Mg  Mg12  1  0.50000000  0.25086056  0.75111016  1
  Mg  Mg13  1  0.50000000  0.74913944  0.24888984  1
  Mg  Mg14  1  0.50000000  0.74913944  0.75111016  1
  Mg  Mg15  1  0.25754169  0.00000000  0.24317530  1
  Mg  Mg16  1  0.25754169  0.00000000  0.75682470  1
  Mg  Mg17  1  0.25086056  0.50000000  0.24888984  1
  Mg  Mg18  1  0.25086056  0.50000000  0.75111016  1
  Mg  Mg19  1  0.74245831  0.00000000  0.24317530  1
  Mg  Mg20  1  0.74245831  0.00000000  0.75682470  1
  Mg  Mg21  1  0.74913944  0.50000000  0.24888984  1
  Mg  Mg22  1  0.74913944  0.50000000  0.75111016  1
  Mg  Mg23  1  0.25090329  0.25090329  0.00000000  1
  Mg  Mg24  1  0.25750858  0.25750858  0.50000000  1
  Mg  Mg25  1  0.25090329  0.74909671  0.00000000  1
  Mg  Mg26  1  0.25750858  0.74249142  0.50000000  1
  Mg  Mg27  1  0.74909671  0.25090329  0.00000000  1
  Mg  Mg28  1  0.74249142  0.25750858  0.50000000  1
  Mg  Mg29  1  0.74909671  0.74909671  0.00000000  1
  Mg  Mg30  1  0.74249142  0.74249142  0.50000000  1
  V  V31  1  0.00000000  0.00000000  0.00000000  1
  O  O32  1  0.25765236  0.00000000  0.00000000  1
  O  O33  1  0.27948428  0.00000000  0.50000000  1
  O  O34  1  0.25168741  0.50000000  0.00000000  1
  O  O35  1  0.25593359  0.50000000  0.50000000  1
  O  O36  1  0.74234764  0.00000000  0.00000000  1
  O  O37  1  0.72051572  0.00000000  0.50000000  1
  O  O38  1  0.74831259  0.50000000  0.00000000  1
  O  O39  1  0.74406641  0.50000000  0.50000000  1
  O  O40  1  0.24957888  0.24957888  0.24988061  1
  O  O41  1  0.24957888  0.24957888  0.75011939  1
  O  O42  1  0.24957888  0.75042112  0.24988061  1
  O  O43  1  0.24957888  0.75042112  0.75011939  1
  O  O44  1  0.75042112  0.24957888  0.24988061  1
  O  O45  1  0.75042112  0.24957888  0.75011939  1
  O  O46  1  0.75042112  0.75042112  0.24988061  1
  O  O47  1  0.75042112  0.75042112  0.75011939  1
  O  O48  1  0.00000000  0.00000000  0.22828421  1
  O  O49  1  0.00000000  0.00000000  0.77171579  1
  O  O50  1  0.00000000  0.50000000  0.24368008  1
  O  O51  1  0.00000000  0.50000000  0.75631992  1
  O  O52  1  0.50000000  0.00000000  0.24368008  1
  O  O53  1  0.50000000  0.00000000  0.75631992  1
  O  O54  1  0.50000000  0.50000000  0.24801891  1
  O  O55  1  0.50000000  0.50000000  0.75198109  1
  O  O56  1  0.00000000  0.25765236  0.00000000  1
  O  O57  1  0.00000000  0.27948428  0.50000000  1
  O  O58  1  0.00000000  0.74234764  0.00000000  1
  O  O59  1  0.00000000  0.72051572  0.50000000  1
  O  O60  1  0.50000000  0.25168741  0.00000000  1
  O  O61  1  0.50000000  0.25593359  0.50000000  1
  O  O62  1  0.50000000  0.74831259  0.00000000  1
  O  O63  1  0.50000000  0.74406641  0.50000000  1
