# generated using pymatgen
data_NiH44C12N8(ClO5)2
_symmetry_space_group_name_H-M   'P 1'
_cell_length_a   9.39967664
_cell_length_b   9.44952527
_cell_length_c   9.50482478
_cell_angle_alpha   119.55337474
_cell_angle_beta   93.94874181
_cell_angle_gamma   101.19505605
_symmetry_Int_Tables_number   1
_chemical_formula_structural   NiH44C12N8(ClO5)2
_chemical_formula_sum   'Ni1 H44 C12 N8 Cl2 O10'
_cell_volume   706.89574450
_cell_formula_units_Z   1
loop_
 _symmetry_equiv_pos_site_id
 _symmetry_equiv_pos_as_xyz
  1  'x, y, z'
loop_
 _atom_site_type_symbol
 _atom_site_label
 _atom_site_symmetry_multiplicity
 _atom_site_fract_x
 _atom_site_fract_y
 _atom_site_fract_z
 _atom_site_occupancy
  Ni  Ni0  1  0.00000000  0.00000000  0.00000000  1
  H  H1  1  0.86351149  0.89595621  0.18696517  1
  H  H2  1  0.13648851  0.10404379  0.81303483  1
  H  H3  1  0.80657845  0.05417795  0.22019018  1
  H  H4  1  0.19342155  0.94582205  0.77980982  1
  H  H5  1  0.87634347  0.73737108  0.67925899  1
  H  H6  1  0.12365653  0.26262892  0.32074101  1
  H  H7  1  0.80742110  0.68680553  0.80330382  1
  H  H8  1  0.19257890  0.31319447  0.19669618  1
  H  H9  1  0.79691538  0.08812591  0.85472965  1
  H  H10  1  0.20308462  0.91187409  0.14527035  1
  H  H11  1  0.88110604  0.24922011  0.02919756  1
  H  H12  1  0.11889396  0.75077989  0.97080244  1
  H  H13  1  0.54816598  0.98838809  0.67248279  1
  H  H14  1  0.45183402  0.01161191  0.32751721  1
  H  H15  1  0.66754256  0.09480471  0.62895191  1
  H  H16  1  0.33245744  0.90519529  0.37104809  1
  H  H17  1  0.58843508  0.49990748  0.77731864  1
  H  H18  1  0.41156492  0.50009252  0.22268136  1
  H  H19  1  0.70440821  0.41010521  0.68056813  1
  H  H20  1  0.29559179  0.58989479  0.31943187  1
  H  H21  1  0.98529814  0.44761562  0.62544679  1
  H  H22  1  0.01470186  0.55238438  0.37455321  1
  H  H23  1  0.14373482  0.59262967  0.63009175  1
  H  H24  1  0.85626518  0.40737033  0.36990825  1
  H  H25  1  0.36205004  0.50667716  0.56169599  1
  H  H26  1  0.63794996  0.49332284  0.43830401  1
  H  H27  1  0.36983511  0.29506790  0.49925515  1
  H  H28  1  0.63016489  0.70493210  0.50074485  1
  H  H29  1  0.36145751  0.64005276  0.99080733  1
  H  H30  1  0.63854249  0.35994724  0.00919267  1
  H  H31  1  0.36143553  0.70296960  0.84042824  1
  H  H32  1  0.63856447  0.29703040  0.15957176  1
  H  H33  1  0.99206264  0.16913263  0.54552069  1
  H  H34  1  0.00793736  0.83086737  0.45447931  1
  H  H35  1  0.15712510  0.10181582  0.49213830  1
  H  H36  1  0.84287490  0.89818418  0.50786170  1
  H  H37  1  0.36885469  0.35808204  0.90991709  1
  H  H38  1  0.63114531  0.64191796  0.09008291  1
  H  H39  1  0.37182464  0.20989735  0.69948224  1
  H  H40  1  0.62817536  0.79010265  0.30051776  1
  H  H41  1  0.15097302  0.44837046  0.98211283  1
  H  H42  1  0.84902698  0.55162954  0.01788717  1
  H  H43  1  0.98897941  0.36650579  0.82491818  1
  H  H44  1  0.01102059  0.63349421  0.17508182  1
  C  C45  1  0.10650752  0.48896177  0.65205356  1
  C  C46  1  0.89349248  0.51103823  0.34794644  1
  C  C47  1  0.32619966  0.40068930  0.58084517  1
  C  C48  1  0.67380034  0.59931070  0.41915483  1
  C  C49  1  0.32318875  0.59865133  0.86140760  1
  C  C50  1  0.67681125  0.40134867  0.13859240  1
  C  C51  1  0.11353712  0.20761476  0.57291108  1
  C  C52  1  0.88646288  0.79238524  0.42708892  1
  C  C53  1  0.32937846  0.31675842  0.78082262  1
  C  C54  1  0.67062154  0.68324158  0.21917738  1
  C  C55  1  0.11022694  0.40700332  0.85337521  1
  C  C56  1  0.88977306  0.59299668  0.14662479  1
  N  N57  1  0.16300821  0.34528454  0.54055417  1
  N  N58  1  0.83699179  0.65471546  0.45944583  1
  N  N59  1  0.38422128  0.45754374  0.75406695  1
  N  N60  1  0.61577872  0.54245626  0.24593305  1
  N  N61  1  0.15976109  0.54899425  0.82687836  1
  N  N62  1  0.84023891  0.45100575  0.17312164  1
  N  N63  1  0.16621680  0.26116576  0.74595429  1
  N  N64  1  0.83378320  0.73883424  0.25404571  1
  Cl  Cl65  1  0.68890484  0.17555608  0.44141062  1
  Cl  Cl66  1  0.31109516  0.82444392  0.55858938  1
  O  O67  1  0.84730335  0.96543554  0.13854996  1
  O  O68  1  0.15269665  0.03456446  0.86145004  1
  O  O69  1  0.88364991  0.77284032  0.79782192  1
  O  O70  1  0.11635009  0.22715968  0.20217808  1
  O  O71  1  0.88906074  0.13805272  0.93940127  1
  O  O72  1  0.11093926  0.86194728  0.06059873  1
  O  O73  1  0.65268090  0.05365266  0.70579214  1
  O  O74  1  0.34731910  0.94634734  0.29420786  1
  O  O75  1  0.69733564  0.51086243  0.78277659  1
  O  O76  1  0.30266436  0.48913757  0.21722341  1
