# generated using pymatgen
data_Ba3Bi
_symmetry_space_group_name_H-M   'P 1'
_cell_length_a   8.05753365
_cell_length_b   8.05753310
_cell_length_c   6.34490498
_cell_angle_alpha   90.00000000
_cell_angle_beta   90.00000000
_cell_angle_gamma   120.00000228
_symmetry_Int_Tables_number   1
_chemical_formula_structural   Ba3Bi
_chemical_formula_sum   'Ba6 Bi2'
_cell_volume   356.74670510
_cell_formula_units_Z   2
loop_
 _symmetry_equiv_pos_site_id
 _symmetry_equiv_pos_as_xyz
  1  'x, y, z'
loop_
 _atom_site_type_symbol
 _atom_site_label
 _atom_site_symmetry_multiplicity
 _atom_site_fract_x
 _atom_site_fract_y
 _atom_site_fract_z
 _atom_site_occupancy
  Ba  Ba0  1  0.17729110  0.35458320  0.25000000  1
  Ba  Ba1  1  0.64541680  0.82270890  0.25000000  1
  Ba  Ba2  1  0.17729210  0.82270890  0.25000000  1
  Ba  Ba3  1  0.82270790  0.64541780  0.74999900  1
  Ba  Ba4  1  0.35458220  0.17729110  0.74999900  1
  Ba  Ba5  1  0.82270890  0.17729110  0.74999900  1
  Bi  Bi6  1  0.33333400  0.66666700  0.74999900  1
  Bi  Bi7  1  0.66666700  0.33333400  0.25000000  1
