# generated using pymatgen
data_Rb2PrO3
_symmetry_space_group_name_H-M   'P 1'
_cell_length_a   6.86066209
_cell_length_b   6.86066209
_cell_length_c   6.58113690
_cell_angle_alpha   90.00000000
_cell_angle_beta   90.00000000
_cell_angle_gamma   113.35200837
_symmetry_Int_Tables_number   1
_chemical_formula_structural   Rb2PrO3
_chemical_formula_sum   'Rb4 Pr2 O6'
_cell_volume   284.39162529
_cell_formula_units_Z   2
loop_
 _symmetry_equiv_pos_site_id
 _symmetry_equiv_pos_as_xyz
  1  'x, y, z'
loop_
 _atom_site_type_symbol
 _atom_site_label
 _atom_site_symmetry_multiplicity
 _atom_site_fract_x
 _atom_site_fract_y
 _atom_site_fract_z
 _atom_site_occupancy
  Rb  Rb0  1  0.47712310  0.81279314  0.26658958  1
  Rb  Rb1  1  0.18720686  0.52287690  0.76658958  1
  Rb  Rb2  1  0.52287690  0.18720686  0.76658958  1
  Rb  Rb3  1  0.81279314  0.47712310  0.26658958  1
  Pr  Pr4  1  0.10200806  0.10200806  0.23757305  1
  Pr  Pr5  1  0.89799194  0.89799194  0.73757305  1
  O  O6  1  0.11406883  0.85231348  0.99903879  1
  O  O7  1  0.14768652  0.88593117  0.49903879  1
  O  O8  1  0.60852388  0.60852388  0.67117021  1
  O  O9  1  0.39147612  0.39147612  0.17117021  1
  O  O10  1  0.85231348  0.11406883  0.99903879  1
  O  O11  1  0.88593117  0.14768652  0.49903879  1
