# generated using pymatgen
data_NaMg30BO31
_symmetry_space_group_name_H-M   'P 1'
_cell_length_a   8.57466746
_cell_length_b   8.64456846
_cell_length_c   8.38246071
_cell_angle_alpha   90.00000000
_cell_angle_beta   90.00000000
_cell_angle_gamma   90.00000000
_symmetry_Int_Tables_number   1
_chemical_formula_structural   NaMg30BO31
_chemical_formula_sum   'Na1 Mg30 B1 O31'
_cell_volume   621.34403140
_cell_formula_units_Z   1
loop_
 _symmetry_equiv_pos_site_id
 _symmetry_equiv_pos_as_xyz
  1  'x, y, z'
loop_
 _atom_site_type_symbol
 _atom_site_label
 _atom_site_symmetry_multiplicity
 _atom_site_fract_x
 _atom_site_fract_y
 _atom_site_fract_z
 _atom_site_occupancy
  Na  Na0  1  0.99719114  -0.00000000  0.00000000  1
  Mg  Mg1  1  0.99825851  0.50000000  0.00000000  1
  Mg  Mg2  1  0.99637373  0.50000000  0.50000000  1
  Mg  Mg3  1  0.49844887  -0.00000000  0.00000000  1
  Mg  Mg4  1  0.49870824  -0.00000000  0.50000000  1
  Mg  Mg5  1  0.50023345  0.50000000  0.00000000  1
  Mg  Mg6  1  0.50128495  0.50000000  0.50000000  1
  Mg  Mg7  1  0.99972367  0.25655654  0.25625742  1
  Mg  Mg8  1  0.99972367  0.25655654  0.74374258  1
  Mg  Mg9  1  0.99972367  0.74344346  0.25625742  1
  Mg  Mg10  1  0.99972367  0.74344346  0.74374258  1
  Mg  Mg11  1  0.49869486  0.25016585  0.25016924  1
  Mg  Mg12  1  0.49869486  0.25016585  0.74983076  1
  Mg  Mg13  1  0.49869486  0.74983415  0.25016924  1
  Mg  Mg14  1  0.49869486  0.74983415  0.74983076  1
  Mg  Mg15  1  0.25113474  -0.00000000  0.24873918  1
  Mg  Mg16  1  0.25113474  -0.00000000  0.75126082  1
  Mg  Mg17  1  0.24972432  0.50000000  0.24807890  1
  Mg  Mg18  1  0.24972432  0.50000000  0.75192110  1
  Mg  Mg19  1  0.74318297  -0.00000000  0.25919255  1
  Mg  Mg20  1  0.74318297  -0.00000000  0.74080745  1
  Mg  Mg21  1  0.74905138  0.50000000  0.25030559  1
  Mg  Mg22  1  0.74905138  0.50000000  0.74969441  1
  Mg  Mg23  1  0.24684464  0.24876280  0.00000000  1
  Mg  Mg24  1  0.24594735  0.26071087  0.50000000  1
  Mg  Mg25  1  0.24684464  0.75123720  0.00000000  1
  Mg  Mg26  1  0.24594735  0.73928913  0.50000000  1
  Mg  Mg27  1  0.75154109  0.24691960  0.00000000  1
  Mg  Mg28  1  0.75486393  0.24251355  0.50000000  1
  Mg  Mg29  1  0.75154109  0.75308040  0.00000000  1
  Mg  Mg30  1  0.75486393  0.75748645  0.50000000  1
  B  B31  1  0.07041568  -0.00000000  0.50000000  1
  O  O32  1  0.25512834  -0.00000000  0.00000000  1
  O  O33  1  0.25129825  0.50000000  0.00000000  1
  O  O34  1  0.25338831  0.50000000  0.50000000  1
  O  O35  1  0.73978626  -0.00000000  0.00000000  1
  O  O36  1  0.72721267  -0.00000000  0.50000000  1
  O  O37  1  0.74736663  0.50000000  0.00000000  1
  O  O38  1  0.74551917  0.50000000  0.50000000  1
  O  O39  1  0.24733387  0.24752285  0.25063823  1
  O  O40  1  0.24733387  0.24752285  0.74936177  1
  O  O41  1  0.24733387  0.75247715  0.25063823  1
  O  O42  1  0.24733387  0.75247715  0.74936177  1
  O  O43  1  0.75177660  0.24583523  0.25059093  1
  O  O44  1  0.75177660  0.24583523  0.74940907  1
  O  O45  1  0.75177660  0.75416477  0.25059093  1
  O  O46  1  0.75177660  0.75416477  0.74940907  1
  O  O47  1  0.01257893  -0.00000000  0.33657722  1
  O  O48  1  0.01257893  -0.00000000  0.66342278  1
  O  O49  1  0.99934052  0.50000000  0.24822623  1
  O  O50  1  0.99934052  0.50000000  0.75177377  1
  O  O51  1  0.49240849  -0.00000000  0.25242606  1
  O  O52  1  0.49240849  -0.00000000  0.74757394  1
  O  O53  1  0.49946690  0.50000000  0.24998257  1
  O  O54  1  0.49946690  0.50000000  0.75001743  1
  O  O55  1  0.99950757  0.25684923  0.00000000  1
  O  O56  1  0.00170788  0.26973296  0.50000000  1
  O  O57  1  0.99950757  0.74315077  0.00000000  1
  O  O58  1  0.00170788  0.73026704  0.50000000  1
  O  O59  1  0.49883721  0.25077913  0.00000000  1
  O  O60  1  0.49349699  0.24937156  0.50000000  1
  O  O61  1  0.49883721  0.74922087  0.00000000  1
  O  O62  1  0.49349699  0.75062844  0.50000000  1
