# generated using pymatgen
data_Mg30NbAlO32
_symmetry_space_group_name_H-M   'P 1'
_cell_length_a   8.58379870
_cell_length_b   8.58063736
_cell_length_c   8.58063736
_cell_angle_alpha   90.00000000
_cell_angle_beta   90.00000000
_cell_angle_gamma   90.00000000
_symmetry_Int_Tables_number   1
_chemical_formula_structural   Mg30NbAlO32
_chemical_formula_sum   'Mg30 Nb1 Al1 O32'
_cell_volume   632.00224395
_cell_formula_units_Z   1
loop_
 _symmetry_equiv_pos_site_id
 _symmetry_equiv_pos_as_xyz
  1  'x, y, z'
loop_
 _atom_site_type_symbol
 _atom_site_label
 _atom_site_symmetry_multiplicity
 _atom_site_fract_x
 _atom_site_fract_y
 _atom_site_fract_z
 _atom_site_occupancy
  Mg  Mg0  1  0.00000000  0.00000000  0.50000000  1
  Mg  Mg1  1  0.00000000  0.50000000  -0.00000000  1
  Mg  Mg2  1  0.50000000  0.00000000  -0.00000000  1
  Mg  Mg3  1  0.50000000  0.00000000  0.50000000  1
  Mg  Mg4  1  0.50000000  0.50000000  -0.00000000  1
  Mg  Mg5  1  0.50000000  0.50000000  0.50000000  1
  Mg  Mg6  1  0.00000000  0.24935101  0.24935101  1
  Mg  Mg7  1  0.00000000  0.24935101  0.75064899  1
  Mg  Mg8  1  0.00000000  0.75064899  0.24935101  1
  Mg  Mg9  1  0.00000000  0.75064899  0.75064899  1
  Mg  Mg10  1  0.50000000  0.25049540  0.25049540  1
  Mg  Mg11  1  0.50000000  0.25049540  0.74950460  1
  Mg  Mg12  1  0.50000000  0.74950460  0.25049540  1
  Mg  Mg13  1  0.50000000  0.74950460  0.74950460  1
  Mg  Mg14  1  0.25100633  0.00000000  0.25086476  1
  Mg  Mg15  1  0.25100633  0.00000000  0.74913524  1
  Mg  Mg16  1  0.25231929  0.50000000  0.24886061  1
  Mg  Mg17  1  0.25231929  0.50000000  0.75113939  1
  Mg  Mg18  1  0.74899367  0.00000000  0.25086476  1
  Mg  Mg19  1  0.74899367  0.00000000  0.74913524  1
  Mg  Mg20  1  0.74768071  0.50000000  0.24886061  1
  Mg  Mg21  1  0.74768071  0.50000000  0.75113939  1
  Mg  Mg22  1  0.25100633  0.25086476  0.00000000  1
  Mg  Mg23  1  0.25231929  0.24886061  0.50000000  1
  Mg  Mg24  1  0.25100633  0.74913524  -0.00000000  1
  Mg  Mg25  1  0.25231929  0.75113939  0.50000000  1
  Mg  Mg26  1  0.74899367  0.25086476  0.00000000  1
  Mg  Mg27  1  0.74768071  0.24886061  0.50000000  1
  Mg  Mg28  1  0.74899367  0.74913524  -0.00000000  1
  Mg  Mg29  1  0.74768071  0.75113939  0.50000000  1
  Nb  Nb30  1  0.00000000  0.50000000  0.50000000  1
  Al  Al31  1  0.00000000  0.00000000  -0.00000000  1
  O  O32  1  0.23520607  0.00000000  0.00000000  1
  O  O33  1  0.24953112  0.00000000  0.50000000  1
  O  O34  1  0.24953112  0.50000000  0.00000000  1
  O  O35  1  0.26215168  0.50000000  0.50000000  1
  O  O36  1  0.76479393  0.00000000  -0.00000000  1
  O  O37  1  0.75046888  0.00000000  0.50000000  1
  O  O38  1  0.75046888  0.50000000  -0.00000000  1
  O  O39  1  0.73784832  0.50000000  0.50000000  1
  O  O40  1  0.24946832  0.24982865  0.24982865  1
  O  O41  1  0.24946832  0.24982865  0.75017135  1
  O  O42  1  0.24946832  0.75017135  0.24982865  1
  O  O43  1  0.24946832  0.75017135  0.75017135  1
  O  O44  1  0.75053168  0.24982865  0.24982865  1
  O  O45  1  0.75053168  0.24982865  0.75017135  1
  O  O46  1  0.75053168  0.75017135  0.24982865  1
  O  O47  1  0.75053168  0.75017135  0.75017135  1
  O  O48  1  0.00000000  0.00000000  0.23331867  1
  O  O49  1  0.00000000  0.00000000  0.76668133  1
  O  O50  1  0.00000000  0.50000000  0.23584087  1
  O  O51  1  0.00000000  0.50000000  0.76415913  1
  O  O52  1  0.50000000  0.00000000  0.24764336  1
  O  O53  1  0.50000000  0.00000000  0.75235664  1
  O  O54  1  0.50000000  0.50000000  0.24798194  1
  O  O55  1  0.50000000  0.50000000  0.75201806  1
  O  O56  1  0.00000000  0.23331867  0.00000000  1
  O  O57  1  0.00000000  0.23584087  0.50000000  1
  O  O58  1  0.00000000  0.76668133  -0.00000000  1
  O  O59  1  0.00000000  0.76415913  0.50000000  1
  O  O60  1  0.50000000  0.24764336  0.00000000  1
  O  O61  1  0.50000000  0.24798194  0.50000000  1
  O  O62  1  0.50000000  0.75235664  -0.00000000  1
  O  O63  1  0.50000000  0.75201806  0.50000000  1
