# generated using pymatgen
data_Mg30NbAlO32
_symmetry_space_group_name_H-M   'P 1'
_cell_length_a   8.57444561
_cell_length_b   8.57444561
_cell_length_c   8.55518098
_cell_angle_alpha   90.00000000
_cell_angle_beta   90.00000000
_cell_angle_gamma   90.00000000
_symmetry_Int_Tables_number   1
_chemical_formula_structural   Mg30NbAlO32
_chemical_formula_sum   'Mg30 Nb1 Al1 O32'
_cell_volume   628.98646623
_cell_formula_units_Z   1
loop_
 _symmetry_equiv_pos_site_id
 _symmetry_equiv_pos_as_xyz
  1  'x, y, z'
loop_
 _atom_site_type_symbol
 _atom_site_label
 _atom_site_symmetry_multiplicity
 _atom_site_fract_x
 _atom_site_fract_y
 _atom_site_fract_z
 _atom_site_occupancy
  Mg  Mg0  1  -0.00000000  0.50000000  -0.00000000  1
  Mg  Mg1  1  -0.00000000  0.50000000  0.50000000  1
  Mg  Mg2  1  0.50000000  0.00000000  -0.00000000  1
  Mg  Mg3  1  0.50000000  0.00000000  0.50000000  1
  Mg  Mg4  1  0.50000000  0.50000000  -0.00000000  1
  Mg  Mg5  1  0.50000000  0.50000000  0.50000000  1
  Mg  Mg6  1  -0.00000000  0.25274435  0.24939343  1
  Mg  Mg7  1  -0.00000000  0.25274435  0.75060657  1
  Mg  Mg8  1  -0.00000000  0.74725565  0.24939343  1
  Mg  Mg9  1  -0.00000000  0.74725565  0.75060657  1
  Mg  Mg10  1  0.50000000  0.25062876  0.25035292  1
  Mg  Mg11  1  0.50000000  0.25062876  0.74964708  1
  Mg  Mg12  1  0.50000000  0.74937124  0.25035292  1
  Mg  Mg13  1  0.50000000  0.74937124  0.74964708  1
  Mg  Mg14  1  0.25274435  0.00000000  0.24939343  1
  Mg  Mg15  1  0.25274435  0.00000000  0.75060657  1
  Mg  Mg16  1  0.25062876  0.50000000  0.25035292  1
  Mg  Mg17  1  0.25062876  0.50000000  0.74964708  1
  Mg  Mg18  1  0.74725565  0.00000000  0.24939343  1
  Mg  Mg19  1  0.74725565  0.00000000  0.75060657  1
  Mg  Mg20  1  0.74937124  0.50000000  0.25035292  1
  Mg  Mg21  1  0.74937124  0.50000000  0.74964708  1
  Mg  Mg22  1  0.25092582  0.25092582  -0.00000000  1
  Mg  Mg23  1  0.25236563  0.25236563  0.50000000  1
  Mg  Mg24  1  0.25092582  0.74907418  -0.00000000  1
  Mg  Mg25  1  0.25236563  0.74763437  0.50000000  1
  Mg  Mg26  1  0.74907418  0.25092582  -0.00000000  1
  Mg  Mg27  1  0.74763437  0.25236563  0.50000000  1
  Mg  Mg28  1  0.74907418  0.74907418  -0.00000000  1
  Mg  Mg29  1  0.74763437  0.74763437  0.50000000  1
  Nb  Nb30  1  -0.00000000  0.00000000  0.50000000  1
  Al  Al31  1  -0.00000000  0.00000000  -0.00000000  1
  O  O32  1  0.23688024  0.00000000  -0.00000000  1
  O  O33  1  0.26160570  0.00000000  0.50000000  1
  O  O34  1  0.24817707  0.50000000  -0.00000000  1
  O  O35  1  0.25100700  0.50000000  0.50000000  1
  O  O36  1  0.76311976  0.00000000  -0.00000000  1
  O  O37  1  0.73839430  0.00000000  0.50000000  1
  O  O38  1  0.75182293  0.50000000  -0.00000000  1
  O  O39  1  0.74899300  0.50000000  0.50000000  1
  O  O40  1  0.24958218  0.24958218  0.24976087  1
  O  O41  1  0.24958218  0.24958218  0.75023913  1
  O  O42  1  0.24958218  0.75041782  0.24976087  1
  O  O43  1  0.24958218  0.75041782  0.75023913  1
  O  O44  1  0.75041782  0.24958218  0.24976087  1
  O  O45  1  0.75041782  0.24958218  0.75023913  1
  O  O46  1  0.75041782  0.75041782  0.24976087  1
  O  O47  1  0.75041782  0.75041782  0.75023913  1
  O  O48  1  -0.00000000  0.00000000  0.22556256  1
  O  O49  1  -0.00000000  0.00000000  0.77443744  1
  O  O50  1  -0.00000000  0.50000000  0.24626597  1
  O  O51  1  -0.00000000  0.50000000  0.75373403  1
  O  O52  1  0.50000000  0.00000000  0.24626597  1
  O  O53  1  0.50000000  0.00000000  0.75373403  1
  O  O54  1  0.50000000  0.50000000  0.24910142  1
  O  O55  1  0.50000000  0.50000000  0.75089858  1
  O  O56  1  -0.00000000  0.23688024  -0.00000000  1
  O  O57  1  -0.00000000  0.26160570  0.50000000  1
  O  O58  1  -0.00000000  0.76311976  -0.00000000  1
  O  O59  1  -0.00000000  0.73839430  0.50000000  1
  O  O60  1  0.50000000  0.24817707  -0.00000000  1
  O  O61  1  0.50000000  0.25100700  0.50000000  1
  O  O62  1  0.50000000  0.75182293  -0.00000000  1
  O  O63  1  0.50000000  0.74899300  0.50000000  1
