# generated using pymatgen
data_MgAg3P3O13
_symmetry_space_group_name_H-M   'P 1'
_cell_length_a   6.45655000
_cell_length_b   7.96275577
_cell_length_c   10.62444860
_cell_angle_alpha   97.93325052
_cell_angle_beta   90.00000000
_cell_angle_gamma   90.00000000
_symmetry_Int_Tables_number   1
_chemical_formula_structural   MgAg3P3O13
_chemical_formula_sum   'Mg2 Ag6 P6 O26'
_cell_volume   540.99580243
_cell_formula_units_Z   2
loop_
 _symmetry_equiv_pos_site_id
 _symmetry_equiv_pos_as_xyz
  1  'x, y, z'
loop_
 _atom_site_type_symbol
 _atom_site_label
 _atom_site_symmetry_multiplicity
 _atom_site_fract_x
 _atom_site_fract_y
 _atom_site_fract_z
 _atom_site_occupancy
  Mg  Mg0  1  0.75000000  0.61504753  0.15922054  1
  Mg  Mg1  1  0.25000000  0.38495247  0.84077946  1
  Ag  Ag2  1  0.25000000  0.33558587  0.21357196  1
  Ag  Ag3  1  0.75000000  0.66441413  0.78642804  1
  Ag  Ag4  1  0.25000000  0.74194601  0.43135475  1
  Ag  Ag5  1  0.50000000  -0.00000000  0.00000000  1
  Ag  Ag6  1  0.75000000  0.25805399  0.56864525  1
  Ag  Ag7  1  -0.00000000  -0.00000000  0.00000000  1
  P  P8  1  0.25000000  0.22659232  0.50277429  1
  P  P9  1  0.75000000  0.77340768  0.49722571  1
  P  P10  1  0.25000000  0.73690292  0.75678913  1
  P  P11  1  0.75000000  0.26309708  0.24321087  1
  P  P12  1  0.75000000  0.32951545  0.88734062  1
  P  P13  1  0.25000000  0.67048455  0.11265938  1
  O  O14  1  0.75000000  0.39086540  0.75140531  1
  O  O15  1  0.56924585  0.74569682  0.39748750  1
  O  O16  1  0.25000000  0.80501780  0.63019221  1
  O  O17  1  0.54131204  0.23278869  0.89120867  1
  O  O18  1  0.75000000  0.62396607  0.57745126  1
  O  O19  1  0.75000000  0.88978563  0.90596971  1
  O  O20  1  0.25000000  0.37603393  0.42254874  1
  O  O21  1  0.04131204  0.76721131  0.10879133  1
  O  O22  1  0.25000000  0.06033368  0.41437398  1
  O  O23  1  0.75000000  0.93966632  0.58562602  1
  O  O24  1  0.07207304  0.61111448  0.78123537  1
  O  O25  1  0.25000000  0.11021437  0.09403029  1
  O  O26  1  0.57207304  0.38888552  0.21876463  1
  O  O27  1  0.75000000  0.49423484  0.98098101  1
  O  O28  1  0.75000000  0.19498220  0.36980779  1
  O  O29  1  0.45868796  0.76721131  0.10879133  1
  O  O30  1  0.93075415  0.74569682  0.39748750  1
  O  O31  1  0.43075415  0.25430318  0.60251250  1
  O  O32  1  0.42792696  0.61111448  0.78123537  1
  O  O33  1  0.25000000  0.60913460  0.24859469  1
  O  O34  1  0.75000000  0.10555931  0.14024835  1
  O  O35  1  0.25000000  0.89444069  0.85975165  1
  O  O36  1  0.92792696  0.38888552  0.21876463  1
  O  O37  1  0.95868796  0.23278869  0.89120867  1
  O  O38  1  0.06924585  0.25430318  0.60251250  1
  O  O39  1  0.25000000  0.50576516  0.01901899  1
