# generated using pymatgen
data_Mg30CdBiO32
_symmetry_space_group_name_H-M   'P 1'
_cell_length_a   8.67212071
_cell_length_b   8.67627074
_cell_length_c   8.67627074
_cell_angle_alpha   90.00000000
_cell_angle_beta   90.00000000
_cell_angle_gamma   90.00000000
_symmetry_Int_Tables_number   1
_chemical_formula_structural   Mg30CdBiO32
_chemical_formula_sum   'Mg30 Cd1 Bi1 O32'
_cell_volume   652.81707530
_cell_formula_units_Z   1
loop_
 _symmetry_equiv_pos_site_id
 _symmetry_equiv_pos_as_xyz
  1  'x, y, z'
loop_
 _atom_site_type_symbol
 _atom_site_label
 _atom_site_symmetry_multiplicity
 _atom_site_fract_x
 _atom_site_fract_y
 _atom_site_fract_z
 _atom_site_occupancy
  Mg  Mg0  1  -0.00000000  -0.00000000  0.50000000  1
  Mg  Mg1  1  -0.00000000  0.50000000  0.00000000  1
  Mg  Mg2  1  0.50000000  -0.00000000  0.00000000  1
  Mg  Mg3  1  0.50000000  -0.00000000  0.50000000  1
  Mg  Mg4  1  0.50000000  0.50000000  0.00000000  1
  Mg  Mg5  1  0.50000000  0.50000000  0.50000000  1
  Mg  Mg6  1  -0.00000000  0.24462782  0.24462782  1
  Mg  Mg7  1  -0.00000000  0.24462782  0.75537218  1
  Mg  Mg8  1  -0.00000000  0.75537218  0.24462782  1
  Mg  Mg9  1  -0.00000000  0.75537218  0.75537218  1
  Mg  Mg10  1  0.50000000  0.24924876  0.24924876  1
  Mg  Mg11  1  0.50000000  0.24924876  0.75075124  1
  Mg  Mg12  1  0.50000000  0.75075124  0.24924876  1
  Mg  Mg13  1  0.50000000  0.75075124  0.75075124  1
  Mg  Mg14  1  0.25216294  -0.00000000  0.25105129  1
  Mg  Mg15  1  0.25216294  -0.00000000  0.74894871  1
  Mg  Mg16  1  0.25664077  0.50000000  0.24299734  1
  Mg  Mg17  1  0.25664077  0.50000000  0.75700266  1
  Mg  Mg18  1  0.74783706  -0.00000000  0.25105129  1
  Mg  Mg19  1  0.74783706  -0.00000000  0.74894871  1
  Mg  Mg20  1  0.74335923  0.50000000  0.24299734  1
  Mg  Mg21  1  0.74335923  0.50000000  0.75700266  1
  Mg  Mg22  1  0.25216294  0.25105129  0.00000000  1
  Mg  Mg23  1  0.25664077  0.24299734  0.50000000  1
  Mg  Mg24  1  0.25216294  0.74894871  0.00000000  1
  Mg  Mg25  1  0.25664077  0.75700266  0.50000000  1
  Mg  Mg26  1  0.74783706  0.25105129  0.00000000  1
  Mg  Mg27  1  0.74335923  0.24299734  0.50000000  1
  Mg  Mg28  1  0.74783706  0.74894871  0.00000000  1
  Mg  Mg29  1  0.74335923  0.75700266  0.50000000  1
  Cd  Cd30  1  -0.00000000  -0.00000000  0.00000000  1
  Bi  Bi31  1  -0.00000000  0.50000000  0.50000000  1
  O  O32  1  0.26572372  -0.00000000  0.00000000  1
  O  O33  1  0.25382512  -0.00000000  0.50000000  1
  O  O34  1  0.25382512  0.50000000  0.00000000  1
  O  O35  1  0.26786492  0.50000000  0.50000000  1
  O  O36  1  0.73427628  -0.00000000  0.00000000  1
  O  O37  1  0.74617488  -0.00000000  0.50000000  1
  O  O38  1  0.74617488  0.50000000  0.00000000  1
  O  O39  1  0.73213508  0.50000000  0.50000000  1
  O  O40  1  0.24858587  0.25122729  0.25122729  1
  O  O41  1  0.24858587  0.25122729  0.74877271  1
  O  O42  1  0.24858587  0.74877271  0.25122729  1
  O  O43  1  0.24858587  0.74877271  0.74877271  1
  O  O44  1  0.75141413  0.25122729  0.25122729  1
  O  O45  1  0.75141413  0.25122729  0.74877271  1
  O  O46  1  0.75141413  0.74877271  0.25122729  1
  O  O47  1  0.75141413  0.74877271  0.74877271  1
  O  O48  1  -0.00000000  -0.00000000  0.26428962  1
  O  O49  1  -0.00000000  -0.00000000  0.73571038  1
  O  O50  1  -0.00000000  0.50000000  0.23405217  1
  O  O51  1  -0.00000000  0.50000000  0.76594783  1
  O  O52  1  0.50000000  -0.00000000  0.25221033  1
  O  O53  1  0.50000000  -0.00000000  0.74778967  1
  O  O54  1  0.50000000  0.50000000  0.24857382  1
  O  O55  1  0.50000000  0.50000000  0.75142618  1
  O  O56  1  -0.00000000  0.26428962  0.00000000  1
  O  O57  1  -0.00000000  0.23405217  0.50000000  1
  O  O58  1  -0.00000000  0.73571038  0.00000000  1
  O  O59  1  -0.00000000  0.76594783  0.50000000  1
  O  O60  1  0.50000000  0.25221033  0.00000000  1
  O  O61  1  0.50000000  0.24857382  0.50000000  1
  O  O62  1  0.50000000  0.74778967  0.00000000  1
  O  O63  1  0.50000000  0.75142618  0.50000000  1
