# generated using pymatgen
data_Lu2Sb2O7
_symmetry_space_group_name_H-M   'P 1'
_cell_length_a   7.50030904
_cell_length_b   7.50030904
_cell_length_c   10.49929395
_cell_angle_alpha   45.57909139
_cell_angle_beta   134.42090861
_cell_angle_gamma   118.88978846
_symmetry_Int_Tables_number   1
_chemical_formula_structural   Lu2Sb2O7
_chemical_formula_sum   'Lu4 Sb4 O14'
_cell_volume   301.25962522
_cell_formula_units_Z   2
loop_
 _symmetry_equiv_pos_site_id
 _symmetry_equiv_pos_as_xyz
  1  'x, y, z'
loop_
 _atom_site_type_symbol
 _atom_site_label
 _atom_site_symmetry_multiplicity
 _atom_site_fract_x
 _atom_site_fract_y
 _atom_site_fract_z
 _atom_site_occupancy
  Lu  Lu0  1  0.74043959  0.74043959  0.00000000  1
  Lu  Lu1  1  0.77921322  0.19490227  0.54215547  1
  Lu  Lu2  1  0.74043959  0.74043959  0.50000000  1
  Lu  Lu3  1  0.19490227  0.77921322  0.45784453  1
  Sb  Sb4  1  0.26252127  0.26252127  0.00000000  1
  Sb  Sb5  1  0.22723415  0.74446281  0.99138567  1
  Sb  Sb6  1  0.26252127  0.26252127  0.50000000  1
  Sb  Sb7  1  0.74446281  0.22723415  0.00861433  1
  O  O8  1  0.93942817  0.01700575  0.08799736  1
  O  O9  1  0.93942817  0.01700575  0.33442606  1
  O  O10  1  0.49930359  0.98961585  0.37315961  1
  O  O11  1  0.41902217  0.56308890  0.04131050  1
  O  O12  1  0.49668295  0.97143199  0.01262548  1
  O  O13  1  0.41902217  0.56308890  0.31462277  1
  O  O14  1  0.49930359  0.98961585  0.63652814  1
  O  O15  1  0.98961585  0.49930359  0.36347186  1
  O  O16  1  0.56308890  0.41902217  0.68537723  1
  O  O17  1  0.97143199  0.49668295  0.98737452  1
  O  O18  1  0.56308890  0.41902217  0.95868950  1
  O  O19  1  0.98961585  0.49930359  0.62684039  1
  O  O20  1  0.01700575  0.93942817  0.66557394  1
  O  O21  1  0.01700575  0.93942817  0.91200264  1
