# generated using pymatgen
data_BaCaSbF7
_symmetry_space_group_name_H-M   'P 1'
_cell_length_a   6.05096360
_cell_length_b   10.13950330
_cell_length_c   10.70726058
_cell_angle_alpha   90.00000000
_cell_angle_beta   90.00000000
_cell_angle_gamma   93.57338343
_symmetry_Int_Tables_number   1
_chemical_formula_structural   BaCaSbF7
_chemical_formula_sum   'Ba4 Ca4 Sb4 F28'
_cell_volume   655.65354190
_cell_formula_units_Z   4
loop_
 _symmetry_equiv_pos_site_id
 _symmetry_equiv_pos_as_xyz
  1  'x, y, z'
loop_
 _atom_site_type_symbol
 _atom_site_label
 _atom_site_symmetry_multiplicity
 _atom_site_fract_x
 _atom_site_fract_y
 _atom_site_fract_z
 _atom_site_occupancy
  Ba  Ba0  1  0.26825412  0.49680645  0.32463528  1
  Ba  Ba1  1  0.73174588  0.00319355  0.82463528  1
  Ba  Ba2  1  0.73174588  0.50319355  0.67536472  1
  Ba  Ba3  1  0.26825412  0.99680645  0.17536472  1
  Ca  Ca4  1  0.68665202  0.82125816  0.40559807  1
  Ca  Ca5  1  0.31334798  0.67874184  0.90559807  1
  Ca  Ca6  1  0.68665202  0.32125816  0.09440193  1
  Ca  Ca7  1  0.31334798  0.17874184  0.59440193  1
  Sb  Sb8  1  0.21415198  0.80185513  0.60099599  1
  Sb  Sb9  1  0.78584802  0.19814487  0.39900401  1
  Sb  Sb10  1  0.21415198  0.30185513  0.89900401  1
  Sb  Sb11  1  0.78584802  0.69814487  0.10099599  1
  F  F12  1  0.08417490  0.11886312  0.43117175  1
  F  F13  1  0.35509583  0.41931327  0.07772607  1
  F  F14  1  0.51952409  0.76108784  0.74043946  1
  F  F15  1  0.48047591  0.23891216  0.25956054  1
  F  F16  1  0.97364105  0.36235510  0.48579736  1
  F  F17  1  0.24647785  0.48570500  0.78815805  1
  F  F18  1  0.04341826  0.73319477  0.76300635  1
  F  F19  1  0.02635895  0.13764490  0.98579736  1
  F  F20  1  0.35509583  0.91931327  0.42227393  1
  F  F21  1  0.48047591  0.73891216  0.24043946  1
  F  F22  1  0.08417490  0.61886312  0.06882825  1
  F  F23  1  0.91582510  0.88113688  0.56882825  1
  F  F24  1  0.95658174  0.76680523  0.26300635  1
  F  F25  1  0.47760520  0.85985142  0.99284143  1
  F  F26  1  0.02635895  0.63764490  0.51420264  1
  F  F27  1  0.97364105  0.86235510  0.01420264  1
  F  F28  1  0.95658174  0.26680523  0.23699365  1
  F  F29  1  0.91582510  0.38113688  0.93117175  1
  F  F30  1  0.52239480  0.64014858  0.49284143  1
  F  F31  1  0.64490417  0.58068673  0.92227393  1
  F  F32  1  0.52239480  0.14014858  0.00715857  1
  F  F33  1  0.04341826  0.23319477  0.73699365  1
  F  F34  1  0.47760520  0.35985142  0.50715857  1
  F  F35  1  0.75352215  0.01429500  0.28815805  1
  F  F36  1  0.75352215  0.51429500  0.21184195  1
  F  F37  1  0.24647785  0.98570500  0.71184195  1
  F  F38  1  0.64490417  0.08068673  0.57772607  1
  F  F39  1  0.51952409  0.26108784  0.75956054  1
