# generated using pymatgen
data_MgMn4O6
_symmetry_space_group_name_H-M   'P 1'
_cell_length_a   3.04308263
_cell_length_b   5.34877736
_cell_length_c   15.41528395
_cell_angle_alpha   90.00000000
_cell_angle_beta   90.00000000
_cell_angle_gamma   106.52688173
_symmetry_Int_Tables_number   1
_chemical_formula_structural   MgMn4O6
_chemical_formula_sum   'Mg2 Mn8 O12'
_cell_volume   240.54500923
_cell_formula_units_Z   2
loop_
 _symmetry_equiv_pos_site_id
 _symmetry_equiv_pos_as_xyz
  1  'x, y, z'
loop_
 _atom_site_type_symbol
 _atom_site_label
 _atom_site_symmetry_multiplicity
 _atom_site_fract_x
 _atom_site_fract_y
 _atom_site_fract_z
 _atom_site_occupancy
  Mg  Mg0  1  0.65932252  0.31864704  0.75000000  1
  Mg  Mg1  1  0.34067748  0.68135296  0.25000000  1
  Mn  Mn2  1  0.86395620  0.72791539  0.04567939  1
  Mn  Mn3  1  0.40389794  0.80779488  0.64060007  1
  Mn  Mn4  1  0.13604180  0.27208361  0.95432061  1
  Mn  Mn5  1  0.59610206  0.19220512  0.35940093  1
  Mn  Mn6  1  0.86395620  0.72791539  0.45432061  1
  Mn  Mn7  1  0.13604180  0.27208361  0.54567939  1
  Mn  Mn8  1  0.59610206  0.19220512  0.14059907  1
  Mn  Mn9  1  0.40389794  0.80779488  0.85939993  1
  O  O10  1  0.49999900  0.00000000  0.50000000  1
  O  O11  1  0.49999900  0.00000000  -0.00000000  1
  O  O12  1  0.05335913  0.10671727  0.84027978  1
  O  O13  1  0.94664087  0.89328273  0.15972122  1
  O  O14  1  0.94664087  0.89328273  0.34027878  1
  O  O15  1  0.05335913  0.10671727  0.65972122  1
  O  O16  1  0.78010042  0.56020184  0.92704616  1
  O  O17  1  0.21989858  0.43979916  0.07295384  1
  O  O18  1  0.21989858  0.43979916  0.42704616  1
  O  O19  1  0.78010042  0.56020184  0.57295384  1
  O  O20  1  0.29454441  0.58908981  0.75000000  1
  O  O21  1  0.70545359  0.41090919  0.25000000  1
