# generated using pymatgen
data_CaSnBiO5
_symmetry_space_group_name_H-M   'P 1'
_cell_length_a   5.51967431
_cell_length_b   10.56205513
_cell_length_c   15.89246507
_cell_angle_alpha   90.00000000
_cell_angle_beta   90.00000000
_cell_angle_gamma   90.00000000
_symmetry_Int_Tables_number   1
_chemical_formula_structural   CaSnBiO5
_chemical_formula_sum   'Ca8 Sn8 Bi8 O40'
_cell_volume   926.51647968
_cell_formula_units_Z   8
loop_
 _symmetry_equiv_pos_site_id
 _symmetry_equiv_pos_as_xyz
  1  'x, y, z'
loop_
 _atom_site_type_symbol
 _atom_site_label
 _atom_site_symmetry_multiplicity
 _atom_site_fract_x
 _atom_site_fract_y
 _atom_site_fract_z
 _atom_site_occupancy
  Ca  Ca0  1  0.54295432  0.36882619  0.43123068  1
  Ca  Ca1  1  0.04295432  0.13117381  0.43123068  1
  Ca  Ca2  1  0.04295432  0.63117381  0.06876932  1
  Ca  Ca3  1  0.95704568  0.36882619  0.93123068  1
  Ca  Ca4  1  0.45704568  0.13117381  0.93123068  1
  Ca  Ca5  1  0.95704568  0.86882619  0.56876932  1
  Ca  Ca6  1  0.45704568  0.63117381  0.56876932  1
  Ca  Ca7  1  0.54295432  0.86882619  0.06876932  1
  Sn  Sn8  1  0.03791462  0.38008304  0.56995088  1
  Sn  Sn9  1  0.46208538  0.88008304  0.43004912  1
  Sn  Sn10  1  0.96208538  0.61991696  0.43004912  1
  Sn  Sn11  1  0.53791462  0.11991696  0.56995088  1
  Sn  Sn12  1  0.96208538  0.11991696  0.06995088  1
  Sn  Sn13  1  0.03791462  0.88008304  0.93004912  1
  Sn  Sn14  1  0.46208538  0.38008304  0.06995088  1
  Sn  Sn15  1  0.53791462  0.61991696  0.93004912  1
  Bi  Bi16  1  0.97072448  0.85262923  0.24537401  1
  Bi  Bi17  1  0.02927552  0.14737077  0.75462599  1
  Bi  Bi18  1  0.52927552  0.35262923  0.75462599  1
  Bi  Bi19  1  0.02927552  0.64737077  0.74537401  1
  Bi  Bi20  1  0.47072448  0.14737077  0.25462599  1
  Bi  Bi21  1  0.47072448  0.64737077  0.24537401  1
  Bi  Bi22  1  0.52927552  0.85262923  0.74537401  1
  Bi  Bi23  1  0.97072448  0.35262923  0.25462599  1
  O  O24  1  0.87437341  0.31066106  0.68339065  1
  O  O25  1  0.22224867  0.99573596  0.02654733  1
  O  O26  1  0.27775133  0.49573596  0.97345267  1
  O  O27  1  0.26651010  0.78027745  0.16660123  1
  O  O28  1  0.23348990  0.28027745  0.83339877  1
  O  O29  1  0.87437341  0.81066106  0.81660935  1
  O  O30  1  0.23348990  0.78027745  0.66660123  1
  O  O31  1  0.62562659  0.81066106  0.31660935  1
  O  O32  1  0.22224867  0.49573596  0.47345267  1
  O  O33  1  0.12562659  0.68933894  0.31660935  1
  O  O34  1  0.62562659  0.31066106  0.18339065  1
  O  O35  1  0.79435635  0.24376917  0.52216124  1
  O  O36  1  0.72224867  0.00426404  0.47345267  1
  O  O37  1  0.73348990  0.71972255  0.66660123  1
  O  O38  1  0.23922687  0.98864633  0.83881802  1
  O  O39  1  0.72224867  0.50426404  0.02654733  1
  O  O40  1  0.12562659  0.18933894  0.18339065  1
  O  O41  1  0.76651010  0.21972255  0.33339877  1
  O  O42  1  0.29435635  0.75623083  0.97783876  1
  O  O43  1  0.27775133  0.99573596  0.52654733  1
  O  O44  1  0.20564365  0.75623083  0.47783876  1
  O  O45  1  0.76077313  0.01135367  0.16118198  1
  O  O46  1  0.73348990  0.21972255  0.83339877  1
  O  O47  1  0.73922687  0.01135367  0.66118198  1
  O  O48  1  0.20564365  0.25623083  0.02216124  1
  O  O49  1  0.29435635  0.25623083  0.52216124  1
  O  O50  1  0.77775133  0.50426404  0.52654733  1
  O  O51  1  0.77775133  0.00426404  0.97345267  1
  O  O52  1  0.73922687  0.51135367  0.83881802  1
  O  O53  1  0.70564365  0.74376917  0.47783876  1
  O  O54  1  0.70564365  0.24376917  0.02216124  1
  O  O55  1  0.79435635  0.74376917  0.97783876  1
  O  O56  1  0.76077313  0.51135367  0.33881802  1
  O  O57  1  0.76651010  0.71972255  0.16660123  1
  O  O58  1  0.26651010  0.28027745  0.33339877  1
  O  O59  1  0.23922687  0.48864633  0.66118198  1
  O  O60  1  0.26077313  0.48864633  0.16118198  1
  O  O61  1  0.37437341  0.18933894  0.68339065  1
  O  O62  1  0.26077313  0.98864633  0.33881802  1
  O  O63  1  0.37437341  0.68933894  0.81660935  1
