# generated using pymatgen
data_YSn(WO4)2
_symmetry_space_group_name_H-M   'P 1'
_cell_length_a   5.36039149
_cell_length_b   5.70939037
_cell_length_c   10.40092566
_cell_angle_alpha   90.00542788
_cell_angle_beta   96.56704478
_cell_angle_gamma   90.00360920
_symmetry_Int_Tables_number   1
_chemical_formula_structural   YSn(WO4)2
_chemical_formula_sum   'Y2 Sn2 W4 O16'
_cell_volume   316.22726748
_cell_formula_units_Z   2
loop_
 _symmetry_equiv_pos_site_id
 _symmetry_equiv_pos_as_xyz
  1  'x, y, z'
loop_
 _atom_site_type_symbol
 _atom_site_label
 _atom_site_symmetry_multiplicity
 _atom_site_fract_x
 _atom_site_fract_y
 _atom_site_fract_z
 _atom_site_occupancy
  Y  Y0  1  0.25007955  0.72852666  0.25001376  1
  Y  Y1  1  0.74991945  0.27147234  0.74998624  1
  Sn  Sn2  1  0.75002831  0.32196274  0.24999977  1
  Sn  Sn3  1  0.24997169  0.67803626  0.75000023  1
  W  W4  1  0.25027492  0.17226763  0.49804743  1
  W  W5  1  0.24974760  0.17229322  0.00193633  1
  W  W6  1  0.74972508  0.82773237  0.50195257  1
  W  W7  1  0.75025240  0.82770678  0.99806367  1
  O  O8  1  0.38928435  0.39338843  0.13007622  1
  O  O9  1  0.11080399  0.39336238  0.36988498  1
  O  O10  1  0.61071565  0.60661057  0.86992378  1
  O  O11  1  0.88919501  0.60663662  0.63011502  1
  O  O12  1  0.49473245  0.92925414  0.61404162  1
  O  O13  1  0.00534726  0.92907039  0.88599220  1
  O  O14  1  0.50526755  0.07074586  0.38595838  1
  O  O15  1  0.99465274  0.07092961  0.11400780  1
  O  O16  1  0.88834062  0.60996399  0.13117722  1
  O  O17  1  0.61169627  0.60982993  0.36891201  1
  O  O18  1  0.11165938  0.39003701  0.86882278  1
  O  O19  1  0.38830373  0.39017107  0.63108799  1
  O  O20  1  0.46670557  0.90244647  0.10114954  1
  O  O21  1  0.53329443  0.09755453  0.89885046  1
  O  O22  1  0.03323889  0.90245847  0.39882967  1
  O  O23  1  0.96676111  0.09754253  0.60117033  1
