# generated using pymatgen
data_W3O8
_symmetry_space_group_name_H-M   'P 1'
_cell_length_a   5.07225565
_cell_length_b   5.85316707
_cell_length_c   9.64048391
_cell_angle_alpha   90.00235785
_cell_angle_beta   89.35355811
_cell_angle_gamma   90.00133852
_symmetry_Int_Tables_number   1
_chemical_formula_structural   W3O8
_chemical_formula_sum   'W6 O16'
_cell_volume   286.19579348
_cell_formula_units_Z   2
loop_
 _symmetry_equiv_pos_site_id
 _symmetry_equiv_pos_as_xyz
  1  'x, y, z'
loop_
 _atom_site_type_symbol
 _atom_site_label
 _atom_site_symmetry_multiplicity
 _atom_site_fract_x
 _atom_site_fract_y
 _atom_site_fract_z
 _atom_site_occupancy
  W  W0  1  0.75001143  0.34472886  0.24999914  1
  W  W1  1  0.24998857  0.65527014  0.75000086  1
  W  W2  1  0.23443162  0.16942757  0.50600965  1
  W  W3  1  0.26556762  0.16944239  0.99398142  1
  W  W4  1  0.76556838  0.83057243  0.49399035  1
  W  W5  1  0.73443238  0.83055761  0.00601858  1
  O  O6  1  0.41411743  0.34437871  0.13159818  1
  O  O7  1  0.08590861  0.34433770  0.36839718  1
  O  O8  1  0.58588257  0.65562029  0.86840182  1
  O  O9  1  0.91409039  0.65566130  0.63160282  1
  O  O10  1  0.41797254  0.89033037  0.60505244  1
  O  O11  1  0.08201579  0.89031830  0.89494589  1
  O  O12  1  0.58202746  0.10966963  0.39494756  1
  O  O13  1  0.91798421  0.10968170  0.10505411  1
  O  O14  1  0.86567748  0.60254911  0.11803655  1
  O  O15  1  0.63431726  0.60253007  0.38196789  1
  O  O16  1  0.13432252  0.39745189  0.88196345  1
  O  O17  1  0.36568274  0.39747093  0.61803211  1
  O  O18  1  0.43332748  0.89369919  0.10875181  1
  O  O19  1  0.56667252  0.10630181  0.89124819  1
  O  O20  1  0.06666092  0.89367493  0.39124795  1
  O  O21  1  0.93333908  0.10632607  0.60875205  1
