# generated using pymatgen
data_Bi(WO4)2
_symmetry_space_group_name_H-M   'P 1'
_cell_length_a   5.19019077
_cell_length_b   5.99250750
_cell_length_c   10.21112847
_cell_angle_alpha   90.00000000
_cell_angle_beta   91.89369863
_cell_angle_gamma   90.00000000
_symmetry_Int_Tables_number   1
_chemical_formula_structural   Bi(WO4)2
_chemical_formula_sum   'Bi2 W4 O16'
_cell_volume   317.41569385
_cell_formula_units_Z   2
loop_
 _symmetry_equiv_pos_site_id
 _symmetry_equiv_pos_as_xyz
  1  'x, y, z'
loop_
 _atom_site_type_symbol
 _atom_site_label
 _atom_site_symmetry_multiplicity
 _atom_site_fract_x
 _atom_site_fract_y
 _atom_site_fract_z
 _atom_site_occupancy
  Bi  Bi0  1  0.75000000  0.33832517  0.25000000  1
  Bi  Bi1  1  0.25000000  0.66167383  0.75000000  1
  W  W2  1  0.23649462  0.16563033  0.50898856  1
  W  W3  1  0.26350438  0.16563033  0.99101244  1
  W  W4  1  0.76350538  0.83436967  0.49101144  1
  W  W5  1  0.73649562  0.83436967  0.00898756  1
  O  O6  1  0.39141617  0.35387018  0.12132536  1
  O  O7  1  0.10858283  0.35387018  0.37867364  1
  O  O8  1  0.60858383  0.64612882  0.87867464  1
  O  O9  1  0.89141617  0.64612882  0.62132636  1
  O  O10  1  0.43631858  0.89674121  0.59393259  1
  O  O11  1  0.06368142  0.89674121  0.90606741  1
  O  O12  1  0.56368142  0.10325879  0.40606741  1
  O  O13  1  0.93631858  0.10325879  0.09393259  1
  O  O14  1  0.86689220  0.62037977  0.12162033  1
  O  O15  1  0.63310780  0.62037977  0.37837967  1
  O  O16  1  0.13310780  0.37962123  0.87837967  1
  O  O17  1  0.36689220  0.37962123  0.62162033  1
  O  O18  1  0.44870332  0.90806837  0.10535413  1
  O  O19  1  0.55129668  0.09193263  0.89464587  1
  O  O20  1  0.05129768  0.90806837  0.39464687  1
  O  O21  1  0.94870232  0.09193263  0.60535313  1
