# generated using pymatgen
data_YTa(WO4)2
_symmetry_space_group_name_H-M   'P 1'
_cell_length_a   5.47365962
_cell_length_b   5.84250011
_cell_length_c   9.69950965
_cell_angle_alpha   90.00015700
_cell_angle_beta   91.86108737
_cell_angle_gamma   89.99970732
_symmetry_Int_Tables_number   1
_chemical_formula_structural   YTa(WO4)2
_chemical_formula_sum   'Y2 Ta2 W4 O16'
_cell_volume   310.02530730
_cell_formula_units_Z   2
loop_
 _symmetry_equiv_pos_site_id
 _symmetry_equiv_pos_as_xyz
  1  'x, y, z'
loop_
 _atom_site_type_symbol
 _atom_site_label
 _atom_site_symmetry_multiplicity
 _atom_site_fract_x
 _atom_site_fract_y
 _atom_site_fract_z
 _atom_site_occupancy
  Y  Y0  1  0.24999019  0.66466871  0.24999721  1
  Y  Y1  1  0.75000930  0.33533079  0.75000274  1
  Ta  Ta2  1  0.74998973  0.33773553  0.25000586  1
  Ta  Ta3  1  0.25000993  0.66226427  0.74999420  1
  W  W4  1  0.24476751  0.15130887  0.50022050  1
  W  W5  1  0.25523365  0.15130793  0.99977816  1
  W  W6  1  0.75523256  0.84869113  0.49977947  1
  W  W7  1  0.74476610  0.84869215  0.00022193  1
  O  O8  1  0.43691411  0.35825541  0.14057620  1
  O  O9  1  0.06304995  0.35826301  0.35944072  1
  O  O10  1  0.56308571  0.64174423  0.85942398  1
  O  O11  1  0.93694950  0.64173653  0.64055926  1
  O  O12  1  0.41209457  0.88666960  0.61859497  1
  O  O13  1  0.08791473  0.88664591  0.88140508  1
  O  O14  1  0.58790541  0.11333060  0.38140500  1
  O  O15  1  0.91208535  0.11335415  0.11859484  1
  O  O16  1  0.88315051  0.59772797  0.13345022  1
  O  O17  1  0.61680257  0.59771490  0.36656649  1
  O  O18  1  0.11684943  0.40227224  0.86654971  1
  O  O19  1  0.38319733  0.40228545  0.63343342  1
  O  O20  1  0.41720097  0.88684889  0.10271401  1
  O  O21  1  0.58279887  0.11315137  0.89728627  1
  O  O22  1  0.08279661  0.88685476  0.39728696  1
  O  O23  1  0.91720340  0.11314559  0.60271281  1
