# generated using pymatgen
data_Mg(CuO2)2
_symmetry_space_group_name_H-M   'P 1'
_cell_length_a   5.86500258
_cell_length_b   5.86500241
_cell_length_c   6.00321587
_cell_angle_alpha   59.21733292
_cell_angle_beta   59.21733851
_cell_angle_gamma   61.68017627
_symmetry_Int_Tables_number   1
_chemical_formula_structural   Mg(CuO2)2
_chemical_formula_sum   'Mg2 Cu4 O8'
_cell_volume   145.96150036
_cell_formula_units_Z   2
loop_
 _symmetry_equiv_pos_site_id
 _symmetry_equiv_pos_as_xyz
  1  'x, y, z'
loop_
 _atom_site_type_symbol
 _atom_site_label
 _atom_site_symmetry_multiplicity
 _atom_site_fract_x
 _atom_site_fract_y
 _atom_site_fract_z
 _atom_site_occupancy
  Mg  Mg0  1  0.12500000  0.62500000  0.62500000  1
  Mg  Mg1  1  0.62500000  0.12500000  0.62500000  1
  Cu  Cu2  1  0.98945003  0.98945003  0.01054997  1
  Cu  Cu3  1  0.26054997  0.26054997  0.23945003  1
  Cu  Cu4  1  0.62500000  0.62500000  0.12500000  1
  Cu  Cu5  1  0.62500000  0.62500000  0.62500000  1
  O  O6  1  0.38727868  0.38727868  0.38295264  1
  O  O7  1  0.40650261  0.85792777  0.36778431  1
  O  O8  1  0.38727868  0.38727868  0.84249001  1
  O  O9  1  0.85792777  0.40650261  0.36778431  1
  O  O10  1  0.39207223  0.84349739  0.88221569  1
  O  O11  1  0.84349739  0.39207223  0.88221569  1
  O  O12  1  0.86272132  0.86272132  0.40750999  1
  O  O13  1  0.86272132  0.86272132  0.86704736  1
