# generated using pymatgen
data_Sb3P3O13
_symmetry_space_group_name_H-M   'P 1'
_cell_length_a   6.71935536
_cell_length_b   7.82579991
_cell_length_c   11.40780419
_cell_angle_alpha   93.21046881
_cell_angle_beta   90.00000000
_cell_angle_gamma   90.00000000
_symmetry_Int_Tables_number   1
_chemical_formula_structural   Sb3P3O13
_chemical_formula_sum   'Sb6 P6 O26'
_cell_volume   598.93027705
_cell_formula_units_Z   2
loop_
 _symmetry_equiv_pos_site_id
 _symmetry_equiv_pos_as_xyz
  1  'x, y, z'
loop_
 _atom_site_type_symbol
 _atom_site_label
 _atom_site_symmetry_multiplicity
 _atom_site_fract_x
 _atom_site_fract_y
 _atom_site_fract_z
 _atom_site_occupancy
  Sb  Sb0  1  0.25000000  0.34896085  0.20107049  1
  Sb  Sb1  1  0.75000000  0.65103915  0.79892951  1
  Sb  Sb2  1  0.25000000  0.74915607  0.46900533  1
  Sb  Sb3  1  0.50000000  -0.00000000  -0.00000000  1
  Sb  Sb4  1  0.75000000  0.25084393  0.53099467  1
  Sb  Sb5  1  0.00000000  -0.00000000  -0.00000000  1
  P  P6  1  0.25000000  0.18029635  0.47219148  1
  P  P7  1  0.75000000  0.81970365  0.52780852  1
  P  P8  1  0.25000000  0.75484749  0.77138510  1
  P  P9  1  0.75000000  0.24515251  0.22861490  1
  P  P10  1  0.75000000  0.33163078  0.88146668  1
  P  P11  1  0.25000000  0.66836922  0.11853332  1
  O  O12  1  0.75000000  0.39495294  0.74911523  1
  O  O13  1  0.56631729  0.78012580  0.45285903  1
  O  O14  1  0.25000000  0.83086453  0.64969726  1
  O  O15  1  0.55824182  0.23470499  0.90544508  1
  O  O16  1  0.75000000  0.68893406  0.62983382  1
  O  O17  1  0.75000000  0.87212836  0.88711049  1
  O  O18  1  0.25000000  0.31106594  0.37016618  1
  O  O19  1  0.05824182  0.76529501  0.09455492  1
  O  O20  1  0.25000000  0.99524621  0.41262003  1
  O  O21  1  0.75000000  0.00475379  0.58737997  1
  O  O22  1  0.06177939  0.64331179  0.79100521  1
  O  O23  1  0.25000000  0.12787164  0.11288951  1
  O  O24  1  0.56177939  0.35668821  0.20899479  1
  O  O25  1  0.75000000  0.51830381  0.94563372  1
  O  O26  1  0.75000000  0.16913547  0.35030274  1
  O  O27  1  0.44175818  0.76529501  0.09455492  1
  O  O28  1  0.93368271  0.78012580  0.45285903  1
  O  O29  1  0.43368271  0.21987420  0.54714097  1
  O  O30  1  0.43822061  0.64331179  0.79100521  1
  O  O31  1  0.25000000  0.60504706  0.25088477  1
  O  O32  1  0.75000000  0.09024243  0.13374690  1
  O  O33  1  0.25000000  0.90975757  0.86625310  1
  O  O34  1  0.93822061  0.35668821  0.20899479  1
  O  O35  1  0.94175818  0.23470499  0.90544508  1
  O  O36  1  0.06631729  0.21987420  0.54714097  1
  O  O37  1  0.25000000  0.48169619  0.05436628  1
