# generated using pymatgen
data_Ca2Nb2SnO8
_symmetry_space_group_name_H-M   'P 1'
_cell_length_a   5.51274340
_cell_length_b   6.88389626
_cell_length_c   10.68630184
_cell_angle_alpha   108.84702145
_cell_angle_beta   88.09684673
_cell_angle_gamma   89.97628540
_symmetry_Int_Tables_number   1
_chemical_formula_structural   Ca2Nb2SnO8
_chemical_formula_sum   'Ca4 Nb4 Sn2 O16'
_cell_volume   383.55475592
_cell_formula_units_Z   2
loop_
 _symmetry_equiv_pos_site_id
 _symmetry_equiv_pos_as_xyz
  1  'x, y, z'
loop_
 _atom_site_type_symbol
 _atom_site_label
 _atom_site_symmetry_multiplicity
 _atom_site_fract_x
 _atom_site_fract_y
 _atom_site_fract_z
 _atom_site_occupancy
  Ca  Ca0  1  0.74403868  0.43390186  0.56833014  1
  Ca  Ca1  1  0.75482641  0.86567576  0.43083049  1
  Ca  Ca2  1  0.25445495  0.56737945  0.43178209  1
  Ca  Ca3  1  0.24358503  0.13566599  0.56901675  1
  Nb  Nb4  1  0.74912430  0.27060082  0.24713961  1
  Nb  Nb5  1  0.74956375  0.02380679  0.75248016  1
  Nb  Nb6  1  0.24968923  0.73019445  0.75300899  1
  Nb  Nb7  1  0.24908710  0.97712257  0.24741960  1
  Sn  Sn8  1  0.74970434  0.69894949  0.99966376  1
  Sn  Sn9  1  0.24970277  0.30135059  0.00033036  1
  O  O10  1  0.07689361  0.17519563  0.15377123  1
  O  O11  1  0.42191980  0.02247033  0.84615664  1
  O  O12  1  0.92209705  0.82557454  0.84631098  1
  O  O13  1  0.57696484  0.97792474  0.15415280  1
  O  O14  1  0.59837487  0.39198622  0.14107704  1
  O  O15  1  0.89985798  0.25220236  0.85749699  1
  O  O16  1  0.40036343  0.60784872  0.85852129  1
  O  O17  1  0.09809863  0.74877956  0.14262028  1
  O  O18  1  0.48129574  0.26894287  0.38106729  1
  O  O19  1  0.01733074  0.88714922  0.61857559  1
  O  O20  1  0.36033477  0.85596300  0.37820509  1
  O  O21  1  0.13804938  0.47803597  0.62241681  1
  O  O22  1  0.63790470  0.14520783  0.62189206  1
  O  O23  1  0.86042720  0.52317256  0.37735527  1
  O  O24  1  0.98123503  0.11418905  0.38145414  1
  O  O25  1  0.51739466  0.73218762  0.61897956  1
