# generated using pymatgen
data_Ge2MoO6
_symmetry_space_group_name_H-M   'P 1'
_cell_length_a   5.57992963
_cell_length_b   9.29059551
_cell_length_c   10.43685461
_cell_angle_alpha   90.00000000
_cell_angle_beta   105.94293601
_cell_angle_gamma   90.00000000
_symmetry_Int_Tables_number   1
_chemical_formula_structural   Ge2MoO6
_chemical_formula_sum   'Ge8 Mo4 O24'
_cell_volume   520.24431183
_cell_formula_units_Z   4
loop_
 _symmetry_equiv_pos_site_id
 _symmetry_equiv_pos_as_xyz
  1  'x, y, z'
loop_
 _atom_site_type_symbol
 _atom_site_label
 _atom_site_symmetry_multiplicity
 _atom_site_fract_x
 _atom_site_fract_y
 _atom_site_fract_z
 _atom_site_occupancy
  Ge  Ge0  1  0.84853644  0.33049311  0.05118162  1
  Ge  Ge1  1  0.65146356  0.83049311  0.94881838  1
  Ge  Ge2  1  0.15146356  0.66950689  0.94881838  1
  Ge  Ge3  1  0.34853644  0.16950689  0.05118162  1
  Ge  Ge4  1  0.11881453  0.34159600  0.47051334  1
  Ge  Ge5  1  0.38118547  0.84159600  0.52948666  1
  Ge  Ge6  1  0.88118547  0.65840400  0.52948666  1
  Ge  Ge7  1  0.61881453  0.15840400  0.47051334  1
  Mo  Mo8  1  0.98069742  0.64502259  0.24088966  1
  Mo  Mo9  1  0.51930258  0.14502259  0.75911034  1
  Mo  Mo10  1  0.01930258  0.35497741  0.75911034  1
  Mo  Mo11  1  0.48069742  0.85497741  0.24088966  1
  O  O12  1  0.35172674  0.26254583  0.40533675  1
  O  O13  1  0.14827326  0.76254583  0.59466325  1
  O  O14  1  0.64827326  0.73745417  0.59466325  1
  O  O15  1  0.85172674  0.23745417  0.40533675  1
  O  O16  1  0.17090641  0.29627909  0.11099679  1
  O  O17  1  0.32909359  0.79627909  0.88900321  1
  O  O18  1  0.82909359  0.70372091  0.88900421  1
  O  O19  1  0.67090641  0.20372091  0.11099579  1
  O  O20  1  0.61152889  0.98097206  0.40676736  1
  O  O21  1  0.88847111  0.48097206  0.59323264  1
  O  O22  1  0.38847111  0.01902794  0.59323264  1
  O  O23  1  0.11152889  0.51902794  0.40676736  1
  O  O24  1  0.30395722  0.99761060  0.11021743  1
  O  O25  1  0.19604278  0.49761060  0.88978257  1
  O  O26  1  0.69604278  0.00238940  0.88978257  1
  O  O27  1  0.80395722  0.50238940  0.11021743  1
  O  O28  1  0.75857661  0.31762025  0.87167389  1
  O  O29  1  0.74142339  0.81762025  0.12832611  1
  O  O30  1  0.24142339  0.68237975  0.12832611  1
  O  O31  1  0.25857661  0.18237975  0.87167389  1
  O  O32  1  0.25623469  0.30504333  0.65125177  1
  O  O33  1  0.24376531  0.80504333  0.34874823  1
  O  O34  1  0.74376531  0.69495667  0.34874823  1
  O  O35  1  0.75623469  0.19495667  0.65125177  1
