# generated using pymatgen
data_Mo2O5
_symmetry_space_group_name_H-M   'P 1'
_cell_length_a   11.98733642
_cell_length_b   6.29208718
_cell_length_c   3.85212070
_cell_angle_alpha   107.82485946
_cell_angle_beta   90.00000000
_cell_angle_gamma   90.00000000
_symmetry_Int_Tables_number   1
_chemical_formula_structural   Mo2O5
_chemical_formula_sum   'Mo4 O10'
_cell_volume   276.60035941
_cell_formula_units_Z   2
loop_
 _symmetry_equiv_pos_site_id
 _symmetry_equiv_pos_as_xyz
  1  'x, y, z'
loop_
 _atom_site_type_symbol
 _atom_site_label
 _atom_site_symmetry_multiplicity
 _atom_site_fract_x
 _atom_site_fract_y
 _atom_site_fract_z
 _atom_site_occupancy
  Mo  Mo0  1  0.15045335  0.89737100  0.94868450  1
  Mo  Mo1  1  0.34954665  0.10262900  0.55131550  1
  Mo  Mo2  1  0.65045335  0.10262900  0.55131550  1
  Mo  Mo3  1  0.84954665  0.89737100  0.94868450  1
  O  O4  1  0.00000000  0.01965182  0.00982691  1
  O  O5  1  0.14007794  0.61411457  0.80705729  1
  O  O6  1  0.18243705  0.99297541  0.49648721  1
  O  O7  1  0.31756295  0.00702259  0.00351179  1
  O  O8  1  0.35992206  0.38588543  0.69294271  1
  O  O9  1  0.50000000  0.98034818  0.49017309  1
  O  O10  1  0.64007794  0.38588543  0.69294271  1
  O  O11  1  0.85992206  0.61411457  0.80705729  1
  O  O12  1  0.68243705  0.00702259  0.00351179  1
  O  O13  1  0.81756295  0.99297541  0.49648721  1
