# generated using pymatgen
data_ZnSi4SnO10
_symmetry_space_group_name_H-M   'P 1'
_cell_length_a   7.63857104
_cell_length_b   7.63857104
_cell_length_c   15.05240745
_cell_angle_alpha   90.00000000
_cell_angle_beta   90.00000000
_cell_angle_gamma   90.00000000
_symmetry_Int_Tables_number   1
_chemical_formula_structural   ZnSi4SnO10
_chemical_formula_sum   'Zn4 Si16 Sn4 O40'
_cell_volume   878.27437071
_cell_formula_units_Z   4
loop_
 _symmetry_equiv_pos_site_id
 _symmetry_equiv_pos_as_xyz
  1  'x, y, z'
loop_
 _atom_site_type_symbol
 _atom_site_label
 _atom_site_symmetry_multiplicity
 _atom_site_fract_x
 _atom_site_fract_y
 _atom_site_fract_z
 _atom_site_occupancy
  Zn  Zn0  1  0.25000000  0.75000000  0.50000000  1
  Zn  Zn1  1  0.75000000  0.25000000  0.50000000  1
  Zn  Zn2  1  0.75000000  0.25000000  -0.00000000  1
  Zn  Zn3  1  0.25000000  0.75000000  -0.00000000  1
  Si  Si4  1  0.88533908  0.48801271  0.64852589  1
  Si  Si5  1  0.61466092  0.01198729  0.64852589  1
  Si  Si6  1  0.98801271  0.38533908  0.85147411  1
  Si  Si7  1  0.48801271  0.61466092  0.64852589  1
  Si  Si8  1  0.01198729  0.88533908  0.64852589  1
  Si  Si9  1  0.11466092  0.98801271  0.85147411  1
  Si  Si10  1  0.38533908  0.51198729  0.85147411  1
  Si  Si11  1  0.51198729  0.11466092  0.85147411  1
  Si  Si12  1  0.11466092  0.51198729  0.35147411  1
  Si  Si13  1  0.38533908  0.98801271  0.35147411  1
  Si  Si14  1  0.01198729  0.61466092  0.14852589  1
  Si  Si15  1  0.51198729  0.38533908  0.35147411  1
  Si  Si16  1  0.98801271  0.11466092  0.35147411  1
  Si  Si17  1  0.88533908  0.01198729  0.14852589  1
  Si  Si18  1  0.61466092  0.48801271  0.14852589  1
  Si  Si19  1  0.48801271  0.88533908  0.14852589  1
  Sn  Sn20  1  0.25000000  0.25000000  0.59910670  1
  Sn  Sn21  1  0.75000000  0.75000000  0.90089330  1
  Sn  Sn22  1  0.75000000  0.75000000  0.40089330  1
  Sn  Sn23  1  0.25000000  0.25000000  0.09910670  1
  O  O24  1  0.95045820  0.34420323  0.57601296  1
  O  O25  1  0.54954180  0.15579677  0.57601296  1
  O  O26  1  0.84420323  0.45045820  0.92398704  1
  O  O27  1  0.34420323  0.54954180  0.57601296  1
  O  O28  1  0.15579677  0.95045820  0.57601296  1
  O  O29  1  0.04954180  0.84420323  0.92398704  1
  O  O30  1  0.45045820  0.65579677  0.92398704  1
  O  O31  1  0.65579677  0.04954180  0.92398704  1
  O  O32  1  0.04954180  0.65579677  0.42398704  1
  O  O33  1  0.45045820  0.84420323  0.42398704  1
  O  O34  1  0.15579677  0.54954180  0.07601296  1
  O  O35  1  0.65579677  0.45045820  0.42398704  1
  O  O36  1  0.84420323  0.04954180  0.42398704  1
  O  O37  1  0.95045820  0.15579677  0.07601296  1
  O  O38  1  0.54954180  0.34420323  0.07601296  1
  O  O39  1  0.01668446  0.32432373  0.36496321  1
  O  O40  1  0.34420323  0.95045820  0.07601296  1
  O  O41  1  0.51668446  0.82432373  0.63503679  1
  O  O42  1  0.17567627  0.48331554  0.86496321  1
  O  O43  1  0.67567627  0.51668446  0.63503679  1
  O  O44  1  0.82432373  0.98331554  0.63503679  1
  O  O45  1  0.01668446  0.17567627  0.86496321  1
  O  O46  1  0.48331554  0.32432373  0.86496321  1
  O  O47  1  0.32432373  0.01668446  0.86496321  1
  O  O48  1  0.42399889  0.92399889  0.25000000  1
  O  O49  1  0.57600111  0.42399889  0.25000000  1
  O  O50  1  0.92399889  0.07600211  0.25000000  1
  O  O51  1  0.07600211  0.57600111  0.25000000  1
  O  O52  1  0.57600111  0.07600211  0.75000000  1
  O  O53  1  0.42399889  0.57600111  0.75000000  1
  O  O54  1  0.07600211  0.92399889  0.75000000  1
  O  O55  1  0.92399889  0.42399889  0.75000000  1
  O  O56  1  0.67567627  0.98331554  0.13503679  1
  O  O57  1  0.51668446  0.67567627  0.13503679  1
  O  O58  1  0.98331554  0.82432373  0.13503679  1
  O  O59  1  0.17567627  0.01668446  0.36496321  1
  O  O60  1  0.32432373  0.48331554  0.36496321  1
  O  O61  1  0.82432373  0.51668446  0.13503679  1
  O  O62  1  0.48331554  0.17567627  0.36496321  1
  O  O63  1  0.98331554  0.67567627  0.63503679  1
