# generated using pymatgen
data_CaTiSb(PO4)3
_symmetry_space_group_name_H-M   'P 1'
_cell_length_a   9.02540053
_cell_length_b   9.02540046
_cell_length_c   9.02540085
_cell_angle_alpha   59.85672333
_cell_angle_beta   59.85672685
_cell_angle_gamma   59.85672796
_symmetry_Int_Tables_number   1
_chemical_formula_structural   CaTiSb(PO4)3
_chemical_formula_sum   'Ca2 Ti2 Sb2 P6 O24'
_cell_volume   518.16747305
_cell_formula_units_Z   2
loop_
 _symmetry_equiv_pos_site_id
 _symmetry_equiv_pos_as_xyz
  1  'x, y, z'
loop_
 _atom_site_type_symbol
 _atom_site_label
 _atom_site_symmetry_multiplicity
 _atom_site_fract_x
 _atom_site_fract_y
 _atom_site_fract_z
 _atom_site_occupancy
  Ca  Ca0  1  0.99710811  0.99710811  0.99710811  1
  Ca  Ca1  1  0.49710811  0.49710811  0.49710811  1
  Ti  Ti2  1  0.15067882  0.15067882  0.15067882  1
  Ti  Ti3  1  0.65067882  0.65067882  0.65067882  1
  Sb  Sb4  1  0.34900994  0.34900994  0.34900994  1
  Sb  Sb5  1  0.84900994  0.84900994  0.84900994  1
  P  P6  1  0.03954744  0.44258820  0.76736861  1
  P  P7  1  0.44258820  0.76736861  0.03954744  1
  P  P8  1  0.76736861  0.03954744  0.44258820  1
  P  P9  1  0.26736861  0.94258820  0.53954744  1
  P  P10  1  0.53954744  0.26736861  0.94258820  1
  P  P11  1  0.94258820  0.53954744  0.26736861  1
  O  O12  1  0.08639023  0.51477892  0.32689048  1
  O  O13  1  0.32689048  0.08639023  0.51477892  1
  O  O14  1  0.04505279  0.26143016  0.93073821  1
  O  O15  1  0.51477892  0.32689048  0.08639023  1
  O  O16  1  0.01477892  0.58639023  0.82689048  1
  O  O17  1  0.22200193  0.42145279  0.61024058  1
  O  O18  1  0.26143016  0.93073821  0.04505279  1
  O  O19  1  0.42145279  0.61024058  0.22200193  1
  O  O20  1  0.21100018  0.00363818  0.37008144  1
  O  O21  1  0.61024058  0.22200193  0.42145279  1
  O  O22  1  0.11024058  0.92145379  0.72200193  1
  O  O23  1  0.37008144  0.21100018  0.00363818  1
  O  O24  1  0.58639023  0.82689048  0.01477892  1
  O  O25  1  0.93073821  0.04505279  0.26143016  1
  O  O26  1  0.43073821  0.76143016  0.54505279  1
  O  O27  1  0.82689048  0.01477892  0.58639023  1
  O  O28  1  0.54505279  0.43073821  0.76143016  1
  O  O29  1  0.72200193  0.11024058  0.92145379  1
  O  O30  1  0.76143016  0.54505279  0.43073821  1
  O  O31  1  0.00363818  0.37008144  0.21100018  1
  O  O32  1  0.50363818  0.71100018  0.87008144  1
  O  O33  1  0.92145379  0.72200193  0.11024058  1
  O  O34  1  0.71100018  0.87008144  0.50363818  1
  O  O35  1  0.87008144  0.50363818  0.71100018  1
