# generated using pymatgen
data_Ta6Zn3(FeO6)4
_symmetry_space_group_name_H-M   'P 1'
_cell_length_a   7.03418664
_cell_length_b   8.27088117
_cell_length_c   10.31100790
_cell_angle_alpha   106.66628882
_cell_angle_beta   103.32823552
_cell_angle_gamma   102.17462663
_symmetry_Int_Tables_number   1
_chemical_formula_structural   Ta6Zn3(FeO6)4
_chemical_formula_sum   'Ta6 Zn3 Fe4 O24'
_cell_volume   533.94404108
_cell_formula_units_Z   1
loop_
 _symmetry_equiv_pos_site_id
 _symmetry_equiv_pos_as_xyz
  1  'x, y, z'
loop_
 _atom_site_type_symbol
 _atom_site_label
 _atom_site_symmetry_multiplicity
 _atom_site_fract_x
 _atom_site_fract_y
 _atom_site_fract_z
 _atom_site_occupancy
  Ta  Ta0  1  0.77846734  0.33142732  0.72892191  1
  Ta  Ta1  1  0.22153260  0.66857243  0.27107794  1
  Ta  Ta2  1  0.89546514  0.90973345  0.66785523  1
  Ta  Ta3  1  0.40770496  0.73219798  0.87813695  1
  Ta  Ta4  1  0.10453508  0.09026685  0.33214495  1
  Ta  Ta5  1  0.59229443  0.26780232  0.12186342  1
  Zn  Zn6  1  0.99999982  0.50000007  0.50000001  1
  Zn  Zn7  1  0.28521942  0.28352948  0.79833866  1
  Zn  Zn8  1  0.71478022  0.71647034  0.20166150  1
  Fe  Fe9  1  0.37982803  0.95194956  0.60865650  1
  Fe  Fe10  1  0.62017215  0.04805021  0.39134363  1
  Fe  Fe11  1  0.04176905  0.20432901  0.01192530  1
  Fe  Fe12  1  0.95823082  0.79567089  0.98807454  1
  O  O13  1  0.87975342  0.67965912  0.58108632  1
  O  O14  1  0.12024678  0.32034129  0.41891387  1
  O  O15  1  0.27622727  0.49912783  0.75893379  1
  O  O16  1  0.72377251  0.50087186  0.24106653  1
  O  O17  1  0.78151042  0.29699328  0.53949441  1
  O  O18  1  0.21848983  0.70300713  0.46050612  1
  O  O19  1  0.66183744  0.96905323  0.57588332  1
  O  O20  1  0.33816289  0.03094663  0.42411668  1
  O  O21  1  0.66024057  0.75681496  0.01217263  1
  O  O22  1  0.33975971  0.24318499  0.98782772  1
  O  O23  1  0.48194908  0.77956464  0.27027416  1
  O  O24  1  0.51805147  0.22043534  0.72972572  1
  O  O25  1  0.13827406  0.02773656  0.64573716  1
  O  O26  1  0.07182344  0.06184295  0.13891579  1
  O  O27  1  0.92817627  0.93815677  0.86108417  1
  O  O28  1  0.56421821  0.13501476  0.23864260  1
  O  O29  1  0.43578128  0.86498530  0.76135695  1
  O  O30  1  0.16586221  0.43513399  0.16641056  1
  O  O31  1  0.83413792  0.56486582  0.83358953  1
  O  O32  1  0.97946547  0.24560336  0.82221276  1
  O  O33  1  0.02053410  0.75439641  0.17778676  1
  O  O34  1  0.23081013  0.79406465  0.97628803  1
  O  O35  1  0.76918981  0.20593504  0.02371219  1
  O  O36  1  0.86172565  0.97226317  0.35426273  1
