# generated using pymatgen
data_LaMgFeCuO6
_symmetry_space_group_name_H-M   'P 1'
_cell_length_a   5.43057268
_cell_length_b   5.26333702
_cell_length_c   7.81168032
_cell_angle_alpha   91.81105900
_cell_angle_beta   90.00000000
_cell_angle_gamma   90.00000000
_symmetry_Int_Tables_number   1
_chemical_formula_structural   LaMgFeCuO6
_chemical_formula_sum   'La2 Mg2 Fe2 Cu2 O12'
_cell_volume   223.16921147
_cell_formula_units_Z   2
loop_
 _symmetry_equiv_pos_site_id
 _symmetry_equiv_pos_as_xyz
  1  'x, y, z'
loop_
 _atom_site_type_symbol
 _atom_site_label
 _atom_site_symmetry_multiplicity
 _atom_site_fract_x
 _atom_site_fract_y
 _atom_site_fract_z
 _atom_site_occupancy
  La  La0  1  0.03717900  0.98991481  0.25291595  1
  La  La1  1  0.46282100  0.48991481  0.75291595  1
  Mg  Mg2  1  0.55720458  0.53086282  0.24846541  1
  Mg  Mg3  1  0.94279542  0.03086282  0.74846541  1
  Fe  Fe4  1  0.50225085  0.00463218  0.00473437  1
  Fe  Fe5  1  0.99774915  0.50463218  0.50473437  1
  Cu  Cu6  1  0.49958769  0.99486760  0.50097224  1
  Cu  Cu7  1  0.00041231  0.49486760  0.00097224  1
  O  O8  1  0.02122521  0.63805685  0.73933198  1
  O  O9  1  0.19762166  0.19596237  0.93663112  1
  O  O10  1  0.20379101  0.18526328  0.55661511  1
  O  O11  1  0.29620899  0.68526328  0.05661511  1
  O  O12  1  0.30237834  0.69596237  0.43663112  1
  O  O13  1  0.47877479  0.13805685  0.23933098  1
  O  O14  1  0.55134311  0.92837204  0.76089107  1
  O  O15  1  0.73555340  0.25923019  0.55998162  1
  O  O16  1  0.74285504  0.27283686  0.93946212  1
  O  O17  1  0.75714496  0.77283686  0.43946212  1
  O  O18  1  0.76444660  0.75923019  0.05998162  1
  O  O19  1  0.94865689  0.42837204  0.26089107  1
