# generated using pymatgen
data_Cr2O5
_symmetry_space_group_name_H-M   'P 1'
_cell_length_a   11.09394237
_cell_length_b   6.13336927
_cell_length_c   3.61396391
_cell_angle_alpha   107.13444640
_cell_angle_beta   90.00000000
_cell_angle_gamma   90.00000000
_symmetry_Int_Tables_number   1
_chemical_formula_structural   Cr2O5
_chemical_formula_sum   'Cr4 O10'
_cell_volume   234.99156376
_cell_formula_units_Z   2
loop_
 _symmetry_equiv_pos_site_id
 _symmetry_equiv_pos_as_xyz
  1  'x, y, z'
loop_
 _atom_site_type_symbol
 _atom_site_label
 _atom_site_symmetry_multiplicity
 _atom_site_fract_x
 _atom_site_fract_y
 _atom_site_fract_z
 _atom_site_occupancy
  Cr  Cr0  1  0.15113090  0.90625821  0.95312911  1
  Cr  Cr1  1  0.34886910  0.09374179  0.54687089  1
  Cr  Cr2  1  0.65113090  0.09374179  0.54687089  1
  Cr  Cr3  1  0.84886910  0.90625821  0.95312911  1
  O  O4  1  0.00000000  0.02188559  0.01094330  1
  O  O5  1  0.14100527  0.63776230  0.81888165  1
  O  O6  1  0.18135442  0.99562153  0.49781077  1
  O  O7  1  0.31864558  0.00437647  0.00218823  1
  O  O8  1  0.35899473  0.36223770  0.68111835  1
  O  O9  1  0.50000000  0.97811441  0.48905670  1
  O  O10  1  0.64100527  0.36223770  0.68111835  1
  O  O11  1  0.85899473  0.63776230  0.81888165  1
  O  O12  1  0.68135442  0.00437647  0.00218823  1
  O  O13  1  0.81864558  0.99562153  0.49781077  1
