# generated using pymatgen
data_Ge11N11O5
_symmetry_space_group_name_H-M   'P 1'
_cell_length_a   5.91496877
_cell_length_b   5.91496876
_cell_length_c   10.21116861
_cell_angle_alpha   90.22058408
_cell_angle_beta   72.92372215
_cell_angle_gamma   119.98145046
_symmetry_Int_Tables_number   1
_chemical_formula_structural   Ge11N11O5
_chemical_formula_sum   'Ge11 N11 O5'
_cell_volume   291.37085580
_cell_formula_units_Z   1
loop_
 _symmetry_equiv_pos_site_id
 _symmetry_equiv_pos_as_xyz
  1  'x, y, z'
loop_
 _atom_site_type_symbol
 _atom_site_label
 _atom_site_symmetry_multiplicity
 _atom_site_fract_x
 _atom_site_fract_y
 _atom_site_fract_z
 _atom_site_occupancy
  Ge  Ge0  1  0.62545051  0.06320250  0.31134699  1
  Ge  Ge1  1  0.62706661  0.31294099  0.05999341  1
  Ge  Ge2  1  0.00431322  0.00136180  0.99432398  1
  Ge  Ge3  1  0.62230357  0.05845757  0.81485480  1
  Ge  Ge4  1  0.62126544  0.56483860  0.30587817  1
  Ge  Ge5  1  0.12928423  0.07285639  0.30587817  1
  Ge  Ge6  1  0.24679187  0.62707055  0.12613658  1
  Ge  Ge7  1  0.62351098  0.56356047  0.81292854  1
  Ge  Ge8  1  0.61594372  0.81537935  0.56867794  1
  Ge  Ge9  1  0.00487531  0.48991064  0.50521305  1
  Ge  Ge10  1  0.12668764  0.56284163  0.81485480  1
  N  N11  1  0.86525278  0.15587999  0.43670311  1
  N  N12  1  0.85112422  0.42746826  0.19274775  1
  N  N13  1  0.38165720  0.42890038  0.18944143  1
  N  N14  1  0.86849068  0.93362143  0.19788789  1
  N  N15  1  0.86991289  0.19939114  0.93069597  1
  N  N16  1  0.86655655  0.43011112  0.70333233  1
  N  N17  1  0.40045388  0.20035509  0.93037643  1
  N  N18  1  0.40741790  0.69804511  0.43670311  1
  N  N19  1  0.86926848  0.66916970  0.93037643  1
  N  N20  1  0.37978399  0.95612804  0.19274775  1
  N  N21  1  0.38059758  0.69074889  0.92865353  1
  O  O22  1  0.39305523  0.19878269  0.40816208  1
  O  O23  1  0.86377887  0.69864799  0.43757414  1
  O  O24  1  0.82573429  0.91212973  0.69562486  1
  O  O25  1  0.39224541  0.47863985  0.69562486  1
  O  O26  1  0.38717696  0.91456011  0.69826293  1
