# generated using pymatgen
data_CaCu3(BiO3)4
_symmetry_space_group_name_H-M   'P 1'
_cell_length_a   7.11567861
_cell_length_b   7.11558588
_cell_length_c   7.11561518
_cell_angle_alpha   109.47213278
_cell_angle_beta   109.49230390
_cell_angle_gamma   109.45059072
_symmetry_Int_Tables_number   1
_chemical_formula_structural   CaCu3(BiO3)4
_chemical_formula_sum   'Ca1 Cu3 Bi4 O12'
_cell_volume   277.33851697
_cell_formula_units_Z   1
loop_
 _symmetry_equiv_pos_site_id
 _symmetry_equiv_pos_as_xyz
  1  'x, y, z'
loop_
 _atom_site_type_symbol
 _atom_site_label
 _atom_site_symmetry_multiplicity
 _atom_site_fract_x
 _atom_site_fract_y
 _atom_site_fract_z
 _atom_site_occupancy
  Ca  Ca0  1  0.00000000  -0.00000000  -0.00000000  1
  Cu  Cu1  1  0.50000100  0.50000100  0.00000100  1
  Cu  Cu2  1  0.00000000  0.50000000  0.50000000  1
  Cu  Cu3  1  0.50000000  -0.00000000  0.50000000  1
  Bi  Bi4  1  0.00000000  -0.00000000  0.50000000  1
  Bi  Bi5  1  0.00000000  0.50000000  -0.00000000  1
  Bi  Bi6  1  0.50000000  0.50000000  0.50000000  1
  Bi  Bi7  1  0.50000000  -0.00000000  -0.00000000  1
  O  O8  1  0.84652022  0.31917150  0.16567209  1
  O  O9  1  0.15347978  0.68082850  0.83432791  1
  O  O10  1  0.84647976  0.68082850  0.52731139  1
  O  O11  1  0.31927304  0.47266816  0.15338419  1
  O  O12  1  0.47274518  0.15349319  0.31923328  1
  O  O13  1  0.16572398  0.84647199  0.31924898  1
  O  O14  1  0.68068508  0.83412601  0.15341389  1
  O  O15  1  0.52725582  0.84650781  0.68076672  1
  O  O16  1  0.15351924  0.31917150  0.47268861  1
  O  O17  1  0.68072596  0.52733184  0.84661581  1
  O  O18  1  0.83427602  0.15352801  0.68075002  1
  O  O19  1  0.31931492  0.16587399  0.84658711  1
