# generated using pymatgen
data_SbO2
_symmetry_space_group_name_H-M   'P 1'
_cell_length_a   6.53528095
_cell_length_b   5.94257770
_cell_length_c   12.29461888
_cell_angle_alpha   89.90185121
_cell_angle_beta   89.88356422
_cell_angle_gamma   90.00008445
_symmetry_Int_Tables_number   1
_chemical_formula_structural   SbO2
_chemical_formula_sum   'Sb8 O16'
_cell_volume   477.47723267
_cell_formula_units_Z   8
loop_
 _symmetry_equiv_pos_site_id
 _symmetry_equiv_pos_as_xyz
  1  'x, y, z'
loop_
 _atom_site_type_symbol
 _atom_site_label
 _atom_site_symmetry_multiplicity
 _atom_site_fract_x
 _atom_site_fract_y
 _atom_site_fract_z
 _atom_site_occupancy
  Sb  Sb0  1  0.53554111  0.75027325  0.42471998  1
  Sb  Sb1  1  0.53462654  0.74972857  0.07532542  1
  Sb  Sb2  1  0.46479686  0.24971994  0.57544565  1
  Sb  Sb3  1  0.46515222  0.25027898  0.92461538  1
  Sb  Sb4  1  0.00015233  0.50007544  0.50004010  1
  Sb  Sb5  1  0.99986816  -0.00007470  0.99996319  1
  Sb  Sb6  1  0.00015007  -0.00007624  0.50004228  1
  Sb  Sb7  1  0.99986424  0.50006784  0.99995977  1
  O  O8  1  0.95417273  0.75039632  0.39225016  1
  O  O9  1  0.95303002  0.74960176  0.10776184  1
  O  O10  1  0.04604336  0.24961987  0.60786408  1
  O  O11  1  0.04667391  0.25037627  0.89218549  1
  O  O12  1  0.03274806  0.74961924  0.60562432  1
  O  O13  1  0.03313972  0.75038025  0.89435049  1
  O  O14  1  0.96742708  0.25039100  0.39441081  1
  O  O15  1  0.96657047  0.24960527  0.10558752  1
  O  O16  1  0.68393176  0.50311017  0.52107284  1
  O  O17  1  0.68382059  0.99679696  0.97890756  1
  O  O18  1  0.31634390  0.00344829  0.47901349  1
  O  O19  1  0.31591916  0.49680967  0.02093685  1
  O  O20  1  0.31634960  0.49668231  0.47900131  1
  O  O21  1  0.31592373  0.00306070  0.02095231  1
  O  O22  1  0.68393163  0.99676133  0.52106259  1
  O  O23  1  0.68381975  0.50334651  0.97890957  1
