# generated using pymatgen
data_Ca(BiO2)2
_symmetry_space_group_name_H-M   'P 1'
_cell_length_a   7.07005364
_cell_length_b   7.07006986
_cell_length_c   21.20249032
_cell_angle_alpha   59.99253475
_cell_angle_beta   59.99253207
_cell_angle_gamma   59.99833755
_symmetry_Int_Tables_number   1
_chemical_formula_structural   Ca(BiO2)2
_chemical_formula_sum   'Ca6 Bi12 O24'
_cell_volume   749.31393839
_cell_formula_units_Z   6
loop_
 _symmetry_equiv_pos_site_id
 _symmetry_equiv_pos_as_xyz
  1  'x, y, z'
loop_
 _atom_site_type_symbol
 _atom_site_label
 _atom_site_symmetry_multiplicity
 _atom_site_fract_x
 _atom_site_fract_y
 _atom_site_fract_z
 _atom_site_occupancy
  Ca  Ca0  1  0.12263004  0.12262923  0.04404105  1
  Ca  Ca1  1  0.12543417  0.12543641  0.37457008  1
  Ca  Ca2  1  0.49830272  0.49829990  0.00169557  1
  Ca  Ca3  1  0.12538051  0.12538149  0.70794541  1
  Ca  Ca4  1  0.87524696  0.87524912  0.29143287  1
  Ca  Ca5  1  0.87559236  0.87559191  0.62441506  1
  Bi  Bi6  1  0.00813798  0.49931113  0.16439202  1
  Bi  Bi7  1  0.49944811  0.49944809  0.16434067  1
  Bi  Bi8  1  0.00269516  0.50092574  0.49849689  1
  Bi  Bi9  1  0.49931455  0.00813943  0.16439096  1
  Bi  Bi10  1  0.50415960  0.50415553  0.32917093  1
  Bi  Bi11  1  0.50090622  0.50090789  0.49852473  1
  Bi  Bi12  1  0.00130579  0.49991501  0.83288539  1
  Bi  Bi13  1  0.50091746  0.00270021  0.49849758  1
  Bi  Bi14  1  0.49991476  0.00130902  0.83288302  1
  Bi  Bi15  1  0.50263671  0.50263811  0.66400904  1
  Bi  Bi16  1  0.49997863  0.49996801  0.83287459  1
  Bi  Bi17  1  0.87836474  0.87836707  0.95495449  1
  O  O18  1  0.25885047  0.25885624  0.08766597  1
  O  O19  1  0.26089562  0.26088862  0.23911728  1
  O  O20  1  0.25887122  0.71930298  0.08766025  1
  O  O21  1  0.71931229  0.25886690  0.08766055  1
  O  O22  1  0.27339219  0.73955473  0.24919932  1
  O  O23  1  0.25436628  0.25436704  0.42102330  1
  O  O24  1  0.73955989  0.27339378  0.24919937  1
  O  O25  1  0.74920994  0.74920931  0.08410977  1
  O  O26  1  0.25442767  0.72820607  0.42099619  1
  O  O27  1  0.25816622  0.25816783  0.57516358  1
  O  O28  1  0.73946094  0.73946033  0.24924216  1
  O  O29  1  0.72821048  0.25442373  0.42099727  1
  O  O30  1  0.27445923  0.73952180  0.58221465  1
  O  O31  1  0.25495565  0.25496169  0.75506277  1
  O  O32  1  0.73952574  0.27445633  0.58221626  1
  O  O33  1  0.74249695  0.74250561  0.42413360  1
  O  O34  1  0.25747663  0.25747009  0.90920624  1
  O  O35  1  0.25491163  0.72487637  0.75508560  1
  O  O36  1  0.73943090  0.73942293  0.58223620  1
  O  O37  1  0.72487403  0.25492242  0.75508611  1
  O  O38  1  0.27454029  0.73989076  0.91523892  1
  O  O39  1  0.74251088  0.74251556  0.75747898  1
  O  O40  1  0.73988283  0.27454095  0.91524020  1
  O  O41  1  0.73984356  0.73984662  0.91524412  1
