# generated using pymatgen
data_CaFe2(PO5)2
_symmetry_space_group_name_H-M   'P 1'
_cell_length_a   6.96592618
_cell_length_b   6.96592585
_cell_length_c   8.64451359
_cell_angle_alpha   102.90557441
_cell_angle_beta   102.90557511
_cell_angle_gamma   116.46626265
_symmetry_Int_Tables_number   1
_chemical_formula_structural   CaFe2(PO5)2
_chemical_formula_sum   'Ca2 Fe4 P4 O20'
_cell_volume   340.04011571
_cell_formula_units_Z   2
loop_
 _symmetry_equiv_pos_site_id
 _symmetry_equiv_pos_as_xyz
  1  'x, y, z'
loop_
 _atom_site_type_symbol
 _atom_site_label
 _atom_site_symmetry_multiplicity
 _atom_site_fract_x
 _atom_site_fract_y
 _atom_site_fract_z
 _atom_site_occupancy
  Ca  Ca0  1  0.49614083  0.99614083  0.50000000  1
  Ca  Ca1  1  0.24614083  0.24614083  1.00000000  1
  Fe  Fe2  1  0.87096952  0.61942988  0.25065736  1
  Fe  Fe3  1  0.36877252  0.62031116  0.74934264  1
  Fe  Fe4  1  0.87031116  0.11877252  0.24934264  1
  Fe  Fe5  1  0.86942988  0.62096952  0.75065736  1
  P  P6  1  0.03761911  0.03745642  0.58491486  1
  P  P7  1  0.70270325  0.20254156  0.91508514  1
  P  P8  1  0.45254156  0.45270325  0.41508514  1
  P  P9  1  0.28745642  0.78761911  0.08491486  1
  O  O10  1  0.57292674  0.55095541  0.29786638  1
  O  O11  1  0.67166611  0.67325364  0.85529785  1
  O  O12  1  0.31249518  0.60305795  0.96695779  1
  O  O13  1  0.80095541  0.32292674  0.79786638  1
  O  O14  1  0.21596056  0.23607829  0.29705224  1
  O  O15  1  0.42538039  0.63671063  0.53155716  1
  O  O16  1  0.06636826  0.56795579  0.64470215  1
  O  O17  1  0.81795579  0.81636826  0.14470215  1
  O  O18  1  0.92325364  0.42166611  0.35529785  1
  O  O19  1  0.16890832  0.68902705  0.20294776  1
  O  O20  1  0.25309002  0.27506136  0.70213362  1
  O  O21  1  0.48607829  0.96596056  0.79705224  1
  O  O22  1  0.93902705  0.91890832  0.70294776  1
  O  O23  1  0.14382423  0.85515447  0.96844284  1
  O  O24  1  0.10515447  0.89382423  0.46844284  1
  O  O25  1  0.88671063  0.17538039  0.03155716  1
  O  O26  1  0.85305795  0.06249518  0.46695779  1
  O  O27  1  0.63610016  0.34553839  0.03304221  1
  O  O28  1  0.52506136  0.00309002  0.20213362  1
  O  O29  1  0.59553839  0.38610016  0.53304221  1
