# generated using pymatgen
data_AlV3O6
_symmetry_space_group_name_H-M   'P 1'
_cell_length_a   17.93800238
_cell_length_b   5.94952421
_cell_length_c   5.94952411
_cell_angle_alpha   60.07789542
_cell_angle_beta   60.19052534
_cell_angle_gamma   60.19052243
_symmetry_Int_Tables_number   1
_chemical_formula_structural   AlV3O6
_chemical_formula_sum   'Al4 V12 O24'
_cell_volume   450.53102775
_cell_formula_units_Z   4
loop_
 _symmetry_equiv_pos_site_id
 _symmetry_equiv_pos_as_xyz
  1  'x, y, z'
loop_
 _atom_site_type_symbol
 _atom_site_label
 _atom_site_symmetry_multiplicity
 _atom_site_fract_x
 _atom_site_fract_y
 _atom_site_fract_z
 _atom_site_occupancy
  Al  Al0  1  0.20467330  0.62905308  0.62905308  1
  Al  Al1  1  0.87749061  0.62265282  0.62265282  1
  Al  Al2  1  0.46199270  0.37094692  0.37094692  1
  Al  Al3  1  0.78917639  0.37734718  0.37734718  1
  V  V4  1  0.00207089  0.49113349  0.00125784  1
  V  V5  1  0.33333300  0.50000000  -0.00000000  1
  V  V6  1  0.66459611  0.50886651  0.99874216  1
  V  V7  1  0.00083555  0.00242143  0.00242143  1
  V  V8  1  0.33333300  -0.00000000  -0.00000000  1
  V  V9  1  0.66583145  0.99757857  0.99757857  1
  V  V10  1  0.16131737  0.00771019  0.00771019  1
  V  V11  1  0.50534963  0.99228981  0.99228981  1
  V  V12  1  0.83333300  -0.00000000  -0.00000000  1
  V  V13  1  0.00207089  0.00125784  0.49113349  1
  V  V14  1  0.33333300  -0.00000000  0.50000000  1
  V  V15  1  0.66459611  0.99874216  0.50886651  1
  O  O16  1  0.08108953  0.75277162  0.75277162  1
  O  O17  1  0.39665235  0.77014781  0.77014781  1
  O  O18  1  0.75527241  0.74585263  0.74585263  1
  O  O19  1  0.07474283  0.24101940  0.79435738  1
  O  O20  1  0.41961226  0.24529429  0.74932389  1
  O  O21  1  0.75070965  0.24577467  0.75514735  1
  O  O22  1  0.07474283  0.79435738  0.24101940  1
  O  O23  1  0.41961226  0.74932389  0.24529429  1
  O  O24  1  0.75070965  0.75514735  0.24577467  1
  O  O25  1  0.07176904  0.24622992  0.24622992  1
  O  O26  1  0.41779373  0.24896940  0.24896940  1
  O  O27  1  0.75203578  0.24293423  0.24293423  1
  O  O28  1  0.24705474  0.75470571  0.25067611  1
  O  O29  1  0.59192317  0.75898060  0.20564262  1
  O  O30  1  0.91595735  0.75422533  0.24485265  1
  O  O31  1  0.27001465  0.22985219  0.22985219  1
  O  O32  1  0.58557647  0.24722838  0.24722838  1
  O  O33  1  0.91139359  0.25414737  0.25414737  1
  O  O34  1  0.24705474  0.25067611  0.75470571  1
  O  O35  1  0.59192317  0.20564262  0.75898060  1
  O  O36  1  0.91595735  0.24485265  0.75422533  1
  O  O37  1  0.24887327  0.75103060  0.75103060  1
  O  O38  1  0.59489696  0.75377008  0.75377008  1
  O  O39  1  0.91463122  0.75706577  0.75706577  1
