# generated using pymatgen
data_TiZnSb(PO4)3
_symmetry_space_group_name_H-M   'P 1'
_cell_length_a   8.40961788
_cell_length_b   8.40961794
_cell_length_c   8.40961837
_cell_angle_alpha   63.81499948
_cell_angle_beta   63.81499959
_cell_angle_gamma   63.81500119
_symmetry_Int_Tables_number   1
_chemical_formula_structural   TiZnSb(PO4)3
_chemical_formula_sum   'Ti2 Zn2 Sb2 P6 O24'
_cell_volume   455.93444376
_cell_formula_units_Z   2
loop_
 _symmetry_equiv_pos_site_id
 _symmetry_equiv_pos_as_xyz
  1  'x, y, z'
loop_
 _atom_site_type_symbol
 _atom_site_label
 _atom_site_symmetry_multiplicity
 _atom_site_fract_x
 _atom_site_fract_y
 _atom_site_fract_z
 _atom_site_occupancy
  Ti  Ti0  1  0.15061334  0.15061334  0.15061334  1
  Ti  Ti1  1  0.65061334  0.65061334  0.65061334  1
  Zn  Zn2  1  0.99576198  0.99576198  0.99576198  1
  Zn  Zn3  1  0.49576198  0.49576198  0.49576198  1
  Sb  Sb4  1  0.33613344  0.33613344  0.33613344  1
  Sb  Sb5  1  0.83613344  0.83613344  0.83613344  1
  P  P6  1  0.06657085  0.43224982  0.75428757  1
  P  P7  1  0.43224982  0.75428757  0.06657085  1
  P  P8  1  0.75428757  0.06657085  0.43224982  1
  P  P9  1  0.25428757  0.93224982  0.56657085  1
  P  P10  1  0.56657085  0.25428757  0.93224982  1
  P  P11  1  0.93224982  0.56657085  0.25428757  1
  O  O12  1  0.06732192  0.56903726  0.32589562  1
  O  O13  1  0.32589562  0.06732192  0.56903726  1
  O  O14  1  0.07167311  0.23964634  0.90822180  1
  O  O15  1  0.56903726  0.32589562  0.06732192  1
  O  O16  1  0.06903726  0.56732192  0.82589562  1
  O  O17  1  0.24572382  0.41583104  0.58318012  1
  O  O18  1  0.23964634  0.90822180  0.07167311  1
  O  O19  1  0.41583104  0.58318012  0.24572382  1
  O  O20  1  0.20276895  0.00318036  0.38189765  1
  O  O21  1  0.58318012  0.24572382  0.41583104  1
  O  O22  1  0.08318012  0.91583104  0.74572382  1
  O  O23  1  0.38189765  0.20276895  0.00318036  1
  O  O24  1  0.56732192  0.82589562  0.06903726  1
  O  O25  1  0.90822180  0.07167311  0.23964634  1
  O  O26  1  0.40822180  0.73964634  0.57167311  1
  O  O27  1  0.82589562  0.06903726  0.56732192  1
  O  O28  1  0.57167311  0.40822180  0.73964634  1
  O  O29  1  0.74572382  0.08318012  0.91583104  1
  O  O30  1  0.73964634  0.57167311  0.40822180  1
  O  O31  1  0.00318036  0.38189765  0.20276895  1
  O  O32  1  0.50318036  0.70276895  0.88189765  1
  O  O33  1  0.91583104  0.74572382  0.08318012  1
  O  O34  1  0.70276895  0.88189765  0.50318036  1
  O  O35  1  0.88189765  0.50318036  0.70276895  1
