# generated using pymatgen
data_Li2FeS2
_symmetry_space_group_name_H-M   'P 1'
_cell_length_a   6.71268665
_cell_length_b   6.38280066
_cell_length_c   8.11918389
_cell_angle_alpha   90.00000000
_cell_angle_beta   92.82685707
_cell_angle_gamma   90.00000000
_symmetry_Int_Tables_number   1
_chemical_formula_structural   Li2FeS2
_chemical_formula_sum   'Li8 Fe4 S8'
_cell_volume   347.44913258
_cell_formula_units_Z   4
loop_
 _symmetry_equiv_pos_site_id
 _symmetry_equiv_pos_as_xyz
  1  'x, y, z'
loop_
 _atom_site_type_symbol
 _atom_site_label
 _atom_site_symmetry_multiplicity
 _atom_site_fract_x
 _atom_site_fract_y
 _atom_site_fract_z
 _atom_site_occupancy
  Li  Li0  1  0.11512918  0.64398853  0.72854500  1
  Li  Li1  1  0.11512918  0.85601147  0.22854500  1
  Li  Li2  1  0.46918873  0.98983886  0.81918965  1
  Li  Li3  1  0.46918873  0.51016114  0.31918965  1
  Li  Li4  1  0.53081127  0.48983886  0.68081035  1
  Li  Li5  1  0.53081127  0.01016114  0.18081035  1
  Li  Li6  1  0.88487082  0.14398853  0.77145500  1
  Li  Li7  1  0.88487082  0.35601147  0.27145500  1
  Fe  Fe8  1  0.34935500  0.38176847  0.99249812  1
  Fe  Fe9  1  0.34935500  0.11823153  0.49249812  1
  Fe  Fe10  1  0.65064500  0.88176847  0.50750188  1
  Fe  Fe11  1  0.65064500  0.61823153  0.00750188  1
  S  S12  1  0.22385084  0.26667619  0.73425532  1
  S  S13  1  0.22385084  0.23332381  0.23425532  1
  S  S14  1  0.31224960  0.73931836  0.99834954  1
  S  S15  1  0.31224960  0.76068164  0.49834954  1
  S  S16  1  0.68775040  0.23931836  0.50165046  1
  S  S17  1  0.68775040  0.26068164  0.00165046  1
  S  S18  1  0.77614916  0.76667619  0.76574468  1
  S  S19  1  0.77614916  0.73332381  0.26574468  1
