# generated using pymatgen
data_CaCuBiO5
_symmetry_space_group_name_H-M   'P 1'
_cell_length_a   5.61745027
_cell_length_b   8.71997617
_cell_length_c   11.01463371
_cell_angle_alpha   90.00000000
_cell_angle_beta   90.00000000
_cell_angle_gamma   117.03051571
_symmetry_Int_Tables_number   1
_chemical_formula_structural   CaCuBiO5
_chemical_formula_sum   'Ca4 Cu4 Bi4 O20'
_cell_volume   480.60418111
_cell_formula_units_Z   4
loop_
 _symmetry_equiv_pos_site_id
 _symmetry_equiv_pos_as_xyz
  1  'x, y, z'
loop_
 _atom_site_type_symbol
 _atom_site_label
 _atom_site_symmetry_multiplicity
 _atom_site_fract_x
 _atom_site_fract_y
 _atom_site_fract_z
 _atom_site_occupancy
  Ca  Ca0  1  0.67938178  0.21118126  0.90440285  1
  Ca  Ca1  1  0.32061822  0.78881874  0.09559715  1
  Ca  Ca2  1  0.82061822  0.28881874  0.40440285  1
  Ca  Ca3  1  0.17938178  0.71118126  0.59559715  1
  Cu  Cu4  1  0.82775134  0.96686417  0.64094727  1
  Cu  Cu5  1  0.17224866  0.03313583  0.35905273  1
  Cu  Cu6  1  0.67224866  0.53313583  0.14094727  1
  Cu  Cu7  1  0.32775134  0.46686417  0.85905273  1
  Bi  Bi8  1  0.16354144  0.15898403  0.10012536  1
  Bi  Bi9  1  0.83645856  0.84101597  0.89987464  1
  Bi  Bi10  1  0.66354144  0.65898403  0.39987464  1
  Bi  Bi11  1  0.33645856  0.34101597  0.60012536  1
  O  O12  1  0.59201477  0.31509557  0.08267145  1
  O  O13  1  0.13056416  0.35583677  0.99811363  1
  O  O14  1  0.59679271  0.70185599  0.21152789  1
  O  O15  1  0.74346505  0.50163136  0.53599568  1
  O  O16  1  0.69441380  0.46198571  0.29252829  1
  O  O17  1  0.19441380  0.96198571  0.20747171  1
  O  O18  1  0.63056416  0.85583677  0.50188637  1
  O  O19  1  0.36943584  0.14416323  0.49811363  1
  O  O20  1  0.25653495  0.49836864  0.46400432  1
  O  O21  1  0.90798523  0.18490443  0.58267145  1
  O  O22  1  0.30558620  0.53801429  0.70747171  1
  O  O23  1  0.40798523  0.68490443  0.91732855  1
  O  O24  1  0.09201477  0.81509557  0.41732855  1
  O  O25  1  0.80558620  0.03801429  0.79252829  1
  O  O26  1  0.75653495  0.99836864  0.03599568  1
  O  O27  1  0.24346505  0.00163136  0.96400432  1
  O  O28  1  0.40320729  0.29814401  0.78847211  1
  O  O29  1  0.86943584  0.64416323  0.00188637  1
  O  O30  1  0.90320729  0.79814401  0.71152789  1
  O  O31  1  0.09679271  0.20185599  0.28847211  1
