# generated using pymatgen
data_ZnP2(WO5)2
_symmetry_space_group_name_H-M   'P 1'
_cell_length_a   7.26784072
_cell_length_b   7.26784056
_cell_length_c   9.25671245
_cell_angle_alpha   101.63320196
_cell_angle_beta   101.63320158
_cell_angle_gamma   119.10075109
_symmetry_Int_Tables_number   1
_chemical_formula_structural   ZnP2(WO5)2
_chemical_formula_sum   'Zn2 P4 W4 O20'
_cell_volume   391.95480977
_cell_formula_units_Z   2
loop_
 _symmetry_equiv_pos_site_id
 _symmetry_equiv_pos_as_xyz
  1  'x, y, z'
loop_
 _atom_site_type_symbol
 _atom_site_label
 _atom_site_symmetry_multiplicity
 _atom_site_fract_x
 _atom_site_fract_y
 _atom_site_fract_z
 _atom_site_occupancy
  Zn  Zn0  1  0.75216664  0.25216664  0.50000000  1
  Zn  Zn1  1  0.50216664  0.50216664  0.00000000  1
  P  P2  1  0.01575026  0.02051673  0.57904931  1
  P  P3  1  0.68670094  0.19146842  0.92095069  1
  P  P4  1  0.44146842  0.43670094  0.42095069  1
  P  P5  1  0.27051673  0.76575026  0.07904931  1
  W  W6  1  0.88609798  0.60671435  0.27372542  1
  W  W7  1  0.33298993  0.61237156  0.72627458  1
  W  W8  1  0.86237156  0.08298993  0.22627458  1
  W  W9  1  0.85671435  0.63609798  0.77372542  1
  O  O10  1  0.58853519  0.53574351  0.32494324  1
  O  O11  1  0.61438274  0.63375712  0.83964019  1
  O  O12  1  0.28139360  0.58557634  0.95533978  1
  O  O13  1  0.78574351  0.33853519  0.82494324  1
  O  O14  1  0.21337726  0.22672984  0.30975179  1
  O  O15  1  0.41047500  0.61107680  0.52404462  1
  O  O16  1  0.02474255  0.54411693  0.66035981  1
  O  O17  1  0.79411693  0.77474255  0.16035981  1
  O  O18  1  0.88375712  0.36438274  0.33964019  1
  O  O19  1  0.15362547  0.66697805  0.19024821  1
  O  O20  1  0.21080027  0.26359295  0.67505676  1
  O  O21  1  0.47672984  0.96337726  0.80975179  1
  O  O22  1  0.91697805  0.90362547  0.69024821  1
  O  O23  1  0.13643138  0.83703317  0.97595538  1
  O  O24  1  0.08703317  0.88643138  0.47595538  1
  O  O25  1  0.86107680  0.16047500  0.02404462  1
  O  O26  1  0.83557634  0.03139360  0.45533978  1
  O  O27  1  0.63023655  0.32605282  0.04466022  1
  O  O28  1  0.51359295  0.96080027  0.17505676  1
  O  O29  1  0.57605282  0.38023655  0.54466022  1
