# generated using pymatgen
data_Ba2Ti2F11
_symmetry_space_group_name_H-M   'P 1'
_cell_length_a   7.67639511
_cell_length_b   7.67639502
_cell_length_c   14.06669966
_cell_angle_alpha   90.00000000
_cell_angle_beta   90.00000000
_cell_angle_gamma   119.99999215
_symmetry_Int_Tables_number   1
_chemical_formula_structural   Ba2Ti2F11
_chemical_formula_sum   'Ba6 Ti6 F33'
_cell_volume   717.85629954
_cell_formula_units_Z   3
loop_
 _symmetry_equiv_pos_site_id
 _symmetry_equiv_pos_as_xyz
  1  'x, y, z'
loop_
 _atom_site_type_symbol
 _atom_site_label
 _atom_site_symmetry_multiplicity
 _atom_site_fract_x
 _atom_site_fract_y
 _atom_site_fract_z
 _atom_site_occupancy
  Ba  Ba0  1  0.52646907  0.15645793  0.66403186  1
  Ba  Ba1  1  0.13825937  0.42633412  0.81134244  1
  Ba  Ba2  1  0.62998886  0.47353093  0.99736486  1
  Ba  Ba3  1  0.57366588  0.71192525  0.47800844  1
  Ba  Ba4  1  0.28807475  0.86174063  0.14467544  1
  Ba  Ba5  1  0.84354207  0.37001114  0.33069786  1
  Ti  Ti6  1  0.57192626  0.98142182  0.90294732  1
  Ti  Ti7  1  0.84796073  0.79930226  0.73118648  1
  Ti  Ti8  1  0.20069774  0.04865847  0.39785248  1
  Ti  Ti9  1  0.40949656  0.42807374  0.23628032  1
  Ti  Ti10  1  0.95134153  0.15203927  0.06451948  1
  Ti  Ti11  1  0.01857818  0.59050244  0.56961332  1
  F  F12  1  0.66230494  0.06639818  0.04555750  1
  F  F13  1  0.47327600  0.71329603  0.94922548  1
  F  F14  1  0.40409525  0.33769506  0.37889050  1
  F  F15  1  0.13414640  0.49534190  0.47702691  1
  F  F16  1  0.54423669  0.29033917  0.18247778  1
  F  F17  1  0.95157696  0.57957103  0.17596810  1
  F  F18  1  0.50465810  0.63880350  0.14369391  1
  F  F19  1  0.42042897  0.37200694  0.84263510  1
  F  F20  1  0.74610348  0.45576331  0.51581078  1
  F  F21  1  0.23682925  0.29255448  0.09814398  1
  F  F22  1  0.36119650  0.86585360  0.81036091  1
  F  F23  1  0.93360182  0.59590475  0.71222450  1
  F  F24  1  0.37886795  0.03286776  0.96513407  1
  F  F25  1  0.01863169  0.40251320  0.00067862  1
  F  F26  1  0.65399981  0.62113205  0.29846707  1
  F  F27  1  0.28670397  0.75998097  0.61589148  1
  F  F28  1  0.87162647  0.05756405  0.92660565  1
  F  F29  1  0.05572523  0.76317075  0.43147698  1
  F  F30  1  0.95030356  0.03708151  0.40220138  1
  F  F31  1  0.96713224  0.34600019  0.63180007  1
  F  F32  1  0.08677695  0.04969644  0.73553538  1
  F  F33  1  0.59748680  0.61611750  0.66734562  1
  F  F34  1  0.38388250  0.98136831  0.33401162  1
  F  F35  1  0.18593757  0.12837353  0.25993865  1
  F  F36  1  0.70744552  0.94427477  0.76481098  1
  F  F37  1  0.70965983  0.25389652  0.84914478  1
  F  F38  1  0.24001903  0.52672400  0.28255848  1
  F  F39  1  0.83859270  0.71472981  0.85353943  1
  F  F40  1  0.87613711  0.16140730  0.18687243  1
  F  F41  1  0.96291849  0.91322305  0.06886838  1
  F  F42  1  0.62799306  0.04842304  0.50930110  1
  F  F43  1  0.94243595  0.81406243  0.59327165  1
  F  F44  1  0.28527019  0.12386289  0.52020543  1
