# generated using pymatgen
data_ZnSi2SnO6
_symmetry_space_group_name_H-M   'P 1'
_cell_length_a   5.53036109
_cell_length_b   7.34866438
_cell_length_c   7.34866432
_cell_angle_alpha   85.52488984
_cell_angle_beta   75.01841146
_cell_angle_gamma   75.01840716
_symmetry_Int_Tables_number   1
_chemical_formula_structural   ZnSi2SnO6
_chemical_formula_sum   'Zn2 Si4 Sn2 O12'
_cell_volume   278.67712421
_cell_formula_units_Z   2
loop_
 _symmetry_equiv_pos_site_id
 _symmetry_equiv_pos_as_xyz
  1  'x, y, z'
loop_
 _atom_site_type_symbol
 _atom_site_label
 _atom_site_symmetry_multiplicity
 _atom_site_fract_x
 _atom_site_fract_y
 _atom_site_fract_z
 _atom_site_occupancy
  Zn  Zn0  1  0.75000000  0.25390444  0.74609556  1
  Zn  Zn1  1  0.25000100  0.74609556  0.25390544  1
  Si  Si2  1  0.21299466  0.20301423  0.38203777  1
  Si  Si3  1  0.28700434  0.61796223  0.79698577  1
  Si  Si4  1  0.71299466  0.38203777  0.20301423  1
  Si  Si5  1  0.78700534  0.79698577  0.61796223  1
  Sn  Sn6  1  0.24999900  0.13196180  0.86803920  1
  Sn  Sn7  1  0.74999900  0.86804020  0.13196080  1
  O  O8  1  0.45253965  0.31011238  0.31724469  1
  O  O9  1  0.04746035  0.68275431  0.68988862  1
  O  O10  1  0.54746135  0.68988862  0.68275531  1
  O  O11  1  0.95253865  0.31724569  0.31011138  1
  O  O12  1  0.11214418  0.20852351  0.61300308  1
  O  O13  1  0.38785582  0.38699592  0.79147549  1
  O  O14  1  0.88785582  0.79147649  0.38699692  1
  O  O15  1  0.61214318  0.61300308  0.20852451  1
  O  O16  1  0.82412611  0.30474979  0.98889662  1
  O  O17  1  0.67587389  0.01110338  0.69524921  1
  O  O18  1  0.32412511  0.98889662  0.30475079  1
  O  O19  1  0.17587489  0.69525021  0.01110338  1
