# generated using pymatgen
data_Mg2Mn9O13
_symmetry_space_group_name_H-M   'P 1'
_cell_length_a   3.03871206
_cell_length_b   5.33097862
_cell_length_c   17.14738788
_cell_angle_alpha   97.89282695
_cell_angle_beta   90.28278555
_cell_angle_gamma   105.26278332
_symmetry_Int_Tables_number   1
_chemical_formula_structural   Mg2Mn9O13
_chemical_formula_sum   'Mg2 Mn9 O13'
_cell_volume   265.19420368
_cell_formula_units_Z   1
loop_
 _symmetry_equiv_pos_site_id
 _symmetry_equiv_pos_as_xyz
  1  'x, y, z'
loop_
 _atom_site_type_symbol
 _atom_site_label
 _atom_site_symmetry_multiplicity
 _atom_site_fract_x
 _atom_site_fract_y
 _atom_site_fract_z
 _atom_site_occupancy
  Mg  Mg0  1  0.22519845  0.43422526  0.22763453  1
  Mg  Mg1  1  0.77480155  0.56577474  0.77236547  1
  Mn  Mn2  1  0.50000000  0.00000000  0.50000000  1
  Mn  Mn3  1  0.64709380  0.29332544  0.04102398  1
  Mn  Mn4  1  0.35290620  0.70667456  0.95897602  1
  Mn  Mn5  1  0.75139605  0.49801552  0.41554838  1
  Mn  Mn6  1  0.24860395  0.50198448  0.58445162  1
  Mn  Mn7  1  0.94037363  0.87381534  0.12827850  1
  Mn  Mn8  1  0.05962637  0.12618466  0.87172150  1
  Mn  Mn9  1  0.99549382  0.98354255  0.32673316  1
  Mn  Mn10  1  0.00450618  0.01645745  0.67326684  1
  O  O11  1  -0.00000000  0.00000000  0.00000000  1
  O  O12  1  0.85283258  0.70584116  0.22827848  1
  O  O13  1  0.14716742  0.29415884  0.77172152  1
  O  O14  1  0.29957845  0.59307147  0.06650161  1
  O  O15  1  0.70042155  0.40692853  0.93349839  1
  O  O16  1  0.59071541  0.18179088  0.14458302  1
  O  O17  1  0.40928459  0.81820912  0.85541698  1
  O  O18  1  0.63106277  0.26067182  0.30752563  1
  O  O19  1  0.36893723  0.73932818  0.69247437  1
  O  O20  1  0.39255529  0.78634605  0.39326206  1
  O  O21  1  0.60744471  0.21365395  0.60673794  1
  O  O22  1  0.13499997  0.25561977  0.46479215  1
  O  O23  1  0.86500003  0.74438023  0.53520785  1
