# generated using pymatgen
data_Li2Cu2Si2O7
_symmetry_space_group_name_H-M   'P 1'
_cell_length_a   8.07437323
_cell_length_b   13.15279945
_cell_length_c   5.49347801
_cell_angle_alpha   90.00000000
_cell_angle_beta   89.07880202
_cell_angle_gamma   90.00000000
_symmetry_Int_Tables_number   1
_chemical_formula_structural   Li2Cu2Si2O7
_chemical_formula_sum   'Li8 Cu8 Si8 O28'
_cell_volume   583.33532169
_cell_formula_units_Z   4
loop_
 _symmetry_equiv_pos_site_id
 _symmetry_equiv_pos_as_xyz
  1  'x, y, z'
loop_
 _atom_site_type_symbol
 _atom_site_label
 _atom_site_symmetry_multiplicity
 _atom_site_fract_x
 _atom_site_fract_y
 _atom_site_fract_z
 _atom_site_occupancy
  Li  Li0  1  0.12061978  0.34972989  0.15548807  1
  Li  Li1  1  0.17982473  0.74346320  0.79070796  1
  Li  Li2  1  0.32017527  0.24346320  0.70929204  1
  Li  Li3  1  0.37938022  0.84972989  0.34451193  1
  Li  Li4  1  0.62061978  0.15027011  0.65548807  1
  Li  Li5  1  0.67982473  0.75653680  0.29070796  1
  Li  Li6  1  0.82017527  0.25653680  0.20929204  1
  Li  Li7  1  0.87938022  0.65027011  0.84451193  1
  Cu  Cu8  1  0.10042900  0.08205356  0.34664439  1
  Cu  Cu9  1  0.18452925  0.48878400  0.64537860  1
  Cu  Cu10  1  0.31547075  0.98878400  0.85462140  1
  Cu  Cu11  1  0.39957100  0.58205356  0.15335561  1
  Cu  Cu12  1  0.60042900  0.41794644  0.84664439  1
  Cu  Cu13  1  0.68452925  0.01121600  0.14537860  1
  Cu  Cu14  1  0.81547075  0.51121600  0.35462140  1
  Cu  Cu15  1  0.89957100  0.91794644  0.65335561  1
  Si  Si16  1  0.03906610  0.88294396  0.17135382  1
  Si  Si17  1  0.05385498  0.66904617  0.31256887  1
  Si  Si18  1  0.44614502  0.16904617  0.18743113  1
  Si  Si19  1  0.46093390  0.38294396  0.32864618  1
  Si  Si20  1  0.53906610  0.61705604  0.67135382  1
  Si  Si21  1  0.55385498  0.83095383  0.81256887  1
  Si  Si22  1  0.94614502  0.33095383  0.68743113  1
  Si  Si23  1  0.96093390  0.11705604  0.82864618  1
  O  O24  1  0.04577483  0.79297137  0.38356411  1
  O  O25  1  0.02653077  0.16928374  0.07648069  1
  O  O26  1  0.08061979  0.02694629  0.70245162  1
  O  O27  1  0.08921879  0.62001181  0.58116496  1
  O  O28  1  0.13088673  0.36049042  0.79432545  1
  O  O29  1  0.19270495  0.65397322  0.09869976  1
  O  O30  1  0.22545595  0.93132822  0.15998585  1
  O  O31  1  0.27454405  0.43132822  0.34001415  1
  O  O32  1  0.30729505  0.15397322  0.40130024  1
  O  O33  1  0.36911327  0.86049042  0.70567455  1
  O  O34  1  0.41078121  0.12001181  0.91883504  1
  O  O35  1  0.41938021  0.52694629  0.79754838  1
  O  O36  1  0.47346923  0.66928374  0.42351931  1
  O  O37  1  0.45422517  0.29297137  0.11643589  1
  O  O38  1  0.54577483  0.70702863  0.88356411  1
  O  O39  1  0.52653077  0.33071626  0.57648069  1
  O  O40  1  0.58061979  0.47305371  0.20245162  1
  O  O41  1  0.58921879  0.87998819  0.08116496  1
  O  O42  1  0.63088673  0.13950958  0.29432545  1
  O  O43  1  0.69270495  0.84602678  0.59869976  1
  O  O44  1  0.72545595  0.56867178  0.65998585  1
  O  O45  1  0.77454405  0.06867178  0.84001415  1
  O  O46  1  0.80729505  0.34602678  0.90130024  1
  O  O47  1  0.86911327  0.63950958  0.20567455  1
  O  O48  1  0.91078121  0.37998819  0.41883504  1
  O  O49  1  0.91938021  0.97305371  0.29754838  1
  O  O50  1  0.97346923  0.83071626  0.92351931  1
  O  O51  1  0.95422517  0.20702863  0.61643589  1
