# generated using pymatgen
data_MgMnF4
_symmetry_space_group_name_H-M   'P 1'
_cell_length_a   5.17081608
_cell_length_b   5.16322221
_cell_length_c   6.27253730
_cell_angle_alpha   113.93805739
_cell_angle_beta   113.35128056
_cell_angle_gamma   90.38267863
_symmetry_Int_Tables_number   1
_chemical_formula_structural   MgMnF4
_chemical_formula_sum   'Mg2 Mn2 F8'
_cell_volume   137.69505143
_cell_formula_units_Z   2
loop_
 _symmetry_equiv_pos_site_id
 _symmetry_equiv_pos_as_xyz
  1  'x, y, z'
loop_
 _atom_site_type_symbol
 _atom_site_label
 _atom_site_symmetry_multiplicity
 _atom_site_fract_x
 _atom_site_fract_y
 _atom_site_fract_z
 _atom_site_occupancy
  Mg  Mg0  1  0.26757954  0.25478377  0.53133201  1
  Mg  Mg1  1  0.75961059  0.75641810  0.51181829  1
  Mn  Mn2  1  0.00505072  0.50129589  0.00993962  1
  Mn  Mn3  1  0.50404475  0.99927654  0.00881210  1
  F  F4  1  0.79316555  0.41768953  0.22119667  1
  F  F5  1  0.60700674  0.11192269  0.71646750  1
  F  F6  1  0.12123169  0.59635735  0.71355592  1
  F  F7  1  0.12373134  0.11445746  0.75858760  1
  F  F8  1  0.41536480  0.80460601  0.22813441  1
  F  F9  1  0.32292890  0.32887162  0.26676289  1
  F  F10  1  0.92993357  0.93292298  0.27210958  1
  F  F11  1  0.64724779  0.63676507  0.75743342  1
