# generated using pymatgen
data_Bi5(TeO6)3
_symmetry_space_group_name_H-M   'P 1'
_cell_length_a   9.28119426
_cell_length_b   9.28119419
_cell_length_c   11.72963933
_cell_angle_alpha   83.37811192
_cell_angle_beta   83.37810878
_cell_angle_gamma   59.81295687
_symmetry_Int_Tables_number   1
_chemical_formula_structural   Bi5(TeO6)3
_chemical_formula_sum   'Bi10 Te6 O36'
_cell_volume   865.61357183
_cell_formula_units_Z   2
loop_
 _symmetry_equiv_pos_site_id
 _symmetry_equiv_pos_as_xyz
  1  'x, y, z'
loop_
 _atom_site_type_symbol
 _atom_site_label
 _atom_site_symmetry_multiplicity
 _atom_site_fract_x
 _atom_site_fract_y
 _atom_site_fract_z
 _atom_site_occupancy
  Bi  Bi0  1  0.83020604  0.49454328  0.99474990  1
  Bi  Bi1  1  0.11619868  0.21315462  0.52313118  1
  Bi  Bi2  1  0.36588345  0.36629828  0.28417482  1
  Bi  Bi3  1  0.96132199  0.78553551  0.76767366  1
  Bi  Bi4  1  0.63370172  0.63411655  0.71582518  1
  Bi  Bi5  1  0.02238453  0.97761547  1.00000000  1
  Bi  Bi6  1  0.61645823  0.38354177  0.50000000  1
  Bi  Bi7  1  0.21446449  0.03867701  0.23232634  1
  Bi  Bi8  1  0.78684538  0.88380132  0.47686882  1
  Bi  Bi9  1  0.50545672  0.16979396  0.00525010  1
  Te  Te10  1  0.48731760  0.84862928  0.95807956  1
  Te  Te11  1  0.78964063  0.20227744  0.24327560  1
  Te  Te12  1  0.79772256  0.21035937  0.75672440  1
  Te  Te13  1  0.45973119  0.86042774  0.44816486  1
  Te  Te14  1  0.13957226  0.54026881  0.55183514  1
  Te  Te15  1  0.15137072  0.51268240  0.04192044  1
  O  O16  1  0.43458886  0.06623582  0.88122354  1
  O  O17  1  0.78461773  0.39747636  0.84556395  1
  O  O18  1  0.54149607  0.64057453  0.53014806  1
  O  O19  1  0.68635040  0.13078877  0.37921295  1
  O  O20  1  0.60252364  0.21538227  0.15443605  1
  O  O21  1  0.86921123  0.31364960  0.62078705  1
  O  O22  1  0.37480538  0.80403889  0.32999586  1
  O  O23  1  0.01790267  0.04775372  0.79957626  1
  O  O24  1  0.58104403  0.38579432  0.71100602  1
  O  O25  1  0.08490097  0.44872155  0.42671137  1
  O  O26  1  0.57487626  0.63232236  0.05001173  1
  O  O27  1  0.55396495  0.92969169  0.08347812  1
  O  O28  1  0.80314514  0.04445911  0.66433864  1
  O  O29  1  0.72519794  0.73075957  0.87648789  1
  O  O30  1  0.36767764  0.42512374  0.94998827  1
  O  O31  1  0.21436823  0.58264021  0.16495575  1
  O  O32  1  0.06172744  0.74089551  0.44562369  1
  O  O33  1  0.26924043  0.27480206  0.12351211  1
  O  O34  1  0.35942547  0.45850393  0.46985194  1
  O  O35  1  0.25910449  0.93827256  0.55437631  1
  O  O36  1  0.67356097  0.80366336  0.36523283  1
  O  O37  1  0.89986574  0.66244613  0.62797952  1
  O  O38  1  0.95224628  0.98209733  0.20042374  1
  O  O39  1  0.41735979  0.78563177  0.83504425  1
  O  O40  1  0.08061467  0.72695359  0.95606654  1
  O  O41  1  0.73384382  0.11446797  0.90462110  1
  O  O42  1  0.07030831  0.44603505  0.91652188  1
  O  O43  1  0.19596111  0.62519462  0.67000414  1
  O  O44  1  0.95554089  0.19685486  0.33566136  1
  O  O45  1  0.33755387  0.10013426  0.37202048  1
  O  O46  1  0.19633664  0.32643903  0.63476717  1
  O  O47  1  0.88553203  0.26615618  0.09537890  1
  O  O48  1  0.61420568  0.41895597  0.28899398  1
  O  O49  1  0.55127845  0.91509903  0.57328863  1
  O  O50  1  0.27304641  0.91938533  0.04393346  1
  O  O51  1  0.93376418  0.56541114  0.11877646  1
