# generated using pymatgen
data_MgSn3(P2O7)2
_symmetry_space_group_name_H-M   'P 1'
_cell_length_a   8.06088762
_cell_length_b   7.89931299
_cell_length_c   10.20856440
_cell_angle_alpha   90.00000000
_cell_angle_beta   105.75719090
_cell_angle_gamma   90.00000000
_symmetry_Int_Tables_number   1
_chemical_formula_structural   MgSn3(P2O7)2
_chemical_formula_sum   'Mg2 Sn6 P8 O28'
_cell_volume   625.60761294
_cell_formula_units_Z   2
loop_
 _symmetry_equiv_pos_site_id
 _symmetry_equiv_pos_as_xyz
  1  'x, y, z'
loop_
 _atom_site_type_symbol
 _atom_site_label
 _atom_site_symmetry_multiplicity
 _atom_site_fract_x
 _atom_site_fract_y
 _atom_site_fract_z
 _atom_site_occupancy
  Mg  Mg0  1  0.50000000  -0.00000000  0.00000000  1
  Mg  Mg1  1  0.50000000  0.50000000  0.50000000  1
  Sn  Sn2  1  0.19647046  0.85943431  0.51941701  1
  Sn  Sn3  1  0.80352954  0.35943431  0.98058299  1
  Sn  Sn4  1  0.80352954  0.14056569  0.48058299  1
  Sn  Sn5  1  0.19647046  0.64056569  0.01941701  1
  Sn  Sn6  1  -0.00000000  -0.00000000  0.00000000  1
  Sn  Sn7  1  -0.00000000  0.50000000  0.50000000  1
  P  P8  1  0.55872091  0.05863685  0.70028073  1
  P  P9  1  0.44127909  0.55863685  0.79971927  1
  P  P10  1  0.44127909  0.94136315  0.29971927  1
  P  P11  1  0.55872091  0.44136315  0.20028073  1
  P  P12  1  0.81282483  0.79568729  0.67163814  1
  P  P13  1  0.18717517  0.29568729  0.82836186  1
  P  P14  1  0.18717517  0.20431271  0.32836186  1
  P  P15  1  0.81282483  0.70431271  0.17163814  1
  O  O16  1  0.76356227  0.62663052  0.59578940  1
  O  O17  1  0.23643773  0.12663052  0.90421060  1
  O  O18  1  0.23643773  0.37336948  0.40421060  1
  O  O19  1  0.76356227  0.87336948  0.09578940  1
  O  O20  1  0.39204104  0.56521756  0.64379328  1
  O  O21  1  0.60795896  0.06521756  0.85620672  1
  O  O22  1  0.60795896  0.43478244  0.35620672  1
  O  O23  1  0.39204104  0.93478244  0.14379328  1
  O  O24  1  0.64800931  0.19811880  0.63776125  1
  O  O25  1  0.35199069  0.69811880  0.86223875  1
  O  O26  1  0.35199069  0.80188120  0.36223875  1
  O  O27  1  0.64800931  0.30188120  0.13776125  1
  O  O28  1  0.62457111  0.87827456  0.65811589  1
  O  O29  1  0.37542889  0.37827456  0.84188411  1
  O  O30  1  0.37542889  0.12172544  0.34188411  1
  O  O31  1  0.62457111  0.62172544  0.15811589  1
  O  O32  1  0.36444950  0.44919934  0.13765570  1
  O  O33  1  0.63555050  0.94919934  0.36234430  1
  O  O34  1  0.63555050  0.55080066  0.86234430  1
  O  O35  1  0.36444950  0.05080066  0.63765570  1
  O  O36  1  0.08638552  0.21347048  0.17975608  1
  O  O37  1  0.91361448  0.71347048  0.32024392  1
  O  O38  1  0.91361448  0.78652952  0.82024392  1
  O  O39  1  0.08638552  0.28652952  0.67975608  1
  O  O40  1  0.90846190  0.58026061  0.09727252  1
  O  O41  1  0.09153810  0.08026061  0.40272748  1
  O  O42  1  0.09153810  0.41973939  0.90272748  1
  O  O43  1  0.90846190  0.91973939  0.59727252  1
