# generated using pymatgen
data_SrCr(PO4)2
_symmetry_space_group_name_H-M   'P 1'
_cell_length_a   5.64875251
_cell_length_b   7.12574577
_cell_length_c   9.11255503
_cell_angle_alpha   110.12270469
_cell_angle_beta   101.79954181
_cell_angle_gamma   99.36312479
_symmetry_Int_Tables_number   1
_chemical_formula_structural   SrCr(PO4)2
_chemical_formula_sum   'Sr2 Cr2 P4 O16'
_cell_volume   326.11070955
_cell_formula_units_Z   2
loop_
 _symmetry_equiv_pos_site_id
 _symmetry_equiv_pos_as_xyz
  1  'x, y, z'
loop_
 _atom_site_type_symbol
 _atom_site_label
 _atom_site_symmetry_multiplicity
 _atom_site_fract_x
 _atom_site_fract_y
 _atom_site_fract_z
 _atom_site_occupancy
  Sr  Sr0  1  0.24833700  0.77035398  0.03699176  1
  Sr  Sr1  1  0.75166300  0.22964602  0.96300824  1
  Cr  Cr2  1  0.66785556  0.84270121  0.55735349  1
  Cr  Cr3  1  0.33214444  0.15729879  0.44264651  1
  P  P4  1  0.40348334  0.43468918  0.23788041  1
  P  P5  1  0.59651666  0.56531082  0.76211959  1
  P  P6  1  0.85349115  0.02840882  0.30711229  1
  P  P7  1  0.14650885  0.97159118  0.69288771  1
  O  O8  1  0.82241738  0.55668173  0.88183986  1
  O  O9  1  0.63897422  0.46190918  0.18579998  1
  O  O10  1  0.64500493  0.77769638  0.73926143  1
  O  O11  1  0.93766704  0.09586579  0.70118664  1
  O  O12  1  0.36102578  0.53809082  0.81420002  1
  O  O13  1  0.97570957  0.75810446  0.56354212  1
  O  O14  1  0.02429043  0.24189554  0.43645788  1
  O  O15  1  0.27357234  0.98794357  0.86196344  1
  O  O16  1  0.35499507  0.22230362  0.26073857  1
  O  O17  1  0.72642766  0.01205643  0.13803756  1
  O  O18  1  0.17758262  0.44331827  0.11816014  1
  O  O19  1  0.42818058  0.60719272  0.40971209  1
  O  O20  1  0.57181942  0.39280728  0.59028791  1
  O  O21  1  0.64021337  0.95653997  0.38012594  1
  O  O22  1  0.06233296  0.90413421  0.29881336  1
  O  O23  1  0.35978663  0.04346003  0.61987406  1
