# generated using pymatgen
data_ZnFe5O7
_symmetry_space_group_name_H-M   'P 1'
_cell_length_a   2.98794187
_cell_length_b   5.32449005
_cell_length_c   18.27177259
_cell_angle_alpha   90.00000000
_cell_angle_beta   90.00000000
_cell_angle_gamma   106.29510998
_symmetry_Int_Tables_number   1
_chemical_formula_structural   ZnFe5O7
_chemical_formula_sum   'Zn2 Fe10 O14'
_cell_volume   279.01324642
_cell_formula_units_Z   2
loop_
 _symmetry_equiv_pos_site_id
 _symmetry_equiv_pos_as_xyz
  1  'x, y, z'
loop_
 _atom_site_type_symbol
 _atom_site_label
 _atom_site_symmetry_multiplicity
 _atom_site_fract_x
 _atom_site_fract_y
 _atom_site_fract_z
 _atom_site_occupancy
  Zn  Zn0  1  0.78661581  0.57322961  0.75000000  1
  Zn  Zn1  1  0.21338519  0.42676939  0.25000000  1
  Fe  Fe2  1  0.27072442  0.54144583  0.57758159  1
  Fe  Fe3  1  0.46630248  0.93260495  0.16012952  1
  Fe  Fe4  1  -0.00000000  -0.00000000  0.50000000  1
  Fe  Fe5  1  -0.00000000  -0.00000000  -0.00000000  1
  Fe  Fe6  1  0.53369752  0.06739405  0.83987148  1
  Fe  Fe7  1  0.72927558  0.45855317  0.42241841  1
  Fe  Fe8  1  0.72927558  0.45855317  0.07758159  1
  Fe  Fe9  1  0.27072442  0.54144583  0.92241841  1
  Fe  Fe10  1  0.53369752  0.06739405  0.66012852  1
  Fe  Fe11  1  0.46630248  0.93260495  0.33987148  1
  O  O12  1  0.65081690  0.30163180  0.96502070  1
  O  O13  1  0.34918410  0.69836920  0.03497930  1
  O  O14  1  0.34918410  0.69836920  0.46502070  1
  O  O15  1  0.65081690  0.30163180  0.53497930  1
  O  O16  1  0.18273715  0.36547630  0.82877084  1
  O  O17  1  0.81726285  0.63452370  0.17122916  1
  O  O18  1  0.81726285  0.63452370  0.32877184  1
  O  O19  1  0.18273715  0.36547630  0.67122916  1
  O  O20  1  0.90435222  0.80870244  0.90172615  1
  O  O21  1  0.09564778  0.19129756  0.09827385  1
  O  O22  1  0.09564778  0.19129756  0.40172615  1
  O  O23  1  0.90435222  0.80870244  0.59827385  1
  O  O24  1  0.42420435  0.84840969  0.75000000  1
  O  O25  1  0.57579665  0.15159231  0.25000000  1
