# generated using pymatgen
data_MgMnSiO5
_symmetry_space_group_name_H-M   'P 1'
_cell_length_a   5.27116246
_cell_length_b   6.97465849
_cell_length_c   8.29286900
_cell_angle_alpha   89.96701328
_cell_angle_beta   141.85435181
_cell_angle_gamma   74.72903533
_symmetry_Int_Tables_number   1
_chemical_formula_structural   MgMnSiO5
_chemical_formula_sum   'Mg2 Mn2 Si2 O10'
_cell_volume   170.27064787
_cell_formula_units_Z   2
loop_
 _symmetry_equiv_pos_site_id
 _symmetry_equiv_pos_as_xyz
  1  'x, y, z'
loop_
 _atom_site_type_symbol
 _atom_site_label
 _atom_site_symmetry_multiplicity
 _atom_site_fract_x
 _atom_site_fract_y
 _atom_site_fract_z
 _atom_site_occupancy
  Mg  Mg0  1  0.50252660  0.24210653  0.17458939  1
  Mg  Mg1  1  0.50241187  0.74330664  0.82823865  1
  Mn  Mn2  1  0.49922727  0.49361497  0.50009906  1
  Mn  Mn3  1  0.50064584  0.99354793  0.50068715  1
  Si  Si4  1  0.49965378  0.24371451  0.82391384  1
  Si  Si5  1  0.49960737  0.74359397  0.17683197  1
  O  O6  1  0.28877595  0.11117173  0.60888504  1
  O  O7  1  0.71254934  0.37529559  0.82046084  1
  O  O8  1  0.71344442  0.87490539  0.39340219  1
  O  O9  1  0.28378231  0.61330798  0.17901448  1
  O  O10  1  0.86660570  0.58296074  0.23006714  1
  O  O11  1  0.13352519  0.90350276  0.86292204  1
  O  O12  1  0.13168638  0.40352997  0.77029305  1
  O  O13  1  0.86665592  0.08476492  0.13853758  1
  O  O14  1  0.49890069  0.74375652  0.58611580  1
  O  O15  1  0.50025636  0.24361585  0.41378277  1
