# generated using pymatgen
data_MgTiSiO5
_symmetry_space_group_name_H-M   'P 1'
_cell_length_a   5.31407269
_cell_length_b   7.16059743
_cell_length_c   8.37961058
_cell_angle_alpha   90.14094773
_cell_angle_beta   142.03693378
_cell_angle_gamma   74.93595930
_symmetry_Int_Tables_number   1
_chemical_formula_structural   MgTiSiO5
_chemical_formula_sum   'Mg2 Ti2 Si2 O10'
_cell_volume   178.06819711
_cell_formula_units_Z   2
loop_
 _symmetry_equiv_pos_site_id
 _symmetry_equiv_pos_as_xyz
  1  'x, y, z'
loop_
 _atom_site_type_symbol
 _atom_site_label
 _atom_site_symmetry_multiplicity
 _atom_site_fract_x
 _atom_site_fract_y
 _atom_site_fract_z
 _atom_site_occupancy
  Mg  Mg0  1  0.49245141  0.25448571  0.16673082  1
  Mg  Mg1  1  0.49648668  0.74696651  0.82780355  1
  Ti  Ti2  1  0.49861080  0.50638622  0.50530430  1
  Ti  Ti3  1  0.49997798  0.00650490  0.49411285  1
  Si  Si4  1  0.50145695  0.23985639  0.82659966  1
  Si  Si5  1  0.50108557  0.73903265  0.17506400  1
  O  O6  1  0.27916141  0.11648566  0.60450108  1
  O  O7  1  0.72291488  0.36255389  0.82653181  1
  O  O8  1  0.72806611  0.85797203  0.40083789  1
  O  O9  1  0.27905586  0.61417281  0.17362827  1
  O  O10  1  0.85734448  0.57802261  0.22580431  1
  O  O11  1  0.14382064  0.89989555  0.87073572  1
  O  O12  1  0.14315317  0.39996590  0.77400556  1
  O  O13  1  0.85902963  0.07936197  0.13188095  1
  O  O14  1  0.49752872  0.73854372  0.58745552  1
  O  O15  1  0.50048473  0.23783849  0.41098071  1
