# generated using pymatgen
data_H9CN5Cl2
_symmetry_space_group_name_H-M   'P 1'
_cell_length_a   4.62825797
_cell_length_b   21.52836990
_cell_length_c   7.02976441
_cell_angle_alpha   90.00000000
_cell_angle_beta   95.44577620
_cell_angle_gamma   90.00000000
_symmetry_Int_Tables_number   1
_chemical_formula_structural   H9CN5Cl2
_chemical_formula_sum   'H36 C4 N20 Cl8'
_cell_volume   697.27618490
_cell_formula_units_Z   4
loop_
 _symmetry_equiv_pos_site_id
 _symmetry_equiv_pos_as_xyz
  1  'x, y, z'
loop_
 _atom_site_type_symbol
 _atom_site_label
 _atom_site_symmetry_multiplicity
 _atom_site_fract_x
 _atom_site_fract_y
 _atom_site_fract_z
 _atom_site_occupancy
  H  H0  1  0.15493521  0.04709876  0.87652279  1
  H  H1  1  0.13012060  0.40112333  0.56806574  1
  H  H2  1  0.15493521  0.45290124  0.37652279  1
  H  H3  1  0.13012060  0.09887667  0.06806574  1
  H  H4  1  0.19145083  0.12000847  0.51156858  1
  H  H5  1  0.26594163  0.04520859  0.59734614  1
  H  H6  1  0.27606027  0.28726454  0.67730886  1
  H  H7  1  0.19145083  0.37999153  0.01156858  1
  H  H8  1  0.32286982  0.64746844  0.82781311  1
  H  H9  1  0.26594163  0.45479141  0.09734614  1
  H  H10  1  0.27606027  0.21273546  0.17730886  1
  H  H11  1  0.32286982  0.85253156  0.32781311  1
  H  H12  1  0.36617794  0.70727947  0.55558166  1
  H  H13  1  0.39894284  0.81349036  0.72594763  1
  H  H14  1  0.49180119  0.42181749  0.95113740  1
  H  H15  1  0.36617794  0.79272053  0.05558166  1
  H  H16  1  0.39894284  0.68650964  0.22594763  1
  H  H17  1  0.49180119  0.07818251  0.45113740  1
  H  H18  1  0.50819881  0.92181749  0.54886260  1
  H  H19  1  0.60105716  0.31349036  0.77405237  1
  H  H20  1  0.63382206  0.20727947  0.94441834  1
  H  H21  1  0.50819881  0.57818251  0.04886260  1
  H  H22  1  0.60105716  0.18650964  0.27405237  1
  H  H23  1  0.63382206  0.29272053  0.44441834  1
  H  H24  1  0.67713018  0.14746844  0.67218689  1
  H  H25  1  0.72393973  0.78726454  0.82269114  1
  H  H26  1  0.73405837  0.54520859  0.90265386  1
  H  H27  1  0.67713018  0.35253156  0.17218689  1
  H  H28  1  0.80854917  0.62000847  0.98843142  1
  H  H29  1  0.72393973  0.71273546  0.32269114  1
  H  H30  1  0.73405837  0.95479141  0.40265386  1
  H  H31  1  0.80854917  0.87999153  0.48843142  1
  H  H32  1  0.86987940  0.90112333  0.93193426  1
  H  H33  1  0.84506479  0.54709876  0.62347721  1
  H  H34  1  0.86987940  0.59887667  0.43193426  1
  H  H35  1  0.84506479  0.95290124  0.12347721  1
  C  C36  1  0.41097787  0.12495276  0.88391834  1
  C  C37  1  0.41097787  0.37504724  0.38391834  1
  C  C38  1  0.58902213  0.62495276  0.61608166  1
  C  C39  1  0.58902213  0.87504724  0.11608166  1
  N  N40  1  0.19639499  0.09022759  0.93569041  1
  N  N41  1  0.19639499  0.40977241  0.43569041  1
  N  N42  1  0.35588996  0.08845566  0.56031729  1
  N  N43  1  0.42323944  0.32318532  0.67904194  1
  N  N44  1  0.35588996  0.41154434  0.06031729  1
  N  N45  1  0.46441735  0.61383551  0.78218347  1
  N  N46  1  0.42323944  0.17681468  0.17904194  1
  N  N47  1  0.51913373  0.17121783  0.99632728  1
  N  N48  1  0.48086627  0.67121783  0.50367272  1
  N  N49  1  0.46441735  0.88616449  0.28218347  1
  N  N50  1  0.53558265  0.11383551  0.71781653  1
  N  N51  1  0.51913373  0.32878217  0.49632728  1
  N  N52  1  0.48086627  0.82878217  0.00367272  1
  N  N53  1  0.57676056  0.82318532  0.82095806  1
  N  N54  1  0.53558265  0.38616449  0.21781653  1
  N  N55  1  0.64411004  0.58845566  0.93968271  1
  N  N56  1  0.57676056  0.67681468  0.32095806  1
  N  N57  1  0.64411004  0.91154434  0.43968271  1
  N  N58  1  0.80360501  0.59022759  0.56430959  1
  N  N59  1  0.80360501  0.90977241  0.06430959  1
  Cl  Cl60  1  0.05419267  0.70722728  0.96096099  1
  Cl  Cl61  1  0.05419267  0.79277272  0.46096099  1
  Cl  Cl62  1  0.18323495  0.95862723  0.71233804  1
  Cl  Cl63  1  0.18323495  0.54137277  0.21233804  1
  Cl  Cl64  1  0.81676505  0.45862723  0.78766196  1
  Cl  Cl65  1  0.81676505  0.04137277  0.28766196  1
  Cl  Cl66  1  0.94580733  0.20722728  0.53903901  1
  Cl  Cl67  1  0.94580733  0.29277272  0.03903901  1
