# generated using pymatgen
data_Mg2CuWO6
_symmetry_space_group_name_H-M   'P 1'
_cell_length_a   5.76145450
_cell_length_b   5.71521484
_cell_length_c   7.69719333
_cell_angle_alpha   81.99028771
_cell_angle_beta   136.97201993
_cell_angle_gamma   126.94718671
_symmetry_Int_Tables_number   1
_chemical_formula_structural   Mg2CuWO6
_chemical_formula_sum   'Mg2 Cu1 W1 O6'
_cell_volume   115.41167369
_cell_formula_units_Z   1
loop_
 _symmetry_equiv_pos_site_id
 _symmetry_equiv_pos_as_xyz
  1  'x, y, z'
loop_
 _atom_site_type_symbol
 _atom_site_label
 _atom_site_symmetry_multiplicity
 _atom_site_fract_x
 _atom_site_fract_y
 _atom_site_fract_z
 _atom_site_occupancy
  Mg  Mg0  1  0.01290112  0.58821011  0.30855056  1
  Mg  Mg1  1  0.00298568  0.57288160  0.79594093  1
  Cu  Cu2  1  0.01286787  0.10622971  0.55179936  1
  W  W3  1  0.00250806  0.97793750  0.99936625  1
  O  O4  1  0.31186188  0.08786110  0.37328715  1
  O  O5  1  0.70446343  0.78209552  0.60814440  1
  O  O6  1  0.33819572  0.41923119  0.06289263  1
  O  O7  1  0.36543859  0.76861678  0.73411672  1
  O  O8  1  0.55969453  0.06517229  0.17831822  1
  O  O9  1  0.72882312  0.49229320  0.91679479  1
