# generated using pymatgen
data_K2Te2Pd
_symmetry_space_group_name_H-M   'P 1'
_cell_length_a   4.09334895
_cell_length_b   7.25343978
_cell_length_c   7.25343978
_cell_angle_alpha   73.45387863
_cell_angle_beta   73.61047885
_cell_angle_gamma   73.61047885
_symmetry_Int_Tables_number   1
_chemical_formula_structural   K2Te2Pd
_chemical_formula_sum   'K2 Te2 Pd1'
_cell_volume   193.22672973
_cell_formula_units_Z   1
loop_
 _symmetry_equiv_pos_site_id
 _symmetry_equiv_pos_as_xyz
  1  'x, y, z'
loop_
 _atom_site_type_symbol
 _atom_site_label
 _atom_site_symmetry_multiplicity
 _atom_site_fract_x
 _atom_site_fract_y
 _atom_site_fract_z
 _atom_site_occupancy
  K  K0  1  0.71749970  0.28250030  0.28250030  1
  K  K1  1  0.28250030  0.71749970  0.71749970  1
  Te  Te2  1  0.50000000  0.19838933  0.80161067  1
  Te  Te3  1  0.50000000  0.80161067  0.19838933  1
  Pd  Pd4  1  0.00000000  -0.00000000  -0.00000000  1
