# generated using pymatgen
data_SrCaMn2O6
_symmetry_space_group_name_H-M   'P 1'
_cell_length_a   7.70267402
_cell_length_b   7.70125098
_cell_length_c   7.70267402
_cell_angle_alpha   90.00000000
_cell_angle_beta   90.00000000
_cell_angle_gamma   90.00000000
_symmetry_Int_Tables_number   1
_chemical_formula_structural   SrCaMn2O6
_chemical_formula_sum   'Sr4 Ca4 Mn8 O24'
_cell_volume   456.92436248
_cell_formula_units_Z   4
loop_
 _symmetry_equiv_pos_site_id
 _symmetry_equiv_pos_as_xyz
  1  'x, y, z'
loop_
 _atom_site_type_symbol
 _atom_site_label
 _atom_site_symmetry_multiplicity
 _atom_site_fract_x
 _atom_site_fract_y
 _atom_site_fract_z
 _atom_site_occupancy
  Sr  Sr0  1  0.25000000  0.25000000  0.25000000  1
  Sr  Sr1  1  0.25000000  0.25000000  0.75000000  1
  Sr  Sr2  1  0.75000000  0.25000000  0.75000000  1
  Sr  Sr3  1  0.75000000  0.75000000  0.25000000  1
  Ca  Ca4  1  0.25000000  0.75000000  0.25000000  1
  Ca  Ca5  1  0.25000000  0.75000000  0.75000000  1
  Ca  Ca6  1  0.75000000  0.25000000  0.25000000  1
  Ca  Ca7  1  0.75000000  0.75000000  0.75000000  1
  Mn  Mn8  1  0.99996495  0.99911544  0.00003505  1
  Mn  Mn9  1  0.99996495  0.99911544  0.49996495  1
  Mn  Mn10  1  0.99996495  0.50088456  0.00003505  1
  Mn  Mn11  1  0.99996495  0.50088456  0.49996495  1
  Mn  Mn12  1  0.50003505  0.99911544  0.00003505  1
  Mn  Mn13  1  0.50003505  0.99911544  0.49996495  1
  Mn  Mn14  1  0.50003505  0.50088456  0.00003505  1
  Mn  Mn15  1  0.50003505  0.50088456  0.49996495  1
  O  O16  1  0.25000000  0.99562923  0.00001190  1
  O  O17  1  0.25000000  0.99562923  0.49998810  1
  O  O18  1  0.25000000  0.50437077  0.00001190  1
  O  O19  1  0.25000000  0.50437077  0.49998810  1
  O  O20  1  0.75000000  0.99961705  0.99998026  1
  O  O21  1  0.75000000  0.99961705  0.50001974  1
  O  O22  1  0.75000000  0.50038295  0.99998026  1
  O  O23  1  0.75000000  0.50038295  0.50001974  1
  O  O24  1  0.99798282  0.25000000  0.00201718  1
  O  O25  1  0.99798282  0.25000000  0.49798282  1
  O  O26  1  0.00198306  0.75000000  0.99801694  1
  O  O27  1  0.00198306  0.75000000  0.50198306  1
  O  O28  1  0.50201718  0.25000000  0.00201718  1
  O  O29  1  0.50201718  0.25000000  0.49798282  1
  O  O30  1  0.49801694  0.75000000  0.99801694  1
  O  O31  1  0.49801694  0.75000000  0.50198306  1
  O  O32  1  0.00001974  0.99961705  0.25000000  1
  O  O33  1  0.99998810  0.99562923  0.75000000  1
  O  O34  1  0.00001974  0.50038295  0.25000000  1
  O  O35  1  0.99998810  0.50437077  0.75000000  1
  O  O36  1  0.49998026  0.99961705  0.25000000  1
  O  O37  1  0.50001190  0.99562923  0.75000000  1
  O  O38  1  0.49998026  0.50038295  0.25000000  1
  O  O39  1  0.50001190  0.50437077  0.75000000  1
