# generated using pymatgen
data_Ca(FeO2)2
_symmetry_space_group_name_H-M   'P 1'
_cell_length_a   6.37838673
_cell_length_b   6.22160822
_cell_length_c   6.22160767
_cell_angle_alpha   59.99999469
_cell_angle_beta   60.80981272
_cell_angle_gamma   60.80980534
_symmetry_Int_Tables_number   1
_chemical_formula_structural   Ca(FeO2)2
_chemical_formula_sum   'Ca2 Fe4 O8'
_cell_volume   176.68917030
_cell_formula_units_Z   2
loop_
 _symmetry_equiv_pos_site_id
 _symmetry_equiv_pos_as_xyz
  1  'x, y, z'
loop_
 _atom_site_type_symbol
 _atom_site_label
 _atom_site_symmetry_multiplicity
 _atom_site_fract_x
 _atom_site_fract_y
 _atom_site_fract_z
 _atom_site_occupancy
  Ca  Ca0  1  0.98963740  0.00345387  0.00345387  1
  Ca  Ca1  1  0.12683183  0.62438906  0.62438906  1
  Fe  Fe2  1  0.27473110  0.24175630  0.24175630  1
  Fe  Fe3  1  0.62860965  0.11379636  0.62879700  1
  Fe  Fe4  1  0.62860965  0.62879700  0.11379636  1
  Fe  Fe5  1  0.62860965  0.62879700  0.62879700  1
  O  O6  1  0.40515391  0.36703092  0.36703092  1
  O  O7  1  0.40515391  0.36703092  0.86078325  1
  O  O8  1  0.40515391  0.86078325  0.36703092  1
  O  O9  1  0.86689831  0.37770023  0.37770023  1
  O  O10  1  0.41589723  0.86136726  0.86136726  1
  O  O11  1  0.82490515  0.42614483  0.87447501  1
  O  O12  1  0.82490515  0.87447501  0.42614483  1
  O  O13  1  0.82490515  0.87447501  0.87447501  1
