# generated using pymatgen
data_K3Na5V2(MoO4)6
_symmetry_space_group_name_H-M   'P 1'
_cell_length_a   7.85817483
_cell_length_b   7.90597764
_cell_length_c   7.89757788
_cell_angle_alpha   90.05627363
_cell_angle_beta   90.00000000
_cell_angle_gamma   90.00000000
_symmetry_Int_Tables_number   1
_chemical_formula_structural   K3Na5V2(MoO4)6
_chemical_formula_sum   'K3 Na5 V2 Mo6 O24'
_cell_volume   490.64906626
_cell_formula_units_Z   1
loop_
 _symmetry_equiv_pos_site_id
 _symmetry_equiv_pos_as_xyz
  1  'x, y, z'
loop_
 _atom_site_type_symbol
 _atom_site_label
 _atom_site_symmetry_multiplicity
 _atom_site_fract_x
 _atom_site_fract_y
 _atom_site_fract_z
 _atom_site_occupancy
  K  K0  1  0.25000000  0.74371292  0.25608004  1
  K  K1  1  0.75000000  0.25429140  0.25444947  1
  K  K2  1  0.75000000  0.74357901  0.25636155  1
  Na  Na3  1  0.25000000  0.26053117  0.26048311  1
  Na  Na4  1  0.25000000  0.26176455  0.73898353  1
  Na  Na5  1  0.25000000  0.73907963  0.74033379  1
  Na  Na6  1  0.75000000  0.26201665  0.73917758  1
  Na  Na7  1  0.75000000  0.73885317  0.74007516  1
  V  V8  1  0.00075703  0.49876291  0.50358521  1
  V  V9  1  0.49924297  0.49876291  0.50358521  1
  Mo  Mo10  1  0.00070542  0.00038904  0.99864430  1
  Mo  Mo11  1  0.00075476  0.00075611  0.50340087  1
  Mo  Mo12  1  0.00078328  0.49898922  0.99762657  1
  Mo  Mo13  1  0.49929458  0.00038904  0.99864430  1
  Mo  Mo14  1  0.49924524  0.00075611  0.50340087  1
  Mo  Mo15  1  0.49921672  0.49898922  0.99762657  1
  O  O16  1  0.25000000  0.00113909  0.99749281  1
  O  O17  1  0.25000000  0.00170685  0.50358396  1
  O  O18  1  0.25000000  0.49826330  0.99421017  1
  O  O19  1  0.25000000  0.49648836  0.50483160  1
  O  O20  1  0.75000000  0.00080586  0.99712841  1
  O  O21  1  0.75000000  0.00176030  0.50506502  1
  O  O22  1  0.75000000  0.49908427  0.99414051  1
  O  O23  1  0.75000000  0.49922855  0.50785342  1
  O  O24  1  0.00181280  0.24701335  0.99401665  1
  O  O25  1  0.00282970  0.24177157  0.50442869  1
  O  O26  1  0.00052777  0.75282922  0.99661518  1
  O  O27  1  0.00095119  0.75947303  0.50837062  1
  O  O28  1  0.49818720  0.24701335  0.99401665  1
  O  O29  1  0.49717030  0.24177157  0.50442869  1
  O  O30  1  0.49947223  0.75282922  0.99661518  1
  O  O31  1  0.49904881  0.75947303  0.50837062  1
  O  O32  1  0.00201629  0.00023631  0.24612514  1
  O  O33  1  0.00074254  0.00311391  0.75485804  1
  O  O34  1  0.00325319  0.49587299  0.24078535  1
  O  O35  1  0.00127335  0.49963980  0.75641833  1
  O  O36  1  0.49798371  0.00023631  0.24612514  1
  O  O37  1  0.49925746  0.00311391  0.75485804  1
  O  O38  1  0.49674681  0.49587299  0.24078535  1
  O  O39  1  0.49872665  0.49963980  0.75641833  1
