# generated using pymatgen
data_MgV4O10
_symmetry_space_group_name_H-M   'P 1'
_cell_length_a   3.53866247
_cell_length_b   4.95915013
_cell_length_c   11.57591000
_cell_angle_alpha   90.01546417
_cell_angle_beta   89.99983792
_cell_angle_gamma   89.99693841
_symmetry_Int_Tables_number   1
_chemical_formula_structural   MgV4O10
_chemical_formula_sum   'Mg1 V4 O10'
_cell_volume   203.14284096
_cell_formula_units_Z   1
loop_
 _symmetry_equiv_pos_site_id
 _symmetry_equiv_pos_as_xyz
  1  'x, y, z'
loop_
 _atom_site_type_symbol
 _atom_site_label
 _atom_site_symmetry_multiplicity
 _atom_site_fract_x
 _atom_site_fract_y
 _atom_site_fract_z
 _atom_site_occupancy
  Mg  Mg0  1  0.25004600  0.18947779  0.74985565  1
  V  V1  1  0.25000072  0.41100282  0.10147516  1
  V  V2  1  0.74999483  0.60535731  0.89924831  1
  V  V3  1  0.74999077  0.60545899  0.60080981  1
  V  V4  1  0.25000085  0.41118781  0.39847699  1
  O  O5  1  0.75001854  0.41797090  0.74998328  1
  O  O6  1  0.25000023  0.52611734  0.24999816  1
  O  O7  1  0.74999613  0.53059200  0.06999943  1
  O  O8  1  0.25000719  0.45151725  0.92297891  1
  O  O9  1  0.74999653  0.53077718  0.43005146  1
  O  O10  1  0.25000461  0.45165238  0.57704959  1
  O  O11  1  0.25001290  0.08768241  0.38855309  1
  O  O12  1  0.74995392  0.93492868  0.63452764  1
  O  O13  1  0.74996900  0.93478098  0.86562810  1
  O  O14  1  0.25000979  0.08750815  0.11138644  1
