# generated using pymatgen
data_Sm4Bi2O
_symmetry_space_group_name_H-M   'P 1'
_cell_length_a   4.68192463
_cell_length_b   4.68192463
_cell_length_c   9.32513425
_cell_angle_alpha   104.53893647
_cell_angle_beta   104.53893647
_cell_angle_gamma   90.00000000
_symmetry_Int_Tables_number   1
_chemical_formula_structural   Sm4Bi2O
_chemical_formula_sum   'Sm4 Bi2 O1'
_cell_volume   191.09516604
_cell_formula_units_Z   1
loop_
 _symmetry_equiv_pos_site_id
 _symmetry_equiv_pos_as_xyz
  1  'x, y, z'
loop_
 _atom_site_type_symbol
 _atom_site_label
 _atom_site_symmetry_multiplicity
 _atom_site_fract_x
 _atom_site_fract_y
 _atom_site_fract_z
 _atom_site_occupancy
  Sm  Sm0  1  0.50000000  -0.00000000  -0.00000000  1
  Sm  Sm1  1  -0.00000000  0.50000000  -0.00000000  1
  Sm  Sm2  1  0.82515190  0.82515190  0.65030379  1
  Sm  Sm3  1  0.17484810  0.17484810  0.34969621  1
  Bi  Bi4  1  0.64002406  0.64002406  0.28004811  1
  Bi  Bi5  1  0.35997594  0.35997594  0.71995189  1
  O  O6  1  -0.00000000  -0.00000000  -0.00000000  1
