# generated using pymatgen
data_Li4NbCo5O12
_symmetry_space_group_name_H-M   'P 1'
_cell_length_a   5.06534512
_cell_length_b   5.02404261
_cell_length_c   10.01090441
_cell_angle_alpha   93.30464089
_cell_angle_beta   96.56612496
_cell_angle_gamma   59.72766922
_symmetry_Int_Tables_number   1
_chemical_formula_structural   Li4NbCo5O12
_chemical_formula_sum   'Li4 Nb1 Co5 O12'
_cell_volume   218.57970948
_cell_formula_units_Z   1
loop_
 _symmetry_equiv_pos_site_id
 _symmetry_equiv_pos_as_xyz
  1  'x, y, z'
loop_
 _atom_site_type_symbol
 _atom_site_label
 _atom_site_symmetry_multiplicity
 _atom_site_fract_x
 _atom_site_fract_y
 _atom_site_fract_z
 _atom_site_occupancy
  Li  Li0  1  0.20493230  0.33956721  0.72368342  1
  Li  Li1  1  0.45550049  0.33956721  0.27631658  1
  Li  Li2  1  0.54449951  0.66043279  0.72368342  1
  Li  Li3  1  0.79506770  0.66043279  0.27631658  1
  Nb  Nb4  1  0.00000000  0.00000000  0.00000000  1
  Co  Co5  1  0.16454130  0.67091641  0.50000000  1
  Co  Co6  1  0.66652282  0.66695335  0.00000000  1
  Co  Co7  1  0.33347718  0.33304665  1.00000000  1
  Co  Co8  1  0.83545870  0.32908359  0.50000000  1
  Co  Co9  1  0.50000000  0.00000000  0.50000000  1
  O  O10  1  0.02036660  0.65557808  0.10553474  1
  O  O11  1  0.32405533  0.65557808  0.89446526  1
  O  O12  1  0.15380905  0.35431047  0.39042150  1
  O  O13  1  0.50811952  0.64568953  0.39042150  1
  O  O14  1  0.49188048  0.35431047  0.60957850  1
  O  O15  1  0.19810193  0.00000000  0.60042049  1
  O  O16  1  0.84619095  0.64568953  0.60957850  1
  O  O17  1  0.67594467  0.34442192  0.10553474  1
  O  O18  1  0.36928616  1.00000000  0.10438998  1
  O  O19  1  0.97963340  0.34442192  0.89446526  1
  O  O20  1  0.63071384  0.00000000  0.89561002  1
  O  O21  1  0.80189807  1.00000000  0.39957951  1
