# generated using pymatgen
data_Sr5Mg
_symmetry_space_group_name_H-M   'P 1'
_cell_length_a   7.09408953
_cell_length_b   7.09409056
_cell_length_c   20.47444706
_cell_angle_alpha   90.00000000
_cell_angle_beta   90.00000000
_cell_angle_gamma   120.00000098
_symmetry_Int_Tables_number   1
_chemical_formula_structural   Sr5Mg
_chemical_formula_sum   'Sr15 Mg3'
_cell_volume   892.35200241
_cell_formula_units_Z   3
loop_
 _symmetry_equiv_pos_site_id
 _symmetry_equiv_pos_as_xyz
  1  'x, y, z'
loop_
 _atom_site_type_symbol
 _atom_site_label
 _atom_site_symmetry_multiplicity
 _atom_site_fract_x
 _atom_site_fract_y
 _atom_site_fract_z
 _atom_site_occupancy
  Sr  Sr0  1  0.32873422  0.99540122  0.33333300  1
  Sr  Sr1  1  0.66666700  0.33333300  0.16707931  1
  Sr  Sr2  1  0.00459878  0.33333300  0.33333300  1
  Sr  Sr3  1  0.66666700  0.67126578  0.33333300  1
  Sr  Sr4  1  0.00000000  -0.00000000  0.16625469  1
  Sr  Sr5  1  0.99540122  0.32873422  0.66666700  1
  Sr  Sr6  1  0.33333300  0.66666700  0.50041231  1
  Sr  Sr7  1  0.67126578  0.66666700  0.66666700  1
  Sr  Sr8  1  0.33333300  0.00459878  0.66666700  1
  Sr  Sr9  1  0.66666700  0.33333300  0.49958769  1
  Sr  Sr10  1  0.66206822  0.66206822  0.00000000  1
  Sr  Sr11  1  0.00000000  -0.00000000  0.83374531  1
  Sr  Sr12  1  0.33793178  0.00000000  0.00000000  1
  Sr  Sr13  1  1.00000000  0.33793178  0.00000000  1
  Sr  Sr14  1  0.33333300  0.66666700  0.83292069  1
  Mg  Mg15  1  0.33333300  0.66666700  0.16666700  1
  Mg  Mg16  1  0.00000000  -0.00000000  0.50000000  1
  Mg  Mg17  1  0.66666700  0.33333300  0.83333300  1
