# generated using pymatgen
data_MgZn2
_symmetry_space_group_name_H-M   'P 1'
_cell_length_a   8.81609620
_cell_length_b   4.81008813
_cell_length_c   5.80543098
_cell_angle_alpha   90.00000000
_cell_angle_beta   123.91654889
_cell_angle_gamma   90.00000000
_symmetry_Int_Tables_number   1
_chemical_formula_structural   MgZn2
_chemical_formula_sum   'Mg4 Zn8'
_cell_volume   204.29795697
_cell_formula_units_Z   4
loop_
 _symmetry_equiv_pos_site_id
 _symmetry_equiv_pos_as_xyz
  1  'x, y, z'
loop_
 _atom_site_type_symbol
 _atom_site_label
 _atom_site_symmetry_multiplicity
 _atom_site_fract_x
 _atom_site_fract_y
 _atom_site_fract_z
 _atom_site_occupancy
  Mg  Mg0  1  0.50000000  0.41468522  0.75000000  1
  Mg  Mg1  1  0.00000000  0.08531478  0.25000000  1
  Mg  Mg2  1  0.00000000  0.91468522  0.75000000  1
  Mg  Mg3  1  0.50000000  0.58531478  0.25000000  1
  Zn  Zn4  1  0.16518042  0.58300339  0.23818876  1
  Zn  Zn5  1  0.33481958  0.08300339  0.26181124  1
  Zn  Zn6  1  0.16518042  0.41699661  0.73818876  1
  Zn  Zn7  1  0.33481958  0.91699661  0.76181124  1
  Zn  Zn8  1  0.66518042  0.08300339  0.23818876  1
  Zn  Zn9  1  0.83481958  0.58300339  0.26181124  1
  Zn  Zn10  1  0.66518042  0.91699661  0.73818876  1
  Zn  Zn11  1  0.83481958  0.41699661  0.76181124  1
