# generated using pymatgen
data_FeNiAs
_symmetry_space_group_name_H-M   'P 1'
_cell_length_a   3.56443580
_cell_length_b   6.10681572
_cell_length_c   5.99162237
_cell_angle_alpha   120.63805010
_cell_angle_beta   90.00000000
_cell_angle_gamma   90.00000000
_symmetry_Int_Tables_number   1
_chemical_formula_structural   FeNiAs
_chemical_formula_sum   'Fe3 Ni3 As3'
_cell_volume   112.21537271
_cell_formula_units_Z   3
loop_
 _symmetry_equiv_pos_site_id
 _symmetry_equiv_pos_as_xyz
  1  'x, y, z'
loop_
 _atom_site_type_symbol
 _atom_site_label
 _atom_site_symmetry_multiplicity
 _atom_site_fract_x
 _atom_site_fract_y
 _atom_site_fract_z
 _atom_site_occupancy
  Fe  Fe0  1  0.50000000  0.59911431  0.00000000  1
  Fe  Fe1  1  0.50000000  0.40730813  0.40691868  1
  Fe  Fe2  1  0.50000000  0.00038945  0.59308132  1
  Ni  Ni3  1  -0.00000000  0.24695230  0.00000000  1
  Ni  Ni4  1  0.00000000  0.74390600  0.74015501  1
  Ni  Ni5  1  0.00000000  0.00375100  0.25984499  1
  As  As6  1  -0.00000000  0.34118405  0.67804733  1
  As  As7  1  -0.00000000  0.66313672  0.32195267  1
  As  As8  1  0.50000000  0.99415803  0.00000000  1
