# generated using pymatgen
data_La7SmMn6(FeO10)2
_symmetry_space_group_name_H-M   'P 1'
_cell_length_a   11.31857098
_cell_length_b   11.87240764
_cell_length_c   17.85379359
_cell_angle_alpha   109.40437709
_cell_angle_beta   108.56547768
_cell_angle_gamma   90.01575432
_symmetry_Int_Tables_number   1
_chemical_formula_structural   La7SmMn6(FeO10)2
_chemical_formula_sum   'La28 Sm4 Mn24 Fe8 O80'
_cell_volume   2129.98659193
_cell_formula_units_Z   4
loop_
 _symmetry_equiv_pos_site_id
 _symmetry_equiv_pos_as_xyz
  1  'x, y, z'
loop_
 _atom_site_type_symbol
 _atom_site_label
 _atom_site_symmetry_multiplicity
 _atom_site_fract_x
 _atom_site_fract_y
 _atom_site_fract_z
 _atom_site_occupancy
  La  La0  1  0.29745050  0.06515219  0.11051874  1
  La  La1  1  0.30395120  0.06433945  0.61010617  1
  La  La2  1  0.30006831  0.56488033  0.61088243  1
  La  La3  1  0.79467131  0.06519545  0.61083508  1
  La  La4  1  0.79963702  0.56574766  0.10943261  1
  La  La5  1  0.79997347  0.56470963  0.61136667  1
  La  La6  1  0.18908137  0.43394128  0.38839200  1
  La  La7  1  0.18964116  0.43641582  0.89145524  1
  La  La8  1  0.19224814  0.93453140  0.38734542  1
  La  La9  1  0.19137664  0.93570650  0.88999698  1
  La  La10  1  0.68822051  0.43559893  0.38877763  1
  La  La11  1  0.68270150  0.93453758  0.38841883  1
  La  La12  1  0.69007974  0.93424667  0.89053059  1
  La  La13  1  0.04441358  0.29477708  0.11066176  1
  La  La14  1  0.05026749  0.29707427  0.61249714  1
  La  La15  1  0.04893838  0.79765391  0.61049416  1
  La  La16  1  0.55370706  0.29405578  0.11047476  1
  La  La17  1  0.54965919  0.29525962  0.61202929  1
  La  La18  1  0.54696507  0.79496236  0.11032990  1
  La  La19  1  0.55098257  0.79419022  0.61107621  1
  La  La20  1  0.43911004  0.20489099  0.38818390  1
  La  La21  1  0.44462211  0.20608993  0.88975828  1
  La  La22  1  0.43742538  0.70513048  0.38768314  1
  La  La23  1  0.44006211  0.70422050  0.88968601  1
  La  La24  1  0.93654793  0.20074089  0.38731174  1
  La  La25  1  0.93476666  0.20575646  0.88961202  1
  La  La26  1  0.93737925  0.70352179  0.38686387  1
  La  La27  1  0.94065584  0.70392881  0.89089715  1
  Sm  Sm28  1  0.29402323  0.56680371  0.10938237  1
  Sm  Sm29  1  0.79694591  0.06520933  0.10867057  1
  Sm  Sm30  1  0.68884489  0.43482049  0.89178280  1
  Sm  Sm31  1  0.04822090  0.79375849  0.11002138  1
  Mn  Mn32  1  0.00241354  0.00010117  0.49954591  1
  Mn  Mn33  1  0.00191662  0.49968664  0.49967675  1
  Mn  Mn34  1  0.50165994  0.49980268  0.49979507  1
  Mn  Mn35  1  0.25358651  0.25169033  0.00121771  1
  Mn  Mn36  1  0.25191825  0.24894708  0.49956851  1
  Mn  Mn37  1  0.25226103  0.75024069  0.49940661  1
  Mn  Mn38  1  0.75162797  0.24941243  0.50022598  1
  Mn  Mn39  1  0.75121902  0.75048666  0.49928993  1
  Mn  Mn40  1  0.10371371  0.09656715  0.24748746  1
  Mn  Mn41  1  0.10885103  0.10094696  0.75043903  1
  Mn  Mn42  1  0.10924926  0.59897729  0.24827135  1
  Mn  Mn43  1  0.10899923  0.59906862  0.75060794  1
  Mn  Mn44  1  0.60970785  0.09730604  0.24848877  1
  Mn  Mn45  1  0.60945626  0.09915399  0.75306404  1
  Mn  Mn46  1  0.60418570  0.59848028  0.24721818  1
  Mn  Mn47  1  0.60986017  0.59795432  0.75228838  1
  Mn  Mn48  1  0.35716970  0.40166143  0.24731350  1
  Mn  Mn49  1  0.36053102  0.40165165  0.75121206  1
  Mn  Mn50  1  0.35291650  0.89895634  0.24483937  1
  Mn  Mn51  1  0.35843912  0.90121201  0.75031171  1
  Mn  Mn52  1  0.85824874  0.40032752  0.24953698  1
  Mn  Mn53  1  0.85683957  0.40117181  0.75203571  1
  Mn  Mn54  1  0.85866934  0.90038106  0.24811320  1
  Mn  Mn55  1  0.86019131  0.90191695  0.75148115  1
  Fe  Fe56  1  0.00410231  0.99891180  0.00148929  1
  Fe  Fe57  1  0.00378235  0.50130191  0.00148743  1
  Fe  Fe58  1  0.50537971  -0.00003501  0.00057522  1
  Fe  Fe59  1  0.50247770  0.99982373  0.49964672  1
  Fe  Fe60  1  0.50429151  0.50175278  0.00124039  1
  Fe  Fe61  1  0.25421603  0.75024418  0.00101552  1
  Fe  Fe62  1  0.75355720  0.24995978  0.00044815  1
  Fe  Fe63  1  0.75601139  0.75067340  0.00125619  1
  O  O64  1  0.11141480  0.11402817  0.47133124  1
  O  O65  1  0.11074783  0.11604909  0.97673895  1
  O  O66  1  0.10944917  0.61775649  0.47376067  1
  O  O67  1  0.11426475  0.61757360  0.97988698  1
  O  O68  1  0.61209544  0.11758875  0.48070784  1
  O  O69  1  0.61529456  0.11614145  0.97821483  1
  O  O70  1  0.61012874  0.61942640  0.47668615  1
  O  O71  1  0.61477912  0.61391920  0.97518792  1
  O  O72  1  0.13595165  0.38598562  0.02728382  1
  O  O73  1  0.13591536  0.38229676  0.52604022  1
  O  O74  1  0.13520424  0.87927081  0.02693928  1
  O  O75  1  0.13903568  0.88500547  0.52640795  1
  O  O76  1  0.63502689  0.37991588  0.02090223  1
  O  O77  1  0.63385402  0.38094234  0.52382802  1
  O  O78  1  0.63986441  0.88433117  0.02521962  1
  O  O79  1  0.63109818  0.88234872  0.51828813  1
  O  O80  1  0.36665024  0.11021373  0.47980997  1
  O  O81  1  0.36596098  0.10985570  0.97565665  1
  O  O82  1  0.36019862  0.60724422  0.47519680  1
  O  O83  1  0.36270637  0.61218113  0.97645078  1
  O  O84  1  0.85966462  0.10689742  0.47336954  1
  O  O85  1  0.86260531  0.10922330  0.97983782  1
  O  O86  1  0.85978796  0.60747597  0.47442040  1
  O  O87  1  0.86055113  0.60664227  0.97432591  1
  O  O88  1  0.38740960  0.40173143  0.02844805  1
  O  O89  1  0.38424072  0.39130968  0.52319517  1
  O  O90  1  0.38557504  0.89245485  0.02274789  1
  O  O91  1  0.38740213  0.88895944  0.52002470  1
  O  O92  1  0.88252347  0.39079195  0.02056207  1
  O  O93  1  0.88510911  0.39263301  0.52539659  1
  O  O94  1  0.88929344  0.89360761  0.02942974  1
  O  O95  1  0.88585120  0.89269365  0.52538564  1
  O  O96  1  0.10260491  0.12166437  0.14042075  1
  O  O97  1  0.10547099  0.12133193  0.64066889  1
  O  O98  1  0.10544898  0.62198079  0.13985045  1
  O  O99  1  0.10283646  0.62136668  0.64113014  1
  O  O100  1  0.60979201  0.11812397  0.14034128  1
  O  O101  1  0.60136988  0.12007059  0.64342192  1
  O  O102  1  0.60727545  0.62124202  0.14014151  1
  O  O103  1  0.60296389  0.61874207  0.64203629  1
  O  O104  1  0.46043450  0.38073848  0.35796096  1
  O  O105  1  0.46862312  0.38313259  0.86051023  1
  O  O106  1  0.45468960  0.88053277  0.35571718  1
  O  O107  1  0.45983850  0.88068653  0.86044802  1
  O  O108  1  0.96195714  0.37788567  0.35890818  1
  O  O109  1  0.96288773  0.38047709  0.86096655  1
  O  O110  1  0.96501794  0.87865569  0.35766866  1
  O  O111  1  0.95967138  0.88117940  0.86196167  1
  O  O112  1  0.35680317  0.26850493  0.14039540  1
  O  O113  1  0.35312139  0.27155424  0.64108465  1
  O  O114  1  0.35232986  0.76653187  0.13855933  1
  O  O115  1  0.35556278  0.77241143  0.64043366  1
  O  O116  1  0.84668353  0.26904727  0.13919271  1
  O  O117  1  0.85011563  0.27091222  0.64155179  1
  O  O118  1  0.86107539  0.76958676  0.14042039  1
  O  O119  1  0.84902411  0.77172556  0.64037528  1
  O  O120  1  0.21312886  0.22479002  0.35784828  1
  O  O121  1  0.21546942  0.23079058  0.86060122  1
  O  O122  1  0.21182548  0.72901449  0.35862096  1
  O  O123  1  0.20896522  0.72946110  0.86116225  1
  O  O124  1  0.70833537  0.22884092  0.35960233  1
  O  O125  1  0.70890592  0.23164805  0.86203759  1
  O  O126  1  0.70773916  0.72881665  0.35803612  1
  O  O127  1  0.71046706  0.73045744  0.86173190  1
  O  O128  1  0.42185055  0.06867117  0.24921622  1
  O  O129  1  0.42200704  0.06996088  0.75061638  1
  O  O130  1  0.41427624  0.57051697  0.24404432  1
  O  O131  1  0.42073104  0.57084508  0.74985541  1
  O  O132  1  0.91408103  0.07034241  0.24453739  1
  O  O133  1  0.92081824  0.07134327  0.75076220  1
  O  O134  1  0.92246522  0.56839919  0.24898665  1
  O  O135  1  0.92110015  0.56914281  0.75062864  1
  O  O136  1  0.17051787  0.42944886  0.24970830  1
  O  O137  1  0.17301826  0.43076084  0.75139392  1
  O  O138  1  0.16461135  0.92523464  0.24364861  1
  O  O139  1  0.17078299  0.93064685  0.75033444  1
  O  O140  1  0.67104040  0.43120133  0.24994789  1
  O  O141  1  0.67101693  0.42979703  0.75640862  1
  O  O142  1  0.67152388  0.92874910  0.24998734  1
  O  O143  1  0.67198114  0.92995847  0.75036649  1
