# generated using pymatgen
data_CeSe2
_symmetry_space_group_name_H-M   'P 1'
_cell_length_a   4.28629547
_cell_length_b   4.28629630
_cell_length_c   12.70522962
_cell_angle_alpha   80.28878233
_cell_angle_beta   80.28878296
_cell_angle_gamma   59.99999356
_symmetry_Int_Tables_number   1
_chemical_formula_structural   CeSe2
_chemical_formula_sum   'Ce2 Se4'
_cell_volume   198.27998415
_cell_formula_units_Z   2
loop_
 _symmetry_equiv_pos_site_id
 _symmetry_equiv_pos_as_xyz
  1  'x, y, z'
loop_
 _atom_site_type_symbol
 _atom_site_label
 _atom_site_symmetry_multiplicity
 _atom_site_fract_x
 _atom_site_fract_y
 _atom_site_fract_z
 _atom_site_occupancy
  Ce  Ce0  1  0.08332869  0.08332869  0.75001394  1
  Ce  Ce1  1  0.91667131  0.91667131  0.24998606  1
  Se  Se2  1  0.21089622  0.21089622  0.36731135  1
  Se  Se3  1  0.78910378  0.78910378  0.63268865  1
  Se  Se4  1  0.37758586  0.37758586  0.86724242  1
  Se  Se5  1  0.62241414  0.62241414  0.13275758  1
