# generated using pymatgen
data_SmMnGe2
_symmetry_space_group_name_H-M   'P 1'
_cell_length_a   4.47233871
_cell_length_b   4.41166057
_cell_length_c   8.36539074
_cell_angle_alpha   105.28884577
_cell_angle_beta   90.00000000
_cell_angle_gamma   90.00000000
_symmetry_Int_Tables_number   1
_chemical_formula_structural   SmMnGe2
_chemical_formula_sum   'Sm2 Mn2 Ge4'
_cell_volume   159.21141996
_cell_formula_units_Z   2
loop_
 _symmetry_equiv_pos_site_id
 _symmetry_equiv_pos_as_xyz
  1  'x, y, z'
loop_
 _atom_site_type_symbol
 _atom_site_label
 _atom_site_symmetry_multiplicity
 _atom_site_fract_x
 _atom_site_fract_y
 _atom_site_fract_z
 _atom_site_occupancy
  Sm  Sm0  1  0.75000000  0.10448725  0.20897450  1
  Sm  Sm1  1  0.25000000  0.89551275  0.79102550  1
  Mn  Mn2  1  0.75000000  0.30806972  0.61613944  1
  Mn  Mn3  1  0.25000000  0.69193028  0.38386056  1
  Ge  Ge4  1  0.75000000  0.45530061  0.91060122  1
  Ge  Ge5  1  0.25000000  0.54469939  0.08939878  1
  Ge  Ge6  1  0.75000000  0.74657155  0.49314311  1
  Ge  Ge7  1  0.25000000  0.25342845  0.50685689  1
