# generated using pymatgen
data_Si
_symmetry_space_group_name_H-M   'P 1'
_cell_length_a   3.85375715
_cell_length_b   5.71140256
_cell_length_c   12.72749573
_cell_angle_alpha   90.00000000
_cell_angle_beta   90.00000000
_cell_angle_gamma   109.71696281
_symmetry_Int_Tables_number   1
_chemical_formula_structural   Si
_chemical_formula_sum   Si12
_cell_volume   263.71252324
_cell_formula_units_Z   12
loop_
 _symmetry_equiv_pos_site_id
 _symmetry_equiv_pos_as_xyz
  1  'x, y, z'
loop_
 _atom_site_type_symbol
 _atom_site_label
 _atom_site_symmetry_multiplicity
 _atom_site_fract_x
 _atom_site_fract_y
 _atom_site_fract_z
 _atom_site_occupancy
  Si  Si0  1  0.24272666  0.48545331  0.94529567  1
  Si  Si1  1  0.75727334  0.51454669  0.05470433  1
  Si  Si2  1  0.24272666  0.48545331  0.55470433  1
  Si  Si3  1  0.75727334  0.51454669  0.44529567  1
  Si  Si4  1  0.57123670  0.14247340  0.15702700  1
  Si  Si5  1  0.42876330  0.85752660  0.84297300  1
  Si  Si6  1  0.57123670  0.14247340  0.34297300  1
  Si  Si7  1  0.42876330  0.85752660  0.65702700  1
  Si  Si8  1  0.02865897  0.05731794  0.90946269  1
  Si  Si9  1  0.97134103  0.94268206  0.09053731  1
  Si  Si10  1  0.02865897  0.05731794  0.59053731  1
  Si  Si11  1  0.97134103  0.94268206  0.40946269  1
