# generated using pymatgen
data_Sr4Ca4Co7CuO24
_symmetry_space_group_name_H-M   'P 1'
_cell_length_a   7.64939684
_cell_length_b   7.61197890
_cell_length_c   7.64939684
_cell_angle_alpha   89.87515338
_cell_angle_beta   90.01160676
_cell_angle_gamma   90.12484662
_symmetry_Int_Tables_number   1
_chemical_formula_structural   Sr4Ca4Co7CuO24
_chemical_formula_sum   'Sr4 Ca4 Co7 Cu1 O24'
_cell_volume   445.39966853
_cell_formula_units_Z   1
loop_
 _symmetry_equiv_pos_site_id
 _symmetry_equiv_pos_as_xyz
  1  'x, y, z'
loop_
 _atom_site_type_symbol
 _atom_site_label
 _atom_site_symmetry_multiplicity
 _atom_site_fract_x
 _atom_site_fract_y
 _atom_site_fract_z
 _atom_site_occupancy
  Sr  Sr0  1  0.24861693  0.25049961  0.24890330  1
  Sr  Sr1  1  0.24860614  0.25033550  0.75139386  1
  Sr  Sr2  1  0.75109670  0.25049961  0.75138307  1
  Sr  Sr3  1  0.75156361  0.74973336  0.24843639  1
  Ca  Ca4  1  0.24738154  0.74975761  0.24652314  1
  Ca  Ca5  1  0.24693122  0.74973119  0.75306878  1
  Ca  Ca6  1  0.75261967  0.25043393  0.24738033  1
  Ca  Ca7  1  0.75347686  0.74975761  0.75261846  1
  Co  Co8  1  0.99997997  0.99838055  0.49977996  1
  Co  Co9  1  0.99993101  0.50162285  0.00006899  1
  Co  Co10  1  0.99994536  0.50143863  0.49993161  1
  Co  Co11  1  0.50022004  0.99838055  0.00002003  1
  Co  Co12  1  0.50008660  0.99842659  0.49991340  1
  Co  Co13  1  0.50006839  0.50143863  0.00005464  1
  Co  Co14  1  0.49994782  0.50203396  0.50005218  1
  Cu  Cu15  1  0.00006856  0.99974816  -0.00006856  1
  O  O16  1  0.25473562  0.99237851  0.00014196  1
  O  O17  1  0.25456651  0.99319602  0.50000713  1
  O  O18  1  0.25093934  0.50669217  -0.00000232  1
  O  O19  1  0.24378816  0.50430643  0.50026153  1
  O  O20  1  0.74520047  0.99829981  0.99974426  1
  O  O21  1  0.74547472  0.99826397  0.50025508  1
  O  O22  1  0.74899352  0.50282993  0.99960778  1
  O  O23  1  0.75622766  0.50237769  0.50048037  1
  O  O24  1  0.99690312  0.25553547  0.00309688  1
  O  O25  1  0.99734627  0.25164128  0.49797683  1
  O  O26  1  0.00253928  0.74613862  0.99746072  1
  O  O27  1  0.00214887  0.74850881  0.50140934  1
  O  O28  1  0.50202317  0.25164128  0.00265373  1
  O  O29  1  0.50107359  0.25731844  0.49892641  1
  O  O30  1  0.49859066  0.74850881  0.99785113  1
  O  O31  1  0.49940440  0.74179990  0.50059560  1
  O  O32  1  0.00025574  0.99829981  0.25479953  1
  O  O33  1  0.99985804  0.99237851  0.74526438  1
  O  O34  1  0.00039222  0.50282993  0.25100648  1
  O  O35  1  0.00000232  0.50669217  0.74906066  1
  O  O36  1  0.49974492  0.99826397  0.25452528  1
  O  O37  1  0.49999287  0.99319602  0.74543349  1
  O  O38  1  0.49951963  0.50237769  0.24377234  1
  O  O39  1  0.49973847  0.50430643  0.75621184  1
