# generated using pymatgen
data_Ce2Mg
_symmetry_space_group_name_H-M   'P 1'
_cell_length_a   12.99257554
_cell_length_b   3.22998502
_cell_length_c   7.73371031
_cell_angle_alpha   90.00000000
_cell_angle_beta   103.21190062
_cell_angle_gamma   90.00000000
_symmetry_Int_Tables_number   1
_chemical_formula_structural   Ce2Mg
_chemical_formula_sum   'Ce8 Mg4'
_cell_volume   315.96112096
_cell_formula_units_Z   4
loop_
 _symmetry_equiv_pos_site_id
 _symmetry_equiv_pos_as_xyz
  1  'x, y, z'
loop_
 _atom_site_type_symbol
 _atom_site_label
 _atom_site_symmetry_multiplicity
 _atom_site_fract_x
 _atom_site_fract_y
 _atom_site_fract_z
 _atom_site_occupancy
  Ce  Ce0  1  0.20158118  0.00000000  0.14269579  1
  Ce  Ce1  1  0.36180796  0.50000000  0.46651481  1
  Ce  Ce2  1  0.13819204  0.00000000  0.53348519  1
  Ce  Ce3  1  0.29841882  0.50000000  0.85730421  1
  Ce  Ce4  1  0.70158118  0.50000000  0.14269579  1
  Ce  Ce5  1  0.86180796  0.00000000  0.46651481  1
  Ce  Ce6  1  0.63819204  0.50000000  0.53348519  1
  Ce  Ce7  1  0.79841882  -0.00000000  0.85730421  1
  Mg  Mg8  1  0.47223953  -0.00000000  0.18567462  1
  Mg  Mg9  1  0.02776047  0.50000000  0.81432538  1
  Mg  Mg10  1  0.97223953  0.50000000  0.18567462  1
  Mg  Mg11  1  0.52776047  0.00000000  0.81432538  1
