# generated using pymatgen
data_MgBi2
_symmetry_space_group_name_H-M   'P 1'
_cell_length_a   12.86863146
_cell_length_b   3.39551347
_cell_length_c   8.40332955
_cell_angle_alpha   90.00000000
_cell_angle_beta   108.92434414
_cell_angle_gamma   90.00000000
_symmetry_Int_Tables_number   1
_chemical_formula_structural   MgBi2
_chemical_formula_sum   'Mg4 Bi8'
_cell_volume   347.34121311
_cell_formula_units_Z   4
loop_
 _symmetry_equiv_pos_site_id
 _symmetry_equiv_pos_as_xyz
  1  'x, y, z'
loop_
 _atom_site_type_symbol
 _atom_site_label
 _atom_site_symmetry_multiplicity
 _atom_site_fract_x
 _atom_site_fract_y
 _atom_site_fract_z
 _atom_site_occupancy
  Mg  Mg0  1  0.47050963  0.00000000  0.19479890  1
  Mg  Mg1  1  0.02949037  0.50000000  0.80520110  1
  Mg  Mg2  1  0.97050963  0.50000000  0.19479890  1
  Mg  Mg3  1  0.52949037  -0.00000000  0.80520110  1
  Bi  Bi4  1  0.17678481  -0.00000000  0.11718588  1
  Bi  Bi5  1  0.37358972  0.50000000  0.48989183  1
  Bi  Bi6  1  0.12641028  0.00000000  0.51010817  1
  Bi  Bi7  1  0.32321519  0.50000000  0.88281412  1
  Bi  Bi8  1  0.67678481  0.50000000  0.11718588  1
  Bi  Bi9  1  0.87358972  -0.00000000  0.48989183  1
  Bi  Bi10  1  0.62641028  0.50000000  0.51010817  1
  Bi  Bi11  1  0.82321519  0.00000000  0.88281412  1
