# generated using pymatgen
data_ErMn2
_symmetry_space_group_name_H-M   'P 1'
_cell_length_a   5.09361035
_cell_length_b   5.09361035
_cell_length_c   8.34264866
_cell_angle_alpha   86.79767376
_cell_angle_beta   86.79767376
_cell_angle_gamma   62.24022769
_symmetry_Int_Tables_number   1
_chemical_formula_structural   ErMn2
_chemical_formula_sum   'Er4 Mn8'
_cell_volume   191.12920061
_cell_formula_units_Z   4
loop_
 _symmetry_equiv_pos_site_id
 _symmetry_equiv_pos_as_xyz
  1  'x, y, z'
loop_
 _atom_site_type_symbol
 _atom_site_label
 _atom_site_symmetry_multiplicity
 _atom_site_fract_x
 _atom_site_fract_y
 _atom_site_fract_z
 _atom_site_occupancy
  Er  Er0  1  0.66941018  0.66941018  0.93845271  1
  Er  Er1  1  0.33058982  0.33058982  0.06154729  1
  Er  Er2  1  0.33429390  0.33429390  0.43651073  1
  Er  Er3  1  0.66570610  0.66570610  0.56348927  1
  Mn  Mn4  1  0.00000000  0.00000000  -0.00000000  1
  Mn  Mn5  1  0.00000000  0.00000000  0.50000000  1
  Mn  Mn6  1  0.16800237  0.16800237  0.75454356  1
  Mn  Mn7  1  0.83199763  0.83199763  0.24545644  1
  Mn  Mn8  1  0.32941149  0.83995259  0.25563475  1
  Mn  Mn9  1  0.83995259  0.32941149  0.25563475  1
  Mn  Mn10  1  0.67058851  0.16004741  0.74436525  1
  Mn  Mn11  1  0.16004741  0.67058851  0.74436525  1
