# generated using pymatgen
data_LiCoSiO4
_symmetry_space_group_name_H-M   'P 1'
_cell_length_a   5.79042591
_cell_length_b   5.61051636
_cell_length_c   5.57675558
_cell_angle_alpha   60.19885553
_cell_angle_beta   90.00000000
_cell_angle_gamma   121.06653753
_symmetry_Int_Tables_number   1
_chemical_formula_structural   LiCoSiO4
_chemical_formula_sum   'Li2 Co2 Si2 O8'
_cell_volume   126.39498315
_cell_formula_units_Z   2
loop_
 _symmetry_equiv_pos_site_id
 _symmetry_equiv_pos_as_xyz
  1  'x, y, z'
loop_
 _atom_site_type_symbol
 _atom_site_label
 _atom_site_symmetry_multiplicity
 _atom_site_fract_x
 _atom_site_fract_y
 _atom_site_fract_z
 _atom_site_occupancy
  Li  Li0  1  0.00000000  0.50000000  0.00000000  1
  Li  Li1  1  0.00000000  0.50000000  0.50000000  1
  Co  Co2  1  0.00000000  0.00000000  0.00000000  1
  Co  Co3  1  0.50000000  0.00000000  0.00000000  1
  Si  Si4  1  0.39062273  0.28124546  0.35937727  1
  Si  Si5  1  0.60937727  0.71875454  0.64062273  1
  O  O6  1  0.26063725  0.02127449  0.24806455  1
  O  O7  1  0.73936275  0.97872551  0.26933904  1
  O  O8  1  0.26611095  0.51154326  0.24422837  1
  O  O9  1  0.74543231  0.51154326  0.24422837  1
  O  O10  1  0.26063725  0.02127449  0.73066096  1
  O  O11  1  0.73936275  0.97872551  0.75193545  1
  O  O12  1  0.73388905  0.48845674  0.75577163  1
  O  O13  1  0.25456769  0.48845674  0.75577163  1
