# generated using pymatgen
data_Eu2Cu2O5
_symmetry_space_group_name_H-M   'P 1'
_cell_length_a   5.33998510
_cell_length_b   5.54513224
_cell_length_c   8.69468304
_cell_angle_alpha   108.59524443
_cell_angle_beta   107.88354829
_cell_angle_gamma   90.00000000
_symmetry_Int_Tables_number   1
_chemical_formula_structural   Eu2Cu2O5
_chemical_formula_sum   'Eu4 Cu4 O10'
_cell_volume   230.85419314
_cell_formula_units_Z   2
loop_
 _symmetry_equiv_pos_site_id
 _symmetry_equiv_pos_as_xyz
  1  'x, y, z'
loop_
 _atom_site_type_symbol
 _atom_site_label
 _atom_site_symmetry_multiplicity
 _atom_site_fract_x
 _atom_site_fract_y
 _atom_site_fract_z
 _atom_site_occupancy
  Eu  Eu0  1  0.61467523  0.12868616  0.22400278  1
  Eu  Eu1  1  0.39067245  0.87131384  0.77599722  1
  Eu  Eu2  1  0.11467523  0.59531662  0.22400278  1
  Eu  Eu3  1  0.89067245  0.40468338  0.77599722  1
  Cu  Cu4  1  0.00959849  -0.00000000  0.00000000  1
  Cu  Cu5  1  0.50959849  0.50000000  0.00000000  1
  Cu  Cu6  1  0.22041718  0.20299602  0.50000000  1
  Cu  Cu7  1  0.72041718  0.79700398  0.50000000  1
  O  O8  1  0.24546544  0.24124892  0.97601603  1
  O  O9  1  0.26944940  0.75875108  0.02398397  1
  O  O10  1  0.74546544  0.23476711  0.97601603  1
  O  O11  1  0.76944940  0.76523289  0.02398397  1
  O  O12  1  0.16942926  0.19819342  0.27326095  1
  O  O13  1  0.89616831  0.80180658  0.72673905  1
  O  O14  1  0.66942926  0.57506754  0.27326095  1
  O  O15  1  0.39616831  0.42493246  0.72673905  1
  O  O16  1  0.84812424  0.14549748  0.50000000  1
  O  O17  1  0.34812424  0.85450252  0.50000000  1
