# generated using pymatgen
data_Ti5Fe(PO4)6
_symmetry_space_group_name_H-M   'P 1'
_cell_length_a   8.44913295
_cell_length_b   8.44913289
_cell_length_c   8.44913282
_cell_angle_alpha   62.42512064
_cell_angle_beta   62.42512060
_cell_angle_gamma   62.42512265
_symmetry_Int_Tables_number   1
_chemical_formula_structural   Ti5Fe(PO4)6
_chemical_formula_sum   'Ti5 Fe1 P6 O24'
_cell_volume   449.56534945
_cell_formula_units_Z   1
loop_
 _symmetry_equiv_pos_site_id
 _symmetry_equiv_pos_as_xyz
  1  'x, y, z'
loop_
 _atom_site_type_symbol
 _atom_site_label
 _atom_site_symmetry_multiplicity
 _atom_site_fract_x
 _atom_site_fract_y
 _atom_site_fract_z
 _atom_site_occupancy
  Ti  Ti0  1  0.99875662  0.99875662  0.99875662  1
  Ti  Ti1  1  0.49948526  0.49948526  0.49948526  1
  Ti  Ti2  1  0.14091398  0.14091398  0.14091398  1
  Ti  Ti3  1  0.35595110  0.35595110  0.35595110  1
  Ti  Ti4  1  0.64363771  0.64363771  0.64363771  1
  Fe  Fe5  1  0.85541801  0.85541801  0.85541801  1
  P  P6  1  0.25144096  0.54262239  0.95647559  1
  P  P7  1  0.54262239  0.95647559  0.25144096  1
  P  P8  1  0.95647559  0.25144096  0.54262239  1
  P  P9  1  0.04690314  0.75038953  0.45486428  1
  P  P10  1  0.45486428  0.04690314  0.75038953  1
  P  P11  1  0.75038953  0.45486428  0.04690314  1
  O  O12  1  0.11038425  0.33292392  0.48771397  1
  O  O13  1  0.33292392  0.48771397  0.11038425  1
  O  O14  1  0.05924519  0.90193893  0.25242011  1
  O  O15  1  0.48771397  0.11038425  0.33292392  1
  O  O16  1  0.01879878  0.82228654  0.60094185  1
  O  O17  1  0.24623435  0.59333770  0.43155724  1
  O  O18  1  0.25242011  0.05924519  0.90193893  1
  O  O19  1  0.43155724  0.24623435  0.59333770  1
  O  O20  1  0.17849010  0.38624546  0.99945053  1
  O  O21  1  0.59333770  0.43155724  0.24623435  1
  O  O22  1  0.10478404  0.74092683  0.94757554  1
  O  O23  1  0.38624546  0.99945053  0.17849010  1
  O  O24  1  0.60094185  0.01879878  0.82228654  1
  O  O25  1  0.90193893  0.25242011  0.05924519  1
  O  O26  1  0.40712052  0.55527938  0.75726496  1
  O  O27  1  0.82228654  0.60094185  0.01879878  1
  O  O28  1  0.55527938  0.75726496  0.40712052  1
  O  O29  1  0.74092683  0.94757554  0.10478404  1
  O  O30  1  0.75726496  0.40712052  0.55527938  1
  O  O31  1  0.99945053  0.17849010  0.38624546  1
  O  O32  1  0.50246470  0.88615968  0.67959485  1
  O  O33  1  0.94757554  0.10478404  0.74092683  1
  O  O34  1  0.67959485  0.50246470  0.88615968  1
  O  O35  1  0.88615968  0.67959485  0.50246470  1
