# generated using pymatgen
data_Tl2Pt
_symmetry_space_group_name_H-M   'P 1'
_cell_length_a   5.92746430
_cell_length_b   5.93095680
_cell_length_c   5.92476843
_cell_angle_alpha   103.15591100
_cell_angle_beta   103.14969552
_cell_angle_gamma   123.12652116
_symmetry_Int_Tables_number   1
_chemical_formula_structural   Tl2Pt
_chemical_formula_sum   'Tl4 Pt2'
_cell_volume   153.22996767
_cell_formula_units_Z   2
loop_
 _symmetry_equiv_pos_site_id
 _symmetry_equiv_pos_as_xyz
  1  'x, y, z'
loop_
 _atom_site_type_symbol
 _atom_site_label
 _atom_site_symmetry_multiplicity
 _atom_site_fract_x
 _atom_site_fract_y
 _atom_site_fract_z
 _atom_site_occupancy
  Tl  Tl0  1  0.84250346  0.65750632  0.50003038  1
  Tl  Tl1  1  0.65745519  0.15750710  0.81492564  1
  Tl  Tl2  1  0.15750014  0.34249605  0.49997361  1
  Tl  Tl3  1  0.34254180  0.84250111  0.18508587  1
  Pt  Pt4  1  0.00000102  0.00000321  0.00000377  1
  Pt  Pt5  1  0.49999738  0.50000421  0.00000174  1
