# generated using pymatgen
data_Li2Fe3Co5O16
_symmetry_space_group_name_H-M   'P 1'
_cell_length_a   5.23035934
_cell_length_b   2.93608641
_cell_length_c   19.27142283
_cell_angle_alpha   90.00000000
_cell_angle_beta   86.50324425
_cell_angle_gamma   90.00000000
_symmetry_Int_Tables_number   1
_chemical_formula_structural   Li2Fe3Co5O16
_chemical_formula_sum   'Li2 Fe3 Co5 O16'
_cell_volume   295.39615681
_cell_formula_units_Z   1
loop_
 _symmetry_equiv_pos_site_id
 _symmetry_equiv_pos_as_xyz
  1  'x, y, z'
loop_
 _atom_site_type_symbol
 _atom_site_label
 _atom_site_symmetry_multiplicity
 _atom_site_fract_x
 _atom_site_fract_y
 _atom_site_fract_z
 _atom_site_occupancy
  Li  Li0  1  0.00128497  0.00000000  0.99728852  1
  Li  Li1  1  0.49871503  0.00000000  0.50271148  1
  Fe  Fe2  1  0.61853133  0.00000000  0.12342263  1
  Fe  Fe3  1  0.75000000  0.50000000  0.25000000  1
  Fe  Fe4  1  0.88146867  0.00000000  0.37657737  1
  Co  Co5  1  -0.00002910  0.50000000  0.50112412  1
  Co  Co6  1  0.12299597  0.00000000  0.62665828  1
  Co  Co7  1  0.25000000  0.50000000  0.75000000  1
  Co  Co8  1  0.37700403  0.00000000  0.87334172  1
  Co  Co9  1  0.50002910  0.50000000  0.99887588  1
  O  O10  1  0.01201469  0.50000000  0.31504502  1
  O  O11  1  0.14772759  0.00000000  0.44885761  1
  O  O12  1  0.11797583  0.00000000  0.80462175  1
  O  O13  1  0.35227241  0.00000000  0.05114239  1
  O  O14  1  0.26529341  0.50000000  0.56194823  1
  O  O15  1  0.23470659  0.50000000  0.93805177  1
  O  O16  1  0.48798531  0.50000000  0.18495498  1
  O  O17  1  0.38202417  0.00000000  0.69537825  1
  O  O18  1  0.60424561  0.00000000  0.30610869  1
  O  O19  1  0.50346574  0.50000000  0.81472249  1
  O  O20  1  0.77153109  0.50000000  0.05848922  1
  O  O21  1  0.72846891  0.50000000  0.44151078  1
  O  O22  1  0.64180016  0.00000000  0.94566812  1
  O  O23  1  0.89575439  0.00000000  0.19389131  1
  O  O24  1  0.85819984  0.00000000  0.55433188  1
  O  O25  1  0.99653426  0.50000000  0.68527751  1
