# generated using pymatgen
data_Sr2Ca6TiMn7O24
_symmetry_space_group_name_H-M   'P 1'
_cell_length_a   7.65752922
_cell_length_b   7.66056555
_cell_length_c   7.66056555
_cell_angle_alpha   90.01353352
_cell_angle_beta   90.00000000
_cell_angle_gamma   90.00000000
_symmetry_Int_Tables_number   1
_chemical_formula_structural   Sr2Ca6TiMn7O24
_chemical_formula_sum   'Sr2 Ca6 Ti1 Mn7 O24'
_cell_volume   449.37645838
_cell_formula_units_Z   1
loop_
 _symmetry_equiv_pos_site_id
 _symmetry_equiv_pos_as_xyz
  1  'x, y, z'
loop_
 _atom_site_type_symbol
 _atom_site_label
 _atom_site_symmetry_multiplicity
 _atom_site_fract_x
 _atom_site_fract_y
 _atom_site_fract_z
 _atom_site_occupancy
  Sr  Sr0  1  0.25116313  0.24850950  0.75149050  1
  Sr  Sr1  1  0.74883687  0.24850950  0.75149050  1
  Ca  Ca2  1  0.25280861  0.24723509  0.24756033  1
  Ca  Ca3  1  0.25275222  0.75296802  0.24703198  1
  Ca  Ca4  1  0.25280861  0.75243967  0.75276491  1
  Ca  Ca5  1  0.74719139  0.24723509  0.24756033  1
  Ca  Ca6  1  0.74724778  0.75296802  0.24703198  1
  Ca  Ca7  1  0.74719139  0.75243967  0.75276491  1
  Ti  Ti8  1  -0.00000000  0.50337600  0.49662400  1
  Mn  Mn9  1  -0.00000000  0.99888683  0.00111317  1
  Mn  Mn10  1  -0.00000000  -0.00029763  0.49843600  1
  Mn  Mn11  1  -0.00000000  0.50156400  0.00029763  1
  Mn  Mn12  1  0.50000000  0.99869176  0.00130824  1
  Mn  Mn13  1  0.50000000  0.99887070  0.49856082  1
  Mn  Mn14  1  0.50000000  0.50143918  0.00112930  1
  Mn  Mn15  1  0.50000000  0.50160027  0.49839973  1
  O  O16  1  0.25001199  0.99582531  0.00417469  1
  O  O17  1  0.25018166  0.99570835  0.49588701  1
  O  O18  1  0.25018166  0.50411299  0.00429165  1
  O  O19  1  0.25282395  0.50274082  0.49725918  1
  O  O20  1  0.74998801  0.99582531  0.00417469  1
  O  O21  1  0.74981834  0.99570835  0.49588701  1
  O  O22  1  0.74981834  0.50411299  0.00429165  1
  O  O23  1  0.74717605  0.50274082  0.49725918  1
  O  O24  1  -0.00000000  0.24982742  0.00743616  1
  O  O25  1  -0.00000000  0.24710560  0.49613472  1
  O  O26  1  -0.00000000  0.75017120  0.00116202  1
  O  O27  1  -0.00000000  0.75277620  0.49798850  1
  O  O28  1  0.50000000  0.24998113  0.00692492  1
  O  O29  1  0.50000000  0.24976381  0.49295941  1
  O  O30  1  0.50000000  0.74994166  0.00163653  1
  O  O31  1  0.50000000  0.75012213  0.49865751  1
  O  O32  1  -0.00000000  0.99883798  0.24982880  1
  O  O33  1  -0.00000000  0.99256384  0.75017258  1
  O  O34  1  -0.00000000  0.50201150  0.24722380  1
  O  O35  1  -0.00000000  0.50386528  0.75289440  1
  O  O36  1  0.50000000  0.99836347  0.25005834  1
  O  O37  1  0.50000000  0.99307508  0.75001887  1
  O  O38  1  0.50000000  0.50134249  0.24987787  1
  O  O39  1  0.50000000  0.50704059  0.75023619  1
