# generated using pymatgen
data_Li9Mn2Co5O16
_symmetry_space_group_name_H-M   'P 1'
_cell_length_a   5.79892557
_cell_length_b   8.40505836
_cell_length_c   6.54554757
_cell_angle_alpha   90.60706323
_cell_angle_beta   116.29335162
_cell_angle_gamma   89.99999816
_symmetry_Int_Tables_number   1
_chemical_formula_structural   Li9Mn2Co5O16
_chemical_formula_sum   'Li9 Mn2 Co5 O16'
_cell_volume   286.00428888
_cell_formula_units_Z   1
loop_
 _symmetry_equiv_pos_site_id
 _symmetry_equiv_pos_as_xyz
  1  'x, y, z'
loop_
 _atom_site_type_symbol
 _atom_site_label
 _atom_site_symmetry_multiplicity
 _atom_site_fract_x
 _atom_site_fract_y
 _atom_site_fract_z
 _atom_site_occupancy
  Li  Li0  1  0.62486935  0.25538941  0.74973870  1
  Li  Li1  1  0.37648569  0.74574074  0.25297138  1
  Li  Li2  1  0.12286001  0.25764036  0.74572001  1
  Li  Li3  1  0.50039052  0.50645735  0.99476849  1
  Li  Li4  1  0.25501715  0.99210906  0.50235927  1
  Li  Li5  1  0.99437797  0.50645735  0.99476849  1
  Li  Li6  1  0.87472046  0.74272005  0.24944091  1
  Li  Li7  1  0.74734212  0.99210906  0.50235927  1
  Li  Li8  1  0.62471843  0.74461599  0.74943686  1
  Mn  Mn9  1  0.99724586  0.99700987  0.99610789  1
  Mn  Mn10  1  0.49886203  0.99700987  0.99610789  1
  Co  Co11  1  0.75382185  0.51071439  0.51011762  1
  Co  Co12  1  0.25629577  0.51071439  0.51011762  1
  Co  Co13  1  0.37690001  0.25901244  0.25380002  1
  Co  Co14  1  0.12405960  0.74723267  0.74811920  1
  Co  Co15  1  0.87827416  0.25876248  0.25654832  1
  O  O16  1  0.63834133  0.00391092  0.77668266  1
  O  O17  1  0.37980788  0.49607395  0.25961577  1
  O  O18  1  0.13719027  0.00900221  0.77438053  1
  O  O19  1  0.50925214  0.23133258  0.01750880  1
  O  O20  1  0.24109645  0.74015926  0.51254731  1
  O  O21  1  0.00825666  0.23133258  0.01750880  1
  O  O22  1  0.87841438  0.49226857  0.25682877  1
  O  O23  1  0.77145086  0.74015926  0.51254731  1
  O  O24  1  0.61895550  0.49396546  0.73791101  1
  O  O25  1  0.36249603  0.00180963  0.22499206  1
  O  O26  1  0.12310964  0.49564118  0.74621927  1
  O  O27  1  0.47560159  0.77038843  0.98120254  1
  O  O28  1  0.24271916  0.25253247  0.48373625  1
  O  O29  1  0.00560095  0.77038843  0.98120254  1
  O  O30  1  0.86044909  0.99480708  0.22089818  1
  O  O31  1  0.74101709  0.25253247  0.48373625  1
