# generated using pymatgen
data_Li9Mn2Co5O16
_symmetry_space_group_name_H-M   'P 1'
_cell_length_a   5.80387640
_cell_length_b   5.87268627
_cell_length_c   8.49082924
_cell_angle_alpha   89.40557356
_cell_angle_beta   90.00000000
_cell_angle_gamma   90.00000000
_symmetry_Int_Tables_number   1
_chemical_formula_structural   Li9Mn2Co5O16
_chemical_formula_sum   'Li9 Mn2 Co5 O16'
_cell_volume   289.38878045
_cell_formula_units_Z   1
loop_
 _symmetry_equiv_pos_site_id
 _symmetry_equiv_pos_as_xyz
  1  'x, y, z'
loop_
 _atom_site_type_symbol
 _atom_site_label
 _atom_site_symmetry_multiplicity
 _atom_site_fract_x
 _atom_site_fract_y
 _atom_site_fract_z
 _atom_site_occupancy
  Li  Li0  1  0.74493529  0.25125664  0.26073802  1
  Li  Li1  1  0.74493529  0.74874336  0.73926198  1
  Li  Li2  1  0.50000000  -0.00000000  0.50000000  1
  Li  Li3  1  0.50000000  0.50000000  -0.00000000  1
  Li  Li4  1  0.25506471  0.74874336  0.73926198  1
  Li  Li5  1  0.25506471  0.25125664  0.26073802  1
  Li  Li6  1  0.00000000  0.50000000  -0.00000000  1
  Li  Li7  1  0.00000000  -0.00000000  0.50000000  1
  Li  Li8  1  0.50000000  0.50000000  0.50000000  1
  Mn  Mn9  1  0.00000000  -0.00000000  -0.00000000  1
  Mn  Mn10  1  0.50000000  -0.00000000  -0.00000000  1
  Co  Co11  1  0.00000000  0.50000000  0.50000000  1
  Co  Co12  1  0.74303570  0.74391716  0.26221372  1
  Co  Co13  1  0.74303570  0.25608284  0.73778628  1
  Co  Co14  1  0.25696430  0.25608284  0.73778628  1
  Co  Co15  1  0.25696430  0.74391716  0.26221372  1
  O  O16  1  0.75500812  0.22609888  -0.00092907  1
  O  O17  1  0.77196414  0.73095330  0.49111901  1
  O  O18  1  0.50000000  0.99340488  0.26073049  1
  O  O19  1  0.50000000  0.47620686  0.75954019  1
  O  O20  1  0.22803586  0.73095330  0.49111901  1
  O  O21  1  0.24499188  0.22609888  -0.00092907  1
  O  O22  1  0.00000000  0.49774245  0.72850908  1
  O  O23  1  0.00000000  0.97524448  0.23086394  1
  O  O24  1  0.77196414  0.26904670  0.50888099  1
  O  O25  1  0.75500812  0.77390112  0.00092907  1
  O  O26  1  0.50000000  0.00659512  0.73926951  1
  O  O27  1  0.50000000  0.52379314  0.24045981  1
  O  O28  1  0.24499188  0.77390112  0.00092907  1
  O  O29  1  0.22803586  0.26904670  0.50888099  1
  O  O30  1  0.00000000  0.50225755  0.27149092  1
  O  O31  1  0.00000000  0.02475552  0.76913606  1
