# generated using pymatgen
data_TmTlO3
_symmetry_space_group_name_H-M   'P 1'
_cell_length_a   5.74099805
_cell_length_b   5.84091897
_cell_length_c   8.49032093
_cell_angle_alpha   90.00000000
_cell_angle_beta   90.00000000
_cell_angle_gamma   90.00000000
_symmetry_Int_Tables_number   1
_chemical_formula_structural   TmTlO3
_chemical_formula_sum   'Tm4 Tl4 O12'
_cell_volume   284.70342215
_cell_formula_units_Z   4
loop_
 _symmetry_equiv_pos_site_id
 _symmetry_equiv_pos_as_xyz
  1  'x, y, z'
loop_
 _atom_site_type_symbol
 _atom_site_label
 _atom_site_symmetry_multiplicity
 _atom_site_fract_x
 _atom_site_fract_y
 _atom_site_fract_z
 _atom_site_occupancy
  Tm  Tm0  1  -0.00000000  0.50000000  0.00000000  1
  Tm  Tm1  1  -0.00000000  0.50000000  0.50000000  1
  Tm  Tm2  1  0.50000000  -0.00000000  0.00000000  1
  Tm  Tm3  1  0.50000000  -0.00000000  0.50000000  1
  Tl  Tl4  1  0.01478297  0.95295026  0.75000000  1
  Tl  Tl5  1  0.48521703  0.45295026  0.75000000  1
  Tl  Tl6  1  0.51478297  0.54704974  0.25000000  1
  Tl  Tl7  1  0.98521703  0.04704974  0.25000000  1
  O  O8  1  0.12539897  0.40789480  0.25000000  1
  O  O9  1  0.17448440  0.17868210  0.57252471  1
  O  O10  1  0.17448440  0.17868210  0.92747529  1
  O  O11  1  0.32551560  0.67868210  0.92747529  1
  O  O12  1  0.32551560  0.67868210  0.57252471  1
  O  O13  1  0.37460103  0.90789480  0.25000000  1
  O  O14  1  0.62539897  0.09210520  0.75000000  1
  O  O15  1  0.67448440  0.32131790  0.07252471  1
  O  O16  1  0.67448440  0.32131790  0.42747529  1
  O  O17  1  0.82551560  0.82131790  0.07252471  1
  O  O18  1  0.82551560  0.82131790  0.42747529  1
  O  O19  1  0.87460103  0.59210520  0.75000000  1
