# generated using pymatgen
data_V2Cr(PO4)3
_symmetry_space_group_name_H-M   'P 1'
_cell_length_a   8.57983366
_cell_length_b   8.60508153
_cell_length_c   8.60508166
_cell_angle_alpha   59.99999735
_cell_angle_beta   59.90260815
_cell_angle_gamma   59.90260626
_symmetry_Int_Tables_number   1
_chemical_formula_structural   V2Cr(PO4)3
_chemical_formula_sum   'V4 Cr2 P6 O24'
_cell_volume   448.57281974
_cell_formula_units_Z   2
loop_
 _symmetry_equiv_pos_site_id
 _symmetry_equiv_pos_as_xyz
  1  'x, y, z'
loop_
 _atom_site_type_symbol
 _atom_site_label
 _atom_site_symmetry_multiplicity
 _atom_site_fract_x
 _atom_site_fract_y
 _atom_site_fract_z
 _atom_site_occupancy
  V  V0  1  0.06909860  0.64363380  0.64363380  1
  V  V1  1  0.56909860  0.14363380  0.14363380  1
  V  V2  1  0.43090140  0.85636620  0.85636620  1
  V  V3  1  0.93090140  0.35636620  0.35636620  1
  Cr  Cr4  1  -0.00000000  0.00000000  -0.00000000  1
  Cr  Cr5  1  0.50000000  0.50000000  0.50000000  1
  P  P6  1  0.25000000  0.25000000  0.54309682  1
  P  P7  1  0.25000000  0.95690318  0.25000000  1
  P  P8  1  0.25000000  0.54309682  0.95690318  1
  P  P9  1  0.75000000  0.45690318  0.04309682  1
  P  P10  1  0.75000000  0.04309682  0.75000000  1
  P  P11  1  0.75000000  0.75000000  0.45690318  1
  O  O12  1  0.06798795  0.11530439  0.31025684  1
  O  O13  1  0.06798795  0.50644981  0.11530439  1
  O  O14  1  0.06798795  0.31025684  0.50644981  1
  O  O15  1  0.23224164  0.08677221  0.74074692  1
  O  O16  1  0.43201205  0.18974316  0.38469561  1
  O  O17  1  0.26775836  0.41322779  0.55975978  1
  O  O18  1  0.23224164  0.94024022  0.08677221  1
  O  O19  1  0.26775836  0.75925308  0.41322779  1
  O  O20  1  0.56798795  0.61530439  0.00644981  1
  O  O21  1  0.26775836  0.55975978  0.75925308  1
  O  O22  1  0.76775836  0.25925308  0.05975978  1
  O  O23  1  0.56798795  0.00644981  0.81025684  1
  O  O24  1  0.43201205  0.99355019  0.18974316  1
  O  O25  1  0.23224164  0.74074692  0.94024022  1
  O  O26  1  0.73224164  0.44024022  0.24074692  1
  O  O27  1  0.43201205  0.38469561  0.99355019  1
  O  O28  1  0.73224164  0.24074692  0.58677221  1
  O  O29  1  0.76775836  0.05975978  0.91322779  1
  O  O30  1  0.73224164  0.58677221  0.44024022  1
  O  O31  1  0.56798795  0.81025684  0.61530439  1
  O  O32  1  0.76775836  0.91322779  0.25925308  1
  O  O33  1  0.93201205  0.68974316  0.49355019  1
  O  O34  1  0.93201205  0.49355019  0.88469561  1
  O  O35  1  0.93201205  0.88469561  0.68974316  1
