# generated using pymatgen
data_ThPbI12
_symmetry_space_group_name_H-M   'P 1'
_cell_length_a   4.78004609
_cell_length_b   16.24813022
_cell_length_c   9.23988058
_cell_angle_alpha   90.00000000
_cell_angle_beta   90.00000000
_cell_angle_gamma   99.85851576
_symmetry_Int_Tables_number   1
_chemical_formula_structural   ThPbI12
_chemical_formula_sum   'Th1 Pb1 I12'
_cell_volume   707.03518463
_cell_formula_units_Z   1
loop_
 _symmetry_equiv_pos_site_id
 _symmetry_equiv_pos_as_xyz
  1  'x, y, z'
loop_
 _atom_site_type_symbol
 _atom_site_label
 _atom_site_symmetry_multiplicity
 _atom_site_fract_x
 _atom_site_fract_y
 _atom_site_fract_z
 _atom_site_occupancy
  Th  Th0  1  0.17382980  0.73822087  0.75000000  1
  Pb  Pb1  1  0.81556233  0.23281669  0.25000000  1
  I  I2  1  0.14198530  0.67613299  0.05201193  1
  I  I3  1  0.14198530  0.67613299  0.44798807  1
  I  I4  1  0.72782000  0.86301290  0.25000000  1
  I  I5  1  0.30378509  0.11756153  0.06959293  1
  I  I6  1  0.30378509  0.11756153  0.43040707  1
  I  I7  1  0.49202817  0.37849023  0.25000000  1
  I  I8  1  0.60028669  0.61066652  0.75000000  1
  I  I9  1  0.73977542  0.86553182  0.57527864  1
  I  I10  1  0.73977542  0.86553182  0.92472136  1
  I  I11  1  0.31743923  0.12439146  0.75000000  1
  I  I12  1  0.74992109  0.36592432  0.59945553  1
  I  I13  1  0.74992109  0.36592432  0.90054447  1
