# generated using pymatgen
data_Li9Mn2Co5O16
_symmetry_space_group_name_H-M   'P 1'
_cell_length_a   5.83132211
_cell_length_b   7.75067523
_cell_length_c   7.75067576
_cell_angle_alpha   95.57662243
_cell_angle_beta   112.46544832
_cell_angle_gamma   112.46545368
_symmetry_Int_Tables_number   1
_chemical_formula_structural   Li9Mn2Co5O16
_chemical_formula_sum   'Li9 Mn2 Co5 O16'
_cell_volume   286.76598786
_cell_formula_units_Z   1
loop_
 _symmetry_equiv_pos_site_id
 _symmetry_equiv_pos_as_xyz
  1  'x, y, z'
loop_
 _atom_site_type_symbol
 _atom_site_label
 _atom_site_symmetry_multiplicity
 _atom_site_fract_x
 _atom_site_fract_y
 _atom_site_fract_z
 _atom_site_occupancy
  Li  Li0  1  0.00652429  0.12924571  0.37924571  1
  Li  Li1  1  0.00053834  0.62169425  0.87169425  1
  Li  Li2  1  0.49689005  0.24278298  0.73661929  1
  Li  Li3  1  0.50623563  0.76135897  0.26027666  1
  Li  Li4  1  0.99600953  0.37321831  0.12364077  1
  Li  Li5  1  0.99600953  0.87364077  0.62321831  1
  Li  Li6  1  0.49689005  0.48661929  0.49278298  1
  Li  Li7  1  0.50623563  0.01027666  0.01135897  1
  Li  Li8  1  0.50048375  0.12819666  0.37819666  1
  Mn  Mn9  1  0.00590846  0.00709298  0.00664731  1
  Mn  Mn10  1  0.00590846  0.75664731  0.25709298  1
  Co  Co11  1  0.98882435  0.48859586  0.49054035  1
  Co  Co12  1  0.50174253  0.62303492  0.87303492  1
  Co  Co13  1  0.98882435  0.24054035  0.73859586  1
  Co  Co14  1  0.49992687  0.37398453  0.12700049  1
  Co  Co15  1  0.49992687  0.87700049  0.62398453  1
  O  O16  1  0.78182609  0.88817917  0.13817917  1
  O  O17  1  0.77185526  0.38147682  0.63147682  1
  O  O18  1  0.24200932  0.97214031  0.48867142  1
  O  O19  1  0.26590919  0.48292697  0.98112958  1
  O  O20  1  0.76892616  0.12431302  0.88590467  1
  O  O21  1  0.76892616  0.63590467  0.37431302  1
  O  O22  1  0.24200932  0.23867142  0.22214031  1
  O  O23  1  0.26590919  0.73112958  0.73292697  1
  O  O24  1  0.23122049  0.36358290  0.61358290  1
  O  O25  1  0.22069702  0.87297475  0.12297475  1
  O  O26  1  0.75050434  0.52748321  0.02017689  1
  O  O27  1  0.74108003  0.00271695  0.52437390  1
  O  O28  1  0.23033219  0.62966436  0.36035505  1
  O  O29  1  0.23033219  0.11035505  0.87966436  1
  O  O30  1  0.75050434  0.77017689  0.77748321  1
  O  O31  1  0.74108003  0.27437390  0.25271695  1
