# generated using pymatgen
data_TbMn2
_symmetry_space_group_name_H-M   'P 1'
_cell_length_a   5.37712495
_cell_length_b   5.37712495
_cell_length_c   8.17407612
_cell_angle_alpha   90.00000000
_cell_angle_beta   90.00000000
_cell_angle_gamma   120.01425927
_symmetry_Int_Tables_number   1
_chemical_formula_structural   TbMn2
_chemical_formula_sum   'Tb4 Mn8'
_cell_volume   204.64783090
_cell_formula_units_Z   4
loop_
 _symmetry_equiv_pos_site_id
 _symmetry_equiv_pos_as_xyz
  1  'x, y, z'
loop_
 _atom_site_type_symbol
 _atom_site_label
 _atom_site_symmetry_multiplicity
 _atom_site_fract_x
 _atom_site_fract_y
 _atom_site_fract_z
 _atom_site_occupancy
  Tb  Tb0  1  0.66663554  0.33336446  0.55911782  1
  Tb  Tb1  1  0.33336446  0.66663554  0.44088218  1
  Tb  Tb2  1  0.33336446  0.66663554  0.05911782  1
  Tb  Tb3  1  0.66663554  0.33336446  0.94088218  1
  Mn  Mn4  1  -0.00000000  0.00000000  0.50000000  1
  Mn  Mn5  1  -0.00000000  0.00000000  -0.00000000  1
  Mn  Mn6  1  0.16485171  0.32937421  0.75000000  1
  Mn  Mn7  1  0.16432251  0.83567749  0.75000000  1
  Mn  Mn8  1  0.67062579  0.83514829  0.75000000  1
  Mn  Mn9  1  0.83514829  0.67062579  0.25000000  1
  Mn  Mn10  1  0.83567749  0.16432251  0.25000000  1
  Mn  Mn11  1  0.32937421  0.16485171  0.25000000  1
