# generated using pymatgen
data_LiCrP4O13
_symmetry_space_group_name_H-M   'P 1'
_cell_length_a   5.12894849
_cell_length_b   7.97099126
_cell_length_c   13.99341461
_cell_angle_alpha   81.03028541
_cell_angle_beta   89.83924101
_cell_angle_gamma   81.22446190
_symmetry_Int_Tables_number   1
_chemical_formula_structural   LiCrP4O13
_chemical_formula_sum   'Li2 Cr2 P8 O26'
_cell_volume   558.34965956
_cell_formula_units_Z   2
loop_
 _symmetry_equiv_pos_site_id
 _symmetry_equiv_pos_as_xyz
  1  'x, y, z'
loop_
 _atom_site_type_symbol
 _atom_site_label
 _atom_site_symmetry_multiplicity
 _atom_site_fract_x
 _atom_site_fract_y
 _atom_site_fract_z
 _atom_site_occupancy
  Li  Li0  1  0.57130960  0.43019980  0.99162900  1
  Li  Li1  1  0.97566556  0.60657363  0.50769991  1
  Cr  Cr2  1  0.54523917  0.95175946  0.24298503  1
  Cr  Cr3  1  0.44651186  0.04288301  0.75397328  1
  P  P4  1  0.63982509  0.41270105  0.68271666  1
  P  P5  1  0.91105267  0.19479358  0.85625249  1
  P  P6  1  0.01066659  0.10167992  0.34633136  1
  P  P7  1  0.08018180  0.81094707  0.13490678  1
  P  P8  1  0.34126641  0.59090064  0.30969142  1
  P  P9  1  0.98067954  0.88273634  0.65685751  1
  P  P10  1  0.66902180  0.33790379  0.20509940  1
  P  P11  1  0.32225036  0.65721597  0.80033994  1
  O  O12  1  0.54022265  0.71887858  0.30389013  1
  O  O13  1  0.84133044  0.96524213  0.32718613  1
  O  O14  1  0.15186536  0.02054404  0.67131592  1
  O  O15  1  0.03541038  0.73224068  0.75299838  1
  O  O16  1  0.14788959  0.64038171  0.21656497  1
  O  O17  1  0.03673923  0.80117795  0.56826986  1
  O  O18  1  0.20628052  0.12386064  0.84961252  1
  O  O19  1  0.30483452  0.03162417  0.33992881  1
  O  O20  1  0.13520941  0.76555735  0.03600568  1
  O  O21  1  0.19465023  0.56436386  0.40019790  1
  O  O22  1  0.24945068  0.94316668  0.15933845  1
  O  O23  1  0.31793409  0.52078240  0.88482386  1
  O  O24  1  0.45458728  0.27740339  0.68933230  1
  O  O25  1  0.53583893  0.18671496  0.18459571  1
  O  O26  1  0.50755887  0.41114837  0.29296371  1
  O  O27  1  0.85583714  0.35699447  0.76917434  1
  O  O28  1  0.45510560  0.81029484  0.81774985  1
  O  O29  1  0.47157019  0.58537712  0.70971377  1
  O  O30  1  0.68582120  0.46979426  0.11933617  1
  O  O31  1  0.74297951  0.05871665  0.83576213  1
  O  O32  1  0.76628526  0.46052658  0.58944236  1
  O  O33  1  0.84122254  0.25490526  0.95070336  1
  O  O34  1  0.68651958  0.95948363  0.66050186  1
  O  O35  1  0.78559302  0.87845311  0.14688985  1
  O  O36  1  0.94195757  0.16426395  0.44061724  1
  O  O37  1  0.95081374  0.26191197  0.25617497  1
