# generated using pymatgen
data_H6W
_symmetry_space_group_name_H-M   'P 1'
_cell_length_a   3.01617932
_cell_length_b   6.36503475
_cell_length_c   7.08160311
_cell_angle_alpha   127.26272952
_cell_angle_beta   89.99999528
_cell_angle_gamma   103.70563278
_symmetry_Int_Tables_number   1
_chemical_formula_structural   H6W
_chemical_formula_sum   'H12 W2'
_cell_volume   103.29471266
_cell_formula_units_Z   2
loop_
 _symmetry_equiv_pos_site_id
 _symmetry_equiv_pos_as_xyz
  1  'x, y, z'
loop_
 _atom_site_type_symbol
 _atom_site_label
 _atom_site_symmetry_multiplicity
 _atom_site_fract_x
 _atom_site_fract_y
 _atom_site_fract_z
 _atom_site_occupancy
  H  H0  1  0.46291118  0.92582235  0.94291211  1
  H  H1  1  0.53708882  0.07417765  0.05708789  1
  H  H2  1  0.44615278  0.89230556  0.55709341  1
  H  H3  1  0.55384722  0.10769444  0.44290659  1
  H  H4  1  0.80927948  0.61855895  0.31911525  1
  H  H5  1  0.19072052  0.38144105  0.68088475  1
  H  H6  1  0.03862529  0.07725057  0.70876420  1
  H  H7  1  0.96137471  0.92274943  0.29123580  1
  H  H8  1  0.25706851  0.51413702  0.32000071  1
  H  H9  1  0.74293149  0.48586298  0.67999929  1
  H  H10  1  0.83282461  0.66564922  0.00948450  1
  H  H11  1  0.16717539  0.33435078  -0.00948450  1
  W  W12  1  0.64724761  0.29449523  0.77389448  1
  W  W13  1  0.35275239  0.70550477  0.22610552  1
