# generated using pymatgen
data_Ti3Cr2Cu(PO4)6
_symmetry_space_group_name_H-M   'P 1'
_cell_length_a   8.58571975
_cell_length_b   8.58572032
_cell_length_c   8.58571965
_cell_angle_alpha   60.53789736
_cell_angle_beta   60.53789908
_cell_angle_gamma   60.53789415
_symmetry_Int_Tables_number   1
_chemical_formula_structural   Ti3Cr2Cu(PO4)6
_chemical_formula_sum   'Ti3 Cr2 Cu1 P6 O24'
_cell_volume   452.96170707
_cell_formula_units_Z   1
loop_
 _symmetry_equiv_pos_site_id
 _symmetry_equiv_pos_as_xyz
  1  'x, y, z'
loop_
 _atom_site_type_symbol
 _atom_site_label
 _atom_site_symmetry_multiplicity
 _atom_site_fract_x
 _atom_site_fract_y
 _atom_site_fract_z
 _atom_site_occupancy
  Ti  Ti0  1  0.14488655  0.14488655  0.14488655  1
  Ti  Ti1  1  0.35448534  0.35448534  0.35448534  1
  Ti  Ti2  1  0.64626204  0.64626204  0.64626204  1
  Cr  Cr3  1  0.99733245  0.99733245  0.99733245  1
  Cr  Cr4  1  0.49877671  0.49877671  0.49877671  1
  Cu  Cu5  1  0.85169571  0.85169571  0.85169571  1
  P  P6  1  0.04580597  0.75367353  0.45325144  1
  P  P7  1  0.45325144  0.04580597  0.75367353  1
  P  P8  1  0.25152096  0.54516411  0.95583397  1
  P  P9  1  0.54516411  0.95583397  0.25152096  1
  P  P10  1  0.95583397  0.25152096  0.54516411  1
  P  P11  1  0.75367353  0.45325144  0.04580597  1
  O  O12  1  0.11341552  0.32794453  0.48529946  1
  O  O13  1  0.32794453  0.48529946  0.11341552  1
  O  O14  1  0.05701921  0.91273984  0.25260488  1
  O  O15  1  0.48529946  0.11341552  0.32794453  1
  O  O16  1  0.01905127  0.81768238  0.60073854  1
  O  O17  1  0.23974044  0.58825452  0.42760656  1
  O  O18  1  0.25260488  0.05701921  0.91273984  1
  O  O19  1  0.42760656  0.23974044  0.58825452  1
  O  O20  1  0.18770154  0.38112316  0.00151353  1
  O  O21  1  0.58825452  0.42760656  0.23974044  1
  O  O22  1  0.09558296  0.73720049  0.95149666  1
  O  O23  1  0.38112316  0.00151353  0.18770154  1
  O  O24  1  0.60073854  0.01905127  0.81768238  1
  O  O25  1  0.91273984  0.25260488  0.05701921  1
  O  O26  1  0.41528735  0.55472996  0.76173294  1
  O  O27  1  0.81768238  0.60073854  0.01905127  1
  O  O28  1  0.55472996  0.76173294  0.41528735  1
  O  O29  1  0.73720049  0.95149666  0.09558296  1
  O  O30  1  0.76173294  0.41528735  0.55472996  1
  O  O31  1  0.00151353  0.18770154  0.38112316  1
  O  O32  1  0.50217258  0.87940816  0.69126476  1
  O  O33  1  0.95149666  0.09558296  0.73720049  1
  O  O34  1  0.69126476  0.50217258  0.87940816  1
  O  O35  1  0.87940816  0.69126476  0.50217258  1
