# generated using pymatgen
data_V3(PO4)4
_symmetry_space_group_name_H-M   'P 1'
_cell_length_a   6.42112016
_cell_length_b   10.07165937
_cell_length_c   10.91905156
_cell_angle_alpha   92.01956925
_cell_angle_beta   90.00972409
_cell_angle_gamma   71.41967699
_symmetry_Int_Tables_number   1
_chemical_formula_structural   V3(PO4)4
_chemical_formula_sum   'V6 P8 O32'
_cell_volume   668.88228422
_cell_formula_units_Z   2
loop_
 _symmetry_equiv_pos_site_id
 _symmetry_equiv_pos_as_xyz
  1  'x, y, z'
loop_
 _atom_site_type_symbol
 _atom_site_label
 _atom_site_symmetry_multiplicity
 _atom_site_fract_x
 _atom_site_fract_y
 _atom_site_fract_z
 _atom_site_occupancy
  V  V0  1  -0.00000000  0.50000000  0.50000000  1
  V  V1  1  0.66784092  0.69846590  0.25180954  1
  V  V2  1  0.33215908  0.30153410  0.74819046  1
  V  V3  1  0.36622583  0.30146671  0.24813207  1
  V  V4  1  0.63377417  0.69853329  0.75186793  1
  V  V5  1  0.50000000  0.50000000  -0.00000000  1
  P  P6  1  0.42172130  0.83296356  0.01180935  1
  P  P7  1  0.78427602  0.40275224  0.74754041  1
  P  P8  1  0.18692750  0.59736539  0.75248924  1
  P  P9  1  0.21572398  0.59724776  0.25245959  1
  P  P10  1  0.74537365  0.83283323  0.51184574  1
  P  P11  1  0.81307250  0.40263461  0.24751076  1
  P  P12  1  0.57827870  0.16703644  0.98819065  1
  P  P13  1  0.25462635  0.16716677  0.48815426  1
  O  O14  1  0.30499532  0.48227065  0.14308614  1
  O  O15  1  0.94825282  0.68828936  0.50809853  1
  O  O16  1  0.33376640  0.68602837  0.73059064  1
  O  O17  1  0.59406548  0.80316100  0.61343697  1
  O  O18  1  0.76563547  0.51222783  0.64137545  1
  O  O19  1  0.36359044  0.68830069  0.00804888  1
  O  O20  1  0.05096464  0.31371265  0.22796241  1
  O  O21  1  0.63500256  0.31401541  0.72793034  1
  O  O22  1  0.63640956  0.31169931  0.99195112  1
  O  O23  1  0.23932735  0.96429793  0.02642913  1
  O  O24  1  0.36499744  0.68598459  0.27206966  1
  O  O25  1  0.94903536  0.68628735  0.77203759  1
  O  O26  1  0.63312910  0.81413410  0.38516927  1
  O  O27  1  0.23436453  0.48777217  0.35862455  1
  O  O28  1  0.36687090  0.18586590  0.61483073  1
  O  O29  1  0.72243859  0.51212413  0.14130923  1
  O  O30  1  0.66623360  0.31397163  0.26940936  1
  O  O31  1  0.44725378  0.18570755  0.11482150  1
  O  O32  1  0.76067265  0.03570207  0.97357087  1
  O  O33  1  0.20358364  0.03578916  0.47337633  1
  O  O34  1  0.27756141  0.48787587  0.85869077  1
  O  O35  1  0.40593452  0.19683900  0.38656303  1
  O  O36  1  0.01967343  0.31392154  0.76942065  1
  O  O37  1  0.39749827  0.19662494  0.88645362  1
  O  O38  1  0.78749084  0.51764374  0.35685241  1
  O  O39  1  0.55274622  0.81429245  0.88517850  1
  O  O40  1  0.21250916  0.48235626  0.64314759  1
  O  O41  1  0.98032657  0.68607846  0.23057935  1
  O  O42  1  0.79641636  0.96421084  0.52662367  1
  O  O43  1  0.05174718  0.31171064  0.49190147  1
  O  O44  1  0.69500468  0.51772935  0.85691386  1
  O  O45  1  0.60250173  0.80337506  0.11354638  1
