# generated using pymatgen
data_Li3Co4O4F3
_symmetry_space_group_name_H-M   'P 1'
_cell_length_a   2.97121146
_cell_length_b   2.97121146
_cell_length_c   15.07856266
_cell_angle_alpha   95.65420287
_cell_angle_beta   95.65420287
_cell_angle_gamma   90.00000000
_symmetry_Int_Tables_number   1
_chemical_formula_structural   Li3Co4O4F3
_chemical_formula_sum   'Li3 Co4 O4 F3'
_cell_volume   131.81653445
_cell_formula_units_Z   1
loop_
 _symmetry_equiv_pos_site_id
 _symmetry_equiv_pos_as_xyz
  1  'x, y, z'
loop_
 _atom_site_type_symbol
 _atom_site_label
 _atom_site_symmetry_multiplicity
 _atom_site_fract_x
 _atom_site_fract_y
 _atom_site_fract_z
 _atom_site_occupancy
  Li  Li0  1  0.99727746  0.99727746  0.99455592  1
  Li  Li1  1  0.85986554  0.85986554  0.71973008  1
  Li  Li2  1  0.42857100  0.42857100  0.85714300  1
  Co  Co3  1  0.56938213  0.56938213  0.13876426  1
  Co  Co4  1  0.14685829  0.14685829  0.29371558  1
  Co  Co5  1  0.71028471  0.71028471  0.42057042  1
  Co  Co6  1  0.28776087  0.28776087  0.57552074  1
  O  O7  1  0.06982769  0.06982769  0.13965638  1
  O  O8  1  0.64141558  0.64141558  0.28283216  1
  O  O9  1  0.21572742  0.21572742  0.43145384  1
  O  O10  1  0.78731431  0.78731431  0.57462962  1
  F  F11  1  0.49510426  0.49510426  0.99020851  1
  F  F12  1  0.36203874  0.36203874  0.72407749  1
  F  F13  1  0.92857100  0.92857100  0.85714300  1
