# generated using pymatgen
data_PPbO4
_symmetry_space_group_name_H-M   'P 1'
_cell_length_a   4.67411715
_cell_length_b   6.00208689
_cell_length_c   5.98992266
_cell_angle_alpha   90.00000000
_cell_angle_beta   90.00000000
_cell_angle_gamma   92.39457606
_symmetry_Int_Tables_number   1
_chemical_formula_structural   PPbO4
_chemical_formula_sum   'P2 Pb2 O8'
_cell_volume   167.89729158
_cell_formula_units_Z   2
loop_
 _symmetry_equiv_pos_site_id
 _symmetry_equiv_pos_as_xyz
  1  'x, y, z'
loop_
 _atom_site_type_symbol
 _atom_site_label
 _atom_site_symmetry_multiplicity
 _atom_site_fract_x
 _atom_site_fract_y
 _atom_site_fract_z
 _atom_site_occupancy
  P  P0  1  0.50000000  0.25000000  0.75186731  1
  P  P1  1  0.50000000  0.75000000  0.24813269  1
  Pb  Pb2  1  -0.00000000  0.75000000  0.76061442  1
  Pb  Pb3  1  -0.00000000  0.25000000  0.23938558  1
  O  O4  1  0.68769172  0.09838007  0.60351899  1
  O  O5  1  0.31230828  0.40161993  0.60351899  1
  O  O6  1  0.31230828  0.90161993  0.39648101  1
  O  O7  1  0.68769172  0.59838007  0.39648101  1
  O  O8  1  0.71803551  0.38910930  0.89385797  1
  O  O9  1  0.28196449  0.11089070  0.89385797  1
  O  O10  1  0.28196449  0.61089070  0.10614203  1
  O  O11  1  0.71803551  0.88910930  0.10614203  1
