# generated using pymatgen
data_KCo2(MoO5)2
_symmetry_space_group_name_H-M   'P 1'
_cell_length_a   5.87597335
_cell_length_b   5.87597335
_cell_length_c   8.67798022
_cell_angle_alpha   67.00274223
_cell_angle_beta   67.00274223
_cell_angle_gamma   60.81934742
_symmetry_Int_Tables_number   1
_chemical_formula_structural   KCo2(MoO5)2
_chemical_formula_sum   'K1 Co2 Mo2 O10'
_cell_volume   233.21696118
_cell_formula_units_Z   1
loop_
 _symmetry_equiv_pos_site_id
 _symmetry_equiv_pos_as_xyz
  1  'x, y, z'
loop_
 _atom_site_type_symbol
 _atom_site_label
 _atom_site_symmetry_multiplicity
 _atom_site_fract_x
 _atom_site_fract_y
 _atom_site_fract_z
 _atom_site_occupancy
  K  K0  1  0.50000000  0.50000000  0.50000000  1
  Co  Co1  1  -0.00000000  0.50000000  0.00000000  1
  Co  Co2  1  0.50000000  -0.00000000  0.00000000  1
  Mo  Mo3  1  0.06132173  0.06132173  0.75687651  1
  Mo  Mo4  1  0.93867827  0.93867827  0.24312349  1
  O  O5  1  0.70223373  0.70223373  0.92102918  1
  O  O6  1  0.29776627  0.29776627  0.07897082  1
  O  O7  1  0.18786020  0.18786020  0.53832855  1
  O  O8  1  0.81213980  0.81213980  0.46167145  1
  O  O9  1  0.80497181  0.30142797  0.20585971  1
  O  O10  1  0.69857203  0.19502819  0.79414029  1
  O  O11  1  0.19502819  0.69857203  0.79414029  1
  O  O12  1  0.30142797  0.80497181  0.20585971  1
  O  O13  1  0.16530613  0.16530613  0.88627816  1
  O  O14  1  0.83469387  0.83469387  0.11372184  1
