# generated using pymatgen
data_CuWO4
_symmetry_space_group_name_H-M   'P 1'
_cell_length_a   4.71282355
_cell_length_b   5.16593271
_cell_length_c   5.57904686
_cell_angle_alpha   90.00000000
_cell_angle_beta   90.00000000
_cell_angle_gamma   93.61859288
_symmetry_Int_Tables_number   1
_chemical_formula_structural   CuWO4
_chemical_formula_sum   'Cu2 W2 O8'
_cell_volume   135.55739556
_cell_formula_units_Z   2
loop_
 _symmetry_equiv_pos_site_id
 _symmetry_equiv_pos_as_xyz
  1  'x, y, z'
loop_
 _atom_site_type_symbol
 _atom_site_label
 _atom_site_symmetry_multiplicity
 _atom_site_fract_x
 _atom_site_fract_y
 _atom_site_fract_z
 _atom_site_occupancy
  Cu  Cu0  1  0.50000000  0.25000000  0.33617445  1
  Cu  Cu1  1  0.50000000  0.75000000  0.66382555  1
  W  W2  1  0.00000000  0.25000000  0.81762161  1
  W  W3  1  0.00000000  0.75000000  0.18237839  1
  O  O4  1  0.25388664  0.12072098  0.60825291  1
  O  O5  1  0.74611336  0.37927902  0.60825291  1
  O  O6  1  0.74611336  0.87927902  0.39174709  1
  O  O7  1  0.25388664  0.62072098  0.39174709  1
  O  O8  1  0.22123011  0.07674456  0.10606255  1
  O  O9  1  0.77876989  0.42325544  0.10606255  1
  O  O10  1  0.77876989  0.92325544  0.89393745  1
  O  O11  1  0.22123011  0.57674456  0.89393745  1
