# generated using pymatgen
data_K3CeCl6
_symmetry_space_group_name_H-M   'P 1'
_cell_length_a   8.10986570
_cell_length_b   8.11744440
_cell_length_c   8.08420982
_cell_angle_alpha   59.93749089
_cell_angle_beta   59.90844246
_cell_angle_gamma   60.03842620
_symmetry_Int_Tables_number   1
_chemical_formula_structural   K3CeCl6
_chemical_formula_sum   'K3 Ce1 Cl6'
_cell_volume   375.98846349
_cell_formula_units_Z   1
loop_
 _symmetry_equiv_pos_site_id
 _symmetry_equiv_pos_as_xyz
  1  'x, y, z'
loop_
 _atom_site_type_symbol
 _atom_site_label
 _atom_site_symmetry_multiplicity
 _atom_site_fract_x
 _atom_site_fract_y
 _atom_site_fract_z
 _atom_site_occupancy
  K  K0  1  0.24999061  0.24996932  0.25003815  1
  K  K1  1  0.75000939  0.75003068  0.74996185  1
  K  K2  1  0.50000000  0.50000000  0.50000000  1
  Ce  Ce3  1  0.00000000  -0.00000000  -0.00000000  1
  Cl  Cl4  1  0.23892258  0.76094597  0.23933309  1
  Cl  Cl5  1  0.76080680  0.76092459  0.23934310  1
  Cl  Cl6  1  0.76107742  0.23905404  0.76066691  1
  Cl  Cl7  1  0.76089890  0.23885023  0.23938454  1
  Cl  Cl8  1  0.23910111  0.76114977  0.76061546  1
  Cl  Cl9  1  0.23919320  0.23907541  0.76065690  1
