# generated using pymatgen
data_Li4Cr3Fe3(WO8)2
_symmetry_space_group_name_H-M   'P 1'
_cell_length_a   5.98667587
_cell_length_b   5.98943271
_cell_length_c   9.70920276
_cell_angle_alpha   89.88487861
_cell_angle_beta   90.67036879
_cell_angle_gamma   120.05611464
_symmetry_Int_Tables_number   1
_chemical_formula_structural   Li4Cr3Fe3(WO8)2
_chemical_formula_sum   'Li4 Cr3 Fe3 W2 O16'
_cell_volume   301.30460116
_cell_formula_units_Z   1
loop_
 _symmetry_equiv_pos_site_id
 _symmetry_equiv_pos_as_xyz
  1  'x, y, z'
loop_
 _atom_site_type_symbol
 _atom_site_label
 _atom_site_symmetry_multiplicity
 _atom_site_fract_x
 _atom_site_fract_y
 _atom_site_fract_z
 _atom_site_occupancy
  Li  Li0  1  0.33614788  0.66822971  0.90848471  1
  Li  Li1  1  0.99493752  0.99858438  0.98900099  1
  Li  Li2  1  0.99983304  0.99548363  0.49037131  1
  Li  Li3  1  0.66530942  0.33359390  0.40471636  1
  Cr  Cr4  1  0.17285703  0.83243369  0.21494372  1
  Cr  Cr5  1  0.17085127  0.34095969  0.21477015  1
  Cr  Cr6  1  0.34205431  0.16961910  0.71390614  1
  Fe  Fe7  1  0.66284281  0.83214671  0.21143281  1
  Fe  Fe8  1  0.83176595  0.66058655  0.71031117  1
  Fe  Fe9  1  0.83983828  0.18438283  0.71794681  1
  W  W10  1  0.34002835  0.67070757  0.48533946  1
  W  W11  1  0.66734441  0.33849718  0.98750576  1
  O  O12  1  0.18404085  0.83192028  0.58869181  1
  O  O13  1  0.03989610  0.51983103  0.34312168  1
  O  O14  1  0.32764559  0.66499549  0.10985570  1
  O  O15  1  0.00484390  0.00203736  0.30467487  1
  O  O16  1  0.99886558  0.00485475  0.80170064  1
  O  O17  1  0.17400776  0.34332808  0.59072667  1
  O  O18  1  0.46925086  0.95939182  0.35101732  1
  O  O19  1  0.46617501  0.50697200  0.35200343  1
  O  O20  1  0.34137713  0.17093360  0.09326197  1
  O  O21  1  0.65651328  0.82575040  0.58488737  1
  O  O22  1  0.50566433  0.46546019  0.85170945  1
  O  O23  1  0.51636910  0.04102080  0.84787891  1
  O  O24  1  0.66665149  0.32324387  0.60826930  1
  O  O25  1  0.83277720  0.65615810  0.08837529  1
  O  O26  1  0.96077891  0.47816998  0.85519055  1
  O  O27  1  0.83133366  0.18100631  0.08774566  1
