# generated using pymatgen
data_La2MoO5
_symmetry_space_group_name_H-M   'P 1'
_cell_length_a   6.09802193
_cell_length_b   7.07324614
_cell_length_c   7.07324614
_cell_angle_alpha   79.29135290
_cell_angle_beta   64.46498977
_cell_angle_gamma   64.46498977
_symmetry_Int_Tables_number   1
_chemical_formula_structural   La2MoO5
_chemical_formula_sum   'La4 Mo2 O10'
_cell_volume   248.39890074
_cell_formula_units_Z   2
loop_
 _symmetry_equiv_pos_site_id
 _symmetry_equiv_pos_as_xyz
  1  'x, y, z'
loop_
 _atom_site_type_symbol
 _atom_site_label
 _atom_site_symmetry_multiplicity
 _atom_site_fract_x
 _atom_site_fract_y
 _atom_site_fract_z
 _atom_site_occupancy
  La  La0  1  0.60786351  0.57048654  0.21378644  1
  La  La1  1  0.39213649  0.42951346  0.78621356  1
  La  La2  1  0.17835005  0.21378644  0.42951346  1
  La  La3  1  0.82164995  0.78621356  0.57048654  1
  Mo  Mo4  1  0.79563222  0.00000000  0.00000000  1
  Mo  Mo5  1  0.20436778  1.00000000  1.00000000  1
  O  O6  1  0.25000000  0.50000000  0.50000000  1
  O  O7  1  0.75000000  0.50000000  0.50000000  1
  O  O8  1  0.54518174  0.28440292  0.09449900  1
  O  O9  1  0.92408365  0.71559708  0.90550100  1
  O  O10  1  0.82958465  0.09449900  0.71559708  1
  O  O11  1  0.63968074  0.90550100  0.28440292  1
  O  O12  1  0.45481826  0.71559708  0.90550100  1
  O  O13  1  0.07591635  0.28440292  0.09449900  1
  O  O14  1  0.17041535  0.90550100  0.28440292  1
  O  O15  1  0.36031926  0.09449900  0.71559708  1
