# generated using pymatgen
data_Yb(In2Au)2
_symmetry_space_group_name_H-M   'P 1'
_cell_length_a   4.61572818
_cell_length_b   7.76557606
_cell_length_c   9.73318444
_cell_angle_alpha   107.68218495
_cell_angle_beta   90.00000000
_cell_angle_gamma   90.00000000
_symmetry_Int_Tables_number   1
_chemical_formula_structural   Yb(In2Au)2
_chemical_formula_sum   'Yb2 In8 Au4'
_cell_volume   332.39197850
_cell_formula_units_Z   2
loop_
 _symmetry_equiv_pos_site_id
 _symmetry_equiv_pos_as_xyz
  1  'x, y, z'
loop_
 _atom_site_type_symbol
 _atom_site_label
 _atom_site_symmetry_multiplicity
 _atom_site_fract_x
 _atom_site_fract_y
 _atom_site_fract_z
 _atom_site_occupancy
  Yb  Yb0  1  0.25000000  0.83275788  0.21162973  1
  Yb  Yb1  1  0.75000000  0.16724212  0.78837027  1
  In  In2  1  0.75000000  0.09647959  0.12283144  1
  In  In3  1  0.25000000  0.90352041  0.87716856  1
  In  In4  1  0.75000000  0.10474458  0.42820576  1
  In  In5  1  0.25000000  0.89525542  0.57179424  1
  In  In6  1  0.75000000  0.53759987  0.63224828  1
  In  In7  1  0.25000000  0.46240013  0.36775172  1
  In  In8  1  0.75000000  0.50468044  0.12908832  1
  In  In9  1  0.25000000  0.49531956  0.87091168  1
  Au  Au10  1  0.75000000  0.72687576  0.94188005  1
  Au  Au11  1  0.25000000  0.27312424  0.05811995  1
  Au  Au12  1  0.75000000  0.72444239  0.41968435  1
  Au  Au13  1  0.25000000  0.27555761  0.58031565  1
