# generated using pymatgen
data_Cs2KTlI6
_symmetry_space_group_name_H-M   'P 1'
_cell_length_a   9.05963976
_cell_length_b   9.05964032
_cell_length_c   9.05964030
_cell_angle_alpha   59.99999840
_cell_angle_beta   59.99999767
_cell_angle_gamma   59.99999772
_symmetry_Int_Tables_number   1
_chemical_formula_structural   Cs2KTlI6
_chemical_formula_sum   'Cs2 K1 Tl1 I6'
_cell_volume   525.79665863
_cell_formula_units_Z   1
loop_
 _symmetry_equiv_pos_site_id
 _symmetry_equiv_pos_as_xyz
  1  'x, y, z'
loop_
 _atom_site_type_symbol
 _atom_site_label
 _atom_site_symmetry_multiplicity
 _atom_site_fract_x
 _atom_site_fract_y
 _atom_site_fract_z
 _atom_site_occupancy
  Cs  Cs0  1  0.25000000  0.25000000  0.25000000  1
  Cs  Cs1  1  0.75000000  0.75000000  0.75000000  1
  K  K2  1  0.50000000  0.50000000  0.50000000  1
  Tl  Tl3  1  0.00000000  -0.00000000  0.00000000  1
  I  I4  1  0.23574842  0.76425158  0.23574842  1
  I  I5  1  0.76425158  0.76425158  0.23574842  1
  I  I6  1  0.76425158  0.23574842  0.76425158  1
  I  I7  1  0.76425158  0.23574842  0.23574842  1
  I  I8  1  0.23574842  0.76425158  0.76425158  1
  I  I9  1  0.23574842  0.23574842  0.76425158  1
