# generated using pymatgen
data_NaCo3O4
_symmetry_space_group_name_H-M   'P 1'
_cell_length_a   6.06575930
_cell_length_b   6.06481202
_cell_length_c   8.64866361
_cell_angle_alpha   90.06449178
_cell_angle_beta   89.92792266
_cell_angle_gamma   89.98076665
_symmetry_Int_Tables_number   1
_chemical_formula_structural   NaCo3O4
_chemical_formula_sum   'Na4 Co12 O16'
_cell_volume   318.16388392
_cell_formula_units_Z   4
loop_
 _symmetry_equiv_pos_site_id
 _symmetry_equiv_pos_as_xyz
  1  'x, y, z'
loop_
 _atom_site_type_symbol
 _atom_site_label
 _atom_site_symmetry_multiplicity
 _atom_site_fract_x
 _atom_site_fract_y
 _atom_site_fract_z
 _atom_site_occupancy
  Na  Na0  1  0.25579908  0.49995079  0.75003873  1
  Na  Na1  1  0.50010096  0.25570524  0.00006816  1
  Na  Na2  1  0.50001021  0.74432196  0.50000348  1
  Na  Na3  1  0.74424422  0.50000136  0.25002215  1
  Co  Co4  1  0.00017875  0.25145116  0.00015442  1
  Co  Co5  1  0.00054977  0.75091805  0.00006475  1
  Co  Co6  1  0.00016093  0.25003572  0.49993352  1
  Co  Co7  1  0.99996866  0.74804623  0.49988647  1
  Co  Co8  1  0.23916980  0.50012700  0.24977567  1
  Co  Co9  1  0.25132160  0.99984328  0.74980721  1
  Co  Co10  1  0.24979469  0.00001509  0.24998309  1
  Co  Co11  1  0.49993957  0.23883128  0.50021589  1
  Co  Co12  1  0.50012941  0.76032903  0.99981445  1
  Co  Co13  1  0.75147570  0.00004114  0.74993748  1
  Co  Co14  1  0.74798618  0.99995502  0.25013924  1
  Co  Co15  1  0.76075326  0.50012867  0.75044790  1
  O  O16  1  0.97736824  0.22902815  0.75695779  1
  O  O17  1  0.98177143  0.77534235  0.74292339  1
  O  O18  1  0.22473030  0.52197009  0.02012041  1
  O  O19  1  0.22423592  0.47816727  0.47971100  1
  O  O20  1  0.22783570  0.97891474  0.99291438  1
  O  O21  1  0.22784730  0.02155606  0.50634097  1
  O  O22  1  0.52056206  0.22337168  0.72979718  1
  O  O23  1  0.52513980  0.77224216  0.77021918  1
  O  O24  1  0.47819096  0.22463794  0.27042278  1
  O  O25  1  0.47562460  0.77312925  0.22961889  1
  O  O26  1  0.77441493  0.01912068  0.49321679  1
  O  O27  1  0.77386810  0.98084382  0.00725304  1
  O  O28  1  0.77335662  0.52386513  0.97985144  1
  O  O29  1  0.77297980  0.47572454  0.52041568  1
  O  O30  1  0.02142853  0.22826507  0.24334742  1
  O  O31  1  0.01906291  0.77412005  0.25659707  1
