# generated using pymatgen
data_K2AsAuCl6
_symmetry_space_group_name_H-M   'P 1'
_cell_length_a   7.34600848
_cell_length_b   7.34600876
_cell_length_c   7.34600875
_cell_angle_alpha   59.99999903
_cell_angle_beta   59.99999861
_cell_angle_gamma   59.99999862
_symmetry_Int_Tables_number   1
_chemical_formula_structural   K2AsAuCl6
_chemical_formula_sum   'K2 As1 Au1 Cl6'
_cell_volume   280.31045609
_cell_formula_units_Z   1
loop_
 _symmetry_equiv_pos_site_id
 _symmetry_equiv_pos_as_xyz
  1  'x, y, z'
loop_
 _atom_site_type_symbol
 _atom_site_label
 _atom_site_symmetry_multiplicity
 _atom_site_fract_x
 _atom_site_fract_y
 _atom_site_fract_z
 _atom_site_occupancy
  K  K0  1  0.25000000  0.25000000  0.25000000  1
  K  K1  1  0.75000000  0.75000000  0.75000000  1
  As  As2  1  0.00000000  -0.00000000  0.00000000  1
  Au  Au3  1  0.50000000  0.50000000  0.50000000  1
  Cl  Cl4  1  0.24260987  0.75739013  0.24260987  1
  Cl  Cl5  1  0.75739013  0.75739013  0.24260987  1
  Cl  Cl6  1  0.75739013  0.24260987  0.75739013  1
  Cl  Cl7  1  0.75739013  0.24260987  0.24260987  1
  Cl  Cl8  1  0.24260987  0.75739013  0.75739013  1
  Cl  Cl9  1  0.24260987  0.24260987  0.75739013  1
