# generated using pymatgen
data_Li3MnCoO5
_symmetry_space_group_name_H-M   'P 1'
_cell_length_a   2.91471908
_cell_length_b   5.93505262
_cell_length_c   10.47189339
_cell_angle_alpha   97.25746706
_cell_angle_beta   97.36426255
_cell_angle_gamma   91.29156110
_symmetry_Int_Tables_number   1
_chemical_formula_structural   Li3MnCoO5
_chemical_formula_sum   'Li6 Mn2 Co2 O10'
_cell_volume   178.08160692
_cell_formula_units_Z   2
loop_
 _symmetry_equiv_pos_site_id
 _symmetry_equiv_pos_as_xyz
  1  'x, y, z'
loop_
 _atom_site_type_symbol
 _atom_site_label
 _atom_site_symmetry_multiplicity
 _atom_site_fract_x
 _atom_site_fract_y
 _atom_site_fract_z
 _atom_site_occupancy
  Li  Li0  1  0.00785650  0.51327233  0.01591488  1
  Li  Li1  1  0.61112889  0.29454644  0.20791409  1
  Li  Li2  1  0.39617500  0.70310970  0.80059706  1
  Li  Li3  1  0.79573421  0.89743991  0.59383231  1
  Li  Li4  1  0.18923257  0.08442023  0.38401848  1
  Li  Li5  1  0.58833395  0.81099719  0.20401148  1
  Mn  Mn6  1  0.01298427  0.99741590  0.00650444  1
  Mn  Mn7  1  0.79246617  0.39946986  0.59856887  1
  Co  Co8  1  0.17704068  0.61007511  0.37862511  1
  Co  Co9  1  0.41120709  0.19939659  0.80116501  1
  O  O10  1  0.51596040  0.22202573  0.98961874  1
  O  O11  1  0.09026879  0.04969389  0.18206161  1
  O  O12  1  0.86585036  0.43443910  0.79206098  1
  O  O13  1  0.29929603  0.61629265  0.60043774  1
  O  O14  1  0.69461507  0.83933648  0.40537360  1
  O  O15  1  0.50138722  0.77982821  0.99791583  1
  O  O16  1  0.10092701  0.54547354  0.20704620  1
  O  O17  1  0.95044172  0.96843903  0.80638983  1
  O  O18  1  0.29596652  0.17679302  0.61087935  1
  O  O19  1  0.70312756  0.35753508  0.41706439  1
