# generated using pymatgen
data_Li4MnCo3O8
_symmetry_space_group_name_H-M   'P 1'
_cell_length_a   2.94251525
_cell_length_b   7.75319924
_cell_length_c   6.66560749
_cell_angle_alpha   90.94990690
_cell_angle_beta   77.46864482
_cell_angle_gamma   82.79564172
_symmetry_Int_Tables_number   1
_chemical_formula_structural   Li4MnCo3O8
_chemical_formula_sum   'Li4 Mn1 Co3 O8'
_cell_volume   147.12331282
_cell_formula_units_Z   1
loop_
 _symmetry_equiv_pos_site_id
 _symmetry_equiv_pos_as_xyz
  1  'x, y, z'
loop_
 _atom_site_type_symbol
 _atom_site_label
 _atom_site_symmetry_multiplicity
 _atom_site_fract_x
 _atom_site_fract_y
 _atom_site_fract_z
 _atom_site_occupancy
  Li  Li0  1  0.74819310  0.37610202  0.12559220  1
  Li  Li1  1  0.74822397  0.87604377  0.62655761  1
  Li  Li2  1  0.25177603  0.62395623  0.87344239  1
  Li  Li3  1  0.25180690  0.12389798  0.37440780  1
  Mn  Mn4  1  0.50000000  0.75000000  0.25000000  1
  Co  Co5  1  0.99765409  0.00244312  0.00250226  1
  Co  Co6  1  0.00234591  0.49755688  0.49749774  1
  Co  Co7  1  0.50000000  0.25000000  0.75000000  1
  O  O8  1  0.37797217  0.17694828  0.05248872  1
  O  O9  1  0.37561355  0.67794400  0.54940159  1
  O  O10  1  0.87507938  0.42625999  0.80172619  1
  O  O11  1  0.84945859  0.93263661  0.30365767  1
  O  O12  1  0.15054141  0.56736339  0.19634233  1
  O  O13  1  0.12492062  0.07374001  0.69827381  1
  O  O14  1  0.62438645  0.82205600  0.95059841  1
  O  O15  1  0.62202783  0.32305172  0.44751128  1
