# generated using pymatgen
data_Li4MnCo3O8
_symmetry_space_group_name_H-M   'P 1'
_cell_length_a   2.95195261
_cell_length_b   10.29475382
_cell_length_c   5.09143020
_cell_angle_alpha   81.03236325
_cell_angle_beta   76.01576184
_cell_angle_gamma   92.42125774
_symmetry_Int_Tables_number   1
_chemical_formula_structural   Li4MnCo3O8
_chemical_formula_sum   'Li4 Mn1 Co3 O8'
_cell_volume   147.78930460
_cell_formula_units_Z   1
loop_
 _symmetry_equiv_pos_site_id
 _symmetry_equiv_pos_as_xyz
  1  'x, y, z'
loop_
 _atom_site_type_symbol
 _atom_site_label
 _atom_site_symmetry_multiplicity
 _atom_site_fract_x
 _atom_site_fract_y
 _atom_site_fract_z
 _atom_site_occupancy
  Li  Li0  1  0.74675176  0.12496670  0.50325631  1
  Li  Li1  1  0.25324824  0.37503330  0.49674369  1
  Li  Li2  1  0.74990012  0.62402618  0.50077030  1
  Li  Li3  1  0.25009988  0.87597382  0.49922970  1
  Mn  Mn4  1  0.50000000  0.25000000  0.00000000  1
  Co  Co5  1  0.00561607  0.00030744  0.99446146  1
  Co  Co6  1  0.99438393  0.49969256  0.00553854  1
  Co  Co7  1  0.50000000  0.75000000  0.00000000  1
  O  O8  1  0.38511363  0.06475934  0.22491428  1
  O  O9  1  0.84411332  0.31620578  0.23554698  1
  O  O10  1  0.37873957  0.56344561  0.23039134  1
  O  O11  1  0.87554107  0.81343452  0.22681791  1
  O  O12  1  0.15588668  0.18379422  0.76445302  1
  O  O13  1  0.61488637  0.43524066  0.77508572  1
  O  O14  1  0.12445893  0.68656548  0.77318209  1
  O  O15  1  0.62126043  0.93655439  0.76960866  1
