# generated using pymatgen
data_Sr2Fe23O38
_symmetry_space_group_name_H-M   'P 1'
_cell_length_a   5.95558151
_cell_length_b   5.95753437
_cell_length_c   23.26522174
_cell_angle_alpha   89.85709353
_cell_angle_beta   90.26808235
_cell_angle_gamma   120.24447603
_symmetry_Int_Tables_number   1
_chemical_formula_structural   Sr2Fe23O38
_chemical_formula_sum   'Sr2 Fe23 O38'
_cell_volume   713.09703817
_cell_formula_units_Z   1
loop_
 _symmetry_equiv_pos_site_id
 _symmetry_equiv_pos_as_xyz
  1  'x, y, z'
loop_
 _atom_site_type_symbol
 _atom_site_label
 _atom_site_symmetry_multiplicity
 _atom_site_fract_x
 _atom_site_fract_y
 _atom_site_fract_z
 _atom_site_occupancy
  Sr  Sr0  1  0.33192917  0.66294286  0.74874842  1
  Sr  Sr1  1  0.65781854  0.32674664  0.25043442  1
  Fe  Fe2  1  0.16838821  0.83281517  0.61191048  1
  Fe  Fe3  1  0.16756742  0.83238552  0.89133394  1
  Fe  Fe4  1  0.32811735  0.66776738  0.19460554  1
  Fe  Fe5  1  0.33361158  0.66796854  0.02675909  1
  Fe  Fe6  1  0.16942230  0.33681411  0.60722771  1
  Fe  Fe7  1  0.33076103  0.66502795  0.30956337  1
  Fe  Fe8  1  0.00270183  0.00109080  0.99971464  1
  Fe  Fe9  1  0.99982791  0.00139653  0.50130023  1
  Fe  Fe10  1  -0.00126088  0.00137414  0.75099541  1
  Fe  Fe11  1  0.33605437  0.66821802  0.47496088  1
  Fe  Fe12  1  0.16647680  0.33531619  0.89145496  1
  Fe  Fe13  1  0.66315657  0.83092976  0.89052741  1
  Fe  Fe14  1  0.66473184  0.83188254  0.60711071  1
  Fe  Fe15  1  0.33183251  0.16676530  0.10957842  1
  Fe  Fe16  1  0.33581625  0.16323933  0.39391830  1
  Fe  Fe17  1  0.66814293  0.33350902  0.68933365  1
  Fe  Fe18  1  0.66986231  0.33367059  0.97359555  1
  Fe  Fe19  1  0.66533206  0.33397190  0.52873799  1
  Fe  Fe20  1  0.66444984  0.33257262  0.80847270  1
  Fe  Fe21  1  0.83021396  0.66524194  0.39059262  1
  Fe  Fe22  1  0.83077598  0.66714752  0.10851092  1
  Fe  Fe23  1  0.83183023  0.16418536  0.10855444  1
  Fe  Fe24  1  0.83461555  0.16936328  0.39072452  1
  O  O25  1  0.15604576  0.84722257  0.05062414  1
  O  O26  1  0.16032967  0.84915676  0.44743481  1
  O  O27  1  0.00568481  0.50310405  0.84994723  1
  O  O28  1  0.01806009  0.49966150  0.65116321  1
  O  O29  1  0.19561152  0.81032670  0.24611194  1
  O  O30  1  0.33486561  0.66797917  0.94382442  1
  O  O31  1  0.33648542  0.66502180  0.55784867  1
  O  O32  1  0.15678737  0.30910851  0.05029944  1
  O  O33  1  0.00171211  0.00107920  0.14630866  1
  O  O34  1  0.01177198  0.00763453  0.35317573  1
  O  O35  1  0.99642043  0.00490501  0.65037070  1
  O  O36  1  0.14877707  0.31507058  0.44959721  1
  O  O37  1  -0.00066556  -0.00061538  0.84683219  1
  O  O38  1  0.19693769  0.39146161  0.24808580  1
  O  O39  1  0.50272254  0.98459338  0.65073881  1
  O  O40  1  0.49214503  0.98775124  0.84831803  1
  O  O41  1  0.60680103  0.80183404  0.25066049  1
  O  O42  1  0.30958461  0.16103284  0.55492635  1
  O  O43  1  0.30769349  0.15368457  0.94857672  1
  O  O44  1  0.49332506  0.50896096  0.64879535  1
  O  O45  1  0.49353992  0.50518992  0.84802787  1
  O  O46  1  0.49755632  0.48339274  0.34944947  1
  O  O47  1  0.50055547  0.50110902  0.15095333  1
  O  O48  1  0.69677408  0.84797013  0.05059983  1
  O  O49  1  0.68731298  0.84222097  0.44774378  1
  O  O50  1  0.36570575  0.18313226  0.74774386  1
  O  O51  1  0.50135629  0.99887556  0.15107955  1
  O  O52  1  0.50717668  0.00171768  0.34777535  1
  O  O53  1  0.66698467  0.33488149  0.44494449  1
  O  O54  1  0.66500924  0.33168989  0.05667480  1
  O  O55  1  0.81804616  0.63460155  0.74842975  1
  O  O56  1  0.84642376  0.69486617  0.94856713  1
  O  O57  1  0.84101472  0.69085655  0.55472659  1
  O  O58  1  0.81777103  0.18492486  0.75042886  1
  O  O59  1  0.99615362  0.49740533  0.15108534  1
  O  O60  1  0.99473920  0.49927429  0.34767206  1
  O  O61  1  0.84659220  0.15147528  0.94863296  1
  O  O62  1  0.84402655  0.15550271  0.55569180  1
