# generated using pymatgen
data_Li4MnCo2O7
_symmetry_space_group_name_H-M   'P 1'
_cell_length_a   2.94979265
_cell_length_b   5.95850253
_cell_length_c   14.34439239
_cell_angle_alpha   82.99314361
_cell_angle_beta   95.63532318
_cell_angle_gamma   91.93610373
_symmetry_Int_Tables_number   1
_chemical_formula_structural   Li4MnCo2O7
_chemical_formula_sum   'Li8 Mn2 Co4 O14'
_cell_volume   248.96897256
_cell_formula_units_Z   2
loop_
 _symmetry_equiv_pos_site_id
 _symmetry_equiv_pos_as_xyz
  1  'x, y, z'
loop_
 _atom_site_type_symbol
 _atom_site_label
 _atom_site_symmetry_multiplicity
 _atom_site_fract_x
 _atom_site_fract_y
 _atom_site_fract_z
 _atom_site_occupancy
  Li  Li0  1  0.00538525  0.50344081  0.00744151  1
  Li  Li1  1  0.57142900  0.21428600  0.14285700  1
  Li  Li2  1  0.13747175  0.92513019  0.27827249  1
  Li  Li3  1  0.42675896  0.78768334  0.85586837  1
  Li  Li4  1  0.85919551  0.07203052  0.71511032  1
  Li  Li5  1  0.28366149  0.35654148  0.57060468  1
  Li  Li6  1  0.71609804  0.64088766  0.42984563  1
  Li  Li7  1  0.57142900  0.71428600  0.14285700  1
  Mn  Mn8  1  0.00580148  0.99336884  0.00495466  1
  Mn  Mn9  1  0.13705552  0.43520216  0.28075934  1
  Co  Co10  1  0.71497477  0.14580694  0.42952462  1
  Co  Co11  1  0.29075750  0.85972705  0.57130336  1
  Co  Co12  1  0.85209950  0.56884495  0.71441164  1
  Co  Co13  1  0.42788223  0.28276406  0.85618938  1
  O  O14  1  0.51148147  0.22623049  0.99324107  1
  O  O15  1  0.06330198  0.97084212  0.13308329  1
  O  O16  1  0.65195087  0.64775788  0.28665716  1
  O  O17  1  0.88685151  0.52476824  0.85311335  1
  O  O18  1  0.35798168  0.81529336  0.70868420  1
  O  O19  1  0.79526002  0.09955427  0.56500859  1
  O  O20  1  0.17773724  0.37863711  0.42312521  1
  O  O21  1  0.49090613  0.78081412  0.99905784  1
  O  O22  1  0.07955502  0.45772988  0.15263171  1
  O  O23  1  0.63137553  0.20234051  0.29247293  1
  O  O24  1  0.96511976  0.04993389  0.86258879  1
  O  O25  1  0.34759698  0.32901673  0.72070541  1
  O  O26  1  0.78487632  0.61327864  0.57702980  1
  O  O27  1  0.25600549  0.90380276  0.43260065  1
