# generated using pymatgen
data_La2Cu(NCl)2
_symmetry_space_group_name_H-M   'P 1'
_cell_length_a   3.99978187
_cell_length_b   3.99978175
_cell_length_c   8.64612614
_cell_angle_alpha   103.37391159
_cell_angle_beta   103.37390970
_cell_angle_gamma   89.99999747
_symmetry_Int_Tables_number   1
_chemical_formula_structural   La2Cu(NCl)2
_chemical_formula_sum   'La2 Cu1 N2 Cl2'
_cell_volume   130.71304783
_cell_formula_units_Z   1
loop_
 _symmetry_equiv_pos_site_id
 _symmetry_equiv_pos_as_xyz
  1  'x, y, z'
loop_
 _atom_site_type_symbol
 _atom_site_label
 _atom_site_symmetry_multiplicity
 _atom_site_fract_x
 _atom_site_fract_y
 _atom_site_fract_z
 _atom_site_occupancy
  La  La0  1  0.40182718  0.40182718  0.80365536  1
  La  La1  1  0.59817282  0.59817282  0.19634464  1
  Cu  Cu2  1  -0.00000000  0.00000000  0.00000000  1
  N  N3  1  0.50000000  0.00000000  0.00000000  1
  N  N4  1  -0.00000000  0.50000000  0.00000000  1
  Cl  Cl5  1  0.18433577  0.18433577  0.36867053  1
  Cl  Cl6  1  0.81566423  0.81566423  0.63132947  1
