# generated using pymatgen
data_Li3MnCoO5
_symmetry_space_group_name_H-M   'P 1'
_cell_length_a   2.91700403
_cell_length_b   7.84112457
_cell_length_c   8.32187638
_cell_angle_alpha   75.07307261
_cell_angle_beta   90.00000000
_cell_angle_gamma   100.71983312
_symmetry_Int_Tables_number   1
_chemical_formula_structural   Li3MnCoO5
_chemical_formula_sum   'Li6 Mn2 Co2 O10'
_cell_volume   180.47983180
_cell_formula_units_Z   2
loop_
 _symmetry_equiv_pos_site_id
 _symmetry_equiv_pos_as_xyz
  1  'x, y, z'
loop_
 _atom_site_type_symbol
 _atom_site_label
 _atom_site_symmetry_multiplicity
 _atom_site_fract_x
 _atom_site_fract_y
 _atom_site_fract_z
 _atom_site_occupancy
  Li  Li0  1  0.59707605  0.19415210  0.69465316  1
  Li  Li1  1  0.40358756  0.80717512  0.29786141  1
  Li  Li2  1  0.19813376  0.39626752  0.91813645  1
  Li  Li3  1  0.01024929  0.02049857  0.48257485  1
  Li  Li4  1  0.79580661  0.59161322  0.10300416  1
  Li  Li5  1  0.59680817  0.19361634  0.20380957  1
  Mn  Mn6  1  0.00193769  0.00387539  0.00842000  1
  Mn  Mn7  1  0.79845509  0.59691018  0.59914985  1
  Co  Co8  1  0.40153488  0.80306976  0.80033809  1
  Co  Co9  1  0.19419098  0.38838197  0.37693833  1
  O  O10  1  0.41136795  0.82273589  0.03823013  1
  O  O11  1  0.21364002  0.42728004  0.64958159  1
  O  O12  1  0.99831150  0.99662301  0.22750678  1
  O  O13  1  0.80759330  0.61518661  0.83486567  1
  O  O14  1  0.60506651  0.21013301  0.45265911  1
  O  O15  1  0.79456764  0.58913528  0.37655589  1
  O  O16  1  0.58679938  0.17359875  0.95166571  1
  O  O17  1  0.38826537  0.77653074  0.56080008  1
  O  O18  1  0.20489185  0.40978371  0.15816265  1
  O  O19  1  0.99171639  0.98343278  0.76508652  1
