# generated using pymatgen
data_Li3MnCoO5
_symmetry_space_group_name_H-M   'P 1'
_cell_length_a   2.88684279
_cell_length_b   5.90033655
_cell_length_c   10.70516843
_cell_angle_alpha   82.28057359
_cell_angle_beta   82.25097806
_cell_angle_gamma   90.00000513
_symmetry_Int_Tables_number   1
_chemical_formula_structural   Li3MnCoO5
_chemical_formula_sum   'Li6 Mn2 Co2 O10'
_cell_volume   179.01184897
_cell_formula_units_Z   2
loop_
 _symmetry_equiv_pos_site_id
 _symmetry_equiv_pos_as_xyz
  1  'x, y, z'
loop_
 _atom_site_type_symbol
 _atom_site_label
 _atom_site_symmetry_multiplicity
 _atom_site_fract_x
 _atom_site_fract_y
 _atom_site_fract_z
 _atom_site_occupancy
  Li  Li0  1  0.79796913  0.89762810  0.40406173  1
  Li  Li1  1  0.60025616  0.29506726  0.79948768  1
  Li  Li2  1  0.40197388  0.70393870  0.19605224  1
  Li  Li3  1  0.19298892  0.08889109  0.61402216  1
  Li  Li4  1  0.00923174  0.50856117  0.98153652  1
  Li  Li5  1  0.60113658  0.80416897  0.79772684  1
  Mn  Mn6  1  0.00510312  -0.00033492  0.98979375  1
  Mn  Mn7  1  0.79802193  0.39899857  0.40395615  1
  Co  Co8  1  0.40076111  0.19999056  0.19847778  1
  Co  Co9  1  0.18907304  0.60724014  0.62185391  1
  O  O10  1  0.70700439  0.37301478  0.58599122  1
  O  O11  1  0.49875376  0.77538560  0.00249248  1
  O  O12  1  0.29809379  0.17687024  0.40381242  1
  O  O13  1  0.10485697  0.54796030  0.79028606  1
  O  O14  1  0.90520433  0.97313925  0.18959134  1
  O  O15  1  0.89291304  0.42683345  0.21417392  1
  O  O16  1  0.70273957  0.83248046  0.59452086  1
  O  O17  1  0.50052755  0.22473032  0.99894490  1
  O  O18  1  0.30141433  0.62148860  0.39717133  1
  O  O19  1  0.09197666  0.04394736  0.81604669  1
