# generated using pymatgen
data_NaMn2BiO6
_symmetry_space_group_name_H-M   'P 1'
_cell_length_a   10.91097443
_cell_length_b   10.91097406
_cell_length_c   10.91097459
_cell_angle_alpha   59.92402691
_cell_angle_beta   59.92403017
_cell_angle_gamma   59.92403044
_symmetry_Int_Tables_number   1
_chemical_formula_structural   NaMn2BiO6
_chemical_formula_sum   'Na8 Mn16 Bi8 O48'
_cell_volume   916.90967559
_cell_formula_units_Z   8
loop_
 _symmetry_equiv_pos_site_id
 _symmetry_equiv_pos_as_xyz
  1  'x, y, z'
loop_
 _atom_site_type_symbol
 _atom_site_label
 _atom_site_symmetry_multiplicity
 _atom_site_fract_x
 _atom_site_fract_y
 _atom_site_fract_z
 _atom_site_occupancy
  Na  Na0  1  0.13497479  0.13497479  0.13497479  1
  Na  Na1  1  0.13497479  0.13497479  0.63497479  1
  Na  Na2  1  0.13497479  0.63497479  0.13497479  1
  Na  Na3  1  0.13497479  0.63497479  0.63497479  1
  Na  Na4  1  0.63497479  0.13497479  0.13497479  1
  Na  Na5  1  0.63497479  0.13497479  0.63497479  1
  Na  Na6  1  0.63497479  0.63497479  0.13497479  1
  Na  Na7  1  0.63497479  0.63497479  0.63497479  1
  Mn  Mn8  1  0.00422725  0.00422725  0.00422725  1
  Mn  Mn9  1  0.00422725  0.00422725  0.50422725  1
  Mn  Mn10  1  0.00422725  0.50422725  0.00422725  1
  Mn  Mn11  1  0.00422725  0.50422725  0.50422725  1
  Mn  Mn12  1  0.50422725  0.00422725  0.00422725  1
  Mn  Mn13  1  0.50422725  0.00422725  0.50422725  1
  Mn  Mn14  1  0.50422725  0.50422725  0.00422725  1
  Mn  Mn15  1  0.50422725  0.50422725  0.50422725  1
  Mn  Mn16  1  0.25405136  0.25405136  0.25405136  1
  Mn  Mn17  1  0.25405136  0.25405136  0.75405136  1
  Mn  Mn18  1  0.25405136  0.75405136  0.25405136  1
  Mn  Mn19  1  0.25405136  0.75405136  0.75405136  1
  Mn  Mn20  1  0.75405136  0.25405136  0.25405136  1
  Mn  Mn21  1  0.75405136  0.25405136  0.75405136  1
  Mn  Mn22  1  0.75405136  0.75405136  0.25405136  1
  Mn  Mn23  1  0.75405136  0.75405136  0.75405136  1
  Bi  Bi24  1  0.39071835  0.39071835  0.39071835  1
  Bi  Bi25  1  0.39071835  0.39071835  0.89071835  1
  Bi  Bi26  1  0.39071835  0.89071835  0.39071835  1
  Bi  Bi27  1  0.39071835  0.89071835  0.89071835  1
  Bi  Bi28  1  0.89071835  0.39071835  0.39071835  1
  Bi  Bi29  1  0.89071835  0.39071835  0.89071835  1
  Bi  Bi30  1  0.89071835  0.89071835  0.39071835  1
  Bi  Bi31  1  0.89071835  0.89071835  0.89071835  1
  O  O32  1  0.08692613  0.16696986  0.37473748  1
  O  O33  1  0.08692613  0.16696986  0.87473748  1
  O  O34  1  0.08692613  0.66696986  0.37473748  1
  O  O35  1  0.08692613  0.66696986  0.87473748  1
  O  O36  1  0.58692613  0.16696986  0.37473748  1
  O  O37  1  0.58692613  0.16696986  0.87473748  1
  O  O38  1  0.58692613  0.66696986  0.37473748  1
  O  O39  1  0.58692613  0.66696986  0.87473748  1
  O  O40  1  0.16696986  0.37473748  0.08692613  1
  O  O41  1  0.16696986  0.37473748  0.58692613  1
  O  O42  1  0.16696986  0.87473748  0.08692613  1
  O  O43  1  0.16696986  0.87473748  0.58692613  1
  O  O44  1  0.66696986  0.37473748  0.08692613  1
  O  O45  1  0.66696986  0.37473748  0.58692613  1
  O  O46  1  0.66696986  0.87473748  0.08692613  1
  O  O47  1  0.66696986  0.87473748  0.58692613  1
  O  O48  1  0.37473748  0.08692613  0.16696986  1
  O  O49  1  0.37473748  0.08692613  0.66696986  1
  O  O50  1  0.37473748  0.58692613  0.16696986  1
  O  O51  1  0.37473748  0.58692613  0.66696986  1
  O  O52  1  0.87473748  0.08692613  0.16696986  1
  O  O53  1  0.87473748  0.08692613  0.66696986  1
  O  O54  1  0.87473748  0.58692613  0.16696986  1
  O  O55  1  0.87473748  0.58692613  0.66696986  1
  O  O56  1  0.11522653  0.41490129  0.34016696  1
  O  O57  1  0.11522653  0.41490129  0.84016696  1
  O  O58  1  0.11522653  0.91490129  0.34016696  1
  O  O59  1  0.11522653  0.91490129  0.84016696  1
  O  O60  1  0.61522653  0.41490129  0.34016696  1
  O  O61  1  0.61522653  0.41490129  0.84016696  1
  O  O62  1  0.61522653  0.91490129  0.34016696  1
  O  O63  1  0.61522653  0.91490129  0.84016696  1
  O  O64  1  0.34016696  0.11522653  0.41490129  1
  O  O65  1  0.34016696  0.11522653  0.91490129  1
  O  O66  1  0.34016696  0.61522653  0.41490129  1
  O  O67  1  0.34016696  0.61522653  0.91490129  1
  O  O68  1  0.84016696  0.11522653  0.41490129  1
  O  O69  1  0.84016696  0.11522653  0.91490129  1
  O  O70  1  0.84016696  0.61522653  0.41490129  1
  O  O71  1  0.84016696  0.61522653  0.91490129  1
  O  O72  1  0.41490129  0.34016696  0.11522653  1
  O  O73  1  0.41490129  0.34016696  0.61522653  1
  O  O74  1  0.41490129  0.84016696  0.11522653  1
  O  O75  1  0.41490129  0.84016696  0.61522653  1
  O  O76  1  0.91490129  0.34016696  0.11522653  1
  O  O77  1  0.91490129  0.34016696  0.61522653  1
  O  O78  1  0.91490129  0.84016696  0.11522653  1
  O  O79  1  0.91490129  0.84016696  0.61522653  1
