# generated using pymatgen
data_Li7Co5O12
_symmetry_space_group_name_H-M   'P 1'
_cell_length_a   2.99835833
_cell_length_b   14.84476391
_cell_length_c   5.17605968
_cell_angle_alpha   101.99332467
_cell_angle_beta   73.16375650
_cell_angle_gamma   90.00000169
_symmetry_Int_Tables_number   1
_chemical_formula_structural   Li7Co5O12
_chemical_formula_sum   'Li7 Co5 O12'
_cell_volume   215.25135661
_cell_formula_units_Z   1
loop_
 _symmetry_equiv_pos_site_id
 _symmetry_equiv_pos_as_xyz
  1  'x, y, z'
loop_
 _atom_site_type_symbol
 _atom_site_label
 _atom_site_symmetry_multiplicity
 _atom_site_fract_x
 _atom_site_fract_y
 _atom_site_fract_z
 _atom_site_occupancy
  Li  Li0  1  0.24826493  0.08454105  0.50347014  1
  Li  Li1  1  0.75173507  0.24879195  0.49652986  1
  Li  Li2  1  0.25211398  0.41575252  0.49577205  1
  Li  Li3  1  0.74963669  0.58337178  0.50072663  1
  Li  Li4  1  0.25036331  0.74996122  0.49927337  1
  Li  Li5  1  0.74788602  0.91758148  0.50422795  1
  Li  Li6  1  0.50000000  0.16666700  0.00000000  1
  Co  Co7  1  0.00081949  0.00703370  -0.00163899  1
  Co  Co8  1  -0.00081949  0.32629930  0.00163899  1
  Co  Co9  1  0.50008027  0.49827297  -0.00016054  1
  Co  Co10  1  0.00000000  0.66666700  0.00000000  1
  Co  Co11  1  0.49991973  0.83506003  0.00016054  1
  O  O12  1  0.88310297  0.11303545  0.23379405  1
  O  O13  1  0.38604198  0.29476934  0.22791604  1
  O  O14  1  0.88935420  0.45063984  0.22129159  1
  O  O15  1  0.38418507  0.62091450  0.23162986  1
  O  O16  1  0.88338302  0.78821630  0.23323396  1
  O  O17  1  0.38703966  0.95525556  0.22592069  1
  O  O18  1  0.61395802  0.03856366  0.77208396  1
  O  O19  1  0.11689703  0.22029855  0.76620595  1
  O  O20  1  0.61296034  0.37807744  0.77407931  1
  O  O21  1  0.11661698  0.54511670  0.76676604  1
  O  O22  1  0.61581493  0.71241950  0.76837014  1
  O  O23  1  0.11064580  0.88269316  0.77870841  1
