# generated using pymatgen
data_Li4Co3O7
_symmetry_space_group_name_H-M   'P 1'
_cell_length_a   3.01957024
_cell_length_b   13.71473035
_cell_length_c   6.37055175
_cell_angle_alpha   84.92758813
_cell_angle_beta   76.29078783
_cell_angle_gamma   96.32021288
_symmetry_Int_Tables_number   1
_chemical_formula_structural   Li4Co3O7
_chemical_formula_sum   'Li8 Co6 O14'
_cell_volume   252.94984054
_cell_formula_units_Z   2
loop_
 _symmetry_equiv_pos_site_id
 _symmetry_equiv_pos_as_xyz
  1  'x, y, z'
loop_
 _atom_site_type_symbol
 _atom_site_label
 _atom_site_symmetry_multiplicity
 _atom_site_fract_x
 _atom_site_fract_y
 _atom_site_fract_z
 _atom_site_occupancy
  Li  Li0  1  0.35857621  0.07466647  0.35751406  1
  Li  Li1  1  0.06999579  0.21104853  0.07105794  1
  Li  Li2  1  0.78867873  0.35687678  0.77951832  1
  Li  Li3  1  0.63989227  0.92883722  0.64905268  1
  Li  Li4  1  0.93024930  0.78718900  0.92668939  1
  Li  Li5  1  0.49832170  0.49852500  0.50188161  1
  Li  Li6  1  0.21428600  0.64285700  0.21428600  1
  Li  Li7  1  0.71428600  0.14285700  0.71428600  1
  Co  Co8  1  0.00844495  0.00750196  0.99061205  1
  Co  Co9  1  0.42012605  0.27821204  0.43795895  1
  Co  Co10  1  0.13920807  0.42693902  0.14852288  1
  Co  Co11  1  0.85612990  0.57065286  0.85839306  1
  Co  Co12  1  0.57244210  0.71506214  0.57017894  1
  Co  Co13  1  0.28936293  0.85877498  0.28004812  1
  O  O14  1  0.53319579  0.09849363  0.03210206  1
  O  O15  1  0.26772460  0.25505855  0.71961036  1
  O  O16  1  0.96931885  0.38951740  0.45087870  1
  O  O17  1  0.83431061  0.96367199  0.29505078  1
  O  O18  1  0.11538781  0.82032287  0.58954625  1
  O  O19  1  0.68347035  0.53272261  0.16578191  1
  O  O20  1  0.39885664  0.67587220  0.87815992  1
  O  O21  1  0.16084740  0.03065645  0.70896164  1
  O  O22  1  0.89537621  0.18722137  0.39646994  1
  O  O23  1  0.59426039  0.32204201  0.13352022  1
  O  O24  1  0.45925215  0.89619660  0.97769230  1
  O  O25  1  0.74510065  0.75299139  0.26278909  1
  O  O26  1  0.31318319  0.46539113  0.83902475  1
  O  O27  1  0.02971536  0.60984180  0.55041208  1
