# generated using pymatgen
data_Li7Mn2(CoO4)3
_symmetry_space_group_name_H-M   'P 1'
_cell_length_a   2.92295816
_cell_length_b   5.10861358
_cell_length_c   15.29246327
_cell_angle_alpha   99.61465735
_cell_angle_beta   90.00000000
_cell_angle_gamma   106.62349702
_symmetry_Int_Tables_number   1
_chemical_formula_structural   Li7Mn2(CoO4)3
_chemical_formula_sum   'Li7 Mn2 Co3 O12'
_cell_volume   215.45763249
_cell_formula_units_Z   1
loop_
 _symmetry_equiv_pos_site_id
 _symmetry_equiv_pos_as_xyz
  1  'x, y, z'
loop_
 _atom_site_type_symbol
 _atom_site_label
 _atom_site_symmetry_multiplicity
 _atom_site_fract_x
 _atom_site_fract_y
 _atom_site_fract_z
 _atom_site_occupancy
  Li  Li0  1  0.75091040  0.50182079  0.09005354  1
  Li  Li1  1  0.24908960  0.49817921  0.24327946  1
  Li  Li2  1  0.74620137  0.49240274  0.41432139  1
  Li  Li3  1  0.24989101  0.49978202  0.58309934  1
  Li  Li4  1  0.75010899  0.50021798  0.75023366  1
  Li  Li5  1  0.25379863  0.50759726  0.91901261  1
  Li  Li6  1  0.50000000  -0.00000000  0.16666700  1
  Mn  Mn7  1  0.00508425  0.01016849  0.00616580  1
  Mn  Mn8  1  0.99491575  0.98983151  0.32716720  1
  Co  Co9  1  0.49935968  0.99871936  0.49932068  1
  Co  Co10  1  -0.00000000  -0.00000000  0.66666700  1
  Co  Co11  1  0.50064032  0.00128064  0.83401232  1
  O  O12  1  0.61181416  0.22362832  0.96048828  1
  O  O13  1  0.11834433  0.23668866  0.11328037  1
  O  O14  1  0.60831556  0.21663111  0.29820332  1
  O  O15  1  0.10911507  0.21823014  0.45482188  1
  O  O16  1  0.61458282  0.22916565  0.62498334  1
  O  O17  1  0.11675436  0.23350871  0.79290612  1
  O  O18  1  0.88165567  0.76331134  0.22005263  1
  O  O19  1  0.38818584  0.77637168  0.37284472  1
  O  O20  1  0.88324564  0.76649129  0.54042788  1
  O  O21  1  0.38541718  0.77083435  0.70834966  1
  O  O22  1  0.89088493  0.78176986  0.87851112  1
  O  O23  1  0.39168444  0.78336889  0.03513068  1
