# generated using pymatgen
data_Li4MnCo2O7
_symmetry_space_group_name_H-M   'P 1'
_cell_length_a   2.94471119
_cell_length_b   17.27360464
_cell_length_c   5.10041634
_cell_angle_alpha   95.32903208
_cell_angle_beta   74.87091026
_cell_angle_gamma   91.17876679
_symmetry_Int_Tables_number   1
_chemical_formula_structural   Li4MnCo2O7
_chemical_formula_sum   'Li8 Mn2 Co4 O14'
_cell_volume   249.36033311
_cell_formula_units_Z   2
loop_
 _symmetry_equiv_pos_site_id
 _symmetry_equiv_pos_as_xyz
  1  'x, y, z'
loop_
 _atom_site_type_symbol
 _atom_site_label
 _atom_site_symmetry_multiplicity
 _atom_site_fract_x
 _atom_site_fract_y
 _atom_site_fract_z
 _atom_site_occupancy
  Li  Li0  1  0.70295310  0.07197010  0.58226947  1
  Li  Li1  1  0.14712323  0.21355417  0.71031227  1
  Li  Li2  1  0.57142900  0.35714300  0.85714300  1
  Li  Li3  1  0.99573377  0.50073183  0.00397373  1
  Li  Li4  1  0.43990390  0.64231590  0.13201653  1
  Li  Li5  1  0.83726097  0.79415509  0.29166740  1
  Li  Li6  1  0.30559603  0.92012991  0.42261760  1
  Li  Li7  1  0.57142900  0.85714300  0.85714300  1
  Mn  Mn8  1  0.00008327  0.99601601  0.00341195  1
  Mn  Mn9  1  0.14277373  0.71826999  0.71087405  1
  Co  Co10  1  0.44173820  0.14558018  0.13763879  1
  Co  Co11  1  0.86321039  0.28586184  0.28636895  1
  Co  Co12  1  0.27964661  0.42842316  0.42791605  1
  Co  Co13  1  0.70111880  0.56870582  0.57664721  1
  O  O14  1  0.38853081  0.03739653  0.25458466  1
  O  O15  1  0.80899157  0.18253830  0.41079048  1
  O  O16  1  0.19749787  0.32523676  0.54805504  1
  O  O17  1  0.61026473  0.46479772  0.69917344  1
  O  O18  1  0.07624528  0.60834562  0.83833208  1
  O  O19  1  0.53302253  0.74450236  0.95877424  1
  O  O20  1  0.92901440  0.90222611  0.14379000  1
  O  O21  1  0.06661172  0.10594038  0.87595392  1
  O  O22  1  0.53259227  0.24948728  0.01511156  1
  O  O23  1  0.94535913  0.38904824  0.16622996  1
  O  O24  1  0.33386543  0.53174770  0.30349552  1
  O  O25  1  0.75432619  0.67688947  0.45970134  1
  O  O26  1  0.21384360  0.81205989  0.57049600  1
  O  O27  1  0.60983447  0.96978364  0.75551176  1
