# generated using pymatgen
data_Li7Mn2(CoO4)3
_symmetry_space_group_name_H-M   'P 1'
_cell_length_a   2.90007444
_cell_length_b   7.81500746
_cell_length_c   10.30944231
_cell_angle_alpha   109.00492030
_cell_angle_beta   90.00000000
_cell_angle_gamma   100.69292113
_symmetry_Int_Tables_number   1
_chemical_formula_structural   Li7Mn2(CoO4)3
_chemical_formula_sum   'Li7 Mn2 Co3 O12'
_cell_volume   216.62226447
_cell_formula_units_Z   1
loop_
 _symmetry_equiv_pos_site_id
 _symmetry_equiv_pos_as_xyz
  1  'x, y, z'
loop_
 _atom_site_type_symbol
 _atom_site_label
 _atom_site_symmetry_multiplicity
 _atom_site_fract_x
 _atom_site_fract_y
 _atom_site_fract_z
 _atom_site_occupancy
  Li  Li0  1  0.50345793  0.00691585  0.25867373  1
  Li  Li1  1  0.50042328  0.00084656  0.74540949  1
  Li  Li2  1  0.16883015  0.33765931  0.43478175  1
  Li  Li3  1  0.16450385  0.32900669  0.89855225  1
  Li  Li4  1  0.82987507  0.65975115  0.07465927  1
  Li  Li5  1  0.83290972  0.66582044  0.58792351  1
  Li  Li6  1  0.66666700  0.33333300  0.66666700  1
  Mn  Mn7  1  0.99746938  0.99493875  0.99677392  1
  Mn  Mn8  1  0.33586362  0.67172825  0.33655908  1
  Co  Co9  1  0.01469460  0.02938920  0.52044182  1
  Co  Co10  1  0.66666700  0.33333300  0.16666700  1
  Co  Co11  1  0.31863840  0.63727780  0.81289118  1
  O  O12  1  0.42693396  0.85386792  0.03931416  1
  O  O13  1  0.41804716  0.83609432  0.52385926  1
  O  O14  1  0.08388436  0.16776773  0.18920698  1
  O  O15  1  0.07745212  0.15490325  0.69928681  1
  O  O16  1  0.75514772  0.51029643  0.87759385  1
  O  O17  1  0.76168596  0.52337291  0.37487666  1
  O  O18  1  0.57818528  0.15637057  0.45573915  1
  O  O19  1  0.57164704  0.14329409  0.95845634  1
  O  O20  1  0.25588188  0.51176275  0.63404719  1
  O  O21  1  0.24944964  0.49889827  0.14412702  1
  O  O22  1  0.90639904  0.81279908  0.29401884  1
  O  O23  1  0.91528584  0.83057268  0.80947374  1
