# generated using pymatgen
data_Li4MnCo2O7
_symmetry_space_group_name_H-M   'P 1'
_cell_length_a   5.17984900
_cell_length_b   10.29266601
_cell_length_c   5.17338660
_cell_angle_alpha   104.55529752
_cell_angle_beta   67.99234640
_cell_angle_gamma   95.40384417
_symmetry_Int_Tables_number   1
_chemical_formula_structural   Li4MnCo2O7
_chemical_formula_sum   'Li8 Mn2 Co4 O14'
_cell_volume   247.51145773
_cell_formula_units_Z   2
loop_
 _symmetry_equiv_pos_site_id
 _symmetry_equiv_pos_as_xyz
  1  'x, y, z'
loop_
 _atom_site_type_symbol
 _atom_site_label
 _atom_site_symmetry_multiplicity
 _atom_site_fract_x
 _atom_site_fract_y
 _atom_site_fract_z
 _atom_site_occupancy
  Li  Li0  1  0.50000000  0.14769054  0.07384577  1
  Li  Li1  1  0.50000000  0.28904320  0.64452160  1
  Li  Li2  1  0.50000000  0.43125650  0.21562875  1
  Li  Li3  1  0.50000000  0.56371357  0.78185629  1
  Li  Li4  1  0.50000000  0.71175763  0.35587881  1
  Li  Li5  1  0.50000000  0.85824088  0.92911994  1
  Li  Li6  1  0.50000000  0.00023821  0.50011910  1
  Li  Li7  1  0.00000000  0.42916244  0.71458172  1
  Mn  Mn8  1  0.00000000  0.00254948  0.00127474  1
  Mn  Mn9  1  1.00000000  0.70896611  0.85448305  1
  Co  Co10  1  0.00000000  0.14507025  0.57253563  1
  Co  Co11  1  0.00000000  0.28522418  0.14261209  1
  Co  Co12  1  1.00000000  0.56531269  0.28265585  1
  Co  Co13  1  1.00000000  0.85806400  0.42903150  1
  O  O14  1  0.23598161  0.14669253  0.84573987  1
  O  O15  1  0.20659320  0.27865814  0.38205368  1
  O  O16  1  0.22892574  0.42517008  0.99665110  1
  O  O17  1  0.23941075  0.58160698  0.55607762  1
  O  O18  1  0.20731816  0.71292129  0.11017442  1
  O  O19  1  0.23500976  0.85767408  0.70095824  1
  O  O20  1  0.22755110  0.99913207  0.27773614  1
  O  O21  1  0.76401839  0.14669253  0.30095366  1
  O  O22  1  0.79340680  0.27865814  0.89660446  1
  O  O23  1  0.77107426  0.42517008  0.42851998  1
  O  O24  1  0.76058925  0.58160698  0.02552836  1
  O  O25  1  0.79268184  0.71292129  0.60274687  1
  O  O26  1  0.76499024  0.85767408  0.15671484  1
  O  O27  1  0.77244890  0.99913207  0.72139593  1
