# generated using pymatgen
data_Li7Mn2(CoO4)3
_symmetry_space_group_name_H-M   'P 1'
_cell_length_a   2.91318294
_cell_length_b   7.78780985
_cell_length_c   10.22673876
_cell_angle_alpha   109.33353080
_cell_angle_beta   90.00000000
_cell_angle_gamma   100.77978895
_symmetry_Int_Tables_number   1
_chemical_formula_structural   Li7Mn2(CoO4)3
_chemical_formula_sum   'Li7 Mn2 Co3 O12'
_cell_volume   214.58933914
_cell_formula_units_Z   1
loop_
 _symmetry_equiv_pos_site_id
 _symmetry_equiv_pos_as_xyz
  1  'x, y, z'
loop_
 _atom_site_type_symbol
 _atom_site_label
 _atom_site_symmetry_multiplicity
 _atom_site_fract_x
 _atom_site_fract_y
 _atom_site_fract_z
 _atom_site_occupancy
  Li  Li0  1  0.50504137  0.01008274  0.24568540  1
  Li  Li1  1  0.50122209  0.00244418  0.75212758  1
  Li  Li2  1  0.16255575  0.32511050  0.40419586  1
  Li  Li3  1  0.17077825  0.34155550  0.92913814  1
  Li  Li4  1  0.82829163  0.65658426  0.08764760  1
  Li  Li5  1  0.83211091  0.66422282  0.58120542  1
  Li  Li6  1  0.66666700  0.33333300  0.16666700  1
  Mn  Mn7  1  0.00596240  0.01192480  0.00846525  1
  Mn  Mn8  1  0.32737060  0.65474220  0.32486775  1
  Co  Co9  1  0.99966409  0.99932818  0.49940049  1
  Co  Co10  1  0.66666700  0.33333300  0.66666700  1
  Co  Co11  1  0.33366891  0.66733882  0.83393251  1
  O  O12  1  0.42586334  0.85172669  0.03366773  1
  O  O13  1  0.41838934  0.83677867  0.52900702  1
  O  O14  1  0.07520962  0.15041823  0.19218540  1
  O  O15  1  0.08726984  0.17453868  0.70116134  1
  O  O16  1  0.75533541  0.51067181  0.87043571  1
  O  O17  1  0.75899194  0.51798487  0.37214813  1
  O  O18  1  0.57799759  0.15599519  0.46289729  1
  O  O19  1  0.57434106  0.14868213  0.96118487  1
  O  O20  1  0.24606416  0.49212732  0.63217266  1
  O  O21  1  0.25812438  0.51624777  0.14114860  1
  O  O22  1  0.90746966  0.81494031  0.29966527  1
  O  O23  1  0.91494366  0.82988833  0.80432598  1
