# generated using pymatgen
data_Li4MnCo2O7
_symmetry_space_group_name_H-M   'P 1'
_cell_length_a   2.90385562
_cell_length_b   9.80750399
_cell_length_c   9.76518584
_cell_angle_alpha   65.90091782
_cell_angle_beta   82.55763326
_cell_angle_gamma   92.09479222
_symmetry_Int_Tables_number   1
_chemical_formula_structural   Li4MnCo2O7
_chemical_formula_sum   'Li8 Mn2 Co4 O14'
_cell_volume   250.49796113
_cell_formula_units_Z   2
loop_
 _symmetry_equiv_pos_site_id
 _symmetry_equiv_pos_as_xyz
  1  'x, y, z'
loop_
 _atom_site_type_symbol
 _atom_site_label
 _atom_site_symmetry_multiplicity
 _atom_site_fract_x
 _atom_site_fract_y
 _atom_site_fract_z
 _atom_site_occupancy
  Li  Li0  1  0.93066852  0.22491586  0.12973696  1
  Li  Li1  1  0.21215147  0.34649175  0.58455053  1
  Li  Li2  1  0.51102323  0.49324069  -0.00201715  1
  Li  Li3  1  0.78192355  0.64199770  0.43019441  1
  Li  Li4  1  0.07135551  0.78571562  0.85715764  1
  Li  Li5  1  0.36091405  0.92942377  0.28407917  1
  Li  Li6  1  0.63186234  0.07819396  0.71628580  1
  Li  Li7  1  0.57140369  0.28571541  0.85714974  1
  Mn  Mn8  1  0.00009458  0.01022680  0.99062036  1
  Mn  Mn9  1  0.14279155  0.56120307  0.72367645  1
  Co  Co10  1  0.28686794  0.14252586  0.42839097  1
  Co  Co11  1  0.85591388  0.42889776  0.28586772  1
  Co  Co12  1  0.41884829  0.71457401  0.14434270  1
  Co  Co13  1  0.72408784  0.85685636  0.56995174  1
  O  O14  1  0.47638469  0.09400787  0.06379518  1
  O  O15  1  0.73626903  0.24592264  0.49330316  1
  O  O16  1  0.04228686  0.40934101  0.91276731  1
  O  O17  1  0.30769627  0.53166391  0.35039026  1
  O  O18  1  0.62968726  0.67037500  0.77597285  1
  O  O19  1  0.87667785  0.82374487  0.20072087  1
  O  O20  1  0.17035653  0.95687381  0.63535228  1
  O  O21  1  0.40644418  0.32551527  0.22095011  1
  O  O22  1  0.66652775  0.47741509  0.65050438  1
  O  O23  1  0.97253898  0.61453406  0.07897575  1
  O  O24  1  0.26628585  0.74771171  0.51354997  1
  O  O25  1  0.51316869  0.90104023  0.93833410  1
  O  O26  1  0.83514194  0.03979300  0.36385287  1
  O  O27  1  0.10062768  0.16208291  0.80154384  1
