# generated using pymatgen
data_Li7Mn2(CoO4)3
_symmetry_space_group_name_H-M   'P 1'
_cell_length_a   2.91627234
_cell_length_b   7.76919728
_cell_length_c   9.80007384
_cell_angle_alpha   80.19142713
_cell_angle_beta   90.00000000
_cell_angle_gamma   79.18247820
_symmetry_Int_Tables_number   1
_chemical_formula_structural   Li7Mn2(CoO4)3
_chemical_formula_sum   'Li7 Mn2 Co3 O12'
_cell_volume   214.79019074
_cell_formula_units_Z   1
loop_
 _symmetry_equiv_pos_site_id
 _symmetry_equiv_pos_as_xyz
  1  'x, y, z'
loop_
 _atom_site_type_symbol
 _atom_site_label
 _atom_site_symmetry_multiplicity
 _atom_site_fract_x
 _atom_site_fract_y
 _atom_site_fract_z
 _atom_site_occupancy
  Li  Li0  1  0.58509303  0.82981294  0.24502655  1
  Li  Li1  1  0.74823997  0.50352006  0.75497345  1
  Li  Li2  1  0.91559167  0.16881767  0.25408603  1
  Li  Li3  1  0.24367771  0.51264458  0.24393097  1
  Li  Li4  1  0.41774233  0.16451633  0.74591397  1
  Li  Li5  1  0.08965529  0.82068842  0.75606903  1
  Li  Li6  1  0.66666700  0.66666700  0.00000000  1
  Mn  Mn7  1  0.00519026  0.98961949  0.00328104  1
  Mn  Mn8  1  0.32814274  0.34371351  0.99671896  1
  Co  Co9  1  0.16666700  0.66666700  0.50000000  1
  Co  Co10  1  0.50016436  0.99967129  0.50115088  1
  Co  Co11  1  0.83316864  0.33366171  0.49884912  1
  O  O12  1  0.45674146  0.08651608  0.10655187  1
  O  O13  1  0.62648103  0.74703794  0.61644104  1
  O  O14  1  0.79847651  0.40304797  0.11104424  1
  O  O15  1  0.11263820  0.77472359  0.11670607  1
  O  O16  1  0.29369614  0.41260871  0.61308876  1
  O  O17  1  0.95954985  0.08089930  0.61707602  1
  O  O18  1  0.70685197  0.58629506  0.38355896  1
  O  O19  1  0.87659154  0.24681692  0.89344813  1
  O  O20  1  0.03963786  0.92072529  0.38691124  1
  O  O21  1  0.37378315  0.25243370  0.38292398  1
  O  O22  1  0.53485749  0.93028603  0.88895576  1
  O  O23  1  0.22069480  0.55860941  0.88329393  1
