# generated using pymatgen
data_Li7Mn2(CoO4)3
_symmetry_space_group_name_H-M   'P 1'
_cell_length_a   2.92584874
_cell_length_b   9.80384023
_cell_length_c   7.76138022
_cell_angle_alpha   83.65039923
_cell_angle_beta   79.13545506
_cell_angle_gamma   81.41830280
_symmetry_Int_Tables_number   1
_chemical_formula_structural   Li7Mn2(CoO4)3
_chemical_formula_sum   'Li7 Mn2 Co3 O12'
_cell_volume   215.41226224
_cell_formula_units_Z   1
loop_
 _symmetry_equiv_pos_site_id
 _symmetry_equiv_pos_as_xyz
  1  'x, y, z'
loop_
 _atom_site_type_symbol
 _atom_site_label
 _atom_site_symmetry_multiplicity
 _atom_site_fract_x
 _atom_site_fract_y
 _atom_site_fract_z
 _atom_site_occupancy
  Li  Li0  1  0.33320051  0.25358236  0.08001562  1
  Li  Li1  1  0.00013249  0.74641764  0.25331738  1
  Li  Li2  1  0.66667867  0.24519878  0.42144488  1
  Li  Li3  1  0.32583142  0.75517418  0.59316198  1
  Li  Li4  1  0.00750158  0.24482582  0.74017102  1
  Li  Li5  1  0.66665533  0.75480122  0.91188912  1
  Li  Li6  1  0.66666700  0.00000000  0.66666700  1
  Mn  Mn7  1  0.00589164  0.99689799  0.99131874  1
  Mn  Mn8  1  0.32744136  0.00310201  0.34201426  1
  Co  Co9  1  0.66666700  0.50000000  0.16666700  1
  Co  Co10  1  0.00024831  0.49950099  0.50000239  1
  Co  Co11  1  0.33308469  0.50049901  0.83333061  1
  O  O12  1  0.49757335  0.11129559  0.89355671  1
  O  O13  1  0.16818101  0.61477938  0.04885859  1
  O  O14  1  0.84154170  0.10599702  0.21092058  1
  O  O15  1  0.50094036  0.61592423  0.38219405  1
  O  O16  1  0.18262152  0.11654910  0.51820786  1
  O  O17  1  0.83509571  0.61623565  0.71357392  1
  O  O18  1  0.16515199  0.38522062  0.28447441  1
  O  O19  1  0.83575965  0.88870441  0.43977629  1
  O  O20  1  0.49823829  0.38376435  0.61976008  1
  O  O21  1  0.15071148  0.88345090  0.81512514  1
  O  O22  1  0.83239264  0.38407577  0.95113895  1
  O  O23  1  0.49179230  0.89400298  0.12241342  1
