# generated using pymatgen
data_Li7Mn2(CoO4)3
_symmetry_space_group_name_H-M   'P 1'
_cell_length_a   2.92472361
_cell_length_b   7.76709495
_cell_length_c   10.22228854
_cell_angle_alpha   71.19604491
_cell_angle_beta   90.00000000
_cell_angle_gamma   100.85221773
_symmetry_Int_Tables_number   1
_chemical_formula_structural   Li7Mn2(CoO4)3
_chemical_formula_sum   'Li7 Mn2 Co3 O12'
_cell_volume   215.42993301
_cell_formula_units_Z   1
loop_
 _symmetry_equiv_pos_site_id
 _symmetry_equiv_pos_as_xyz
  1  'x, y, z'
loop_
 _atom_site_type_symbol
 _atom_site_label
 _atom_site_symmetry_multiplicity
 _atom_site_fract_x
 _atom_site_fract_y
 _atom_site_fract_z
 _atom_site_occupancy
  Li  Li0  1  0.83813603  0.67627307  0.75616290  1
  Li  Li1  1  0.16989582  0.33979064  0.24488556  1
  Li  Li2  1  0.49677118  0.99354236  0.75511444  1
  Li  Li3  1  0.82852997  0.65706093  0.24383710  1
  Li  Li4  1  0.16939556  0.33879013  0.74644965  1
  Li  Li5  1  0.49727144  0.99454287  0.25355035  1
  Li  Li6  1  0.33333300  0.66666700  -0.00000000  1
  Mn  Mn7  1  0.99602572  0.99205145  0.99690974  1
  Mn  Mn8  1  0.67064128  0.34128155  0.00309026  1
  Co  Co9  1  0.33333300  0.66666700  0.50000000  1
  Co  Co10  1  -0.00010989  -0.00021979  0.50119398  1
  Co  Co11  1  0.66677689  0.33355279  0.49880602  1
  O  O12  1  0.73997934  0.47995768  0.11699789  1
  O  O13  1  0.08977425  0.17954851  0.61344523  1
  O  O14  1  0.42840249  0.85680598  0.11036844  1
  O  O15  1  0.75485625  0.50971149  0.61543682  1
  O  O16  1  0.08809272  0.17618544  0.10593589  1
  O  O17  1  0.42032496  0.84065091  0.61718794  1
  O  O18  1  0.91181075  0.82362151  0.38456318  1
  O  O19  1  0.23826351  0.47652802  0.88963156  1
  O  O20  1  0.57689275  0.15378449  0.38655477  1
  O  O21  1  0.92668766  0.85337532  0.88300211  1
  O  O22  1  0.24634104  0.49268309  0.38281206  1
  O  O23  1  0.57857428  0.15714756  0.89406411  1
