# generated using pymatgen
data_Li4MnCo2O7
_symmetry_space_group_name_H-M   'P 1'
_cell_length_a   2.95370512
_cell_length_b   5.13790856
_cell_length_c   17.73479461
_cell_angle_alpha   102.21299014
_cell_angle_beta   94.77680687
_cell_angle_gamma   73.29510228
_symmetry_Int_Tables_number   1
_chemical_formula_structural   Li4MnCo2O7
_chemical_formula_sum   'Li8 Mn2 Co4 O14'
_cell_volume   251.87585930
_cell_formula_units_Z   2
loop_
 _symmetry_equiv_pos_site_id
 _symmetry_equiv_pos_as_xyz
  1  'x, y, z'
loop_
 _atom_site_type_symbol
 _atom_site_label
 _atom_site_symmetry_multiplicity
 _atom_site_fract_x
 _atom_site_fract_y
 _atom_site_fract_z
 _atom_site_occupancy
  Li  Li0  1  0.28708610  0.50528809  0.07946129  1
  Li  Li1  1  0.85577090  0.49471191  0.20625371  1
  Li  Li2  1  0.43236459  0.49416940  0.35889958  1
  Li  Li3  1  0.99968712  0.50097929  0.50035353  1
  Li  Li4  1  0.57142900  0.50000000  0.64285700  1
  Li  Li5  1  0.14316988  0.49902071  0.78536047  1
  Li  Li6  1  0.71049241  0.50583060  0.92681442  1
  Li  Li7  1  0.57142900  0.00000000  0.14285700  1
  Mn  Mn8  1  0.99840087  0.00681463  0.00361638  1
  Mn  Mn9  1  0.14445613  0.99318537  0.28209762  1
  Co  Co10  1  0.71065586  0.00933762  0.43064835  1
  Co  Co11  1  0.28639990  0.99908035  0.57188116  1
  Co  Co12  1  0.85645710  0.00091965  0.71383384  1
  Co  Co13  1  0.43220114  0.99066238  0.85506565  1
  O  O14  1  0.37325435  0.21579422  0.96230291  1
  O  O15  1  0.92810480  0.24077201  0.09698062  1
  O  O16  1  0.52051299  0.21568396  0.25671095  1
  O  O17  1  0.08157403  0.22815600  0.39130405  1
  O  O18  1  0.65045795  0.23315075  0.53406765  1
  O  O19  1  0.22206123  0.23118590  0.67530837  1
  O  O20  1  0.79416507  0.22950361  0.81783275  1
  O  O21  1  0.21475220  0.75922799  0.18873338  1
  O  O22  1  0.76960265  0.78420578  0.32341109  1
  O  O23  1  0.34869293  0.77049639  0.46788125  1
  O  O24  1  0.92079577  0.76881410  0.61040563  1
  O  O25  1  0.49239905  0.76684925  0.75164635  1
  O  O26  1  0.06128297  0.77184400  0.89441095  1
  O  O27  1  0.62234401  0.78431604  0.02900405  1
