# generated using pymatgen
data_Li7Mn2(CoO4)3
_symmetry_space_group_name_H-M   'P 1'
_cell_length_a   2.91309833
_cell_length_b   8.28289897
_cell_length_c   9.80410295
_cell_angle_alpha   114.39609085
_cell_angle_beta   90.00000000
_cell_angle_gamma   90.00000000
_symmetry_Int_Tables_number   1
_chemical_formula_structural   Li7Mn2(CoO4)3
_chemical_formula_sum   'Li7 Mn2 Co3 O12'
_cell_volume   215.44000781
_cell_formula_units_Z   1
loop_
 _symmetry_equiv_pos_site_id
 _symmetry_equiv_pos_as_xyz
  1  'x, y, z'
loop_
 _atom_site_type_symbol
 _atom_site_label
 _atom_site_symmetry_multiplicity
 _atom_site_fract_x
 _atom_site_fract_y
 _atom_site_fract_z
 _atom_site_occupancy
  Li  Li0  1  0.00000000  0.85459425  0.66962563  1
  Li  Li1  1  0.00000000  0.48054133  0.99284293  1
  Li  Li2  1  0.00000000  0.16395223  0.33715681  1
  Li  Li3  1  0.50000000  0.32749970  0.14884626  1
  Li  Li4  1  0.50000000  0.00671968  0.50682842  1
  Li  Li5  1  0.50000000  0.66745645  0.84210024  1
  Li  Li6  1  0.50000000  0.17203592  0.83578536  1
  Mn  Mn7  1  0.00000000  0.00836808  0.99697041  1
  Mn  Mn8  1  0.50000000  0.50151019  0.50374939  1
  Co  Co9  1  0.00000000  0.67268787  0.33244658  1
  Co  Co10  1  -0.00000000  0.31589371  0.67512825  1
  Co  Co11  1  0.50000000  0.82543135  0.16190105  1
  O  O12  1  0.00000000  0.23165183  0.00102603  1
  O  O13  1  0.00000000  0.90203890  0.32563380  1
  O  O14  1  -0.00000000  0.56990981  0.64635033  1
  O  O15  1  0.50000000  0.73211378  0.49511385  1
  O  O16  1  0.50000000  0.41658941  0.82016914  1
  O  O17  1  0.50000000  0.07023857  0.14890630  1
  O  O18  1  -0.00000000  0.43454889  0.35504495  1
  O  O19  1  0.00000000  0.09353289  0.66003599  1
  O  O20  1  0.00000000  0.76776541  0.00771574  1
  O  O21  1  0.50000000  0.92564073  0.85360708  1
  O  O22  1  0.50000000  0.58813108  0.17795415  1
  O  O23  1  0.50000000  0.27114792  0.50506131  1
