# generated using pymatgen
data_Li7Mn2(CoO4)3
_symmetry_space_group_name_H-M   'P 1'
_cell_length_a   2.90124200
_cell_length_b   7.81972349
_cell_length_c   10.31338673
_cell_angle_alpha   109.54941459
_cell_angle_beta   90.00000000
_cell_angle_gamma   100.69074936
_symmetry_Int_Tables_number   1
_chemical_formula_structural   Li7Mn2(CoO4)3
_chemical_formula_sum   'Li7 Mn2 Co3 O12'
_cell_volume   216.17628126
_cell_formula_units_Z   1
loop_
 _symmetry_equiv_pos_site_id
 _symmetry_equiv_pos_as_xyz
  1  'x, y, z'
loop_
 _atom_site_type_symbol
 _atom_site_label
 _atom_site_symmetry_multiplicity
 _atom_site_fract_x
 _atom_site_fract_y
 _atom_site_fract_z
 _atom_site_occupancy
  Li  Li0  1  0.50298534  0.00597069  0.24557398  1
  Li  Li1  1  0.50094846  0.00189691  0.75460638  1
  Li  Li2  1  0.16733878  0.33467655  0.40061702  1
  Li  Li3  1  0.17192024  0.34383949  0.93262200  1
  Li  Li4  1  0.83010381  0.66020863  0.08511799  1
  Li  Li5  1  0.82950210  0.65900521  0.57854176  1
  Li  Li6  1  0.66412463  0.32824825  0.16821281  1
  Mn  Mn7  1  0.00546335  0.01092669  0.00794591  1
  Mn  Mn8  1  0.99787151  0.99574302  0.49836639  1
  Co  Co9  1  0.66938197  0.33876293  0.66981829  1
  Co  Co10  1  0.31965687  0.63931474  0.31384559  1
  Co  Co11  1  0.33458950  0.66917999  0.83402185  1
  O  O12  1  0.42536972  0.85073944  0.03449342  1
  O  O13  1  0.42794664  0.85589328  0.54058516  1
  O  O14  1  0.07558946  0.15117793  0.19176753  1
  O  O15  1  0.08489971  0.16979843  0.69231423  1
  O  O16  1  0.75164470  0.50329041  0.86866923  1
  O  O17  1  0.75595330  0.51190760  0.37531952  1
  O  O18  1  0.57362149  0.14724297  0.46372402  1
  O  O19  1  0.57429864  0.14859728  0.96242015  1
  O  O20  1  0.24555884  0.49111668  0.63136634  1
  O  O21  1  0.25705278  0.51410457  0.13285573  1
  O  O22  1  0.91634184  0.83268469  0.31249111  1
  O  O23  1  0.91783631  0.83567362  0.80470360  1
