# generated using pymatgen
data_Li7Mn2(CoO4)3
_symmetry_space_group_name_H-M   'P 1'
_cell_length_a   2.90593586
_cell_length_b   15.34872978
_cell_length_c   5.14061052
_cell_angle_alpha   99.59141074
_cell_angle_beta   73.58187981
_cell_angle_gamma   89.99999787
_symmetry_Int_Tables_number   1
_chemical_formula_structural   Li7Mn2(CoO4)3
_chemical_formula_sum   'Li7 Mn2 Co3 O12'
_cell_volume   216.59110792
_cell_formula_units_Z   1
loop_
 _symmetry_equiv_pos_site_id
 _symmetry_equiv_pos_as_xyz
  1  'x, y, z'
loop_
 _atom_site_type_symbol
 _atom_site_label
 _atom_site_symmetry_multiplicity
 _atom_site_fract_x
 _atom_site_fract_y
 _atom_site_fract_z
 _atom_site_occupancy
  Li  Li0  1  0.24800933  0.09270653  0.50398133  1
  Li  Li1  1  0.76285906  0.24063784  0.47428187  1
  Li  Li2  1  0.24704552  0.40822704  0.50590897  1
  Li  Li3  1  0.74910116  0.58816335  0.50179768  1
  Li  Li4  1  0.25066612  0.75489410  0.49866776  1
  Li  Li5  1  0.74790661  0.91632369  0.50418679  1
  Li  Li6  1  0.49795698  0.16440732  0.00408605  1
  Mn  Mn7  1  -0.00118475  0.00383373  0.00236950  1
  Mn  Mn8  1  0.49540253  0.50019552  0.00919494  1
  Co  Co9  1  0.00978801  0.31757518  0.98042398  1
  Co  Co10  1  0.99546338  0.67015237  0.00907324  1
  Co  Co11  1  0.50332893  0.83194776  0.99334213  1
  O  O12  1  0.88335805  0.11082548  0.23328389  1
  O  O13  1  0.38574056  0.29675180  0.22851887  1
  O  O14  1  0.88546513  0.46641896  0.22906974  1
  O  O15  1  0.38368903  0.62073442  0.23262193  1
  O  O16  1  0.88272479  0.79314665  0.23455042  1
  O  O17  1  0.39442662  0.95582877  0.21114675  1
  O  O18  1  0.61032129  0.03531743  0.77935743  1
  O  O19  1  0.12670550  0.21561622  0.74658899  1
  O  O20  1  0.60472897  0.38499217  0.79054206  1
  O  O21  1  0.10630927  0.53965917  0.78738146  1
  O  O22  1  0.61571437  0.71213910  0.76857127  1
  O  O23  1  0.11447353  0.87950542  0.77105293  1
