# generated using pymatgen
data_Li7Mn2(CoO4)3
_symmetry_space_group_name_H-M   'P 1'
_cell_length_a   2.94158150
_cell_length_b   12.00634258
_cell_length_c   6.46271896
_cell_angle_alpha   104.44201089
_cell_angle_beta   76.92985046
_cell_angle_gamma   85.17477169
_symmetry_Int_Tables_number   1
_chemical_formula_structural   Li7Mn2(CoO4)3
_chemical_formula_sum   'Li7 Mn2 Co3 O12'
_cell_volume   212.90708892
_cell_formula_units_Z   1
loop_
 _symmetry_equiv_pos_site_id
 _symmetry_equiv_pos_as_xyz
  1  'x, y, z'
loop_
 _atom_site_type_symbol
 _atom_site_label
 _atom_site_symmetry_multiplicity
 _atom_site_fract_x
 _atom_site_fract_y
 _atom_site_fract_z
 _atom_site_occupancy
  Li  Li0  1  0.75015964  0.25117972  0.24790614  1
  Li  Li1  1  0.74243678  0.58543884  0.92157074  1
  Li  Li2  1  0.24304936  0.41974699  0.08996834  1
  Li  Li3  1  0.25312139  0.74934438  0.75308101  1
  Li  Li4  1  0.76124718  0.91398027  0.56634568  1
  Li  Li5  1  0.25543363  0.07678671  0.41645781  1
  Li  Li6  1  0.48772406  0.83639299  0.17584785  1
  Mn  Mn7  1  0.99263000  0.99637573  0.00723643  1
  Mn  Mn8  1  0.00957566  0.33236494  0.66485995  1
  Co  Co9  1  0.99512909  0.67450736  0.32552644  1
  Co  Co10  1  0.49575324  0.50234200  0.49854370  1
  Co  Co11  1  0.51041086  0.16451964  0.83188176  1
  O  O12  1  0.40096554  0.11431752  0.09941018  1
  O  O13  1  0.36146407  0.45547664  0.77388943  1
  O  O14  1  0.91473830  0.27772722  0.93623149  1
  O  O15  1  0.86166646  0.62098425  0.59983639  1
  O  O16  1  0.35496382  0.78262884  0.45392379  1
  O  O17  1  0.87387225  0.96350179  0.27457489  1
  O  O18  1  0.14584546  0.37851496  0.38694786  1
  O  O19  1  0.11967028  0.70104822  0.06355905  1
  O  O20  1  0.63401814  0.54479552  0.22974608  1
  O  O21  1  0.59000427  0.89111773  0.88852492  1
  O  O22  1  0.09694101  0.05472800  0.73476448  1
  O  O23  1  0.64917950  0.21217970  0.55936560  1
