# generated using pymatgen
data_Li7Mn2(CoO4)3
_symmetry_space_group_name_H-M   'P 1'
_cell_length_a   2.89851498
_cell_length_b   5.92577206
_cell_length_c   12.89534960
_cell_angle_alpha   103.13775078
_cell_angle_beta   89.01540873
_cell_angle_gamma   91.85107163
_symmetry_Int_Tables_number   1
_chemical_formula_structural   Li7Mn2(CoO4)3
_chemical_formula_sum   'Li7 Mn2 Co3 O12'
_cell_volume   215.56898348
_cell_formula_units_Z   1
loop_
 _symmetry_equiv_pos_site_id
 _symmetry_equiv_pos_as_xyz
  1  'x, y, z'
loop_
 _atom_site_type_symbol
 _atom_site_label
 _atom_site_symmetry_multiplicity
 _atom_site_fract_x
 _atom_site_fract_y
 _atom_site_fract_z
 _atom_site_occupancy
  Li  Li0  1  0.00158260  0.51213413  0.01218658  1
  Li  Li1  1  0.50000000  0.33333300  0.16666700  1
  Li  Li2  1  0.49757751  0.66708467  0.83306853  1
  Li  Li3  1  0.00000000  0.83333300  0.66666700  1
  Li  Li4  1  0.50242249  -0.00041767  0.50026447  1
  Li  Li5  1  0.99841740  0.15453287  0.32114642  1
  Li  Li6  1  0.50000000  0.83333300  0.16666700  1
  Mn  Mn7  1  0.00476666  -0.00008808  0.00850781  1
  Mn  Mn8  1  0.99523334  0.66675508  0.32482519  1
  Co  Co9  1  0.49031353  0.50121248  0.49954874  1
  Co  Co10  1  0.00000000  0.33333300  0.66666700  1
  Co  Co11  1  0.50968647  0.16545452  0.83378426  1
  O  O12  1  0.51834929  0.22150968  0.99797784  1
  O  O13  1  0.99710011  0.07774217  0.15263417  1
  O  O14  1  0.98357244  0.39966060  0.83211664  1
  O  O15  1  0.48352237  0.56761285  0.66480485  1
  O  O16  1  0.97596154  0.72996933  0.49303254  1
  O  O17  1  0.50785649  0.88815592  0.33456794  1
  O  O18  1  0.49214351  0.77851108  0.99876506  1
  O  O19  1  0.00289989  0.58892383  0.18069983  1
  O  O20  1  0.02403846  0.93669767  0.84030046  1
  O  O21  1  0.51647763  0.09905315  0.66852915  1
  O  O22  1  0.01642756  0.26700640  0.50121636  1
  O  O23  1  0.48165071  0.44515732  0.33535516  1
