# generated using pymatgen
data_Li7Mn2(CoO4)3
_symmetry_space_group_name_H-M   'P 1'
_cell_length_a   2.90303938
_cell_length_b   14.66663018
_cell_length_c   5.13078239
_cell_angle_alpha   90.11367406
_cell_angle_beta   90.54915200
_cell_angle_gamma   80.40117202
_symmetry_Int_Tables_number   1
_chemical_formula_structural   Li7Mn2(CoO4)3
_chemical_formula_sum   'Li7 Mn2 Co3 O12'
_cell_volume   215.38901743
_cell_formula_units_Z   1
loop_
 _symmetry_equiv_pos_site_id
 _symmetry_equiv_pos_as_xyz
  1  'x, y, z'
loop_
 _atom_site_type_symbol
 _atom_site_label
 _atom_site_symmetry_multiplicity
 _atom_site_fract_x
 _atom_site_fract_y
 _atom_site_fract_z
 _atom_site_occupancy
  Li  Li0  1  0.83333300  0.16666700  0.33333300  1
  Li  Li1  1  0.17738971  0.32808945  0.16115183  1
  Li  Li2  1  0.50133995  0.50040907  0.00388896  1
  Li  Li3  1  0.83333300  0.66666700  0.83333300  1
  Li  Li4  1  0.16532705  0.83292393  0.66277804  1
  Li  Li5  1  0.48927729  0.00524355  0.50551517  1
  Li  Li6  1  0.33333300  0.16666700  0.83333300  1
  Mn  Mn7  1  0.98868425  0.00572761  0.98665797  1
  Mn  Mn8  1  0.67798275  0.32760539  0.68000903  1
  Co  Co9  1  0.00885652  0.49901965  0.50042610  1
  Co  Co10  1  0.33333300  0.66666700  0.33333300  1
  Co  Co11  1  0.65781048  0.83431335  0.16624090  1
  O  O12  1  0.43359615  0.07302887  0.14866529  1
  O  O13  1  0.73923930  0.25811972  0.97592675  1
  O  O14  1  0.10956308  0.40847053  0.81268392  1
  O  O15  1  0.41156062  0.57884500  0.65324257  1
  O  O16  1  0.73656156  0.74624584  0.48466811  1
  O  O17  1  0.06028632  0.91395035  0.30474749  1
  O  O18  1  0.23306985  0.26030513  0.51800071  1
  O  O19  1  0.60638068  0.41938265  0.36191951  1
  O  O20  1  0.93010544  0.58708716  0.18199889  1
  O  O21  1  0.25510538  0.75448900  0.01342343  1
  O  O22  1  0.55710392  0.92486247  0.85398308  1
  O  O23  1  0.92742770  0.07521328  0.69074025  1
