# generated using pymatgen
data_Li7Mn2(CoO4)3
_symmetry_space_group_name_H-M   'P 1'
_cell_length_a   2.89528886
_cell_length_b   14.72055970
_cell_length_c   5.18207980
_cell_angle_alpha   90.26674490
_cell_angle_beta   90.45176806
_cell_angle_gamma   79.85332327
_symmetry_Int_Tables_number   1
_chemical_formula_structural   Li7Mn2(CoO4)3
_chemical_formula_sum   'Li7 Mn2 Co3 O12'
_cell_volume   217.39941897
_cell_formula_units_Z   1
loop_
 _symmetry_equiv_pos_site_id
 _symmetry_equiv_pos_as_xyz
  1  'x, y, z'
loop_
 _atom_site_type_symbol
 _atom_site_label
 _atom_site_symmetry_multiplicity
 _atom_site_fract_x
 _atom_site_fract_y
 _atom_site_fract_z
 _atom_site_occupancy
  Li  Li0  1  0.81686249  0.17256937  0.33261793  1
  Li  Li1  1  0.19201372  0.32337028  0.16696175  1
  Li  Li2  1  0.51736836  0.49584361  0.99826567  1
  Li  Li3  1  0.82402198  0.67126113  0.84113300  1
  Li  Li4  1  0.15655206  0.83415864  0.66271009  1
  Li  Li5  1  0.48059143  0.00726717  0.50352743  1
  Li  Li6  1  0.33685521  0.16433999  0.82475378  1
  Mn  Mn7  1  0.98339844  0.00447228  0.98654197  1
  Mn  Mn8  1  0.01490364  0.49882550  0.50232917  1
  Co  Co9  1  0.68536945  0.32048586  0.68908005  1
  Co  Co10  1  0.34222931  0.66855510  0.33581716  1
  Co  Co11  1  0.65427702  0.83457488  0.16865752  1
  O  O12  1  0.42380664  0.07213502  0.14666975  1
  O  O13  1  0.74717556  0.25815061  0.98373363  1
  O  O14  1  0.09072594  0.41958844  0.79359585  1
  O  O15  1  0.44607029  0.57486488  0.64971918  1
  O  O16  1  0.74114646  0.74787921  0.48997233  1
  O  O17  1  0.05307253  0.91365080  0.30304892  1
  O  O18  1  0.24284760  0.25726698  0.50271617  1
  O  O19  1  0.57667975  0.42845626  0.35319235  1
  O  O20  1  0.94356004  0.58278370  0.19922141  1
  O  O21  1  0.25558595  0.75245457  0.01734583  1
  O  O22  1  0.55507140  0.92296584  0.85410455  1
  O  O23  1  0.91981473  0.07407988  0.69428452  1
