# generated using pymatgen
data_Li4MnCo2O7
_symmetry_space_group_name_H-M   'P 1'
_cell_length_a   5.18626858
_cell_length_b   10.24426860
_cell_length_c   5.20662018
_cell_angle_alpha   104.72166177
_cell_angle_beta   67.66908808
_cell_angle_gamma   95.54086134
_symmetry_Int_Tables_number   1
_chemical_formula_structural   Li4MnCo2O7
_chemical_formula_sum   'Li8 Mn2 Co4 O14'
_cell_volume   247.47963922
_cell_formula_units_Z   2
loop_
 _symmetry_equiv_pos_site_id
 _symmetry_equiv_pos_as_xyz
  1  'x, y, z'
loop_
 _atom_site_type_symbol
 _atom_site_label
 _atom_site_symmetry_multiplicity
 _atom_site_fract_x
 _atom_site_fract_y
 _atom_site_fract_z
 _atom_site_occupancy
  Li  Li0  1  0.50000000  0.14273201  0.07136650  1
  Li  Li1  1  0.50000000  0.28436836  0.64218418  1
  Li  Li2  1  0.50000000  0.42682919  0.21341510  1
  Li  Li3  1  0.50000000  0.57521968  0.78760934  1
  Li  Li4  1  0.50000000  0.71697120  0.35848560  1
  Li  Li5  1  0.50000000  0.85492721  0.92746311  1
  Li  Li6  1  0.50000000  0.99760771  0.49880386  1
  Li  Li7  1  0.00000000  0.85578862  0.42789381  1
  Mn  Mn8  1  1.00000000  0.99964217  0.99982108  1
  Mn  Mn9  1  0.00000000  0.42960493  0.71480297  1
  Co  Co10  1  1.00000000  0.14151077  0.57075589  1
  Co  Co11  1  0.00000000  0.28546045  0.14273022  1
  Co  Co12  1  0.00000000  0.57508516  0.28754208  1
  Co  Co13  1  0.00000000  0.71394703  0.85697352  1
  O  O14  1  0.23274981  0.14178152  0.84224037  1
  O  O15  1  0.22821074  0.28527570  0.41277399  1
  O  O16  1  0.22788303  0.42756097  0.99352619  1
  O  O17  1  0.23346705  0.57742635  0.56559593  1
  O  O18  1  0.20924824  0.70554480  0.09832599  1
  O  O19  1  0.23331132  0.85523626  0.71075314  1
  O  O20  1  0.21138152  0.00732714  0.24753252  1
  O  O21  1  0.76725019  0.14178152  0.29954215  1
  O  O22  1  0.77178926  0.28527570  0.87250171  1
  O  O23  1  0.77211697  0.42756097  0.43403579  1
  O  O24  1  0.76653295  0.57742635  0.01182942  1
  O  O25  1  0.79075176  0.70554480  0.60721881  1
  O  O26  1  0.76668868  0.85523626  0.14448212  1
  O  O27  1  0.78861848  0.00732714  0.75979462  1
