# generated using pymatgen
data_NiH36C12S6(I2O3)2
_symmetry_space_group_name_H-M   'P 1'
_cell_length_a   9.71779762
_cell_length_b   9.71776286
_cell_length_c   9.71770029
_cell_angle_alpha   76.77767028
_cell_angle_beta   76.77432862
_cell_angle_gamma   76.77423181
_symmetry_Int_Tables_number   1
_chemical_formula_structural   NiH36C12S6(I2O3)2
_chemical_formula_sum   'Ni1 H36 C12 S6 I4 O6'
_cell_volume   854.46081725
_cell_formula_units_Z   1
loop_
 _symmetry_equiv_pos_site_id
 _symmetry_equiv_pos_as_xyz
  1  'x, y, z'
loop_
 _atom_site_type_symbol
 _atom_site_label
 _atom_site_symmetry_multiplicity
 _atom_site_fract_x
 _atom_site_fract_y
 _atom_site_fract_z
 _atom_site_occupancy
  Ni  Ni0  1  0.99998471  0.00000164  0.99999524  1
  H  H1  1  0.19720640  0.95572967  0.40607787  1
  H  H2  1  0.10925389  0.82876230  0.54336391  1
  H  H3  1  0.29949251  0.93783751  0.67240670  1
  H  H4  1  0.11764019  0.61572234  0.33975237  1
  H  H5  1  0.04427312  0.59391857  0.80279174  1
  H  H6  1  0.25319025  0.76418598  0.40657958  1
  H  H7  1  0.47937673  0.96414257  0.66040047  1
  H  H8  1  0.45664174  0.89074301  0.17124446  1
  H  H9  1  0.32759583  0.70050971  0.06216276  1
  H  H10  1  0.23581933  0.59341785  0.74680725  1
  H  H11  1  0.03585579  0.33960606  0.52063553  1
  H  H12  1  0.17124177  0.45663091  0.89074457  1
  H  H13  1  0.38427861  0.66024030  0.88236487  1
  H  H14  1  0.06216575  0.32759508  0.70051849  1
  H  H15  1  0.66023967  0.88237482  0.38426487  1
  H  H16  1  0.59392105  0.80279910  0.04429349  1
  H  H17  1  0.33960772  0.52062159  0.03585718  1
  H  H18  1  0.59342604  0.74680564  0.23582914  1
  H  H19  1  0.40657284  0.25319415  0.76417220  1
  H  H20  1  0.66038891  0.47938210  0.96414183  1
  H  H21  1  0.40607875  0.19720205  0.95570782  1
  H  H22  1  0.33975982  0.11762439  0.61573717  1
  H  H23  1  0.93783501  0.67240333  0.29948375  1
  H  H24  1  0.61572168  0.33976031  0.11763408  1
  H  H25  1  0.82875947  0.54336680  0.10925571  1
  H  H26  1  0.96414569  0.66039308  0.47936497  1
  H  H27  1  0.76418068  0.40658136  0.25319364  1
  H  H28  1  0.67240419  0.29949285  0.93783639  1
  H  H29  1  0.54334993  0.10925294  0.82875666  1
  H  H30  1  0.52062136  0.03585847  0.33960589  1
  H  H31  1  0.74681245  0.23581396  0.59341928  1
  H  H32  1  0.95572774  0.40607966  0.19720876  1
  H  H33  1  0.88236179  0.38427798  0.66024741  1
  H  H34  1  0.70050730  0.06216179  0.32759213  1
  H  H35  1  0.89074693  0.17123803  0.45663164  1
  H  H36  1  0.80279553  0.04427027  0.59392024  1
  C  C37  1  0.16260158  0.85150483  0.43040878  1
  C  C38  1  0.01155693  0.68337590  0.36470391  1
  C  C39  1  0.14850840  0.56957911  0.83738925  1
  C  C40  1  0.63526491  0.98843202  0.31660420  1
  C  C41  1  0.31662979  0.63527157  0.98844510  1
  C  C42  1  0.56960746  0.83739573  0.14852438  1
  C  C43  1  0.43038480  0.16260385  0.85147774  1
  C  C44  1  0.68336807  0.36473197  0.01155336  1
  C  C45  1  0.36473111  0.01156917  0.68339886  1
  C  C46  1  0.85149067  0.43042059  0.16261108  1
  C  C47  1  0.98843899  0.31662556  0.63529844  1
  C  C48  1  0.83740076  0.14849686  0.56958505  1
  S  S49  1  0.03120656  0.86820104  0.32133453  1
  S  S50  1  0.13179524  0.67867361  0.96877824  1
  S  S51  1  0.67867457  0.96878781  0.13179384  1
  S  S52  1  0.32131296  0.03121317  0.86820989  1
  S  S53  1  0.86820134  0.32132492  0.03122319  1
  S  S54  1  0.96878816  0.13180025  0.67866592  1
  I  I55  1  0.57240954  0.57240670  0.57241521  1
  I  I56  1  0.42759473  0.42759228  0.42758395  1
  I  I57  1  0.26254816  0.26254556  0.26252161  1
  I  I58  1  0.73745770  0.73745462  0.73748281  1
  O  O59  1  0.11355821  0.89235159  0.16598153  1
  O  O60  1  0.10765351  0.83401743  0.88642015  1
  O  O61  1  0.83402038  0.88642940  0.10765089  1
  O  O62  1  0.16596234  0.11356528  0.89234653  1
  O  O63  1  0.89233058  0.16597987  0.11357996  1
  O  O64  1  0.88641938  0.10765617  0.83401156  1
