# generated using pymatgen
data_Li6Mn3CoO10
_symmetry_space_group_name_H-M   'P 1'
_cell_length_a   2.99753096
_cell_length_b   9.91589108
_cell_length_c   6.46047613
_cell_angle_alpha   100.76669876
_cell_angle_beta   76.71025688
_cell_angle_gamma   93.87026470
_symmetry_Int_Tables_number   1
_chemical_formula_structural   Li6Mn3CoO10
_chemical_formula_sum   'Li6 Mn3 Co1 O10'
_cell_volume   183.53306031
_cell_formula_units_Z   1
loop_
 _symmetry_equiv_pos_site_id
 _symmetry_equiv_pos_as_xyz
  1  'x, y, z'
loop_
 _atom_site_type_symbol
 _atom_site_label
 _atom_site_symmetry_multiplicity
 _atom_site_fract_x
 _atom_site_fract_y
 _atom_site_fract_z
 _atom_site_occupancy
  Li  Li0  1  0.88647640  0.30747220  0.20536410  1
  Li  Li1  1  0.10616427  0.69905797  0.80221465  1
  Li  Li2  1  0.48545115  0.50164888  0.01267658  1
  Li  Li3  1  0.70796789  0.89740370  0.58295958  1
  Li  Li4  1  0.31557761  0.08827919  0.39358048  1
  Li  Li5  1  0.38170531  0.80684770  0.21183936  1
  Mn  Mn6  1  0.00288341  0.99253418  0.00660312  1
  Mn  Mn7  1  0.19756781  0.40409781  0.59904555  1
  Mn  Mn8  1  0.61546588  0.19634590  0.79434556  1
  Co  Co9  1  0.79074386  0.61095202  0.39197151  1
  O  O10  1  0.49060947  0.13199669  0.07663851  1
  O  O11  1  0.63565640  0.55029569  0.67704315  1
  O  O12  1  0.03020853  0.34585624  0.88515243  1
  O  O13  1  0.22563750  0.73674327  0.49495201  1
  O  O14  1  0.85369969  0.95529902  0.28139789  1
  O  O15  1  0.36034726  0.45447021  0.31593740  1
  O  O16  1  0.52171214  0.86940019  0.91384216  1
  O  O17  1  0.94151702  0.64101743  0.12655353  1
  O  O18  1  0.18012899  0.05328730  0.71560339  1
  O  O19  1  0.77047940  0.25699441  0.51227904  1
