# generated using pymatgen
data_Li6Mn3CoO10
_symmetry_space_group_name_H-M   'P 1'
_cell_length_a   2.99748601
_cell_length_b   12.12560291
_cell_length_c   5.08061567
_cell_angle_alpha   83.73184778
_cell_angle_beta   91.71836933
_cell_angle_gamma   86.85045151
_symmetry_Int_Tables_number   1
_chemical_formula_structural   Li6Mn3CoO10
_chemical_formula_sum   'Li6 Mn3 Co1 O10'
_cell_volume   183.16000097
_cell_formula_units_Z   1
loop_
 _symmetry_equiv_pos_site_id
 _symmetry_equiv_pos_as_xyz
  1  'x, y, z'
loop_
 _atom_site_type_symbol
 _atom_site_label
 _atom_site_symmetry_multiplicity
 _atom_site_fract_x
 _atom_site_fract_y
 _atom_site_fract_z
 _atom_site_occupancy
  Li  Li0  1  0.90386010  0.19787909  0.29488862  1
  Li  Li1  1  0.29295061  0.40618250  0.10468242  1
  Li  Li2  1  0.69020661  0.60146824  0.91587825  1
  Li  Li3  1  0.10557720  0.79917189  0.69692553  1
  Li  Li4  1  0.50491994  0.99796850  0.49840969  1
  Li  Li5  1  0.20845835  0.59811012  0.38632583  1
  Mn  Mn6  1  0.00543961  0.99640461  0.00503856  1
  Mn  Mn7  1  0.79236852  0.40798239  0.59113610  1
  Mn  Mn8  1  0.39141987  0.20141713  0.80329997  1
  Co  Co9  1  0.61410998  0.78979346  0.20735366  1
  O  O10  1  0.42056588  0.10126527  0.13790847  1
  O  O11  1  0.81489476  0.29999429  0.92719676  1
  O  O12  1  0.27814994  0.48855637  0.72722854  1
  O  O13  1  0.64068482  0.71183431  0.51466787  1
  O  O14  1  0.02651531  0.89835727  0.33283992  1
  O  O15  1  0.32067737  0.30942580  0.47788296  1
  O  O16  1  0.76126685  0.49248549  0.26936013  1
  O  O17  1  0.17235890  0.70786119  0.05608373  1
  O  O18  1  0.57793333  0.89555731  0.88376285  1
  O  O19  1  0.97764206  0.09828476  0.66913014  1
