# generated using pymatgen
data_Li9Co7O16
_symmetry_space_group_name_H-M   'P 1'
_cell_length_a   5.82035864
_cell_length_b   5.88608786
_cell_length_c   9.69806106
_cell_angle_alpha   98.70275549
_cell_angle_beta   90.00000065
_cell_angle_gamma   60.36870842
_symmetry_Int_Tables_number   1
_chemical_formula_structural   Li9Co7O16
_chemical_formula_sum   'Li9 Co7 O16'
_cell_volume   284.38850217
_cell_formula_units_Z   1
loop_
 _symmetry_equiv_pos_site_id
 _symmetry_equiv_pos_as_xyz
  1  'x, y, z'
loop_
 _atom_site_type_symbol
 _atom_site_label
 _atom_site_symmetry_multiplicity
 _atom_site_fract_x
 _atom_site_fract_y
 _atom_site_fract_z
 _atom_site_occupancy
  Li  Li0  1  0.50000000  0.50000000  0.00000000  1
  Li  Li1  1  -0.00000000  0.50000000  0.00000000  1
  Li  Li2  1  0.12385880  0.75228240  0.24912176  1
  Li  Li3  1  0.62289474  0.75421051  0.24722243  1
  Li  Li4  1  0.74987369  1.00000000  0.50000000  1
  Li  Li5  1  0.25012631  0.00000000  0.50000000  1
  Li  Li6  1  0.37710526  0.24578949  0.75277757  1
  Li  Li7  1  0.87614120  0.24771760  0.75087824  1
  Li  Li8  1  0.50000000  0.00000000  0.00000000  1
  Co  Co9  1  -0.00000000  0.00000000  0.00000000  1
  Co  Co10  1  0.62266595  0.24507727  0.24354952  1
  Co  Co11  1  0.13225678  0.24507727  0.24354952  1
  Co  Co12  1  0.25120137  0.49759725  0.49987382  1
  Co  Co13  1  0.74879863  0.50240275  0.50012618  1
  Co  Co14  1  0.86774322  0.75492273  0.75645048  1
  Co  Co15  1  0.37733405  0.75492273  0.75645048  1
  O  O16  1  0.72196013  0.10025369  0.88082172  1
  O  O17  1  0.17778618  0.10025369  0.88082172  1
  O  O18  1  0.31521305  0.36957389  0.13835155  1
  O  O19  1  0.82646489  0.34707023  0.11838138  1
  O  O20  1  0.94488973  0.60876685  0.37872194  1
  O  O21  1  0.44634342  0.60876685  0.37872194  1
  O  O22  1  0.56897413  0.86205174  0.62730437  1
  O  O23  1  0.07264382  0.85471236  0.63064807  1
  O  O24  1  0.27803987  0.89974631  0.11917828  1
  O  O25  1  0.82221382  0.89974631  0.11917828  1
  O  O26  1  0.92735618  0.14528764  0.36935193  1
  O  O27  1  0.43102587  0.13794826  0.37269563  1
  O  O28  1  0.55365658  0.39123315  0.62127806  1
  O  O29  1  0.05511027  0.39123315  0.62127806  1
  O  O30  1  0.17353511  0.65292977  0.88161862  1
  O  O31  1  0.68478695  0.63042611  0.86164845  1
