# generated using pymatgen
data_Li9Mn2Co5O16
_symmetry_space_group_name_H-M   'P 1'
_cell_length_a   5.08252912
_cell_length_b   5.77616280
_cell_length_c   9.79921011
_cell_angle_alpha   98.11415003
_cell_angle_beta   84.20542176
_cell_angle_gamma   90.07755471
_symmetry_Int_Tables_number   1
_chemical_formula_structural   Li9Mn2Co5O16
_chemical_formula_sum   'Li9 Mn2 Co5 O16'
_cell_volume   283.32090005
_cell_formula_units_Z   1
loop_
 _symmetry_equiv_pos_site_id
 _symmetry_equiv_pos_as_xyz
  1  'x, y, z'
loop_
 _atom_site_type_symbol
 _atom_site_label
 _atom_site_symmetry_multiplicity
 _atom_site_fract_x
 _atom_site_fract_y
 _atom_site_fract_z
 _atom_site_occupancy
  Li  Li0  1  0.13473442  0.81756648  0.26244475  1
  Li  Li1  1  0.37525773  0.93779176  0.73644666  1
  Li  Li2  1  0.61217865  0.06349716  0.26330921  1
  Li  Li3  1  0.62658328  0.56693517  0.25818260  1
  Li  Li4  1  0.87341672  0.68306483  0.74181740  1
  Li  Li5  1  0.12474227  0.31220824  0.26355334  1
  Li  Li6  1  0.36526558  0.43243352  0.73755525  1
  Li  Li7  1  0.88782135  0.18650284  0.73669079  1
  Li  Li8  1  0.25000000  0.12500000  0.50000000  1
  Mn  Mn9  1  -0.00015518  0.99553494  0.00108049  1
  Mn  Mn10  1  0.50015518  0.25446506  0.99891951  1
  Co  Co11  1  0.74538075  0.36834524  0.50174249  1
  Co  Co12  1  -0.00011588  0.49969147  0.99982926  1
  Co  Co13  1  0.25000000  0.62500000  0.50000000  1
  Co  Co14  1  0.50011588  0.75030853  0.00017074  1
  Co  Co15  1  0.75461925  0.88165476  0.49825751  1
  O  O16  1  0.80981019  0.77040167  0.10560892  1
  O  O17  1  0.06282929  0.88236011  0.61225617  1
  O  O18  1  0.32989720  0.02646674  0.11218775  1
  O  O19  1  0.31124473  0.52743150  0.10466953  1
  O  O20  1  0.54510704  0.65930758  0.61236153  1
  O  O21  1  0.82899863  0.27770445  0.11028412  1
  O  O22  1  0.06429791  0.42327198  0.61109092  1
  O  O23  1  0.58195921  0.16520504  0.62262875  1
  O  O24  1  0.43570209  0.82672802  0.38890908  1
  O  O25  1  0.67100137  0.97229555  0.88971588  1
  O  O26  1  0.91804079  0.08479496  0.37737125  1
  O  O27  1  0.95489296  0.59069242  0.38763847  1
  O  O28  1  0.18875527  0.72256850  0.89533047  1
  O  O29  1  0.43717071  0.36763989  0.38774383  1
  O  O30  1  0.69018981  0.47959833  0.89439108  1
  O  O31  1  0.17010280  0.22353326  0.88781225  1
