# generated using pymatgen
data_Li9Co7O16
_symmetry_space_group_name_H-M   'P 1'
_cell_length_a   2.92964575
_cell_length_b   9.85682163
_cell_length_c   10.29988433
_cell_angle_alpha   73.20746043
_cell_angle_beta   81.82382887
_cell_angle_gamma   89.99999922
_symmetry_Int_Tables_number   1
_chemical_formula_structural   Li9Co7O16
_chemical_formula_sum   'Li9 Co7 O16'
_cell_volume   281.58708120
_cell_formula_units_Z   1
loop_
 _symmetry_equiv_pos_site_id
 _symmetry_equiv_pos_as_xyz
  1  'x, y, z'
loop_
 _atom_site_type_symbol
 _atom_site_label
 _atom_site_symmetry_multiplicity
 _atom_site_fract_x
 _atom_site_fract_y
 _atom_site_fract_z
 _atom_site_occupancy
  Li  Li0  1  0.43690730  0.18268244  0.12618539  1
  Li  Li1  1  0.31309270  0.56731756  0.37381461  1
  Li  Li2  1  0.18759731  0.93334081  0.62480537  1
  Li  Li3  1  0.81618698  0.05537596  0.36762604  1
  Li  Li4  1  0.68714190  0.43540891  0.62571620  1
  Li  Li5  1  0.56240269  0.81665919  0.87519463  1
  Li  Li6  1  0.06285810  0.31459109  0.87428380  1
  Li  Li7  1  0.93381302  0.69462404  0.13237396  1
  Li  Li8  1  0.37500000  0.87500000  0.25000000  1
  Co  Co9  1  0.99645109  0.99922028  0.00709783  1
  Co  Co10  1  0.75354891  0.75077972  0.49290217  1
  Co  Co11  1  0.87500000  0.37500000  0.25000000  1
  Co  Co12  1  0.62591745  0.12040090  0.74816511  1
  Co  Co13  1  0.49927736  0.50022389  0.00144528  1
  Co  Co14  1  0.25072264  0.24977611  0.49855472  1
  Co  Co15  1  0.12408255  0.62959910  0.75183489  1
  O  O16  1  0.53106392  0.13634157  0.93787217  1
  O  O17  1  0.40864674  0.52635857  0.18270651  1
  O  O18  1  0.27679450  0.88271306  0.44641101  1
  O  O19  1  0.91419167  0.03197158  0.17161667  1
  O  O20  1  0.78504816  0.39728936  0.42990369  1
  O  O21  1  0.65970832  0.77332564  0.68058336  1
  O  O22  1  0.15906151  0.27662408  0.68187698  1
  O  O23  1  0.03409513  0.65308981  0.93180973  1
  O  O24  1  0.34135326  0.22364143  0.31729349  1
  O  O25  1  0.21893608  0.61365843  0.56212783  1
  O  O26  1  0.09029168  0.97667436  0.81941664  1
  O  O27  1  0.71590487  0.09691019  0.56819027  1
  O  O28  1  0.59093849  0.47337592  0.81812302  1
  O  O29  1  0.47320550  0.86728694  0.05358899  1
  O  O30  1  0.96495184  0.35271064  0.07009631  1
  O  O31  1  0.83580833  0.71802842  0.32838333  1
