# generated using pymatgen
data_Li9Mn2Co5O16
_symmetry_space_group_name_H-M   'P 1'
_cell_length_a   2.91127406
_cell_length_b   15.57132138
_cell_length_c   6.62788050
_cell_angle_alpha   90.40779605
_cell_angle_beta   77.13999584
_cell_angle_gamma   81.41080529
_symmetry_Int_Tables_number   1
_chemical_formula_structural   Li9Mn2Co5O16
_chemical_formula_sum   'Li9 Mn2 Co5 O16'
_cell_volume   289.38200595
_cell_formula_units_Z   1
loop_
 _symmetry_equiv_pos_site_id
 _symmetry_equiv_pos_as_xyz
  1  'x, y, z'
loop_
 _atom_site_type_symbol
 _atom_site_label
 _atom_site_symmetry_multiplicity
 _atom_site_fract_x
 _atom_site_fract_y
 _atom_site_fract_z
 _atom_site_occupancy
  Li  Li0  1  0.74422011  0.18908593  0.12731325  1
  Li  Li1  1  0.74972055  0.43781292  0.62460034  1
  Li  Li2  1  0.73251756  0.69273861  0.12888420  1
  Li  Li3  1  0.25027945  0.31218708  0.87539966  1
  Li  Li4  1  0.25577989  0.56091407  0.37268675  1
  Li  Li5  1  0.24899189  0.81142480  0.89118505  1
  Li  Li6  1  0.75100811  0.93857520  0.60881495  1
  Li  Li7  1  0.26748244  0.05726139  0.37111580  1
  Li  Li8  1  0.50000000  0.87500000  0.25000000  1
  Mn  Mn9  1  0.00333416  0.99664939  0.01249553  1
  Mn  Mn10  1  0.99666584  0.75335061  0.48750447  1
  Co  Co11  1  0.00141168  0.25010207  0.50022403  1
  Co  Co12  1  0.99858832  0.49989793  -0.00022403  1
  Co  Co13  1  0.50000000  0.37500000  0.25000000  1
  Co  Co14  1  0.48826909  0.62584237  0.75193393  1
  Co  Co15  1  0.51173091  0.12415763  0.74806607  1
  O  O16  1  0.41043017  0.08411902  0.05032780  1
  O  O17  1  0.36658394  0.33904344  0.55342811  1
  O  O18  1  0.36914370  0.58710111  0.05312090  1
  O  O19  1  0.87624446  0.21257579  0.80523574  1
  O  O20  1  0.87310577  0.46370501  0.30462038  1
  O  O21  1  0.86265524  0.71443424  0.79528396  1
  O  O22  1  0.39475961  0.83242240  0.55835926  1
  O  O23  1  0.88274468  0.97309868  0.28783664  1
  O  O24  1  0.12689423  0.28629499  0.19537962  1
  O  O25  1  0.12375554  0.53742521  0.69476426  1
  O  O26  1  0.11725532  0.77690132  0.21216336  1
  O  O27  1  0.63341606  0.41095656  0.94657189  1
  O  O28  1  0.58956983  0.66588198  0.44967220  1
  O  O29  1  0.60524039  0.91757760  0.94164074  1
  O  O30  1  0.13734476  0.03556576  0.70471604  1
  O  O31  1  0.63085630  0.16289989  0.44687910  1
