# generated using pymatgen
data_Li9Co7O16
_symmetry_space_group_name_H-M   'P 1'
_cell_length_a   2.99874232
_cell_length_b   5.97340054
_cell_length_c   16.03808590
_cell_angle_alpha   88.94703482
_cell_angle_beta   90.08380145
_cell_angle_gamma   91.25836281
_symmetry_Int_Tables_number   1
_chemical_formula_structural   Li9Co7O16
_chemical_formula_sum   'Li9 Co7 O16'
_cell_volume   287.16729933
_cell_formula_units_Z   1
loop_
 _symmetry_equiv_pos_site_id
 _symmetry_equiv_pos_as_xyz
  1  'x, y, z'
loop_
 _atom_site_type_symbol
 _atom_site_label
 _atom_site_symmetry_multiplicity
 _atom_site_fract_x
 _atom_site_fract_y
 _atom_site_fract_z
 _atom_site_occupancy
  Li  Li0  1  0.00091094  0.50584823  0.00235082  1
  Li  Li1  1  0.50000000  0.25000000  0.12500000  1
  Li  Li2  1  0.99908906  0.99415177  0.24764918  1
  Li  Li3  1  0.50310704  0.75036207  0.87555583  1
  Li  Li4  1  0.99949728  -0.00009654  0.74977955  1
  Li  Li5  1  0.50000000  0.25000000  0.62500000  1
  Li  Li6  1  0.00050272  0.50009654  0.50022045  1
  Li  Li7  1  0.49689296  0.74963793  0.37444417  1
  Li  Li8  1  0.50000000  0.75000000  0.12500000  1
  Co  Co9  1  0.99842939  0.98926580  0.00427914  1
  Co  Co10  1  0.00157061  0.51073420  0.24572086  1
  Co  Co11  1  0.50329540  0.25148345  0.37363297  1
  Co  Co12  1  0.99903994  0.00097231  0.49969398  1
  Co  Co13  1  0.50000000  0.75000000  0.62500000  1
  Co  Co14  1  0.00096006  0.49902769  0.75030602  1
  Co  Co15  1  0.49670460  0.24851655  0.87636703  1
  O  O16  1  0.46034086  0.23815753  0.99555705  1
  O  O17  1  0.99928344  0.00278756  0.11269583  1
  O  O18  1  0.46536116  0.73039192  0.25031379  1
  O  O19  1  0.00136721  0.48989670  0.87019628  1
  O  O20  1  0.50679143  0.74131100  0.74569940  1
  O  O21  1  0.00599553  0.99064384  0.62045602  1
  O  O22  1  0.50646918  0.24291404  0.49478145  1
  O  O23  1  0.00874038  0.48806990  0.36570886  1
  O  O24  1  0.53463884  0.76960808  -0.00031379  1
  O  O25  1  0.00071656  0.49721244  0.13730517  1
  O  O26  1  0.53965914  0.26184247  0.25444395  1
  O  O27  1  0.99125962  0.01193010  0.88429014  1
  O  O28  1  0.49353082  0.25708596  0.75521755  1
  O  O29  1  0.99400447  0.50935616  0.62954398  1
  O  O30  1  0.49320857  0.75868900  0.50429960  1
  O  O31  1  0.99863279  0.01010330  0.37980372  1
