# generated using pymatgen
data_Li9Mn2Co5O16
_symmetry_space_group_name_H-M   'P 1'
_cell_length_a   4.97334485
_cell_length_b   5.87696498
_cell_length_c   10.14895974
_cell_angle_alpha   105.09794682
_cell_angle_beta   80.22564194
_cell_angle_gamma   88.67547137
_symmetry_Int_Tables_number   1
_chemical_formula_structural   Li9Mn2Co5O16
_chemical_formula_sum   'Li9 Mn2 Co5 O16'
_cell_volume   281.53128382
_cell_formula_units_Z   1
loop_
 _symmetry_equiv_pos_site_id
 _symmetry_equiv_pos_as_xyz
  1  'x, y, z'
loop_
 _atom_site_type_symbol
 _atom_site_label
 _atom_site_symmetry_multiplicity
 _atom_site_fract_x
 _atom_site_fract_y
 _atom_site_fract_z
 _atom_site_occupancy
  Li  Li0  1  0.25357232  0.12595799  0.25795729  1
  Li  Li1  1  0.25717854  0.61134230  0.73467071  1
  Li  Li2  1  0.74019202  0.37718366  0.26607666  1
  Li  Li3  1  0.75065903  0.86892795  0.74220653  1
  Li  Li4  1  0.24934097  0.63107205  0.25779347  1
  Li  Li5  1  0.25980798  0.12281634  0.73392334  1
  Li  Li6  1  0.74282146  0.88865770  0.26532929  1
  Li  Li7  1  0.74642768  0.37404201  0.74204271  1
  Li  Li8  1  0.50000000  0.25000000  0.50000000  1
  Mn  Mn9  1  0.00022608  -0.00035750  0.00045449  1
  Mn  Mn10  1  0.99977392  0.50035750  0.99954551  1
  Co  Co11  1  0.99704029  0.49414662  0.50050807  1
  Co  Co12  1  0.50000000  0.25000000  -0.00000000  1
  Co  Co13  1  0.50000000  0.75000000  0.50000000  1
  Co  Co14  1  0.00295971  0.00585338  0.49949193  1
  Co  Co15  1  0.50000000  0.75000000  -0.00000000  1
  O  O16  1  0.13652605  0.81574311  0.11250777  1
  O  O17  1  0.10724773  0.31611515  0.61950201  1
  O  O18  1  0.62152682  0.04598446  0.10892685  1
  O  O19  1  0.64116887  0.57018227  0.61289522  1
  O  O20  1  0.13677475  0.31775034  0.11291762  1
  O  O21  1  0.14233936  0.81759505  0.61530492  1
  O  O22  1  0.62293673  0.54418731  0.10672272  1
  O  O23  1  0.64152090  0.03222688  0.60590714  1
  O  O24  1  0.35847910  0.46777312  0.39409286  1
  O  O25  1  0.37706327  0.95581269  0.89327728  1
  O  O26  1  0.85766064  0.68240495  0.38469508  1
  O  O27  1  0.86322525  0.18224966  0.88708238  1
  O  O28  1  0.35883113  0.92981773  0.38710478  1
  O  O29  1  0.37847318  0.45401554  0.89107315  1
  O  O30  1  0.89275227  0.18388485  0.38049799  1
  O  O31  1  0.86347395  0.68425689  0.88749223  1
