# generated using pymatgen
data_Li3FeCo3O8
_symmetry_space_group_name_H-M   'P 1'
_cell_length_a   5.97286884
_cell_length_b   5.89696245
_cell_length_c   5.89696296
_cell_angle_alpha   59.99999650
_cell_angle_beta   60.41950213
_cell_angle_gamma   89.99999173
_symmetry_Int_Tables_number   1
_chemical_formula_structural   Li3FeCo3O8
_chemical_formula_sum   'Li3 Fe1 Co3 O8'
_cell_volume   147.79155052
_cell_formula_units_Z   1
loop_
 _symmetry_equiv_pos_site_id
 _symmetry_equiv_pos_as_xyz
  1  'x, y, z'
loop_
 _atom_site_type_symbol
 _atom_site_label
 _atom_site_symmetry_multiplicity
 _atom_site_fract_x
 _atom_site_fract_y
 _atom_site_fract_z
 _atom_site_occupancy
  Li  Li0  1  0.50000000  0.00000000  0.00000000  1
  Li  Li1  1  0.50000000  0.00000000  0.50000000  1
  Li  Li2  1  0.50000000  0.50000000  0.50000000  1
  Fe  Fe3  1  0.00000000  0.00000000  0.00000000  1
  Co  Co4  1  0.00000000  0.00000000  0.50000000  1
  Co  Co5  1  0.00000000  0.50000000  0.00000000  1
  Co  Co6  1  0.00000000  0.50000000  0.50000000  1
  O  O7  1  0.21629506  0.23461169  0.01831664  1
  O  O8  1  0.21629506  0.23461169  0.53077762  1
  O  O9  1  0.21629506  0.74707267  0.01831664  1
  O  O10  1  0.23339582  0.74446527  0.51106945  1
  O  O11  1  0.76660418  0.25553473  0.48893055  1
  O  O12  1  0.78370494  0.25292733  0.98168336  1
  O  O13  1  0.78370494  0.76538831  0.46922238  1
  O  O14  1  0.78370494  0.76538831  0.98168336  1
