# generated using pymatgen
data_Li9Co7O16
_symmetry_space_group_name_H-M   'P 1'
_cell_length_a   3.00844634
_cell_length_b   8.02061010
_cell_length_c   12.29432643
_cell_angle_alpha   90.98234195
_cell_angle_beta   102.80525084
_cell_angle_gamma   90.12838996
_symmetry_Int_Tables_number   1
_chemical_formula_structural   Li9Co7O16
_chemical_formula_sum   'Li9 Co7 O16'
_cell_volume   289.23066611
_cell_formula_units_Z   1
loop_
 _symmetry_equiv_pos_site_id
 _symmetry_equiv_pos_as_xyz
  1  'x, y, z'
loop_
 _atom_site_type_symbol
 _atom_site_label
 _atom_site_symmetry_multiplicity
 _atom_site_fract_x
 _atom_site_fract_y
 _atom_site_fract_z
 _atom_site_occupancy
  Li  Li0  1  0.74859725  0.00031451  0.74902424  1
  Li  Li1  1  0.87680315  0.25204118  0.37587940  1
  Li  Li2  1  -0.00007376  0.49427089  0.00220004  1
  Li  Li3  1  0.12500000  0.75000000  0.62500000  1
  Li  Li4  1  0.25007376  0.00572911  0.24779996  1
  Li  Li5  1  0.37319685  0.24795882  0.87412060  1
  Li  Li6  1  0.50140275  0.49968549  0.50097576  1
  Li  Li7  1  0.62500000  0.75000000  0.12500000  1
  Li  Li8  1  0.62500000  0.25000000  0.12500000  1
  Co  Co9  1  0.00287135  0.00844564  0.00517399  1
  Co  Co10  1  0.24712865  0.49155436  0.24482601  1
  Co  Co11  1  0.12500000  0.25000000  0.62500000  1
  Co  Co12  1  0.37000279  0.75286213  0.87600850  1
  Co  Co13  1  0.50050135  0.99919116  0.49960721  1
  Co  Co14  1  0.74949865  0.50080884  0.75039279  1
  Co  Co15  1  0.87999721  0.74713787  0.37399150  1
  O  O16  1  0.34067596  0.99011836  0.88132243  1
  O  O17  1  0.51445220  0.24072049  0.50535988  1
  O  O18  1  0.59930757  0.50067841  0.13505066  1
  O  O19  1  0.75149762  0.74021239  0.75439057  1
  O  O20  1  0.88762041  0.99026495  0.37802268  1
  O  O21  1  0.99543956  0.22507421  0.99734717  1
  O  O22  1  0.13491399  0.49112503  0.62951199  1
  O  O23  1  0.26880482  0.73057631  0.25656954  1
  O  O24  1  0.11508701  0.00887497  0.62048901  1
  O  O25  1  0.25456144  0.27492579  0.25265383  1
  O  O26  1  0.36238059  0.50973505  0.87197732  1
  O  O27  1  0.49850338  0.75978761  0.49561043  1
  O  O28  1  0.65069243  -0.00067841  0.11494934  1
  O  O29  1  0.73554880  0.25927951  0.74464112  1
  O  O30  1  0.90932504  0.50988164  0.36867757  1
  O  O31  1  0.98119618  0.76942369  0.99343046  1
