# generated using pymatgen
data_Li9Mn2Co5O16
_symmetry_space_group_name_H-M   'P 1'
_cell_length_a   2.94292697
_cell_length_b   10.13380307
_cell_length_c   9.77686668
_cell_angle_alpha   101.94681413
_cell_angle_beta   88.45199258
_cell_angle_gamma   90.54823384
_symmetry_Int_Tables_number   1
_chemical_formula_structural   Li9Mn2Co5O16
_chemical_formula_sum   'Li9 Mn2 Co5 O16'
_cell_volume   285.15396127
_cell_formula_units_Z   1
loop_
 _symmetry_equiv_pos_site_id
 _symmetry_equiv_pos_as_xyz
  1  'x, y, z'
loop_
 _atom_site_type_symbol
 _atom_site_label
 _atom_site_symmetry_multiplicity
 _atom_site_fract_x
 _atom_site_fract_y
 _atom_site_fract_z
 _atom_site_occupancy
  Li  Li0  1  0.99411308  0.11537353  0.74316453  1
  Li  Li1  1  0.49734279  0.49922953  0.49967897  1
  Li  Li2  1  -0.00000000  0.87500000  0.25000000  1
  Li  Li3  1  0.50265721  0.25077047  0.00032103  1
  Li  Li4  1  0.50468254  -0.00014491  0.50882851  1
  Li  Li5  1  -0.00000000  0.37500000  0.25000000  1
  Li  Li6  1  0.49531746  0.75014491  0.99117149  1
  Li  Li7  1  0.00588692  0.63462647  0.75683547  1
  Li  Li8  1  0.50000000  0.87500000  0.75000000  1
  Mn  Mn9  1  0.99510271  0.99517093  0.99373627  1
  Mn  Mn10  1  0.00489729  0.75482907  0.50626373  1
  Co  Co11  1  0.50000000  0.37500000  0.75000000  1
  Co  Co12  1  0.49406340  0.12737125  0.24863798  1
  Co  Co13  1  -0.00138544  0.50058150  0.00085169  1
  Co  Co14  1  0.00138544  0.24941850  0.49914831  1
  Co  Co15  1  0.50593660  0.62262875  0.25136202  1
  O  O16  1  0.50612210  0.05500707  0.89227456  1
  O  O17  1  0.00135954  0.42906016  0.62425957  1
  O  O18  1  0.51793390  0.79719336  0.38186517  1
  O  O19  1  0.96008939  0.17610745  0.12775414  1
  O  O20  1  0.99591476  0.92543738  0.61141448  1
  O  O21  1  0.50621141  0.30078652  0.37460266  1
  O  O22  1  0.95854379  0.67798169  0.13051589  1
  O  O23  1  0.49965061  0.55389632  0.87338023  1
  O  O24  1  0.50034939  0.19610268  0.62661977  1
  O  O25  1  0.03991061  0.57389155  0.37224586  1
  O  O26  1  0.48206610  0.95280564  0.11813483  1
  O  O27  1  -0.00135954  0.32093984  0.87574043  1
  O  O28  1  0.04145621  0.07201731  0.36948411  1
  O  O29  1  0.49378859  0.44921248  0.12539734  1
  O  O30  1  0.00408524  0.82456262  0.88858552  1
  O  O31  1  0.49387790  0.69499293  0.60772544  1
