# generated using pymatgen
data_Li9Mn2Co5O16
_symmetry_space_group_name_H-M   'P 1'
_cell_length_a   2.95434980
_cell_length_b   10.32660538
_cell_length_c   9.86317470
_cell_angle_alpha   106.77271211
_cell_angle_beta   91.26117105
_cell_angle_gamma   82.34017342
_symmetry_Int_Tables_number   1
_chemical_formula_structural   Li9Mn2Co5O16
_chemical_formula_sum   'Li9 Mn2 Co5 O16'
_cell_volume   285.49438352
_cell_formula_units_Z   1
loop_
 _symmetry_equiv_pos_site_id
 _symmetry_equiv_pos_as_xyz
  1  'x, y, z'
loop_
 _atom_site_type_symbol
 _atom_site_label
 _atom_site_symmetry_multiplicity
 _atom_site_fract_x
 _atom_site_fract_y
 _atom_site_fract_z
 _atom_site_occupancy
  Li  Li0  1  0.92368050  0.13728284  0.31034635  1
  Li  Li1  1  0.42658426  0.13129088  0.82019834  1
  Li  Li2  1  0.32341574  0.36870912  0.42980166  1
  Li  Li3  1  0.82631950  0.36271716  0.93965365  1
  Li  Li4  1  0.68452522  0.62525066  0.56643663  1
  Li  Li5  1  0.18183667  0.62616940  0.06147070  1
  Li  Li6  1  0.06547478  0.87474934  0.68356337  1
  Li  Li7  1  0.56816333  0.87383060  0.18852930  1
  Li  Li8  1  0.37500000  0.25000000  0.12500000  1
  Mn  Mn9  1  0.98766501  0.00657432  0.00219741  1
  Mn  Mn10  1  0.76233499  0.49342568  0.24780259  1
  Co  Co11  1  0.49734871  0.99957835  0.49713684  1
  Co  Co12  1  0.87500000  0.25000000  0.62500000  1
  Co  Co13  1  0.25265129  0.50042165  0.75286316  1
  Co  Co14  1  0.13009922  0.75114432  0.37245660  1
  Co  Co15  1  0.61990078  0.74885568  0.87754340  1
  O  O16  1  0.47334476  0.05290664  0.13622001  1
  O  O17  1  0.96646289  0.06757811  0.64769857  1
  O  O18  1  0.83619838  0.32778391  0.28287074  1
  O  O19  1  0.34545830  0.31888389  0.77707721  1
  O  O20  1  0.23616072  0.56539257  0.38830876  1
  O  O21  1  0.72382027  0.56905985  0.89951150  1
  O  O22  1  0.55657268  0.81574025  0.52310568  1
  O  O23  1  0.05406107  0.81507765  0.01951576  1
  O  O24  1  0.40454170  0.18111611  0.47292179  1
  O  O25  1  0.91380062  0.17221609  0.96712926  1
  O  O26  1  0.78353811  0.43242189  0.60230143  1
  O  O27  1  0.27665524  0.44709336  0.11378099  1
  O  O28  1  0.19342732  0.68425975  0.72689432  1
  O  O29  1  0.69593893  0.68492235  0.23048424  1
  O  O30  1  0.51383928  0.93460743  0.86169124  1
  O  O31  1  0.02617973  0.93094015  0.35048850  1
