# generated using pymatgen
data_Li9Co7O16
_symmetry_space_group_name_H-M   'P 1'
_cell_length_a   2.94685135
_cell_length_b   7.79850713
_cell_length_c   12.57485481
_cell_angle_alpha   90.89355957
_cell_angle_beta   89.96357054
_cell_angle_gamma   79.28955896
_symmetry_Int_Tables_number   1
_chemical_formula_structural   Li9Co7O16
_chemical_formula_sum   'Li9 Co7 O16'
_cell_volume   283.91249694
_cell_formula_units_Z   1
loop_
 _symmetry_equiv_pos_site_id
 _symmetry_equiv_pos_as_xyz
  1  'x, y, z'
loop_
 _atom_site_type_symbol
 _atom_site_label
 _atom_site_symmetry_multiplicity
 _atom_site_fract_x
 _atom_site_fract_y
 _atom_site_fract_z
 _atom_site_occupancy
  Li  Li0  1  0.81257374  0.37438412  0.05481820  1
  Li  Li1  1  0.06261693  0.87523482  0.31330650  1
  Li  Li2  1  0.31163538  0.37664241  0.56430901  1
  Li  Li3  1  0.19483779  0.61390194  0.93326473  1
  Li  Li4  1  0.43836462  0.12335759  0.18569099  1
  Li  Li5  1  0.68738307  0.62476518  0.43669350  1
  Li  Li6  1  0.55516221  0.88609806  0.81673527  1
  Li  Li7  1  0.93742626  0.12561588  0.69518180  1
  Li  Li8  1  0.37500000  0.25000000  0.87500000  1
  Co  Co9  1  0.00493125  0.00631378  0.99604758  1
  Co  Co10  1  0.74506875  0.49368622  0.75395242  1
  Co  Co11  1  0.25020198  0.50049089  0.24691750  1
  Co  Co12  1  0.49979802  -0.00049089  0.50308250  1
  Co  Co13  1  0.62327293  0.75459571  0.12536437  1
  Co  Co14  1  0.87500000  0.25000000  0.37500000  1
  Co  Co15  1  0.12672707  0.74540429  0.62463563  1
  O  O16  1  0.41467495  0.16072188  0.02651281  1
  O  O17  1  0.65843247  0.68642544  0.27288252  1
  O  O18  1  0.91071130  0.18168577  0.52563911  1
  O  O19  1  0.77838082  0.44758248  0.89288106  1
  O  O20  1  0.03587779  0.93363650  0.14645396  1
  O  O21  1  0.28186692  0.43342138  0.39777142  1
  O  O22  1  0.15938975  0.66424105  0.77276411  1
  O  O23  1  0.53403876  0.93132321  0.65279576  1
  O  O24  1  0.21596224  0.56867679  0.09720424  1
  O  O25  1  0.46813308  0.06657862  0.35222758  1
  O  O26  1  0.71412221  0.56636350  0.60354504  1
  O  O27  1  0.59061025  0.83575895  0.97723589  1
  O  O28  1  0.83928870  0.31831423  0.22436089  1
  O  O29  1  0.09156753  0.81357456  0.47711748  1
  O  O30  1  0.97161818  0.05241752  0.85711894  1
  O  O31  1  0.33532505  0.33927812  0.72348719  1
