# generated using pymatgen
data_Li9Mn2Co5O16
_symmetry_space_group_name_H-M   'P 1'
_cell_length_a   5.72883220
_cell_length_b   9.77306922
_cell_length_c   5.84732824
_cell_angle_alpha   88.99971434
_cell_angle_beta   60.46050513
_cell_angle_gamma   98.53661628
_symmetry_Int_Tables_number   1
_chemical_formula_structural   Li9Mn2Co5O16
_chemical_formula_sum   'Li9 Mn2 Co5 O16'
_cell_volume   280.10438116
_cell_formula_units_Z   1
loop_
 _symmetry_equiv_pos_site_id
 _symmetry_equiv_pos_as_xyz
  1  'x, y, z'
loop_
 _atom_site_type_symbol
 _atom_site_label
 _atom_site_symmetry_multiplicity
 _atom_site_fract_x
 _atom_site_fract_y
 _atom_site_fract_z
 _atom_site_occupancy
  Li  Li0  1  0.75272968  0.25783036  0.12515872  1
  Li  Li1  1  0.73707279  0.73516357  0.38108497  1
  Li  Li2  1  0.74843224  0.26014649  0.62406230  1
  Li  Li3  1  0.25754425  0.26119166  0.62712437  1
  Li  Li4  1  0.25156776  0.73985351  0.87593770  1
  Li  Li5  1  0.26292721  0.26483643  0.11891503  1
  Li  Li6  1  0.74245575  0.73880834  0.87287563  1
  Li  Li7  1  0.24727032  0.74216964  0.37484128  1
  Li  Li8  1  0.50000000  0.50000000  0.75000000  1
  Mn  Mn9  1  -0.00002805  0.99968069  -0.00000490  1
  Mn  Mn10  1  0.00002805  0.00031931  0.50000490  1
  Co  Co11  1  -0.00000000  0.50000000  0.25000000  1
  Co  Co12  1  -0.00000000  0.50000000  0.75000000  1
  Co  Co13  1  0.49878384  0.99916523  0.50037452  1
  Co  Co14  1  0.50121616  0.00083477  -0.00037452  1
  Co  Co15  1  0.50000000  0.50000000  0.25000000  1
  O  O16  1  0.86496512  0.11241447  0.83160670  1
  O  O17  1  0.87868175  0.61850137  0.06886774  1
  O  O18  1  0.86019165  0.11031700  0.33258120  1
  O  O19  1  0.37773699  0.10789721  0.30638688  1
  O  O20  1  0.35499564  0.61385895  0.56503282  1
  O  O21  1  0.37769539  0.10867162  0.80513512  1
  O  O22  1  0.88592937  0.61161751  0.53753149  1
  O  O23  1  0.35764586  0.61163686  0.08598663  1
  O  O24  1  0.64235414  0.38836314  0.41401337  1
  O  O25  1  0.62230461  0.89132838  0.69486488  1
  O  O26  1  0.64500436  0.38614105  0.93496718  1
  O  O27  1  0.11407063  0.38838249  0.96246851  1
  O  O28  1  0.13980835  0.88968300  0.16741880  1
  O  O29  1  0.12131825  0.38149863  0.43113226  1
  O  O30  1  0.62226301  0.89210279  0.19361312  1
  O  O31  1  0.13503488  0.88758553  0.66839330  1
