# generated using pymatgen
data_Li9Mn2Co5O16
_symmetry_space_group_name_H-M   'P 1'
_cell_length_a   5.04884953
_cell_length_b   5.86581119
_cell_length_c   9.83968985
_cell_angle_alpha   98.67657694
_cell_angle_beta   84.86769968
_cell_angle_gamma   89.91807069
_symmetry_Int_Tables_number   1
_chemical_formula_structural   Li9Mn2Co5O16
_chemical_formula_sum   'Li9 Mn2 Co5 O16'
_cell_volume   286.88540687
_cell_formula_units_Z   1
loop_
 _symmetry_equiv_pos_site_id
 _symmetry_equiv_pos_as_xyz
  1  'x, y, z'
loop_
 _atom_site_type_symbol
 _atom_site_label
 _atom_site_symmetry_multiplicity
 _atom_site_fract_x
 _atom_site_fract_y
 _atom_site_fract_z
 _atom_site_occupancy
  Li  Li0  1  0.12575220  0.80230160  0.24225228  1
  Li  Li1  1  0.37719601  0.93600486  0.75514251  1
  Li  Li2  1  0.61970291  0.06225323  0.24368843  1
  Li  Li3  1  0.63795083  0.55882242  0.23823078  1
  Li  Li4  1  0.87529216  0.68109636  0.75745356  1
  Li  Li5  1  0.12044603  0.32179520  0.24239648  1
  Li  Li6  1  0.36332668  0.44228319  0.76119652  1
  Li  Li7  1  0.88167716  0.19611994  0.75938120  1
  Li  Li8  1  -0.00000362  0.50016832  0.00089992  1
  Mn  Mn9  1  -0.00009833  0.99898848  0.00022168  1
  Mn  Mn10  1  0.24881948  0.12586748  0.50104045  1
  Co  Co11  1  0.49888852  0.25838106  -0.00029484  1
  Co  Co12  1  0.74858238  0.37822767  0.50124745  1
  Co  Co13  1  0.25301585  0.62002239  0.49793957  1
  Co  Co14  1  0.50142477  0.74109128  0.00001357  1
  Co  Co15  1  0.74956878  0.86961928  0.49879063  1
  O  O16  1  0.80548390  0.79574236  0.11248618  1
  O  O17  1  0.07638727  0.90981680  0.61097265  1
  O  O18  1  0.29649045  0.02799071  0.11352996  1
  O  O19  1  0.33576855  0.53270507  0.11947153  1
  O  O20  1  0.57297567  0.66023647  0.61329141  1
  O  O21  1  0.80446358  0.26031817  0.11145449  1
  O  O22  1  0.08342876  0.39565073  0.61751165  1
  O  O23  1  0.55530987  0.15033311  0.60880740  1
  O  O24  1  0.42596464  0.86017233  0.38689153  1
  O  O25  1  0.70516636  0.96837422  0.88515224  1
  O  O26  1  0.94113868  0.09705565  0.39315130  1
  O  O27  1  0.92860573  0.59715969  0.38332823  1
  O  O28  1  0.19433782  0.73844482  0.88841763  1
  O  O29  1  0.41173745  0.33872472  0.38560991  1
  O  O30  1  0.66588717  0.47013413  0.88082085  1
  O  O31  1  0.19531228  0.20409824  0.88950284  1
