# generated using pymatgen
data_Li9Mn2Co5O16
_symmetry_space_group_name_H-M   'P 1'
_cell_length_a   5.09990560
_cell_length_b   5.12897838
_cell_length_c   11.64323983
_cell_angle_alpha   88.98132826
_cell_angle_beta   88.38386800
_cell_angle_gamma   109.41196334
_symmetry_Int_Tables_number   1
_chemical_formula_structural   Li9Mn2Co5O16
_chemical_formula_sum   'Li9 Mn2 Co5 O16'
_cell_volume   287.00942371
_cell_formula_units_Z   1
loop_
 _symmetry_equiv_pos_site_id
 _symmetry_equiv_pos_as_xyz
  1  'x, y, z'
loop_
 _atom_site_type_symbol
 _atom_site_label
 _atom_site_symmetry_multiplicity
 _atom_site_fract_x
 _atom_site_fract_y
 _atom_site_fract_z
 _atom_site_occupancy
  Li  Li0  1  0.99601821  0.49819709  0.12533313  1
  Li  Li1  1  0.50014636  0.50310235  0.24624926  1
  Li  Li2  1  0.99349170  0.49602829  0.37094813  1
  Li  Li3  1  0.50117151  0.50105837  0.50278502  1
  Li  Li4  1  0.99924261  0.49944840  0.62675998  1
  Li  Li5  1  0.49634595  0.49747841  0.74836651  1
  Li  Li6  1  0.00748152  0.50517342  0.87755194  1
  Li  Li7  1  0.50478603  0.49817700  0.00235274  1
  Li  Li8  1  0.50182561  0.99914076  0.12451295  1
  Mn  Mn9  1  0.00146793  0.00484887  0.00415772  1
  Mn  Mn10  1  0.99579227  0.99611071  0.49730590  1
  Co  Co11  1  -0.00277844  0.99062199  0.24604398  1
  Co  Co12  1  0.49551424  0.99586572  0.36512098  1
  Co  Co13  1  0.49908265  0.99971475  0.62771748  1
  Co  Co14  1  0.00635482  0.00957393  0.75022873  1
  Co  Co15  1  0.50638265  0.00680039  0.88363359  1
  O  O16  1  0.76518605  0.22895776  0.99837792  1
  O  O17  1  0.21600918  0.22396859  0.12696931  1
  O  O18  1  0.75506982  0.21515987  0.25537581  1
  O  O19  1  0.22331273  0.21676917  0.36627517  1
  O  O20  1  0.74300806  0.22153255  0.50298932  1
  O  O21  1  0.24987309  0.24415745  0.63173706  1
  O  O22  1  0.73869813  0.22700760  0.75312507  1
  O  O23  1  0.24142737  0.23565578  0.88217962  1
  O  O24  1  0.22602656  0.77713505  0.25135948  1
  O  O25  1  0.74791853  0.75626410  0.36068854  1
  O  O26  1  0.25372274  0.77576252  0.49575383  1
  O  O27  1  0.76707794  0.77091489  0.62414630  1
  O  O28  1  0.26379533  0.77263778  0.74680249  1
  O  O29  1  0.77737423  0.78074535  0.88434479  1
  O  O30  1  0.24925258  0.78006647  0.99454700  1
  O  O31  1  0.77992202  0.77192461  0.12625725  1
