# generated using pymatgen
data_Li9Mn2Co5O16
_symmetry_space_group_name_H-M   'P 1'
_cell_length_a   4.98193249
_cell_length_b   9.81456293
_cell_length_c   5.94516685
_cell_angle_alpha   79.72034933
_cell_angle_beta   88.41713909
_cell_angle_gamma   93.43928816
_symmetry_Int_Tables_number   1
_chemical_formula_structural   Li9Mn2Co5O16
_chemical_formula_sum   'Li9 Mn2 Co5 O16'
_cell_volume   285.29316859
_cell_formula_units_Z   1
loop_
 _symmetry_equiv_pos_site_id
 _symmetry_equiv_pos_as_xyz
  1  'x, y, z'
loop_
 _atom_site_type_symbol
 _atom_site_label
 _atom_site_symmetry_multiplicity
 _atom_site_fract_x
 _atom_site_fract_y
 _atom_site_fract_z
 _atom_site_occupancy
  Li  Li0  1  0.88127857  0.25444811  0.18258523  1
  Li  Li1  1  0.12735681  0.74829617  0.31290903  1
  Li  Li2  1  0.37247358  0.25461504  0.42964247  1
  Li  Li3  1  0.87856378  0.25352686  0.69035665  1
  Li  Li4  1  0.12163090  0.74647760  0.81798677  1
  Li  Li5  1  0.38274966  0.25346095  0.94382468  1
  Li  Li6  1  0.61155958  0.74411971  0.06847837  1
  Li  Li7  1  0.62882188  0.74647727  0.55944180  1
  Li  Li8  1  0.25040527  0.49916545  0.12504067  1
  Mn  Mn9  1  0.00076700  0.99880430  0.00002052  1
  Mn  Mn10  1  0.24795375  0.50207739  0.62773874  1
  Co  Co11  1  0.50060797  -0.00002937  0.25213173  1
  Co  Co12  1  0.74989117  0.49970699  0.36939954  1
  Co  Co13  1  0.99960227  0.00121838  0.49928190  1
  Co  Co14  1  0.50056971  0.00007974  0.74626890  1
  Co  Co15  1  0.74331151  0.49813895  0.88188049  1
  O  O16  1  0.69410348  0.11320381  0.96742230  1
  O  O17  1  0.89792475  0.60473137  0.09204767  1
  O  O18  1  0.19647045  0.11822677  0.24399805  1
  O  O19  1  0.69844877  0.11513892  0.46488167  1
  O  O20  1  0.95006651  0.61547469  0.62102534  1
  O  O21  1  0.20005674  0.11756114  0.73705434  1
  O  O22  1  0.44931021  0.60877408  0.82842522  1
  O  O23  1  0.43929303  0.61125564  0.36103007  1
  O  O24  1  0.05893854  0.39407643  0.42518666  1
  O  O25  1  0.30093941  0.88775152  0.53084240  1
  O  O26  1  0.56909563  0.39467618  0.65357267  1
  O  O27  1  0.05557396  0.39027322  0.88950542  1
  O  O28  1  0.30452318  0.88106123  0.03330982  1
  O  O29  1  0.58075388  0.38102652  0.12601611  1
  O  O30  1  0.80418141  0.88168664  0.26436462  1
  O  O31  1  0.80277665  0.88449830  0.75433015  1
