# generated using pymatgen
data_Li9Mn2Co5O16
_symmetry_space_group_name_H-M   'P 1'
_cell_length_a   5.94168438
_cell_length_b   6.45290269
_cell_length_c   8.58674115
_cell_angle_alpha   97.18798361
_cell_angle_beta   70.62753034
_cell_angle_gamma   114.16547393
_symmetry_Int_Tables_number   1
_chemical_formula_structural   Li9Mn2Co5O16
_chemical_formula_sum   'Li9 Mn2 Co5 O16'
_cell_volume   283.34589009
_cell_formula_units_Z   1
loop_
 _symmetry_equiv_pos_site_id
 _symmetry_equiv_pos_as_xyz
  1  'x, y, z'
loop_
 _atom_site_type_symbol
 _atom_site_label
 _atom_site_symmetry_multiplicity
 _atom_site_fract_x
 _atom_site_fract_y
 _atom_site_fract_z
 _atom_site_occupancy
  Li  Li0  1  0.24395804  0.25962607  0.25991177  1
  Li  Li1  1  0.74125204  0.99439033  0.49813893  1
  Li  Li2  1  0.75134508  0.25676698  0.25987007  1
  Li  Li3  1  0.25874796  0.00560967  0.50186107  1
  Li  Li4  1  0.24865492  0.74323302  0.74012993  1
  Li  Li5  1  0.75604196  0.74037393  0.74008823  1
  Li  Li6  1  0.74039771  0.49310702  0.99971795  1
  Li  Li7  1  0.25960229  0.50689298  0.00028205  1
  Li  Li8  1  -0.00000000  0.50000000  0.50000000  1
  Mn  Mn9  1  -0.00000000  -0.00000000  0.00000000  1
  Mn  Mn10  1  0.50000000  -0.00000000  0.00000000  1
  Co  Co11  1  0.48277451  0.73841818  0.25314118  1
  Co  Co12  1  0.51722549  0.26158182  0.74685882  1
  Co  Co13  1  0.99712301  0.74371250  0.25260946  1
  Co  Co14  1  0.50000000  0.50000000  0.50000000  1
  Co  Co15  1  0.00287699  0.25628750  0.74739054  1
  O  O16  1  0.89055676  0.98582266  0.23871902  1
  O  O17  1  0.39358604  0.73721549  0.48473002  1
  O  O18  1  0.39093083  0.99155008  0.23903802  1
  O  O19  1  0.83715455  0.72142120  0.48540895  1
  O  O20  1  0.88695362  0.48617115  0.75073392  1
  O  O21  1  0.39746876  0.49299921  0.73795642  1
  O  O22  1  0.39004633  0.24046220  0.98817004  1
  O  O23  1  0.84686650  0.22231375  0.99216458  1
  O  O24  1  0.60253124  0.50700079  0.26204358  1
  O  O25  1  0.16284545  0.27857880  0.51459105  1
  O  O26  1  0.11304638  0.51382885  0.24926608  1
  O  O27  1  0.60641396  0.26278451  0.51526998  1
  O  O28  1  0.60906917  0.00844992  0.76096198  1
  O  O29  1  0.10944324  0.01417734  0.76128098  1
  O  O30  1  0.15313350  0.77768625  0.00783542  1
  O  O31  1  0.60995367  0.75953780  0.01182996  1
