# generated using pymatgen
data_Li9Mn2Co5O16
_symmetry_space_group_name_H-M   'P 1'
_cell_length_a   2.91201614
_cell_length_b   19.38182549
_cell_length_c   5.11494528
_cell_angle_alpha   94.40625923
_cell_angle_beta   90.76106937
_cell_angle_gamma   83.98376438
_symmetry_Int_Tables_number   1
_chemical_formula_structural   Li9Mn2Co5O16
_chemical_formula_sum   'Li9 Mn2 Co5 O16'
_cell_volume   286.24590844
_cell_formula_units_Z   1
loop_
 _symmetry_equiv_pos_site_id
 _symmetry_equiv_pos_as_xyz
  1  'x, y, z'
loop_
 _atom_site_type_symbol
 _atom_site_label
 _atom_site_symmetry_multiplicity
 _atom_site_fract_x
 _atom_site_fract_y
 _atom_site_fract_z
 _atom_site_occupancy
  Li  Li0  1  0.87493550  0.12500889  0.37493209  1
  Li  Li1  1  0.25808765  0.24626351  0.24415965  1
  Li  Li2  1  0.62298522  0.37588197  0.13058331  1
  Li  Li3  1  0.00053538  0.49983256  0.99876966  1
  Li  Li4  1  0.37497113  0.62497887  0.87517181  1
  Li  Li5  1  0.74883575  0.75010130  0.75151508  1
  Li  Li6  1  0.12687090  0.87417934  0.61936947  1
  Li  Li7  1  0.49226226  0.00378278  0.50571165  1
  Li  Li8  1  0.37513494  0.12497224  0.87502701  1
  Mn  Mn9  1  0.99177993  0.00330523  0.99385048  1
  Mn  Mn10  1  0.75877235  0.24661918  0.75592469  1
  Co  Co11  1  0.13678910  0.37456767  0.62667494  1
  Co  Co12  1  0.49883128  0.49901903  0.50539980  1
  Co  Co13  1  0.87473927  0.62498996  0.37498703  1
  Co  Co14  1  0.25036169  0.75103711  0.24482092  1
  Co  Co15  1  0.61349833  0.87545667  0.12336033  1
  O  O16  1  0.45553437  0.05518894  0.16807239  1
  O  O17  1  0.79874193  0.19519715  0.04058040  1
  O  O18  1  0.21592950  0.30896662  0.90619314  1
  O  O19  1  0.54113323  0.43410460  0.79949959  1
  O  O20  1  0.92471481  0.55882191  0.67186577  1
  O  O21  1  0.30075492  0.68457595  0.54506003  1
  O  O22  1  0.67966712  0.81157016  0.41369104  1
  O  O23  1  0.02306542  0.93561589  0.28425833  1
  O  O24  1  0.29529508  0.19476283  0.58179163  1
  O  O25  1  0.72752374  0.31437417  0.46544057  1
  O  O26  1  0.06982712  0.43849733  0.33655213  1
  O  O27  1  0.44883634  0.56540756  0.20517972  1
  O  O28  1  0.82476656  0.69113574  0.07831278  1
  O  O29  1  0.20828655  0.81593554  0.95065912  1
  O  O30  1  0.53476121  0.94104223  0.84326656  1
  O  O31  1  0.95176343  0.05480907  0.70931386  1
