# generated using pymatgen
data_Li9Mn2Co5O16
_symmetry_space_group_name_H-M   'P 1'
_cell_length_a   2.94428312
_cell_length_b   10.38627556
_cell_length_c   9.99202840
_cell_angle_alpha   106.81781380
_cell_angle_beta   90.33011737
_cell_angle_gamma   81.78643541
_symmetry_Int_Tables_number   1
_chemical_formula_structural   Li9Mn2Co5O16
_chemical_formula_sum   'Li9 Mn2 Co5 O16'
_cell_volume   289.28440457
_cell_formula_units_Z   1
loop_
 _symmetry_equiv_pos_site_id
 _symmetry_equiv_pos_as_xyz
  1  'x, y, z'
loop_
 _atom_site_type_symbol
 _atom_site_label
 _atom_site_symmetry_multiplicity
 _atom_site_fract_x
 _atom_site_fract_y
 _atom_site_fract_z
 _atom_site_occupancy
  Li  Li0  1  0.93723137  0.12580272  0.32833438  1
  Li  Li1  1  0.45033801  0.13200116  0.79265071  1
  Li  Li2  1  0.29966199  0.36799884  0.45734929  1
  Li  Li3  1  0.81276863  0.37419728  0.92166562  1
  Li  Li4  1  0.68526255  0.62800979  0.57462716  1
  Li  Li5  1  0.18623133  0.62822300  0.06167702  1
  Li  Li6  1  0.06473745  0.87199021  0.67537284  1
  Li  Li7  1  0.56376867  0.87177700  0.18832298  1
  Li  Li8  1  0.87500000  0.25000000  0.62500000  1
  Mn  Mn9  1  0.00748322  0.00125594  0.00003783  1
  Mn  Mn10  1  0.74251678  0.49874406  0.24996217  1
  Co  Co11  1  0.49801113  0.01761958  0.51153387  1
  Co  Co12  1  0.37500000  0.25000000  0.12500000  1
  Co  Co13  1  0.25198887  0.48238042  0.73846613  1
  Co  Co14  1  0.11488273  0.76459162  0.37928007  1
  Co  Co15  1  0.63511727  0.73540838  0.87071993  1
  O  O16  1  0.47773654  0.06483298  0.13668401  1
  O  O17  1  0.98069085  0.05654799  0.65076313  1
  O  O18  1  0.84505485  0.30975071  0.25829057  1
  O  O19  1  0.33593527  0.32528712  0.78588238  1
  O  O20  1  0.21568632  0.55351816  0.38211163  1
  O  O21  1  0.71295417  0.57230453  0.90826432  1
  O  O22  1  0.59605125  0.80951255  0.52031463  1
  O  O23  1  0.09447511  0.82442744  0.02421650  1
  O  O24  1  0.41406473  0.17471288  0.46411662  1
  O  O25  1  0.90494415  0.19024929  0.99170943  1
  O  O26  1  0.76931015  0.44345201  0.59923687  1
  O  O27  1  0.27226346  0.43516702  0.11331699  1
  O  O28  1  0.15394875  0.69048745  0.72968537  1
  O  O29  1  0.65552489  0.67557256  0.22578350  1
  O  O30  1  0.53431368  0.94648184  0.86788837  1
  O  O31  1  0.03704583  0.92769547  0.34173568  1
