# generated using pymatgen
data_Li9Mn2Co5O16
_symmetry_space_group_name_H-M   'P 1'
_cell_length_a   5.07218603
_cell_length_b   5.10882282
_cell_length_c   11.62345904
_cell_angle_alpha   89.21678496
_cell_angle_beta   88.05852632
_cell_angle_gamma   109.55903319
_symmetry_Int_Tables_number   1
_chemical_formula_structural   Li9Mn2Co5O16
_chemical_formula_sum   'Li9 Mn2 Co5 O16'
_cell_volume   283.55457080
_cell_formula_units_Z   1
loop_
 _symmetry_equiv_pos_site_id
 _symmetry_equiv_pos_as_xyz
  1  'x, y, z'
loop_
 _atom_site_type_symbol
 _atom_site_label
 _atom_site_symmetry_multiplicity
 _atom_site_fract_x
 _atom_site_fract_y
 _atom_site_fract_z
 _atom_site_occupancy
  Li  Li0  1  0.00111087  0.49993639  0.13410581  1
  Li  Li1  1  0.50000000  0.50000000  0.25000000  1
  Li  Li2  1  0.99888913  0.50006361  0.36589419  1
  Li  Li3  1  0.49805045  0.49829713  0.49576863  1
  Li  Li4  1  0.99543668  0.49939661  0.62677662  1
  Li  Li5  1  0.50000000  0.50000000  0.75000000  1
  Li  Li6  1  0.00456332  0.50060339  0.87322338  1
  Li  Li7  1  0.50194955  0.50170287  0.00423137  1
  Li  Li8  1  0.00000000  0.00000000  0.25000000  1
  Mn  Mn9  1  0.00021368  -0.00264802  0.00310019  1
  Mn  Mn10  1  -0.00021368  0.00264802  0.49689981  1
  Co  Co11  1  0.49809584  -0.00214213  0.12901815  1
  Co  Co12  1  0.50190416  0.00214213  0.37098185  1
  Co  Co13  1  0.49971833  -0.00157920  0.62616260  1
  Co  Co14  1  0.00000000  0.00000000  0.75000000  1
  Co  Co15  1  0.50028167  0.00157920  0.87383740  1
  O  O16  1  0.74985006  0.21794699  0.00446554  1
  O  O17  1  0.24388774  0.21420708  0.11194325  1
  O  O18  1  0.73014655  0.24082133  0.25947027  1
  O  O19  1  0.25098260  0.22977758  0.38399099  1
  O  O20  1  0.76129587  0.23176827  0.51024010  1
  O  O21  1  0.22621197  0.21892945  0.62419050  1
  O  O22  1  0.73083392  0.23802017  0.75466668  1
  O  O23  1  0.22972964  0.22300089  0.87130072  1
  O  O24  1  0.26985345  0.75917867  0.24052973  1
  O  O25  1  0.75611226  0.78579292  0.38805675  1
  O  O26  1  0.25014994  0.78205301  0.49553346  1
  O  O27  1  0.77027036  0.77699911  0.62869928  1
  O  O28  1  0.26916608  0.76197983  0.74533232  1
  O  O29  1  0.77378803  0.78107055  0.87580850  1
  O  O30  1  0.23870413  0.76823173  0.98975990  1
  O  O31  1  0.74901740  0.77022242  0.11600901  1
