# generated using pymatgen
data_Li3Co3CuO8
_symmetry_space_group_name_H-M   'P 1'
_cell_length_a   5.91809363
_cell_length_b   5.82668708
_cell_length_c   5.82668728
_cell_angle_alpha   60.00000007
_cell_angle_beta   60.50961964
_cell_angle_gamma   90.00000004
_symmetry_Int_Tables_number   1
_chemical_formula_structural   Li3Co3CuO8
_chemical_formula_sum   'Li3 Co3 Cu1 O8'
_cell_volume   143.15712462
_cell_formula_units_Z   1
loop_
 _symmetry_equiv_pos_site_id
 _symmetry_equiv_pos_as_xyz
  1  'x, y, z'
loop_
 _atom_site_type_symbol
 _atom_site_label
 _atom_site_symmetry_multiplicity
 _atom_site_fract_x
 _atom_site_fract_y
 _atom_site_fract_z
 _atom_site_occupancy
  Li  Li0  1  0.50000000  0.00000000  0.00000000  1
  Li  Li1  1  0.50000000  0.00000000  0.50000000  1
  Li  Li2  1  0.50000000  0.50000000  0.50000000  1
  Co  Co3  1  0.00000000  0.00000000  0.50000000  1
  Co  Co4  1  0.00000000  0.50000000  0.00000000  1
  Co  Co5  1  0.00000000  0.50000000  0.50000000  1
  Cu  Cu6  1  0.00000000  0.00000000  0.00000000  1
  O  O7  1  0.21876287  0.23621252  0.01744965  1
  O  O8  1  0.21876287  0.23621252  0.52757596  1
  O  O9  1  0.21876287  0.74633883  0.01744965  1
  O  O10  1  0.23277718  0.74425873  0.51148154  1
  O  O11  1  0.76722282  0.25574127  0.48851846  1
  O  O12  1  0.78123713  0.25366117  0.98255035  1
  O  O13  1  0.78123713  0.76378848  0.47242404  1
  O  O14  1  0.78123713  0.76378848  0.98255035  1
