# generated using pymatgen
data_Li9Mn2Co5O16
_symmetry_space_group_name_H-M   'P 1'
_cell_length_a   5.06936650
_cell_length_b   5.75631002
_cell_length_c   9.77621853
_cell_angle_alpha   97.77017547
_cell_angle_beta   83.97437993
_cell_angle_gamma   90.70385998
_symmetry_Int_Tables_number   1
_chemical_formula_structural   Li9Mn2Co5O16
_chemical_formula_sum   'Li9 Mn2 Co5 O16'
_cell_volume   281.09679199
_cell_formula_units_Z   1
loop_
 _symmetry_equiv_pos_site_id
 _symmetry_equiv_pos_as_xyz
  1  'x, y, z'
loop_
 _atom_site_type_symbol
 _atom_site_label
 _atom_site_symmetry_multiplicity
 _atom_site_fract_x
 _atom_site_fract_y
 _atom_site_fract_z
 _atom_site_occupancy
  Li  Li0  1  0.13361757  0.80908243  0.26436661  1
  Li  Li1  1  0.37430740  0.92987887  0.73645843  1
  Li  Li2  1  0.61560304  0.06565282  0.26022190  1
  Li  Li3  1  0.61754692  0.56759028  0.26192947  1
  Li  Li4  1  0.88245308  0.68240972  0.73807053  1
  Li  Li5  1  0.12569260  0.32012113  0.26354157  1
  Li  Li6  1  0.36638243  0.44091757  0.73563339  1
  Li  Li7  1  0.88439696  0.18434718  0.73977810  1
  Li  Li8  1  0.25000000  0.62500000  0.50000000  1
  Mn  Mn9  1  0.99616319  0.99705273  0.99955890  1
  Mn  Mn10  1  0.50383681  0.25294727  0.00044110  1
  Co  Co11  1  0.25000000  0.12500000  0.50000000  1
  Co  Co12  1  0.75828590  0.38078982  0.49614313  1
  Co  Co13  1  0.99950338  0.50069035  0.00131587  1
  Co  Co14  1  0.50049662  0.74930965  0.99868413  1
  Co  Co15  1  0.74171410  0.86921018  0.50385687  1
  O  O16  1  0.80867111  0.77258121  0.10568555  1
  O  O17  1  0.06947837  0.92162122  0.61373240  1
  O  O18  1  0.32971430  0.02402286  0.10884791  1
  O  O19  1  0.30989448  0.52972471  0.10734238  1
  O  O20  1  0.58383735  0.66474232  0.62253633  1
  O  O21  1  0.82485542  0.27777492  0.11389684  1
  O  O22  1  0.06399990  0.38326865  0.61162287  1
  O  O23  1  0.54690641  0.16278295  0.61200489  1
  O  O24  1  0.43600010  0.86673135  0.38837713  1
  O  O25  1  0.67514458  0.97222508  0.88610316  1
  O  O26  1  0.95309359  0.08721705  0.38799511  1
  O  O27  1  0.91616265  0.58525768  0.37746367  1
  O  O28  1  0.19010552  0.72027529  0.89265762  1
  O  O29  1  0.43052163  0.32837878  0.38626760  1
  O  O30  1  0.69132889  0.47741879  0.89431445  1
  O  O31  1  0.17028570  0.22597714  0.89115209  1
