# generated using pymatgen
data_Li9Mn2Co5O16
_symmetry_space_group_name_H-M   'P 1'
_cell_length_a   4.96431507
_cell_length_b   6.60286532
_cell_length_c   9.02328791
_cell_angle_alpha   81.43970332
_cell_angle_beta   83.22660095
_cell_angle_gamma   97.74263213
_symmetry_Int_Tables_number   1
_chemical_formula_structural   Li9Mn2Co5O16
_chemical_formula_sum   'Li9 Mn2 Co5 O16'
_cell_volume   286.92175097
_cell_formula_units_Z   1
loop_
 _symmetry_equiv_pos_site_id
 _symmetry_equiv_pos_as_xyz
  1  'x, y, z'
loop_
 _atom_site_type_symbol
 _atom_site_label
 _atom_site_symmetry_multiplicity
 _atom_site_fract_x
 _atom_site_fract_y
 _atom_site_fract_z
 _atom_site_occupancy
  Li  Li0  1  0.25232809  0.68764293  0.19777186  1
  Li  Li1  1  0.24115715  0.19308329  0.68388439  1
  Li  Li2  1  0.74916624  0.80698080  0.31777073  1
  Li  Li3  1  0.73920930  0.31621876  0.79964891  1
  Li  Li4  1  0.25400566  0.93016258  0.43364764  1
  Li  Li5  1  0.26050189  0.44185399  0.93666058  1
  Li  Li6  1  0.75128279  0.55781144  0.06456945  1
  Li  Li7  1  0.75056096  0.06772089  0.56218265  1
  Li  Li8  1  0.99831581  0.50026014  0.49702205  1
  Mn  Mn9  1  0.00279737  0.00183327  0.00279316  1
  Mn  Mn10  1  0.00253140  0.24837606  0.25236018  1
  Co  Co11  1  0.50219927  0.12508186  0.12879049  1
  Co  Co12  1  0.49586370  0.62094016  0.61657989  1
  Co  Co13  1  0.99473420  0.74798267  0.74693502  1
  Co  Co14  1  0.49716891  0.38214384  0.37983345  1
  Co  Co15  1  0.50498789  0.87708811  0.87454401  1
  O  O16  1  0.13838384  0.73915033  0.96500689  1
  O  O17  1  0.12758810  0.22341927  0.44667340  1
  O  O18  1  0.63122832  0.86666171  0.08719749  1
  O  O19  1  0.60231719  0.35641039  0.58839243  1
  O  O20  1  0.13837673  0.98946930  0.22172789  1
  O  O21  1  0.15982652  0.48679522  0.71444309  1
  O  O22  1  0.64715211  0.60368281  0.84248102  1
  O  O23  1  0.63673590  0.10539431  0.32494492  1
  O  O24  1  0.38321176  0.64878977  0.40906283  1
  O  O25  1  0.37476899  0.14509896  0.92852447  1
  O  O26  1  0.83744353  0.76613744  0.54401540  1
  O  O27  1  0.87560745  0.26271335  0.04859172  1
  O  O28  1  0.35983750  0.88961128  0.66344892  1
  O  O29  1  0.36663097  0.38230548  0.16185781  1
  O  O30  1  0.86572247  0.50367223  0.27827111  1
  O  O31  1  0.85835801  0.02550837  0.78036413  1
