# generated using pymatgen
data_Li3Fe3O8
_symmetry_space_group_name_H-M   'P 1'
_cell_length_a   5.87904958
_cell_length_b   5.87904958
_cell_length_c   5.70843143
_cell_angle_alpha   119.04453825
_cell_angle_beta   60.95546175
_cell_angle_gamma   118.71144669
_symmetry_Int_Tables_number   1
_chemical_formula_structural   Li3Fe3O8
_chemical_formula_sum   'Li3 Fe3 O8'
_cell_volume   142.86027655
_cell_formula_units_Z   1
loop_
 _symmetry_equiv_pos_site_id
 _symmetry_equiv_pos_as_xyz
  1  'x, y, z'
loop_
 _atom_site_type_symbol
 _atom_site_label
 _atom_site_symmetry_multiplicity
 _atom_site_fract_x
 _atom_site_fract_y
 _atom_site_fract_z
 _atom_site_occupancy
  Li  Li0  1  0.50109285  0.99890715  -0.00133710  1
  Li  Li1  1  0.50109285  0.99890715  0.49915040  1
  Li  Li2  1  0.89320682  0.60679318  0.85679318  1
  Fe  Fe3  1  0.98708486  0.99883559  0.50587586  1
  Fe  Fe4  1  0.10645397  0.39354603  0.14354603  1
  Fe  Fe5  1  0.50116441  0.51291514  0.50587586  1
  O  O6  1  0.25021597  0.24978403  0.73298665  1
  O  O7  1  0.25021597  0.24978403  0.26658140  1
  O  O8  1  0.77348440  0.21116123  0.71883842  1
  O  O9  1  0.72120217  0.27015965  0.27447924  1
  O  O10  1  0.28883877  0.72651560  0.71883842  1
  O  O11  1  0.22984035  0.77879783  0.27447924  1
  O  O12  1  0.74805281  0.75194719  0.72762765  1
  O  O13  1  0.74805281  0.75194719  0.27626673  1
