# generated using pymatgen
data_Li9Mn2Co5O16
_symmetry_space_group_name_H-M   'P 1'
_cell_length_a   5.95028099
_cell_length_b   8.09922827
_cell_length_c   6.43543563
_cell_angle_alpha   89.05893711
_cell_angle_beta   113.50491011
_cell_angle_gamma   90.73642294
_symmetry_Int_Tables_number   1
_chemical_formula_structural   Li9Mn2Co5O16
_chemical_formula_sum   'Li9 Mn2 Co5 O16'
_cell_volume   284.36217286
_cell_formula_units_Z   1
loop_
 _symmetry_equiv_pos_site_id
 _symmetry_equiv_pos_as_xyz
  1  'x, y, z'
loop_
 _atom_site_type_symbol
 _atom_site_label
 _atom_site_symmetry_multiplicity
 _atom_site_fract_x
 _atom_site_fract_y
 _atom_site_fract_z
 _atom_site_occupancy
  Li  Li0  1  0.26481497  0.00017609  0.50918032  1
  Li  Li1  1  0.88527713  0.25928536  0.25983086  1
  Li  Li2  1  0.61321877  0.74120269  0.73973824  1
  Li  Li3  1  0.98026401  0.50000059  0.98751080  1
  Li  Li4  1  0.36933033  0.26202216  0.25795185  1
  Li  Li5  1  0.73462140  0.00118282  0.49161819  1
  Li  Li6  1  0.13192490  0.73718885  0.74217003  1
  Li  Li7  1  0.52041049  0.49943723  0.01311924  1
  Li  Li8  1  0.24882637  0.50028433  0.49825445  1
  Mn  Mn9  1  0.00141717  0.99863033  0.00163026  1
  Mn  Mn10  1  0.50029108  0.00105661  -0.00025106  1
  Co  Co11  1  0.60944879  0.25208281  0.73885648  1
  Co  Co12  1  0.88789759  0.74720635  0.26050727  1
  Co  Co13  1  0.12446490  0.25297752  0.74499512  1
  Co  Co14  1  0.75069662  0.49962556  0.50084259  1
  Co  Co15  1  0.37956724  0.74736179  0.25632531  1
  O  O16  1  0.84267294  0.99068264  0.22324774  1
  O  O17  1  0.51239330  0.23981944  0.99182545  1
  O  O18  1  0.25775622  0.75223686  0.48168685  1
  O  O19  1  0.63133199  0.48562237  0.73528707  1
  O  O20  1  0.01110602  0.23901533  0.98775891  1
  O  O21  1  0.38528587  0.99018012  0.23961026  1
  O  O22  1  0.77133375  0.73763926  0.49566520  1
  O  O23  1  0.07785079  0.48492786  0.72083815  1
  O  O24  1  0.61656185  0.01202989  0.75805782  1
  O  O25  1  0.23488395  0.24916701  0.51313058  1
  O  O26  1  0.98758332  0.75832632  0.01031708  1
  O  O27  1  0.42140331  0.51526104  0.27848881  1
  O  O28  1  0.73192671  0.26182443  0.50663296  1
  O  O29  1  0.15902537  0.00819692  0.78097737  1
  O  O30  1  0.48935485  0.76181653  0.00986815  1
  O  O31  1  0.86705698  0.51353290  0.26432762  1
