# generated using pymatgen
data_Li9Mn2Co5O16
_symmetry_space_group_name_H-M   'P 1'
_cell_length_a   5.68537111
_cell_length_b   9.63830738
_cell_length_c   5.94525654
_cell_angle_alpha   96.52585457
_cell_angle_beta   61.43577932
_cell_angle_gamma   89.99999813
_symmetry_Int_Tables_number   1
_chemical_formula_structural   Li9Mn2Co5O16
_chemical_formula_sum   'Li9 Mn2 Co5 O16'
_cell_volume   283.72469570
_cell_formula_units_Z   1
loop_
 _symmetry_equiv_pos_site_id
 _symmetry_equiv_pos_as_xyz
  1  'x, y, z'
loop_
 _atom_site_type_symbol
 _atom_site_label
 _atom_site_symmetry_multiplicity
 _atom_site_fract_x
 _atom_site_fract_y
 _atom_site_fract_z
 _atom_site_occupancy
  Li  Li0  1  0.62087607  0.25694806  0.25824786  1
  Li  Li1  1  0.37520364  0.73930223  0.74959272  1
  Li  Li2  1  0.12479636  0.26069777  0.25040728  1
  Li  Li3  1  0.12632641  0.25240578  0.74648998  1
  Li  Li4  1  0.87281639  0.74759422  0.25351002  1
  Li  Li5  1  0.62718361  0.25240578  0.74648998  1
  Li  Li6  1  0.37367359  0.74759422  0.25351002  1
  Li  Li7  1  0.87912393  0.74305194  0.74175214  1
  Li  Li8  1  0.25000000  0.50000000  0.00000000  1
  Mn  Mn9  1  -0.00007755  1.00000000  1.00000000  1
  Mn  Mn10  1  0.50007755  0.00000000  0.00000000  1
  Co  Co11  1  0.75000000  0.50000000  0.50000000  1
  Co  Co12  1  0.25000000  0.50000000  0.50000000  1
  Co  Co13  1  0.50027104  0.99924942  0.49945793  1
  Co  Co14  1  0.99972896  0.00075058  0.50054207  1
  Co  Co15  1  0.75000000  0.50000000  0.00000000  1
  O  O16  1  0.80255299  0.12073973  0.89489401  1
  O  O17  1  0.55039170  0.61784043  0.39921660  1
  O  O18  1  0.30177617  0.12184016  0.89644765  1
  O  O19  1  0.30173977  0.11535372  0.39869012  1
  O  O20  1  0.06498803  0.60044473  0.83955930  1
  O  O21  1  0.79957011  0.11535372  0.39869012  1
  O  O22  1  0.59545267  0.60044473  0.83955930  1
  O  O23  1  0.05359328  0.60916392  0.39281343  1
  O  O24  1  0.44640672  0.39083608  0.60718657  1
  O  O25  1  0.19822383  0.87815984  0.10355235  1
  O  O26  1  0.94960830  0.38215957  0.60078340  1
  O  O27  1  0.90454733  0.39955527  0.16044070  1
  O  O28  1  0.70042989  0.88464628  0.60130988  1
  O  O29  1  0.43501197  0.39955527  0.16044070  1
  O  O30  1  0.19826023  0.88464628  0.60130988  1
  O  O31  1  0.69744701  0.87926027  0.10510599  1
