# generated using pymatgen
data_Li9Mn2Co5O16
_symmetry_space_group_name_H-M   'P 1'
_cell_length_a   5.91272984
_cell_length_b   6.50027422
_cell_length_c   7.74876989
_cell_angle_alpha   92.93011795
_cell_angle_beta   98.50094633
_cell_angle_gamma   76.55376600
_symmetry_Int_Tables_number   1
_chemical_formula_structural   Li9Mn2Co5O16
_chemical_formula_sum   'Li9 Mn2 Co5 O16'
_cell_volume   286.42967800
_cell_formula_units_Z   1
loop_
 _symmetry_equiv_pos_site_id
 _symmetry_equiv_pos_as_xyz
  1  'x, y, z'
loop_
 _atom_site_type_symbol
 _atom_site_label
 _atom_site_symmetry_multiplicity
 _atom_site_fract_x
 _atom_site_fract_y
 _atom_site_fract_z
 _atom_site_occupancy
  Li  Li0  1  0.06139707  0.13707512  0.38910933  1
  Li  Li1  1  0.30736017  0.61869388  0.86246989  1
  Li  Li2  1  0.42115524  0.88577470  0.62615971  1
  Li  Li3  1  0.68987086  0.36554282  0.12265945  1
  Li  Li4  1  0.82054488  0.60974995  0.86713377  1
  Li  Li5  1  0.18326902  0.37150051  0.11663433  1
  Li  Li6  1  0.57142057  0.13241262  0.38606991  1
  Li  Li7  1  0.95642295  0.88085771  0.63456463  1
  Li  Li8  1  0.12720929  0.24982889  0.74832302  1
  Mn  Mn9  1  0.00297575  0.00182717  0.99543761  1
  Mn  Mn10  1  0.36988483  0.75067910  0.24892521  1
  Co  Co11  1  0.24796943  0.49798461  0.50310879  1
  Co  Co12  1  0.49647828  0.99808439  0.99310075  1
  Co  Co13  1  0.75149951  0.50429973  0.50925127  1
  Co  Co14  1  0.63307432  0.24640135  0.74644725  1
  Co  Co15  1  0.86946399  0.74979640  0.25357748  1
  O  O16  1  0.79927663  0.04018738  0.18215878  1
  O  O17  1  0.03704432  0.56084860  0.66688663  1
  O  O18  1  0.15923374  0.79486625  0.42439125  1
  O  O19  1  0.43054090  0.28166769  0.93393586  1
  O  O20  1  0.55040078  0.56119154  0.68443320  1
  O  O21  1  0.90862453  0.29040349  0.94016782  1
  O  O22  1  0.26912769  0.04469031  0.17031193  1
  O  O23  1  0.62306516  0.81224798  0.41717960  1
  O  O24  1  0.34645025  0.21257834  0.56306319  1
  O  O25  1  0.58048710  0.70991854  0.07358010  1
  O  O26  1  0.74044596  0.93890715  0.83692323  1
  O  O27  1  0.94025344  0.45782779  0.31284783  1
  O  O28  1  0.10790541  0.70086535  0.07455080  1
  O  O29  1  0.45455916  0.46039744  0.32041236  1
  O  O30  1  0.83092911  0.19343682  0.56969475  1
  O  O31  1  0.21166264  0.93945636  0.82649026  1
