# generated using pymatgen
data_Li9Mn2Co5O16
_symmetry_space_group_name_H-M   'P 1'
_cell_length_a   5.87825510
_cell_length_b   6.59755652
_cell_length_c   7.72908624
_cell_angle_alpha   93.74065598
_cell_angle_beta   98.54969881
_cell_angle_gamma   77.11591523
_symmetry_Int_Tables_number   1
_chemical_formula_structural   Li9Mn2Co5O16
_chemical_formula_sum   'Li9 Mn2 Co5 O16'
_cell_volume   288.79625836
_cell_formula_units_Z   1
loop_
 _symmetry_equiv_pos_site_id
 _symmetry_equiv_pos_as_xyz
  1  'x, y, z'
loop_
 _atom_site_type_symbol
 _atom_site_label
 _atom_site_symmetry_multiplicity
 _atom_site_fract_x
 _atom_site_fract_y
 _atom_site_fract_z
 _atom_site_occupancy
  Li  Li0  1  0.06843847  0.11350027  0.37318096  1
  Li  Li1  1  0.30952965  0.62182939  0.87010385  1
  Li  Li2  1  0.42650768  0.86914568  0.61419703  1
  Li  Li3  1  0.67859150  0.39418331  0.13216928  1
  Li  Li4  1  0.81774651  0.62564525  0.87704784  1
  Li  Li5  1  0.18894541  0.38098351  0.12968242  1
  Li  Li6  1  0.56690355  0.12220926  0.38118897  1
  Li  Li7  1  0.93621161  0.86877043  0.62278583  1
  Li  Li8  1  0.37314716  0.74762270  0.24945502  1
  Mn  Mn9  1  0.00701714  -0.00267868  0.00459996  1
  Mn  Mn10  1  0.50244626  -0.00167722  0.00400993  1
  Co  Co11  1  0.24864664  0.50451778  0.49043392  1
  Co  Co12  1  0.74116452  0.50862285  0.49648554  1
  Co  Co13  1  0.62872057  0.25369674  0.75026027  1
  Co  Co14  1  0.87645950  0.75402886  0.25103766  1
  Co  Co15  1  0.12858454  0.24782562  0.74361121  1
  O  O16  1  0.80872792  0.04573406  0.18968639  1
  O  O17  1  0.03540912  0.54577264  0.67707794  1
  O  O18  1  0.12957067  0.79775337  0.42129736  1
  O  O19  1  0.41867770  0.29952329  0.92988773  1
  O  O20  1  0.52889601  0.55738486  0.67942548  1
  O  O21  1  0.91990947  0.28973317  0.93099145  1
  O  O22  1  0.27012509  0.05779389  0.16445839  1
  O  O23  1  0.67355890  0.79767008  0.42568840  1
  O  O24  1  0.34040194  0.18597175  0.57477432  1
  O  O25  1  0.61729286  0.70999103  0.07845720  1
  O  O26  1  0.73106867  0.95158794  0.83559066  1
  O  O27  1  0.95517751  0.46470370  0.31216216  1
  O  O28  1  0.07530997  0.71075309  0.07060291  1
  O  O29  1  0.46155690  0.43377745  0.32679979  1
  O  O30  1  0.83373477  0.20395409  0.57282299  1
  O  O31  1  0.20152477  0.93966985  0.82002713  1
