# generated using pymatgen
data_Li9Mn2Co5O16
_symmetry_space_group_name_H-M   'P 1'
_cell_length_a   4.97799877
_cell_length_b   9.83118761
_cell_length_c   5.96084767
_cell_angle_alpha   87.96527043
_cell_angle_beta   91.63399422
_cell_angle_gamma   101.01748024
_symmetry_Int_Tables_number   1
_chemical_formula_structural   Li9Mn2Co5O16
_chemical_formula_sum   'Li9 Mn2 Co5 O16'
_cell_volume   286.09423256
_cell_formula_units_Z   1
loop_
 _symmetry_equiv_pos_site_id
 _symmetry_equiv_pos_as_xyz
  1  'x, y, z'
loop_
 _atom_site_type_symbol
 _atom_site_label
 _atom_site_symmetry_multiplicity
 _atom_site_fract_x
 _atom_site_fract_y
 _atom_site_fract_z
 _atom_site_occupancy
  Li  Li0  1  0.74779601  0.24653140  0.99542959  1
  Li  Li1  1  0.74420485  0.75366669  0.25641439  1
  Li  Li2  1  0.75641951  0.24620265  0.50326192  1
  Li  Li3  1  0.25649926  0.24433015  0.25881394  1
  Li  Li4  1  0.24586985  0.75419080  0.49570901  1
  Li  Li5  1  0.24401402  0.24841024  0.74591408  1
  Li  Li6  1  0.75556107  0.75446869  0.74380877  1
  Li  Li7  1  0.24797240  0.75348537  0.00361154  1
  Li  Li8  1  0.99940063  0.99930585  0.50013397  1
  Mn  Mn9  1  0.00254671  0.00149173  0.00314488  1
  Mn  Mn10  1  0.99958265  0.49890886  0.24953761  1
  Co  Co11  1  0.00017907  0.50097095  0.74972741  1
  Co  Co12  1  0.49858148  0.50010170  0.50191790  1
  Co  Co13  1  0.50078594  -0.00061577  0.74554394  1
  Co  Co14  1  0.50114365  0.50032849  0.99731748  1
  Co  Co15  1  0.50557598  0.99803818  0.25743987  1
  O  O16  1  0.86507864  0.11097419  0.76247669  1
  O  O17  1  0.85876414  0.61899089  0.01546173  1
  O  O18  1  0.85561705  0.10827693  0.22948321  1
  O  O19  1  0.35839907  0.11582118  0.02532622  1
  O  O20  1  0.36133429  0.61388806  0.24587780  1
  O  O21  1  0.40424886  0.10468387  0.49388537  1
  O  O22  1  0.86284742  0.61740116  0.52262710  1
  O  O23  1  0.35839098  0.61446335  0.74356419  1
  O  O24  1  0.63676920  0.38448961  0.25429202  1
  O  O25  1  0.60896491  0.88146308  0.47293240  1
  O  O26  1  0.64118877  0.38647616  0.75424639  1
  O  O27  1  0.13989705  0.37897111  0.48428771  1
  O  O28  1  0.13672107  0.89448653  0.77308392  1
  O  O29  1  0.13777389  0.38484096  0.97531953  1
  O  O30  1  0.62786888  0.89455614  0.00256127  1
  O  O31  1  0.14000271  0.89040079  0.23684814  1
