# generated using pymatgen
data_Li9Mn2Co5O16
_symmetry_space_group_name_H-M   'P 1'
_cell_length_a   5.81100724
_cell_length_b   10.00752138
_cell_length_c   5.95123008
_cell_angle_alpha   87.85692608
_cell_angle_beta   119.46581572
_cell_angle_gamma   106.54760549
_symmetry_Int_Tables_number   1
_chemical_formula_structural   Li9Mn2Co5O16
_chemical_formula_sum   'Li9 Mn2 Co5 O16'
_cell_volume   286.64492358
_cell_formula_units_Z   1
loop_
 _symmetry_equiv_pos_site_id
 _symmetry_equiv_pos_as_xyz
  1  'x, y, z'
loop_
 _atom_site_type_symbol
 _atom_site_label
 _atom_site_symmetry_multiplicity
 _atom_site_fract_x
 _atom_site_fract_y
 _atom_site_fract_z
 _atom_site_occupancy
  Li  Li0  1  0.99927398  0.00115107  0.50310508  1
  Li  Li1  1  0.01327963  0.26098340  0.26986229  1
  Li  Li2  1  0.00202904  0.49994604  0.99872544  1
  Li  Li3  1  0.50394603  0.00441887  0.00520534  1
  Li  Li4  1  0.49698463  0.24944381  0.75245605  1
  Li  Li5  1  0.49358303  0.49535207  0.49019767  1
  Li  Li6  1  0.50083234  0.74867289  0.24746312  1
  Li  Li7  1  0.99002374  0.73974413  0.73572021  1
  Li  Li8  1  0.00049630  0.25218327  0.74775018  1
  Mn  Mn9  1  0.00305373  0.00332877  0.00429549  1
  Mn  Mn10  1  0.50940447  0.00469228  0.51108588  1
  Co  Co11  1  0.99382673  0.49719095  0.49287065  1
  Co  Co12  1  0.00206734  0.74928848  0.25415507  1
  Co  Co13  1  0.50093883  0.25021816  0.24954541  1
  Co  Co14  1  0.48485736  0.49252391  0.98530730  1
  Co  Co15  1  0.50122151  0.74653269  0.75406569  1
  O  O16  1  0.76919387  0.87036523  0.12159703  1
  O  O17  1  0.74023841  0.10960151  0.84950207  1
  O  O18  1  0.73691447  0.36954671  0.56810733  1
  O  O19  1  0.27749832  0.87931616  0.63287448  1
  O  O20  1  0.28323259  0.13090765  0.39349566  1
  O  O21  1  0.27545554  0.36927313  0.12820265  1
  O  O22  1  0.25969181  0.62452651  0.87949111  1
  O  O23  1  0.76618478  0.62112253  0.35806463  1
  O  O24  1  0.26179183  0.13024723  0.92165044  1
  O  O25  1  0.23732408  0.38903597  0.62166220  1
  O  O26  1  0.23412896  0.63016560  0.38951898  1
  O  O27  1  0.72058231  0.12451481  0.37219330  1
  O  O28  1  0.71986469  0.36422601  0.11172695  1
  O  O29  1  0.73636554  0.62718104  0.87135640  1
  O  O30  1  0.73331627  0.87990023  0.61393890  1
  O  O31  1  0.25239782  0.88439887  0.16480700  1
