# generated using pymatgen
data_Li9Mn2Co5O16
_symmetry_space_group_name_H-M   'P 1'
_cell_length_a   5.07375286
_cell_length_b   5.17642500
_cell_length_c   11.13244147
_cell_angle_alpha   93.64080788
_cell_angle_beta   80.42904553
_cell_angle_gamma   97.34212652
_symmetry_Int_Tables_number   1
_chemical_formula_structural   Li9Mn2Co5O16
_chemical_formula_sum   'Li9 Mn2 Co5 O16'
_cell_volume   285.68059224
_cell_formula_units_Z   1
loop_
 _symmetry_equiv_pos_site_id
 _symmetry_equiv_pos_as_xyz
  1  'x, y, z'
loop_
 _atom_site_type_symbol
 _atom_site_label
 _atom_site_symmetry_multiplicity
 _atom_site_fract_x
 _atom_site_fract_y
 _atom_site_fract_z
 _atom_site_occupancy
  Li  Li0  1  0.56217089  0.25242134  0.93455181  1
  Li  Li1  1  0.43330300  0.73583910  0.06258771  1
  Li  Li2  1  0.68533482  0.75034067  0.81192956  1
  Li  Li3  1  0.81106832  0.24440374  0.68487769  1
  Li  Li4  1  0.93744232  0.76106848  0.56022315  1
  Li  Li5  1  0.05508991  0.24811287  0.43397948  1
  Li  Li6  1  0.20027036  0.73855864  0.31354901  1
  Li  Li7  1  0.32661364  0.27087033  0.19558383  1
  Li  Li8  1  0.62467654  0.50142885  0.37531582  1
  Mn  Mn9  1  0.00296368  0.99886109  0.00046953  1
  Mn  Mn10  1  0.87374340  0.50073384  0.12955011  1
  Co  Co11  1  0.74401798  0.00853522  0.25693989  1
  Co  Co12  1  0.49448371  0.99929534  0.50012999  1
  Co  Co13  1  0.37373186  0.49920404  0.62228111  1
  Co  Co14  1  0.25516818  0.99757424  0.74675290  1
  Co  Co15  1  0.12557575  0.49885272  0.87450540  1
  O  O16  1  0.33034935  0.88445416  0.90849299  1
  O  O17  1  0.20206271  0.39222641  0.02651513  1
  O  O18  1  0.44171953  0.37739784  0.77592489  1
  O  O19  1  0.58165306  0.88854154  0.65165272  1
  O  O20  1  0.67330644  0.34917777  0.53282354  1
  O  O21  1  0.80847245  0.90140247  0.40764873  1
  O  O22  1  0.96955909  0.37606096  0.27108375  1
  O  O23  1  0.05991589  0.85353031  0.15377955  1
  O  O24  1  0.79979450  0.60270168  0.96985837  1
  O  O25  1  0.68761732  0.14525158  0.10154052  1
  O  O26  1  0.92194344  0.10919037  0.84558466  1
  O  O27  1  0.05753868  0.62027022  0.72237195  1
  O  O28  1  0.17599620  0.11372581  0.58928963  1
  O  O29  1  0.30502482  0.65513135  0.48083380  1
  O  O30  1  0.42081065  0.10111151  0.34787158  1
  O  O31  1  0.55858151  0.62372556  0.21150119  1
