# generated using pymatgen
data_Li9Mn2Co5O16
_symmetry_space_group_name_H-M   'P 1'
_cell_length_a   5.06508612
_cell_length_b   10.47077845
_cell_length_c   5.90363733
_cell_angle_alpha   96.94649727
_cell_angle_beta   104.75905225
_cell_angle_gamma   104.88881578
_symmetry_Int_Tables_number   1
_chemical_formula_structural   Li9Mn2Co5O16
_chemical_formula_sum   'Li9 Mn2 Co5 O16'
_cell_volume   286.72656440
_cell_formula_units_Z   1
loop_
 _symmetry_equiv_pos_site_id
 _symmetry_equiv_pos_as_xyz
  1  'x, y, z'
loop_
 _atom_site_type_symbol
 _atom_site_label
 _atom_site_symmetry_multiplicity
 _atom_site_fract_x
 _atom_site_fract_y
 _atom_site_fract_z
 _atom_site_occupancy
  Li  Li0  1  0.61750551  0.13329772  0.19061436  1
  Li  Li1  1  0.63683668  0.13445720  0.70102140  1
  Li  Li2  1  0.88926429  0.37469635  0.56203671  1
  Li  Li3  1  0.87871478  0.37512943  0.06397649  1
  Li  Li4  1  0.12100240  0.62149031  0.93527404  1
  Li  Li5  1  0.12030839  0.62312898  0.43749958  1
  Li  Li6  1  0.36240828  0.86925853  0.30373432  1
  Li  Li7  1  0.38009609  0.87056256  0.81235222  1
  Li  Li8  1  0.24779936  0.25285491  0.37306714  1
  Mn  Mn9  1  0.00657306  0.00254971  0.00702543  1
  Mn  Mn10  1  0.00612645  0.00346510  0.50488530  1
  Co  Co11  1  0.25012646  0.24894149  0.87627478  1
  Co  Co12  1  0.49436195  0.49576589  0.73891521  1
  Co  Co13  1  0.48758925  0.49324389  0.24768159  1
  Co  Co14  1  0.74915619  0.74988878  0.12571263  1
  Co  Co15  1  0.75073827  0.74710413  0.62608561  1
  O  O16  1  0.30729555  0.07199658  0.86674867  1
  O  O17  1  0.27548205  0.05331360  0.32271971  1
  O  O18  1  0.53057890  0.31196655  0.17709129  1
  O  O19  1  0.53331204  0.31563037  0.72991949  1
  O  O20  1  0.79777733  0.55958055  0.58785600  1
  O  O21  1  0.78952845  0.57261582  0.09461817  1
  O  O22  1  0.03900874  0.81657868  0.97573964  1
  O  O23  1  0.05529480  0.82085209  0.49065147  1
  O  O24  1  0.96757380  0.18478935  0.56171500  1
  O  O25  1  0.96072862  0.17961918  0.02001761  1
  O  O26  1  0.19344267  0.42541187  0.89929256  1
  O  O27  1  0.20330981  0.44335082  0.39738874  1
  O  O28  1  0.46831111  0.69349126  0.28013661  1
  O  O29  1  0.44766082  0.68119905  0.76406742  1
  O  O30  1  0.72962544  0.94314594  0.68309005  1
  O  O31  1  0.70246244  0.93062331  0.14278678  1
