# generated using pymatgen
data_Li9Mn2Co5O16
_symmetry_space_group_name_H-M   'P 1'
_cell_length_a   5.07643474
_cell_length_b   10.14256574
_cell_length_c   5.97288716
_cell_angle_alpha   89.48057297
_cell_angle_beta   74.01783697
_cell_angle_gamma   79.14646352
_symmetry_Int_Tables_number   1
_chemical_formula_structural   Li9Mn2Co5O16
_chemical_formula_sum   'Li9 Mn2 Co5 O16'
_cell_volume   290.05873877
_cell_formula_units_Z   1
loop_
 _symmetry_equiv_pos_site_id
 _symmetry_equiv_pos_as_xyz
  1  'x, y, z'
loop_
 _atom_site_type_symbol
 _atom_site_label
 _atom_site_symmetry_multiplicity
 _atom_site_fract_x
 _atom_site_fract_y
 _atom_site_fract_z
 _atom_site_occupancy
  Li  Li0  1  0.50371348  0.13139930  0.37671766  1
  Li  Li1  1  0.00809283  0.26575430  0.25321805  1
  Li  Li2  1  0.99539913  0.99789785  0.49910195  1
  Li  Li3  1  0.48974167  0.38216915  0.13482562  1
  Li  Li4  1  0.98944242  0.50049735  0.00277593  1
  Li  Li5  1  0.51669698  0.61720494  0.86672338  1
  Li  Li6  1  0.01243797  0.73703203  0.74457697  1
  Li  Li7  1  0.49094571  0.86719617  0.62615804  1
  Li  Li8  1  0.99436287  0.49900073  0.49913992  1
  Mn  Mn9  1  0.00257900  0.99866678  0.99854745  1
  Mn  Mn10  1  0.49944643  0.12659153  0.87369049  1
  Co  Co11  1  0.98698921  0.26573617  0.74119872  1
  Co  Co12  1  0.47958253  0.38786311  0.61602825  1
  Co  Co13  1  0.50161785  0.62448408  0.37947509  1
  Co  Co14  1  0.00688115  0.73956344  0.25611961  1
  Co  Co15  1  0.51174202  0.86310059  0.12620846  1
  O  O16  1  0.74807382  0.17236553  0.04493616  1
  O  O17  1  0.26205862  0.29843834  0.92682569  1
  O  O18  1  0.25809133  0.05506553  0.15538066  1
  O  O19  1  0.75510032  0.42684628  0.81343913  1
  O  O20  1  0.25984323  0.55413867  0.69748949  1
  O  O21  1  0.73752179  0.68765499  0.53513856  1
  O  O22  1  0.26303719  0.80686282  0.42246473  1
  O  O23  1  0.77404591  0.93597796  0.28244300  1
  O  O24  1  0.24513750  0.06525475  0.71958992  1
  O  O25  1  0.72951264  0.18675287  0.59135885  1
  O  O26  1  0.75461633  0.95025776  0.82787383  1
  O  O27  1  0.24862694  0.30767678  0.45262509  1
  O  O28  1  0.72671729  0.44754633  0.32300650  1
  O  O29  1  0.25944624  0.57738661  0.20447805  1
  O  O30  1  0.75116074  0.69827307  0.05723637  1
  O  O31  1  0.23733885  0.82534318  0.95120637  1
