# generated using pymatgen
data_MnNb4O12
_symmetry_space_group_name_H-M   'P 1'
_cell_length_a   5.64165221
_cell_length_b   11.33028897
_cell_length_c   10.02017259
_cell_angle_alpha   27.08723343
_cell_angle_beta   50.00062020
_cell_angle_gamma   55.12482319
_symmetry_Int_Tables_number   1
_chemical_formula_structural   MnNb4O12
_chemical_formula_sum   'Mn1 Nb4 O12'
_cell_volume   223.41999095
_cell_formula_units_Z   1
loop_
 _symmetry_equiv_pos_site_id
 _symmetry_equiv_pos_as_xyz
  1  'x, y, z'
loop_
 _atom_site_type_symbol
 _atom_site_label
 _atom_site_symmetry_multiplicity
 _atom_site_fract_x
 _atom_site_fract_y
 _atom_site_fract_z
 _atom_site_occupancy
  Mn  Mn0  1  0.31509534  0.99602514  0.29671963  1
  Nb  Nb1  1  0.02519974  0.01697313  0.96187523  1
  Nb  Nb2  1  0.95935232  0.49315571  0.01661663  1
  Nb  Nb3  1  0.50397078  0.99396199  0.50643827  1
  Nb  Nb4  1  0.49805118  0.51924766  0.47783285  1
  O  O5  1  0.33785903  0.27469808  0.13756587  1
  O  O6  1  0.23581291  0.11961488  0.60738581  1
  O  O7  1  0.12670412  0.30316638  0.73498790  1
  O  O8  1  0.89930649  0.16528776  0.23942286  1
  O  O9  1  0.32872067  0.79880191  0.13861359  1
  O  O10  1  0.74253900  0.39862143  0.33789848  1
  O  O11  1  0.23545804  0.67181856  0.56505902  1
  O  O12  1  0.56443659  0.17833960  0.89726430  1
  O  O13  1  0.14098679  0.81379714  0.69958700  1
  O  O14  1  0.84336204  0.69018545  0.23601387  1
  O  O15  1  0.68957867  0.89332187  0.34214628  1
  O  O16  1  0.61286728  0.67298231  0.86387339  1
