# generated using pymatgen
data_Li4Mn3V2Cr(PO4)6
_symmetry_space_group_name_H-M   'P 1'
_cell_length_a   8.45784216
_cell_length_b   9.02223041
_cell_length_c   9.02638791
_cell_angle_alpha   59.79720793
_cell_angle_beta   58.34740746
_cell_angle_gamma   58.26234250
_symmetry_Int_Tables_number   1
_chemical_formula_structural   Li4Mn3V2Cr(PO4)6
_chemical_formula_sum   'Li4 Mn3 V2 Cr1 P6 O24'
_cell_volume   473.50246050
_cell_formula_units_Z   1
loop_
 _symmetry_equiv_pos_site_id
 _symmetry_equiv_pos_as_xyz
  1  'x, y, z'
loop_
 _atom_site_type_symbol
 _atom_site_label
 _atom_site_symmetry_multiplicity
 _atom_site_fract_x
 _atom_site_fract_y
 _atom_site_fract_z
 _atom_site_occupancy
  Li  Li0  1  0.24990030  0.85525060  0.64753105  1
  Li  Li1  1  0.77540923  0.14184955  0.34812783  1
  Li  Li2  1  0.77235311  0.73669048  0.13666293  1
  Li  Li3  1  0.77560671  0.35467593  0.73472179  1
  Mn  Mn4  1  0.04117178  0.65171295  0.65513057  1
  Mn  Mn5  1  0.45494734  0.84707556  0.84942709  1
  Mn  Mn6  1  0.97465838  0.34174423  0.33948756  1
  V  V7  1  0.01146398  0.99723479  0.00051161  1
  V  V8  1  0.49512744  0.49769618  0.49925283  1
  Cr  Cr9  1  0.55596275  0.15047311  0.14693380  1
  P  P10  1  0.25182017  0.25396286  0.55335038  1
  P  P11  1  0.25122973  0.94165503  0.24984026  1
  P  P12  1  0.24917154  0.55612841  0.94188240  1
  P  P13  1  0.74162789  0.44246095  0.06033885  1
  P  P14  1  0.75810385  0.05803868  0.75199401  1
  P  P15  1  0.72496631  0.75751036  0.44640085  1
  O  O16  1  0.05267851  0.08645170  0.32557503  1
  O  O17  1  0.05058192  0.53478009  0.08696652  1
  O  O18  1  0.05270857  0.33645658  0.52699589  1
  O  O19  1  0.22980785  0.09743890  0.73839820  1
  O  O20  1  0.42983795  0.18993981  0.38925692  1
  O  O21  1  0.29560311  0.39845315  0.56331263  1
  O  O22  1  0.23167508  0.91945410  0.10290071  1
  O  O23  1  0.29194105  0.75129913  0.40714945  1
  O  O24  1  0.55627715  0.59070984  0.02321018  1
  O  O25  1  0.29000719  0.57120956  0.74301122  1
  O  O26  1  0.76614706  0.24145157  0.08889796  1
  O  O27  1  0.59075724  0.99824736  0.81654846  1
  O  O28  1  0.42990024  0.99597474  0.18191171  1
  O  O29  1  0.22634050  0.74952485  0.91713053  1
  O  O30  1  0.71661006  0.41970327  0.25815529  1
  O  O31  1  0.42879469  0.39208049  0.99073809  1
  O  O32  1  0.71915088  0.25653003  0.60337285  1
  O  O33  1  0.76620235  0.09199484  0.90519605  1
  O  O34  1  0.71289748  0.60304901  0.41795735  1
  O  O35  1  0.52656424  0.82446836  0.58976691  1
  O  O36  1  0.76031857  0.90503733  0.24616638  1
  O  O37  1  0.89909865  0.69939615  0.49596984  1
  O  O38  1  0.93075354  0.47137773  0.90756164  1
  O  O39  1  0.96182661  0.91381075  0.68925140  1
