# generated using pymatgen
data_Co7O12
_symmetry_space_group_name_H-M   'P 1'
_cell_length_a   4.96435904
_cell_length_b   4.96435855
_cell_length_c   9.62267697
_cell_angle_alpha   83.82699937
_cell_angle_beta   96.17300260
_cell_angle_gamma   59.28315080
_symmetry_Int_Tables_number   1
_chemical_formula_structural   Co7O12
_chemical_formula_sum   'Co7 O12'
_cell_volume   199.00070994
_cell_formula_units_Z   1
loop_
 _symmetry_equiv_pos_site_id
 _symmetry_equiv_pos_as_xyz
  1  'x, y, z'
loop_
 _atom_site_type_symbol
 _atom_site_label
 _atom_site_symmetry_multiplicity
 _atom_site_fract_x
 _atom_site_fract_y
 _atom_site_fract_z
 _atom_site_occupancy
  Co  Co0  1  0.09012467  0.09012467  0.25000000  1
  Co  Co1  1  0.99417288  0.54468400  0.97706412  1
  Co  Co2  1  0.23642556  0.23642556  0.75000000  1
  Co  Co3  1  0.54468400  0.99417288  0.52293588  1
  Co  Co4  1  0.42406845  0.42406845  0.25000000  1
  Co  Co5  1  0.55935426  0.55935426  0.75000000  1
  Co  Co6  1  0.75627689  0.75627689  0.25000000  1
  O  O7  1  0.94422284  0.25131272  0.86603005  1
  O  O8  1  0.25131272  0.94422284  0.63396995  1
  O  O9  1  0.18059873  0.35845707  0.36588769  1
  O  O10  1  0.35845707  0.18059873  0.13411231  1
  O  O11  1  0.28438083  0.50694770  0.85369412  1
  O  O12  1  0.50694770  0.28438083  0.64630588  1
  O  O13  1  0.46389580  0.72285198  0.35161427  1
  O  O14  1  0.72285198  0.46389580  0.14838573  1
  O  O15  1  0.58970612  0.84373109  0.85999211  1
  O  O16  1  0.84373109  0.58970612  0.64000789  1
  O  O17  1  0.78325033  0.04412007  0.36039008  1
  O  O18  1  0.04412007  0.78325033  0.13960992  1
