# generated using pymatgen
data_LiV2(OF)3
_symmetry_space_group_name_H-M   'P 1'
_cell_length_a   5.11389568
_cell_length_b   5.12428394
_cell_length_c   13.51332752
_cell_angle_alpha   89.97274517
_cell_angle_beta   88.82746116
_cell_angle_gamma   60.73677818
_symmetry_Int_Tables_number   1
_chemical_formula_structural   LiV2(OF)3
_chemical_formula_sum   'Li3 V6 O9 F9'
_cell_volume   308.84302783
_cell_formula_units_Z   3
loop_
 _symmetry_equiv_pos_site_id
 _symmetry_equiv_pos_as_xyz
  1  'x, y, z'
loop_
 _atom_site_type_symbol
 _atom_site_label
 _atom_site_symmetry_multiplicity
 _atom_site_fract_x
 _atom_site_fract_y
 _atom_site_fract_z
 _atom_site_occupancy
  Li  Li0  1  0.35376467  0.31885541  0.04079200  1
  Li  Li1  1  0.98569340  0.99862997  0.71097818  1
  Li  Li2  1  0.66444349  0.67290984  0.37527956  1
  V  V3  1  0.02000980  0.02829651  0.48812300  1
  V  V4  1  0.31864714  0.28150548  0.82254161  1
  V  V5  1  0.34216019  0.37544625  0.33250351  1
  V  V6  1  0.67971969  0.64723051  0.66647277  1
  V  V7  1  0.63453781  0.68973313  0.15385108  1
  V  V8  1  0.00987133  0.98088102  0.99958405  1
  O  O9  1  0.24237864  0.05417174  0.91943732  1
  O  O10  1  0.04964006  0.28718553  0.41422890  1
  O  O11  1  0.00466077  0.37289167  0.75403511  1
  O  O12  1  0.58372052  0.42026314  0.25364313  1
  O  O13  1  0.75701937  0.34565646  0.58945539  1
  O  O14  1  0.29449206  0.66961897  0.42417760  1
  O  O15  1  0.34758171  0.70801956  0.08477879  1
  O  O16  1  0.72906579  0.95106027  0.08359058  1
  O  O17  1  0.62236537  0.97552276  0.75121873  1
  F  F18  1  0.66969763  0.04585140  0.41662044  1
  F  F19  1  0.97613613  0.62004944  0.25648111  1
  F  F20  1  0.64114471  0.25908065  0.92139866  1
  F  F21  1  0.07382446  0.62876161  0.92446686  1
  F  F22  1  0.97149456  0.33748829  0.08575527  1
  F  F23  1  0.36853478  0.61495232  0.74988086  1
  F  F24  1  0.32940656  0.94843034  0.58793284  1
  F  F25  1  0.40245009  0.99962493  0.25419464  1
  F  F26  1  0.93905226  0.76284980  0.58738701  1
