# generated using pymatgen
data_Li4Ti(Co4O9)2
_symmetry_space_group_name_H-M   'P 1'
_cell_length_a   8.68495444
_cell_length_b   24.26124841
_cell_length_c   2.84887566
_cell_angle_alpha   90.00000000
_cell_angle_beta   90.00000000
_cell_angle_gamma   90.00000000
_symmetry_Int_Tables_number   1
_chemical_formula_structural   Li4Ti(Co4O9)2
_chemical_formula_sum   'Li8 Ti2 Co16 O36'
_cell_volume   600.28042848
_cell_formula_units_Z   2
loop_
 _symmetry_equiv_pos_site_id
 _symmetry_equiv_pos_as_xyz
  1  'x, y, z'
loop_
 _atom_site_type_symbol
 _atom_site_label
 _atom_site_symmetry_multiplicity
 _atom_site_fract_x
 _atom_site_fract_y
 _atom_site_fract_z
 _atom_site_occupancy
  Li  Li0  1  0.17588392  0.00181937  -0.00000000  1
  Li  Li1  1  0.20832890  0.20068691  -0.00000000  1
  Li  Li2  1  0.29167110  0.70068691  -0.00000000  1
  Li  Li3  1  0.32411608  0.50181937  0.00000000  1
  Li  Li4  1  0.69428941  0.52125140  -0.00000000  1
  Li  Li5  1  0.69311463  0.29261997  -0.00000000  1
  Li  Li6  1  0.80688537  0.79261997  0.00000000  1
  Li  Li7  1  0.80571059  0.02125140  0.00000000  1
  Ti  Ti8  1  0.50479083  0.39610721  0.00000000  1
  Ti  Ti9  1  0.99520917  0.89610721  -0.00000000  1
  Co  Co10  1  0.00462396  0.50135048  -0.00000000  1
  Co  Co11  1  0.01422750  0.10688669  0.00000000  1
  Co  Co12  1  0.02579989  0.30832981  -0.00000000  1
  Co  Co13  1  0.14169242  0.58759447  0.50000000  1
  Co  Co14  1  0.14653592  0.80450211  0.50000000  1
  Co  Co15  1  0.35346408  0.30450211  0.50000000  1
  Co  Co16  1  0.35830758  0.08759447  0.50000000  1
  Co  Co17  1  0.47420011  0.80832981  -0.00000000  1
  Co  Co18  1  0.48577250  0.60688669  -0.00000000  1
  Co  Co19  1  0.49537604  0.00135048  -0.00000000  1
  Co  Co20  1  0.52117055  0.18594087  -0.00000000  1
  Co  Co21  1  0.63224996  0.91394342  0.50000000  1
  Co  Co22  1  0.64574500  0.69170848  0.50000000  1
  Co  Co23  1  0.85425500  0.19170848  0.50000000  1
  Co  Co24  1  0.86775004  0.41394342  0.50000000  1
  Co  Co25  1  0.97882945  0.68594087  -0.00000000  1
  O  O26  1  0.00741648  0.42239142  0.00000000  1
  O  O27  1  0.99673754  0.57995669  0.00000000  1
  O  O28  1  0.05056597  0.94298131  0.50000000  1
  O  O29  1  0.05211404  0.16015862  0.50000000  1
  O  O30  1  0.11449019  0.66475996  0.50000000  1
  O  O31  1  0.10114918  0.75735760  0.00000000  1
  O  O32  1  0.15127379  0.50877576  0.50000000  1
  O  O33  1  0.14857397  0.27867756  0.50000000  1
  O  O34  1  0.19379796  0.85387352  0.00000000  1
  O  O35  1  0.21676870  0.08854391  0.00000000  1
  O  O36  1  0.28323130  0.58854391  -0.00000000  1
  O  O37  1  0.30620204  0.35387352  0.00000000  1
  O  O38  1  0.35142603  0.77867756  0.50000000  1
  O  O39  1  0.34872621  0.00877576  0.50000000  1
  O  O40  1  0.39885082  0.25735760  0.00000000  1
  O  O41  1  0.38550981  0.16475996  0.50000000  1
  O  O42  1  0.44788596  0.66015862  0.50000000  1
  O  O43  1  0.44943403  0.44298131  0.50000000  1
  O  O44  1  0.50326246  0.07995669  0.00000000  1
  O  O45  1  0.49258352  0.92239142  0.00000000  1
  O  O46  1  0.53811362  0.55896259  0.50000000  1
  O  O47  1  0.55363806  0.33618114  0.50000000  1
  O  O48  1  0.59791423  0.83706075  0.50000000  1
  O  O49  1  0.60763448  0.74058868  0.00000000  1
  O  O50  1  0.64494014  0.99186706  0.50000000  1
  O  O51  1  0.64770633  0.21223900  0.50000000  1
  O  O52  1  0.68129752  0.64147297  -0.00000000  1
  O  O53  1  0.72296623  0.41141028  0.00000000  1
  O  O54  1  0.77703377  0.91141028  0.00000000  1
  O  O55  1  0.81870248  0.14147297  -0.00000000  1
  O  O56  1  0.85229367  0.71223900  0.50000000  1
  O  O57  1  0.85505986  0.49186706  0.50000000  1
  O  O58  1  0.89236552  0.24058868  0.00000000  1
  O  O59  1  0.90208577  0.33706075  0.50000000  1
  O  O60  1  0.94636194  0.83618114  0.50000000  1
  O  O61  1  0.96188638  0.05896259  0.50000000  1
