# generated using pymatgen
data_Li4Nb3Ni3(TeO8)2
_symmetry_space_group_name_H-M   'P 1'
_cell_length_a   6.16298103
_cell_length_b   6.01034632
_cell_length_c   10.40931878
_cell_angle_alpha   90.01955409
_cell_angle_beta   89.46798848
_cell_angle_gamma   119.18316464
_symmetry_Int_Tables_number   1
_chemical_formula_structural   Li4Nb3Ni3(TeO8)2
_chemical_formula_sum   'Li4 Nb3 Ni3 Te2 O16'
_cell_volume   336.61672768
_cell_formula_units_Z   1
loop_
 _symmetry_equiv_pos_site_id
 _symmetry_equiv_pos_as_xyz
  1  'x, y, z'
loop_
 _atom_site_type_symbol
 _atom_site_label
 _atom_site_symmetry_multiplicity
 _atom_site_fract_x
 _atom_site_fract_y
 _atom_site_fract_z
 _atom_site_occupancy
  Li  Li0  1  0.32708815  0.66333250  0.90496709  1
  Li  Li1  1  0.99182659  0.99611917  0.98192111  1
  Li  Li2  1  0.98438817  0.99253775  0.49970368  1
  Li  Li3  1  0.67413766  0.33689831  0.40482806  1
  Nb  Nb4  1  0.18647898  0.84293532  0.22081513  1
  Nb  Nb5  1  0.18655576  0.34371801  0.22088384  1
  Nb  Nb6  1  0.35985137  0.17987139  0.73249711  1
  Ni  Ni7  1  0.66497928  0.83256474  0.20529645  1
  Ni  Ni8  1  0.82910548  0.65873187  0.71513552  1
  Ni  Ni9  1  0.82920399  0.17023432  0.71519853  1
  Te  Te10  1  0.34217204  0.67111446  0.51680364  1
  Te  Te11  1  0.71418611  0.35720209  0.99350364  1
  O  O12  1  0.16908421  0.83343532  0.60302524  1
  O  O13  1  0.01761716  0.50899114  0.32922365  1
  O  O14  1  0.33093585  0.66536036  0.10125083  1
  O  O15  1  0.98394356  0.99212910  0.31404751  1
  O  O16  1  0.01235614  0.00639778  0.79910999  1
  O  O17  1  0.16951114  0.33549821  0.60259432  1
  O  O18  1  0.47955920  0.98941623  0.31939154  1
  O  O19  1  0.47952048  0.49033121  0.31957262  1
  O  O20  1  0.28355332  0.14187454  0.09620254  1
  O  O21  1  0.66613297  0.83278667  0.60238200  1
  O  O22  1  0.49882711  0.48253932  0.83349827  1
  O  O23  1  0.49827175  0.01628626  0.83388124  1
  O  O24  1  0.64188053  0.32029456  0.60717609  1
  O  O25  1  0.85861162  0.68223227  0.09139006  1
  O  O26  1  0.96180440  0.48080872  0.85209631  1
  O  O27  1  0.85841700  0.17665638  0.09144200  1
