# generated using pymatgen
data_Li4V2Co3Cu3O16
_symmetry_space_group_name_H-M   'P 1'
_cell_length_a   5.79238912
_cell_length_b   5.84588890
_cell_length_c   9.44959777
_cell_angle_alpha   86.12672294
_cell_angle_beta   90.85328909
_cell_angle_gamma   119.31644222
_symmetry_Int_Tables_number   1
_chemical_formula_structural   Li4V2Co3Cu3O16
_chemical_formula_sum   'Li4 V2 Co3 Cu3 O16'
_cell_volume   278.30091850
_cell_formula_units_Z   1
loop_
 _symmetry_equiv_pos_site_id
 _symmetry_equiv_pos_as_xyz
  1  'x, y, z'
loop_
 _atom_site_type_symbol
 _atom_site_label
 _atom_site_symmetry_multiplicity
 _atom_site_fract_x
 _atom_site_fract_y
 _atom_site_fract_z
 _atom_site_occupancy
  Li  Li0  1  0.33339591  0.67560778  0.90062340  1
  Li  Li1  1  0.00681512  0.00408874  0.98999969  1
  Li  Li2  1  0.99763755  0.00038981  0.49391732  1
  Li  Li3  1  0.66340623  0.33132772  0.40202924  1
  V  V4  1  0.33878923  0.67730050  0.49571527  1
  V  V5  1  0.66681408  0.35797492  0.99639664  1
  Co  Co6  1  0.65691656  0.83439610  0.21162345  1
  Co  Co7  1  0.83110700  0.65109001  0.71300785  1
  Co  Co8  1  0.82855240  0.16954955  0.72677387  1
  Cu  Cu9  1  0.16593530  0.82652809  0.21685035  1
  Cu  Cu10  1  0.17080387  0.34190181  0.21559257  1
  Cu  Cu11  1  0.34039654  0.17535011  0.71023638  1
  O  O12  1  0.14143780  0.77905643  0.58477899  1
  O  O13  1  0.04296889  0.50643807  0.35127633  1
  O  O14  1  0.34222438  0.68268803  0.11130758  1
  O  O15  1  0.98462845  0.98650221  0.30251856  1
  O  O16  1  0.00171003  0.98258693  0.79559772  1
  O  O17  1  0.17883604  0.32785843  0.58806254  1
  O  O18  1  0.47122637  0.95856825  0.35358090  1
  O  O19  1  0.49126725  0.53191030  0.33965465  1
  O  O20  1  0.34804233  0.18495302  0.08510296  1
  O  O21  1  0.64759191  0.80850020  0.59330208  1
  O  O22  1  0.55953927  0.52247427  0.85240990  1
  O  O23  1  0.50681391  0.05004704  0.84259308  1
  O  O24  1  0.66690662  0.34264525  0.61451238  1
  O  O25  1  0.83511531  0.65157975  0.09171519  1
  O  O26  1  0.96241462  0.48015965  0.84332656  1
  O  O27  1  0.81870604  0.15882702  0.08533453  1
