# generated using pymatgen
data_LiMn2(CoO4)2
_symmetry_space_group_name_H-M   'P 1'
_cell_length_a   5.91447728
_cell_length_b   5.71425155
_cell_length_c   5.81162500
_cell_angle_alpha   60.17349955
_cell_angle_beta   58.70829289
_cell_angle_gamma   89.33549843
_symmetry_Int_Tables_number   1
_chemical_formula_structural   LiMn2(CoO4)2
_chemical_formula_sum   'Li1 Mn2 Co2 O8'
_cell_volume   137.30809949
_cell_formula_units_Z   1
loop_
 _symmetry_equiv_pos_site_id
 _symmetry_equiv_pos_as_xyz
  1  'x, y, z'
loop_
 _atom_site_type_symbol
 _atom_site_label
 _atom_site_symmetry_multiplicity
 _atom_site_fract_x
 _atom_site_fract_y
 _atom_site_fract_z
 _atom_site_occupancy
  Li  Li0  1  0.50000000  -0.00000000  0.50000000  1
  Mn  Mn1  1  -0.00000000  0.50000000  0.50000000  1
  Mn  Mn2  1  0.50000000  -0.00000000  0.00000000  1
  Co  Co3  1  -0.00000000  -0.00000000  0.00000000  1
  Co  Co4  1  -0.00000000  -0.00000000  0.50000000  1
  O  O5  1  0.23476880  0.20482944  0.04079261  1
  O  O6  1  0.23277982  0.76382788  0.47771946  1
  O  O7  1  0.20320605  0.22711882  0.53102665  1
  O  O8  1  0.25280445  0.76099003  0.02241782  1
  O  O9  1  0.74719555  0.23900997  0.97758218  1
  O  O10  1  0.79679395  0.77288118  0.46897335  1
  O  O11  1  0.76722018  0.23617212  0.52228054  1
  O  O12  1  0.76523120  0.79517056  0.95920739  1
