# generated using pymatgen
data_Li3V2(OF)4
_symmetry_space_group_name_H-M   'P 1'
_cell_length_a   3.62046316
_cell_length_b   6.46395963
_cell_length_c   6.93538761
_cell_angle_alpha   66.84359318
_cell_angle_beta   90.04871702
_cell_angle_gamma   90.24444407
_symmetry_Int_Tables_number   1
_chemical_formula_structural   Li3V2(OF)4
_chemical_formula_sum   'Li3 V2 O4 F4'
_cell_volume   149.22799910
_cell_formula_units_Z   1
loop_
 _symmetry_equiv_pos_site_id
 _symmetry_equiv_pos_as_xyz
  1  'x, y, z'
loop_
 _atom_site_type_symbol
 _atom_site_label
 _atom_site_symmetry_multiplicity
 _atom_site_fract_x
 _atom_site_fract_y
 _atom_site_fract_z
 _atom_site_occupancy
  Li  Li0  1  0.74113131  0.63748423  0.63442014  1
  Li  Li1  1  0.24141013  0.37699650  0.42317858  1
  Li  Li2  1  0.74851526  0.35515619  0.15033320  1
  V  V3  1  0.23849275  0.86993069  0.21414298  1
  V  V4  1  0.73948015  0.11911035  0.78875098  1
  O  O5  1  0.73873135  0.92143316  0.13576707  1
  O  O6  1  0.74042827  0.30070007  0.53214250  1
  O  O7  1  0.23966793  0.69971851  0.46984664  1
  O  O8  1  0.23937364  0.08157119  0.85673807  1
  F  F9  1  0.73804180  0.85482947  0.74066953  1
  F  F10  1  0.74123092  0.37541127  0.87807840  1
  F  F11  1  0.23436874  0.59918218  0.14421977  1
  F  F12  1  0.24080275  0.15913418  0.25567314  1
