# generated using pymatgen
data_Li4Fe5NiO12
_symmetry_space_group_name_H-M   'P 1'
_cell_length_a   5.21591241
_cell_length_b   5.11791078
_cell_length_c   10.32717302
_cell_angle_alpha   90.00750434
_cell_angle_beta   90.01472660
_cell_angle_gamma   59.36451644
_symmetry_Int_Tables_number   1
_chemical_formula_structural   Li4Fe5NiO12
_chemical_formula_sum   'Li4 Fe5 Ni1 O12'
_cell_volume   237.20195979
_cell_formula_units_Z   1
loop_
 _symmetry_equiv_pos_site_id
 _symmetry_equiv_pos_as_xyz
  1  'x, y, z'
loop_
 _atom_site_type_symbol
 _atom_site_label
 _atom_site_symmetry_multiplicity
 _atom_site_fract_x
 _atom_site_fract_y
 _atom_site_fract_z
 _atom_site_occupancy
  Li  Li0  1  0.14820189  0.50391361  0.75124385  1
  Li  Li1  1  0.34788450  0.50391361  0.24875615  1
  Li  Li2  1  0.65211550  0.49608639  0.75124385  1
  Li  Li3  1  0.85179811  0.49608639  0.24875615  1
  Fe  Fe4  1  0.16588351  0.66823299  0.50000000  1
  Fe  Fe5  1  0.66615303  0.66769495  0.00000000  1
  Fe  Fe6  1  0.33384697  0.33230505  1.00000000  1
  Fe  Fe7  1  0.83411649  0.33176701  0.50000000  1
  Fe  Fe8  1  0.50000000  0.00000000  0.50000000  1
  Ni  Ni9  1  -0.00000000  0.00000000  0.00000000  1
  O  O10  1  0.03084313  0.63329963  0.10818279  1
  O  O11  1  0.33585724  0.63329963  0.89181721  1
  O  O12  1  0.16946497  0.35180894  0.39154323  1
  O  O13  1  0.52127392  0.64819106  0.39154323  1
  O  O14  1  0.47872608  0.35180894  0.60845677  1
  O  O15  1  0.16051034  0.00000000  0.59625776  1
  O  O16  1  0.83053503  0.64819106  0.60845677  1
  O  O17  1  0.66414276  0.36670037  0.10818279  1
  O  O18  1  0.35187553  1.00000000  0.09449920  1
  O  O19  1  0.96915687  0.36670037  0.89181721  1
  O  O20  1  0.64812447  0.00000000  0.90550080  1
  O  O21  1  0.83948966  1.00000000  0.40374224  1
