# generated using pymatgen
data_LiVPO5
_symmetry_space_group_name_H-M   'P 1'
_cell_length_a   5.36962097
_cell_length_b   7.32224587
_cell_length_c   5.99197687
_cell_angle_alpha   109.91661470
_cell_angle_beta   97.56246208
_cell_angle_gamma   107.43299631
_symmetry_Int_Tables_number   1
_chemical_formula_structural   LiVPO5
_chemical_formula_sum   'Li2 V2 P2 O10'
_cell_volume   204.03004784
_cell_formula_units_Z   2
loop_
 _symmetry_equiv_pos_site_id
 _symmetry_equiv_pos_as_xyz
  1  'x, y, z'
loop_
 _atom_site_type_symbol
 _atom_site_label
 _atom_site_symmetry_multiplicity
 _atom_site_fract_x
 _atom_site_fract_y
 _atom_site_fract_z
 _atom_site_occupancy
  Li  Li0  1  0.18741590  0.68620043  0.35130646  1
  Li  Li1  1  0.81258094  0.31379798  0.64870533  1
  V  V2  1  0.32669630  0.29009666  0.91695500  1
  V  V3  1  0.67331186  0.70990390  0.08303526  1
  P  P4  1  0.18709692  0.14595840  0.34658374  1
  P  P5  1  0.81292357  0.85405529  0.65341661  1
  O  O6  1  0.01124641  0.74705115  0.61080282  1
  O  O7  1  0.27237313  0.51978810  0.97552057  1
  O  O8  1  0.05436247  0.90171041  0.21671824  1
  O  O9  1  0.39924784  0.19955540  0.59294939  1
  O  O10  1  0.37445147  0.22018657  0.18865551  1
  O  O11  1  0.62554471  0.77981144  0.81134837  1
  O  O12  1  0.60074853  0.80043949  0.40704703  1
  O  O13  1  0.94564120  0.09827958  0.78327889  1
  O  O14  1  0.72760543  0.48022440  0.02447908  1
  O  O15  1  0.98875332  0.25294079  0.38919671  1
