# generated using pymatgen
data_Li2CrFe3O8
_symmetry_space_group_name_H-M   'P 1'
_cell_length_a   5.96556614
_cell_length_b   5.96556579
_cell_length_c   5.96556649
_cell_angle_alpha   59.83153657
_cell_angle_beta   59.83153213
_cell_angle_gamma   59.83153197
_symmetry_Int_Tables_number   1
_chemical_formula_structural   Li2CrFe3O8
_chemical_formula_sum   'Li2 Cr1 Fe3 O8'
_cell_volume   149.54649998
_cell_formula_units_Z   1
loop_
 _symmetry_equiv_pos_site_id
 _symmetry_equiv_pos_as_xyz
  1  'x, y, z'
loop_
 _atom_site_type_symbol
 _atom_site_label
 _atom_site_symmetry_multiplicity
 _atom_site_fract_x
 _atom_site_fract_y
 _atom_site_fract_z
 _atom_site_occupancy
  Li  Li0  1  0.12416147  0.12416147  0.12416147  1
  Li  Li1  1  0.87583853  0.87583853  0.87583853  1
  Cr  Cr2  1  0.50000000  0.50000000  0.50000000  1
  Fe  Fe3  1  0.00000000  0.50000000  0.50000000  1
  Fe  Fe4  1  0.50000000  -0.00000000  0.50000000  1
  Fe  Fe5  1  0.50000000  0.50000000  0.00000000  1
  O  O6  1  0.26051369  0.26051370  0.26051369  1
  O  O7  1  0.26055748  0.26055748  0.71286742  1
  O  O8  1  0.26055748  0.71286742  0.26055748  1
  O  O9  1  0.71286742  0.26055748  0.26055748  1
  O  O10  1  0.28713258  0.73944252  0.73944252  1
  O  O11  1  0.73944252  0.28713258  0.73944252  1
  O  O12  1  0.73944252  0.73944252  0.28713258  1
  O  O13  1  0.73948631  0.73948630  0.73948631  1
