# generated using pymatgen
data_Li3Cr4P5O24
_symmetry_space_group_name_H-M   'P 1'
_cell_length_a   8.27263354
_cell_length_b   9.18604783
_cell_length_c   13.76238492
_cell_angle_alpha   93.10573518
_cell_angle_beta   107.49077819
_cell_angle_gamma   63.23819126
_symmetry_Int_Tables_number   1
_chemical_formula_structural   Li3Cr4P5O24
_chemical_formula_sum   'Li6 Cr8 P10 O48'
_cell_volume   886.58996170
_cell_formula_units_Z   2
loop_
 _symmetry_equiv_pos_site_id
 _symmetry_equiv_pos_as_xyz
  1  'x, y, z'
loop_
 _atom_site_type_symbol
 _atom_site_label
 _atom_site_symmetry_multiplicity
 _atom_site_fract_x
 _atom_site_fract_y
 _atom_site_fract_z
 _atom_site_occupancy
  Li  Li0  1  0.95581353  0.99395006  0.26841138  1
  Li  Li1  1  0.31864779  0.49395006  0.76841138  1
  Li  Li2  1  0.68194422  0.50497297  0.23763519  1
  Li  Li3  1  0.98499478  0.54129527  0.05144522  1
  Li  Li4  1  0.05071800  0.00497297  0.73763519  1
  Li  Li5  1  0.52515516  0.04129527  0.55144522  1
  Cr  Cr6  1  0.52955617  0.98893419  0.18065938  1
  Cr  Cr7  1  0.18468688  0.71691013  0.97816092  1
  Cr  Cr8  1  0.92494331  0.77995338  0.52119560  1
  Cr  Cr9  1  0.66217001  0.48893419  0.68065938  1
  Cr  Cr10  1  0.34369487  0.51123499  0.32098865  1
  Cr  Cr11  1  0.07656391  0.21691013  0.47816092  1
  Cr  Cr12  1  0.81629992  0.27995338  0.02119560  1
  Cr  Cr13  1  0.46605880  0.01123499  0.82098865  1
  P  P14  1  0.28903272  0.87488340  0.60688642  1
  P  P15  1  0.80232636  0.94401902  0.04078964  1
  P  P16  1  0.84584565  0.75241481  0.74902317  1
  P  P17  1  0.56021744  0.62371796  0.89580355  1
  P  P18  1  0.71031226  0.55398163  0.46103543  1
  P  P19  1  0.29444425  0.44401902  0.54078964  1
  P  P20  1  0.44297030  0.37488340  0.10688642  1
  P  P21  1  0.15076270  0.25241481  0.24902317  1
  P  P22  1  0.19674154  0.05398163  0.96103543  1
  P  P23  1  0.71186816  0.12371796  0.39580355  1
  O  O24  1  0.10652286  0.93689336  0.91718260  1
  O  O25  1  0.29220492  0.99097713  0.52887349  1
  O  O26  1  0.30204856  0.94594612  0.71388133  1
  O  O27  1  0.67413734  0.90141930  0.76757111  1
  O  O28  1  0.37522080  0.96280538  0.05277841  1
  O  O29  1  0.09168822  0.87911122  0.58333498  1
  O  O30  1  0.54938882  0.79208411  0.89388346  1
  O  O31  1  0.75354729  0.89575669  0.12968468  1
  O  O32  1  0.87375739  0.82165716  0.65852831  1
  O  O33  1  0.59890847  0.80988985  0.23348801  1
  O  O34  1  0.95795909  0.76200426  0.41120309  1
  O  O35  1  0.03278967  0.69101867  0.83900350  1
  O  O36  1  0.44864157  0.70659838  0.60903647  1
  O  O37  1  0.95106847  0.77888368  0.01637311  1
  O  O38  1  0.72634852  0.71339376  0.48870530  1
  O  O39  1  0.38719678  0.61889806  0.91614274  1
  O  O40  1  0.30502394  0.74182965  0.08776815  1
  O  O41  1  0.17863877  0.68949606  0.26708599  1
  O  O42  1  0.81083709  0.60127913  0.72721677  1
  O  O43  1  0.54352534  0.55061470  0.79001729  1
  O  O44  1  0.75208886  0.51147529  0.97886680  1
  O  O45  1  0.52402380  0.60286856  0.37189986  1
  O  O46  1  0.12783850  0.56022818  0.58248793  1
  O  O47  1  0.28470303  0.53451151  0.44722310  1
  O  O48  1  0.71475224  0.46280538  0.55277841  1
  O  O49  1  0.87376637  0.43689336  0.41718260  1
  O  O50  1  0.48038070  0.39575669  0.62968468  1
  O  O51  1  0.24569043  0.49097713  0.02887349  1
  O  O52  1  0.46588665  0.44594612  0.21388133  1
  O  O53  1  0.19201347  0.40141930  0.26757111  1
  O  O54  1  0.82468968  0.30988985  0.73348801  1
  O  O55  1  0.69123974  0.26200426  0.91120309  1
  O  O56  1  0.61253553  0.37911122  0.08333498  1
  O  O57  1  0.28641997  0.27888368  0.51637311  1
  O  O58  1  0.04896202  0.21339376  0.98870530  1
  O  O59  1  0.55241053  0.29208411  0.39388346  1
  O  O60  1  0.96311476  0.32165716  0.15852831  1
  O  O61  1  0.04091556  0.24182965  0.58776815  1
  O  O62  1  0.39895016  0.18949606  0.76708599  1
  O  O63  1  0.11519616  0.19101867  0.33900350  1
  O  O64  1  0.24500750  0.10286856  0.87189986  1
  O  O65  1  0.45379653  0.20659838  0.10903647  1
  O  O66  1  0.91004790  0.11889806  0.41614274  1
  O  O67  1  0.62800856  0.03451151  0.94722310  1
  O  O68  1  0.31510054  0.10127913  0.22721677  1
  O  O69  1  0.69587725  0.05061470  0.29001729  1
  O  O70  1  0.71530265  0.01147529  0.47886680  1
  O  O71  1  0.89442025  0.06022818  0.08248793  1
