# generated using pymatgen
data_Li3FeOF3
_symmetry_space_group_name_H-M   'P 1'
_cell_length_a   2.98143789
_cell_length_b   5.16700734
_cell_length_c   10.36464247
_cell_angle_alpha   80.27092596
_cell_angle_beta   90.08773371
_cell_angle_gamma   107.02602512
_symmetry_Int_Tables_number   1
_chemical_formula_structural   Li3FeOF3
_chemical_formula_sum   'Li6 Fe2 O2 F6'
_cell_volume   150.27987336
_cell_formula_units_Z   2
loop_
 _symmetry_equiv_pos_site_id
 _symmetry_equiv_pos_as_xyz
  1  'x, y, z'
loop_
 _atom_site_type_symbol
 _atom_site_label
 _atom_site_symmetry_multiplicity
 _atom_site_fract_x
 _atom_site_fract_y
 _atom_site_fract_z
 _atom_site_occupancy
  Li  Li0  1  0.75319025  0.50270450  0.86548072  1
  Li  Li1  1  0.50375848  0.00089429  0.75001713  1
  Li  Li2  1  0.50372684  0.00223282  0.24941839  1
  Li  Li3  1  0.00833227  0.00617693  0.49916311  1
  Li  Li4  1  0.25375151  0.49951704  0.63461382  1
  Li  Li5  1  0.99735658  0.99679404  0.00076002  1
  Fe  Fe6  1  0.74909397  0.48685907  0.36805871  1
  Fe  Fe7  1  0.25712191  0.51643994  0.13220441  1
  O  O8  1  0.88008435  0.76173301  0.18233168  1
  O  O9  1  0.12692284  0.24190877  0.31765758  1
  F  F10  1  0.87858245  0.75044382  0.68904530  1
  F  F11  1  0.62985058  0.25025302  0.57422304  1
  F  F12  1  0.63301019  0.26170319  0.04534295  1
  F  F13  1  0.12776300  0.25192723  0.81104120  1
  F  F14  1  0.37642103  0.75235120  0.92598763  1
  F  F15  1  0.37312077  0.74109715  0.45480431  1
