# generated using pymatgen
data_Li3Cr4P5O24
_symmetry_space_group_name_H-M   'P 1'
_cell_length_a   8.27305716
_cell_length_b   9.17597280
_cell_length_c   13.76880758
_cell_angle_alpha   93.30232203
_cell_angle_beta   107.49380992
_cell_angle_gamma   63.21718385
_symmetry_Int_Tables_number   1
_chemical_formula_structural   Li3Cr4P5O24
_chemical_formula_sum   'Li6 Cr8 P10 O48'
_cell_volume   886.21987912
_cell_formula_units_Z   2
loop_
 _symmetry_equiv_pos_site_id
 _symmetry_equiv_pos_as_xyz
  1  'x, y, z'
loop_
 _atom_site_type_symbol
 _atom_site_label
 _atom_site_symmetry_multiplicity
 _atom_site_fract_x
 _atom_site_fract_y
 _atom_site_fract_z
 _atom_site_occupancy
  Li  Li0  1  0.94699795  0.99330401  0.26469129  1
  Li  Li1  1  0.32536945  0.49331322  0.77083819  1
  Li  Li2  1  0.67706719  0.51062285  0.24073224  1
  Li  Li3  1  0.98382095  0.54196232  0.04401102  1
  Li  Li4  1  0.05907118  0.00532753  0.74094933  1
  Li  Li5  1  0.51748111  0.04569751  0.54509089  1
  Cr  Cr6  1  0.52882555  0.98685624  0.18016579  1
  Cr  Cr7  1  0.18445120  0.71482933  0.97711167  1
  Cr  Cr8  1  0.92534848  0.77998068  0.52154304  1
  Cr  Cr9  1  0.66390619  0.48600153  0.68053815  1
  Cr  Cr10  1  0.34315629  0.51149772  0.32097271  1
  Cr  Cr11  1  0.07701357  0.21437459  0.47710708  1
  Cr  Cr12  1  0.81534501  0.28070499  0.02082326  1
  Cr  Cr13  1  0.46583156  0.01236943  0.82010894  1
  P  P14  1  0.28967927  0.87348183  0.60614276  1
  P  P15  1  0.80196155  0.94389492  0.04002282  1
  P  P16  1  0.84550522  0.75150102  0.74878992  1
  P  P17  1  0.55919241  0.62315297  0.89523375  1
  P  P18  1  0.71118142  0.55270169  0.46130511  1
  P  P19  1  0.29482768  0.44326180  0.54070548  1
  P  P20  1  0.44365109  0.37443289  0.10696628  1
  P  P21  1  0.15072441  0.25164056  0.24856507  1
  P  P22  1  0.19604834  0.05300524  0.96032277  1
  P  P23  1  0.71359369  0.12196584  0.39559974  1
  O  O24  1  0.10641269  0.93492124  0.91675877  1
  O  O25  1  0.29314462  0.98920439  0.52802324  1
  O  O26  1  0.30456985  0.94614730  0.71301320  1
  O  O27  1  0.67475091  0.90043940  0.76856629  1
  O  O28  1  0.37565194  0.96221674  0.05163551  1
  O  O29  1  0.09129122  0.88023495  0.58355058  1
  O  O30  1  0.54659636  0.79235757  0.89352068  1
  O  O31  1  0.75394046  0.89686992  0.12985067  1
  O  O32  1  0.87458205  0.81969466  0.65875456  1
  O  O33  1  0.59727878  0.80691404  0.23156183  1
  O  O34  1  0.95851678  0.76018368  0.41127773  1
  O  O35  1  0.03176807  0.68918135  0.83896919  1
  O  O36  1  0.44826459  0.70414250  0.60854383  1
  O  O37  1  0.94994401  0.77835744  0.01506775  1
  O  O38  1  0.72738343  0.71218786  0.48934508  1
  O  O39  1  0.38658627  0.61533770  0.91430869  1
  O  O40  1  0.30524210  0.74056773  0.08662267  1
  O  O41  1  0.17783450  0.68926118  0.26736115  1
  O  O42  1  0.80893533  0.60093086  0.72662867  1
  O  O43  1  0.54604995  0.54818627  0.78974617  1
  O  O44  1  0.75106097  0.51143074  0.97832415  1
  O  O45  1  0.52456441  0.60207307  0.37207325  1
  O  O46  1  0.12810273  0.56029374  0.58227878  1
  O  O47  1  0.28662889  0.53375945  0.44754925  1
  O  O48  1  0.71547613  0.46072418  0.55272217  1
  O  O49  1  0.87426775  0.43492423  0.41705062  1
  O  O50  1  0.48151083  0.39363462  0.62964289  1
  O  O51  1  0.24599452  0.48951829  0.02866315  1
  O  O52  1  0.46465420  0.44755933  0.21360428  1
  O  O53  1  0.19544583  0.39867331  0.26909257  1
  O  O54  1  0.82732134  0.30705326  0.73309882  1
  O  O55  1  0.68949882  0.26253013  0.91067752  1
  O  O56  1  0.61170196  0.38042948  0.08284844  1
  O  O57  1  0.28547935  0.27851250  0.51528136  1
  O  O58  1  0.04839917  0.21280382  0.98821145  1
  O  O59  1  0.55519848  0.29137529  0.39360200  1
  O  O60  1  0.96320240  0.32173876  0.15837595  1
  O  O61  1  0.03988909  0.23936781  0.58664027  1
  O  O62  1  0.39859662  0.19147234  0.76787859  1
  O  O63  1  0.11642932  0.18962091  0.33854470  1
  O  O64  1  0.24326963  0.10115324  0.87034836  1
  O  O65  1  0.45573501  0.20549711  0.11009795  1
  O  O66  1  0.91269086  0.11437174  0.41439966  1
  O  O67  1  0.62645375  0.03458996  0.94699370  1
  O  O68  1  0.31373292  0.10011610  0.22526888  1
  O  O69  1  0.69508649  0.04670340  0.29030181  1
  O  O70  1  0.71667192  0.01078363  0.47913949  1
  O  O71  1  0.89469992  0.06031711  0.08098240  1
