# generated using pymatgen
data_Li4Cr2C4SO16
_symmetry_space_group_name_H-M   'P 1'
_cell_length_a   9.53375047
_cell_length_b   9.41767795
_cell_length_c   16.29948793
_cell_angle_alpha   106.18107386
_cell_angle_beta   90.52501064
_cell_angle_gamma   60.05764899
_symmetry_Int_Tables_number   1
_chemical_formula_structural   Li4Cr2C4SO16
_chemical_formula_sum   'Li16 Cr8 C16 S4 O64'
_cell_volume   1202.95971490
_cell_formula_units_Z   4
loop_
 _symmetry_equiv_pos_site_id
 _symmetry_equiv_pos_as_xyz
  1  'x, y, z'
loop_
 _atom_site_type_symbol
 _atom_site_label
 _atom_site_symmetry_multiplicity
 _atom_site_fract_x
 _atom_site_fract_y
 _atom_site_fract_z
 _atom_site_occupancy
  Li  Li0  1  0.28251979  0.93517117  0.03277633  1
  Li  Li1  1  0.91860566  0.66322884  0.16957524  1
  Li  Li2  1  0.91877377  0.08832000  0.16853910  1
  Li  Li3  1  0.49169179  0.08912769  0.16913291  1
  Li  Li4  1  0.63142168  0.69136327  0.45491135  1
  Li  Li5  1  0.18721886  0.67655629  0.45872969  1
  Li  Li6  1  0.58844928  0.32628039  0.34223748  1
  Li  Li7  1  0.40968106  0.67145610  0.67273138  1
  Li  Li8  1  0.77796579  0.32561633  0.53430824  1
  Li  Li9  1  0.21857977  0.08347173  0.45476779  1
  Li  Li10  1  0.99341500  0.07653510  0.67101117  1
  Li  Li11  1  0.70625868  0.66174127  0.95626154  1
  Li  Li12  1  0.13284506  0.66032813  0.95561821  1
  Li  Li13  1  0.43330789  0.08148622  0.66287779  1
  Li  Li14  1  0.09279004  0.31370056  0.84238795  1
  Li  Li15  1  0.70636854  0.08758016  0.95550101  1
  Cr  Cr16  1  0.50029126  0.49894878  0.99979921  1
  Cr  Cr17  1  0.75112262  0.50017191  0.24933954  1
  Cr  Cr18  1  0.24904092  0.50068109  0.25024895  1
  Cr  Cr19  1  0.00078260  0.49969249  0.49960765  1
  Cr  Cr20  1  0.25045422  0.00009609  0.25012578  1
  Cr  Cr21  1  0.74888470  0.49821668  0.75038077  1
  Cr  Cr22  1  0.25042560  0.49865940  0.75013366  1
  Cr  Cr23  1  0.75056535  0.99750630  0.74981342  1
  C  C24  1  0.20710989  0.71858741  0.13841037  1
  C  C25  1  0.57182082  0.72332310  0.14039046  1
  C  C26  1  0.57456950  0.34578191  0.14371943  1
  C  C27  1  0.39697087  0.71246528  0.32717193  1
  C  C28  1  0.92695696  0.64778384  0.35577343  1
  C  C29  1  0.10499995  0.28657090  0.17465965  1
  C  C30  1  0.28909028  0.28401606  0.36028352  1
  C  C31  1  0.92676638  0.27917445  0.35844409  1
  C  C32  1  0.70573606  0.71526762  0.63988481  1
  C  C33  1  0.07465572  0.71924129  0.64044608  1
  C  C34  1  0.07345014  0.34499573  0.64253974  1
  C  C35  1  0.89603882  0.71109571  0.82738196  1
  C  C36  1  0.42788640  0.64816951  0.85669677  1
  C  C37  1  0.60656633  0.28445976  0.67476666  1
  C  C38  1  0.79120462  0.28178204  0.86033717  1
  C  C39  1  0.42919190  0.27784885  0.85806744  1
  S  S40  1  0.81250733  0.87498318  0.06249066  1
  S  S41  1  0.31228456  0.87576517  0.56269305  1
  S  S42  1  0.68725940  0.13482007  0.43784775  1
  S  S43  1  0.18756281  0.12440387  0.93764376  1
  O  O44  1  0.65207722  0.93901324  0.02940878  1
  O  O45  1  0.90724103  0.94163649  0.03049294  1
  O  O46  1  0.90854575  0.68162100  0.03079892  1
  O  O47  1  0.78222731  0.93750198  0.15930360  1
  O  O48  1  0.52079653  0.70462397  0.06541906  1
  O  O49  1  0.19210430  0.86862836  0.14787203  1
  O  O50  1  0.27713858  0.59691585  0.06528299  1
  O  O51  1  0.48995059  0.86943233  0.20143602  1
  O  O52  1  0.70587015  0.59838512  0.15093140  1
  O  O53  1  0.14609965  0.69727725  0.20088353  1
  O  O54  1  0.27281689  0.85794947  0.32701241  1
  O  O55  1  0.62561061  0.34694766  0.07119828  1
  O  O56  1  0.84972680  0.64776643  0.29010344  1
  O  O57  1  0.11767802  0.41740896  0.17739609  1
  O  O58  1  0.54166768  0.69158690  0.32908204  1
  O  O59  1  0.44212013  0.34285169  0.15453566  1
  O  O60  1  0.06234201  0.64765972  0.35059562  1
  O  O61  1  0.96416126  0.29847318  0.17615121  1
  O  O62  1  0.37577059  0.58643345  0.32884579  1
  O  O63  1  0.66212711  0.34040297  0.20650060  1
  O  O64  1  0.15256108  0.94016213  0.52879311  1
  O  O65  1  0.40816385  0.94179926  0.53027347  1
  O  O66  1  0.86913310  0.64402474  0.42636141  1
  O  O67  1  0.23623602  0.13931915  0.17130030  1
  O  O68  1  0.36009894  0.29571027  0.29612432  1
  O  O69  1  0.78797987  0.40626139  0.35074029  1
  O  O70  1  0.40775459  0.68340660  0.53227831  1
  O  O71  1  0.28041932  0.94069957  0.65944669  1
  O  O72  1  0.69347792  0.86203014  0.64967406  1
  O  O73  1  0.02674098  0.69687475  0.56563536  1
  O  O74  1  0.21666269  0.41425436  0.42975518  1
  O  O75  1  0.00806519  0.14147559  0.29348872  1
  O  O76  1  0.77699390  0.59059070  0.56627703  1
  O  O77  1  0.99079059  0.86648910  0.70105454  1
  O  O78  1  0.29014334  0.14361111  0.35283941  1
  O  O79  1  0.98005203  0.29465637  0.43231467  1
  O  O80  1  0.71670259  0.08239611  0.34105343  1
  O  O81  1  0.59593113  0.33338765  0.46720271  1
  O  O82  1  0.21007055  0.59746501  0.65292026  1
  O  O83  1  0.64215789  0.69276545  0.70112307  1
  O  O84  1  0.12666765  0.34430756  0.57017834  1
  O  O85  1  0.77217761  0.85590272  0.82668277  1
  O  O86  1  0.84398849  0.08242250  0.47459509  1
  O  O87  1  0.59137156  0.07240364  0.46894618  1
  O  O88  1  0.62285801  0.41213082  0.66986275  1
  O  O89  1  0.35443750  0.64068802  0.79041343  1
  O  O90  1  0.93932832  0.34142670  0.65120573  1
  O  O91  1  0.04093514  0.68951878  0.82922125  1
  O  O92  1  0.46493218  0.29885530  0.67728235  1
  O  O93  1  0.56446904  0.64479357  0.85111565  1
  O  O94  1  0.87406392  0.58558584  0.82985949  1
  O  O95  1  0.15563925  0.34346379  0.70680096  1
  O  O96  1  0.73542867  0.14510716  0.67809460  1
  O  O97  1  0.36532468  0.65649287  0.93019550  1
  O  O98  1  0.86286221  0.29499408  0.79687442  1
  O  O99  1  0.28774218  0.40555069  0.85183366  1
  O  O100  1  0.71720623  0.41263411  0.92981726  1
  O  O101  1  0.50640332  0.13869967  0.79301373  1
  O  O102  1  0.79414054  0.14059853  0.85230156  1
  O  O103  1  0.48944637  0.29415946  0.92872839  1
  O  O104  1  0.09127824  0.31797217  0.96557581  1
  O  O105  1  0.21498621  0.06785346  0.84073359  1
  O  O106  1  0.09725780  0.05540616  0.97202890  1
  O  O107  1  0.34676340  0.05620620  0.97226892  1
