# generated using pymatgen
data_Li3Mn2(SiO4)2
_symmetry_space_group_name_H-M   'P 1'
_cell_length_a   6.36378402
_cell_length_b   5.45594711
_cell_length_c   5.01915525
_cell_angle_alpha   89.70297927
_cell_angle_beta   90.33004338
_cell_angle_gamma   89.33747747
_symmetry_Int_Tables_number   1
_chemical_formula_structural   Li3Mn2(SiO4)2
_chemical_formula_sum   'Li3 Mn2 Si2 O8'
_cell_volume   174.25048053
_cell_formula_units_Z   1
loop_
 _symmetry_equiv_pos_site_id
 _symmetry_equiv_pos_as_xyz
  1  'x, y, z'
loop_
 _atom_site_type_symbol
 _atom_site_label
 _atom_site_symmetry_multiplicity
 _atom_site_fract_x
 _atom_site_fract_y
 _atom_site_fract_z
 _atom_site_occupancy
  Li  Li0  1  0.25083831  0.66474088  0.49051043  1
  Li  Li1  1  0.75103578  0.66947762  0.49026619  1
  Li  Li2  1  0.74879049  0.32795519  0.99874277  1
  Mn  Mn3  1  0.00605655  0.82063858  0.98138944  1
  Mn  Mn4  1  0.49112618  0.17739041  0.49310625  1
  Si  Si5  1  0.99570507  0.16665130  0.50168763  1
  Si  Si6  1  0.50612432  0.83716326  0.00231746  1
  O  O7  1  0.97933856  0.14304679  0.83051188  1
  O  O8  1  0.99961735  0.87903154  0.39076516  1
  O  O9  1  0.20468444  0.32080762  0.42504804  1
  O  O10  1  0.28787544  0.71980460  0.88061625  1
  O  O11  1  0.52376207  0.11962439  0.89485861  1
  O  O12  1  0.50115596  0.82246693  0.32982922  1
  O  O13  1  0.72025168  0.68266902  0.89990293  1
  O  O14  1  0.78370879  0.31734288  0.39468274  1
