# generated using pymatgen
data_Li3Fe2OF5
_symmetry_space_group_name_H-M   'P 1'
_cell_length_a   5.26607425
_cell_length_b   5.26142795
_cell_length_c   9.51319912
_cell_angle_alpha   100.95901272
_cell_angle_beta   79.12201376
_cell_angle_gamma   71.16733621
_symmetry_Int_Tables_number   1
_chemical_formula_structural   Li3Fe2OF5
_chemical_formula_sum   'Li6 Fe4 O2 F10'
_cell_volume   235.88522032
_cell_formula_units_Z   2
loop_
 _symmetry_equiv_pos_site_id
 _symmetry_equiv_pos_as_xyz
  1  'x, y, z'
loop_
 _atom_site_type_symbol
 _atom_site_label
 _atom_site_symmetry_multiplicity
 _atom_site_fract_x
 _atom_site_fract_y
 _atom_site_fract_z
 _atom_site_occupancy
  Li  Li0  1  0.45628041  0.28882982  0.08331959  1
  Li  Li1  1  0.88014198  0.36620990  0.24184994  1
  Li  Li2  1  0.20463056  0.04273130  0.58296338  1
  Li  Li3  1  0.77999346  0.97080737  0.43687849  1
  Li  Li4  1  0.13363387  0.61556390  0.72942501  1
  Li  Li5  1  0.53678741  0.70869586  0.92589861  1
  Fe  Fe6  1  0.96091332  0.79008565  0.08247788  1
  Fe  Fe7  1  0.70688260  0.54409518  0.58359478  1
  Fe  Fe8  1  0.38288547  0.87034505  0.23974234  1
  Fe  Fe9  1  0.03682208  0.21746765  0.92698685  1
  O  O10  1  0.21117541  0.04021841  0.08529825  1
  O  O11  1  0.71182489  0.53629217  0.08292240  1
  F  F12  1  0.63530566  0.12847589  0.25391513  1
  F  F13  1  0.94485677  0.78218111  0.58315983  1
  F  F14  1  0.10800225  0.62875581  0.24995912  1
  F  F15  1  0.54717927  0.74282458  0.42097544  1
  F  F16  1  0.90667673  0.38384827  0.74388888  1
  F  F17  1  0.03002003  0.18051022  0.42189015  1
  F  F18  1  0.46887913  0.30628618  0.58348012  1
  F  F19  1  0.30036668  0.46425019  0.91221250  1
  F  F20  1  0.34085398  0.86990841  0.74659124  1
  F  F21  1  0.79922304  0.93828409  0.91590207  1
