# generated using pymatgen
data_Li4Cu3WO8
_symmetry_space_group_name_H-M   'P 1'
_cell_length_a   10.65455309
_cell_length_b   9.98608611
_cell_length_c   14.52999180
_cell_angle_alpha   20.15694373
_cell_angle_beta   20.13293204
_cell_angle_gamma   34.80794181
_symmetry_Int_Tables_number   1
_chemical_formula_structural   Li4Cu3WO8
_chemical_formula_sum   'Li4 Cu3 W1 O8'
_cell_volume   157.87920959
_cell_formula_units_Z   1
loop_
 _symmetry_equiv_pos_site_id
 _symmetry_equiv_pos_as_xyz
  1  'x, y, z'
loop_
 _atom_site_type_symbol
 _atom_site_label
 _atom_site_symmetry_multiplicity
 _atom_site_fract_x
 _atom_site_fract_y
 _atom_site_fract_z
 _atom_site_occupancy
  Li  Li0  1  0.99999299  0.00000234  0.49999929  1
  Li  Li1  1  0.00000515  0.50000508  0.49999849  1
  Li  Li2  1  0.49998522  0.99998926  0.50001790  1
  Li  Li3  1  0.50000681  0.49998679  0.50000590  1
  Cu  Cu4  1  -0.00003171  0.49999845  0.00002279  1
  Cu  Cu5  1  0.50001117  -0.00000998  0.99998217  1
  Cu  Cu6  1  0.50000681  0.50001565  -0.00001382  1
  W  W7  1  0.99997895  -0.00001641  0.00002864  1
  O  O8  1  0.01494914  0.98776869  0.26925547  1
  O  O9  1  0.00017009  0.56793253  0.19483589  1
  O  O10  1  0.54095187  0.98865116  0.24499386  1
  O  O11  1  0.98507584  0.01222356  0.73073178  1
  O  O12  1  0.41562120  0.46728479  0.32959447  1
  O  O13  1  0.99981221  0.43207411  0.80517642  1
  O  O14  1  0.45906467  0.01138206  0.75497371  1
  O  O15  1  0.58439859  0.53271192  0.67039904  1
