# generated using pymatgen
data_Li3Mn2(SiO4)2
_symmetry_space_group_name_H-M   'P 1'
_cell_length_a   5.27106575
_cell_length_b   5.27106480
_cell_length_c   6.57130162
_cell_angle_alpha   89.08911297
_cell_angle_beta   89.08911716
_cell_angle_gamma   86.69359882
_symmetry_Int_Tables_number   1
_chemical_formula_structural   Li3Mn2(SiO4)2
_chemical_formula_sum   'Li3 Mn2 Si2 O8'
_cell_volume   182.23041142
_cell_formula_units_Z   1
loop_
 _symmetry_equiv_pos_site_id
 _symmetry_equiv_pos_as_xyz
  1  'x, y, z'
loop_
 _atom_site_type_symbol
 _atom_site_label
 _atom_site_symmetry_multiplicity
 _atom_site_fract_x
 _atom_site_fract_y
 _atom_site_fract_z
 _atom_site_occupancy
  Li  Li0  1  0.18971447  0.19333122  0.75113095  1
  Li  Li1  1  0.68610139  0.31389861  1.00000000  1
  Li  Li2  1  0.80666878  0.81028553  0.24886905  1
  Mn  Mn3  1  0.19137735  0.17329191  0.26302735  1
  Mn  Mn4  1  0.82670809  0.80862265  0.73697265  1
  Si  Si5  1  0.32243380  0.67756620  1.00000000  1
  Si  Si6  1  0.66977296  0.33022704  0.50000000  1
  O  O7  1  0.18126584  0.80869663  0.19916954  1
  O  O8  1  0.19130337  0.81873416  0.80083046  1
  O  O9  1  0.29197923  0.36582656  0.00411499  1
  O  O10  1  0.36616608  0.27822756  0.50564597  1
  O  O11  1  0.63417344  0.70802077  0.99588501  1
  O  O12  1  0.72177244  0.63383392  0.49435403  1
  O  O13  1  0.79754620  0.19968244  0.29012966  1
  O  O14  1  0.80031756  0.20245380  0.70987034  1
