# generated using pymatgen
data_Li2FeSiO5
_symmetry_space_group_name_H-M   'P 1'
_cell_length_a   13.08094816
_cell_length_b   12.82397230
_cell_length_c   5.06824856
_cell_angle_alpha   90.00000000
_cell_angle_beta   90.00000000
_cell_angle_gamma   60.11508291
_symmetry_Int_Tables_number   1
_chemical_formula_structural   Li2FeSiO5
_chemical_formula_sum   'Li16 Fe8 Si8 O40'
_cell_volume   737.14478296
_cell_formula_units_Z   8
loop_
 _symmetry_equiv_pos_site_id
 _symmetry_equiv_pos_as_xyz
  1  'x, y, z'
loop_
 _atom_site_type_symbol
 _atom_site_label
 _atom_site_symmetry_multiplicity
 _atom_site_fract_x
 _atom_site_fract_y
 _atom_site_fract_z
 _atom_site_occupancy
  Li  Li0  1  0.34062523  0.82245241  0.72360373  1
  Li  Li1  1  0.08504049  0.57286516  0.76841271  1
  Li  Li2  1  0.16003609  0.66215750  0.20959951  1
  Li  Li3  1  0.58142526  0.83705596  0.72675475  1
  Li  Li4  1  0.41857474  0.66294404  0.22675475  1
  Li  Li5  1  0.83996391  0.83784250  0.70959951  1
  Li  Li6  1  0.34062523  0.32245241  0.77639627  1
  Li  Li7  1  0.08504049  0.07286516  0.73158729  1
  Li  Li8  1  0.91495951  0.92713484  0.26841271  1
  Li  Li9  1  0.65937477  0.67754759  0.22360373  1
  Li  Li10  1  0.16003609  0.16215750  0.29040049  1
  Li  Li11  1  0.58142526  0.33705596  0.77324525  1
  Li  Li12  1  0.41857474  0.16294404  0.27324525  1
  Li  Li13  1  0.83996391  0.33784250  0.79040049  1
  Li  Li14  1  0.91495951  0.42713484  0.23158729  1
  Li  Li15  1  0.65937477  0.17754759  0.27639627  1
  Fe  Fe16  1  0.06538579  0.81273291  0.73049603  1
  Fe  Fe17  1  0.43274034  0.88195764  0.27191968  1
  Fe  Fe18  1  0.06538579  0.31273291  0.76950397  1
  Fe  Fe19  1  0.56725966  0.61804236  0.77191968  1
  Fe  Fe20  1  0.43274034  0.38195764  0.22808032  1
  Fe  Fe21  1  0.93461421  0.68726709  0.23049603  1
  Fe  Fe22  1  0.56725966  0.11804236  0.72808032  1
  Fe  Fe23  1  0.93461421  0.18726709  0.26950397  1
  Si  Si24  1  0.16148113  0.90810291  0.22582984  1
  Si  Si25  1  0.66146991  0.92558376  0.21872260  1
  Si  Si26  1  0.16148113  0.40810291  0.27417016  1
  Si  Si27  1  0.33853009  0.57441624  0.71872260  1
  Si  Si28  1  0.66146991  0.42558376  0.28127740  1
  Si  Si29  1  0.83851887  0.59189709  0.72582984  1
  Si  Si30  1  0.33853009  0.07441624  0.78127740  1
  Si  Si31  1  0.83851887  0.09189709  0.77417016  1
  O  O32  1  0.13973611  0.90538929  0.90752769  1
  O  O33  1  0.99518538  0.78920749  0.01848563  1
  O  O34  1  0.12144859  0.82285426  0.38541586  1
  O  O35  1  0.39158260  0.94721571  0.62043892  1
  O  O36  1  0.30193080  0.84692665  0.30002121  1
  O  O37  1  0.09234902  0.54537666  0.15423695  1
  O  O38  1  0.19927355  0.65098061  0.80658942  1
  O  O39  1  0.64415598  0.95302923  0.90024021  1
  O  O40  1  0.48432670  0.79021749  0.98391756  1
  O  O41  1  0.13973611  0.40538929  0.59247231  1
  O  O42  1  0.99518538  0.28920749  0.48151437  1
  O  O43  1  0.59692383  0.85217896  0.32497674  1
  O  O44  1  0.40307617  0.64782104  0.82497674  1
  O  O45  1  0.12144859  0.32285426  0.11458414  1
  O  O46  1  0.51567330  0.70978251  0.48391756  1
  O  O47  1  0.35584402  0.54697077  0.40024021  1
  O  O48  1  0.39158260  0.44721571  0.87956108  1
  O  O49  1  0.30193080  0.34692665  0.19997879  1
  O  O50  1  0.80072645  0.84901939  0.30658942  1
  O  O51  1  0.90765098  0.95462334  0.65423695  1
  O  O52  1  0.09234902  0.04537666  0.34576305  1
  O  O53  1  0.19927355  0.15098061  0.69341058  1
  O  O54  1  0.69806920  0.65307335  0.80002121  1
  O  O55  1  0.60841740  0.55278429  0.12043892  1
  O  O56  1  0.64415598  0.45302923  0.59975979  1
  O  O57  1  0.48432670  0.29021749  0.51608244  1
  O  O58  1  0.87855141  0.67714574  0.88541586  1
  O  O59  1  0.59692383  0.35217896  0.17502326  1
  O  O60  1  0.40307617  0.14782104  0.67502326  1
  O  O61  1  0.00481462  0.71079251  0.51848563  1
  O  O62  1  0.86026389  0.59461071  0.40752769  1
  O  O63  1  0.51567330  0.20978251  0.01608244  1
  O  O64  1  0.35584402  0.04697077  0.09975979  1
  O  O65  1  0.80072645  0.34901939  0.19341058  1
  O  O66  1  0.90765098  0.45462334  0.84576305  1
  O  O67  1  0.69806920  0.15307335  0.69997879  1
  O  O68  1  0.60841740  0.05278429  0.37956108  1
  O  O69  1  0.87855141  0.17714574  0.61458414  1
  O  O70  1  0.00481462  0.21079251  0.98151437  1
  O  O71  1  0.86026389  0.09461071  0.09247231  1
