# generated using pymatgen
data_Li3Co3SbO8
_symmetry_space_group_name_H-M   'P 1'
_cell_length_a   10.49564306
_cell_length_b   10.53218681
_cell_length_c   14.88459103
_cell_angle_alpha   19.29766336
_cell_angle_beta   19.32802271
_cell_angle_gamma   33.29034919
_symmetry_Int_Tables_number   1
_chemical_formula_structural   Li3Co3SbO8
_chemical_formula_sum   'Li3 Co3 Sb1 O8'
_cell_volume   155.82967728
_cell_formula_units_Z   1
loop_
 _symmetry_equiv_pos_site_id
 _symmetry_equiv_pos_as_xyz
  1  'x, y, z'
loop_
 _atom_site_type_symbol
 _atom_site_label
 _atom_site_symmetry_multiplicity
 _atom_site_fract_x
 _atom_site_fract_y
 _atom_site_fract_z
 _atom_site_occupancy
  Li  Li0  1  -0.00000000  0.50000000  0.50000000  1
  Li  Li1  1  0.50000000  -0.00000000  0.50000000  1
  Li  Li2  1  0.50000000  0.50000000  0.50000000  1
  Co  Co3  1  -0.00000000  0.50000000  0.00000000  1
  Co  Co4  1  0.50000000  -0.00000000  0.00000000  1
  Co  Co5  1  0.49999900  0.50000000  0.00000100  1
  Sb  Sb6  1  -0.00000000  -0.00000000  0.00000000  1
  O  O7  1  0.00321700  0.97237287  0.27820363  1
  O  O8  1  0.99683271  0.52078037  0.24568233  1
  O  O9  1  0.52723738  0.01154537  0.23261473  1
  O  O10  1  0.99678400  0.02762813  0.72179537  1
  O  O11  1  0.47255018  0.47896520  0.29064691  1
  O  O12  1  0.00316629  0.47921963  0.75431867  1
  O  O13  1  0.47276262  0.98845563  0.76738527  1
  O  O14  1  0.52744982  0.52103480  0.70935309  1
