# generated using pymatgen
data_Li3Ti2NiO6
_symmetry_space_group_name_H-M   'P 1'
_cell_length_a   15.49592167
_cell_length_b   9.94052118
_cell_length_c   9.94052107
_cell_angle_alpha   16.95705978
_cell_angle_beta   16.56029308
_cell_angle_gamma   16.56029565
_symmetry_Int_Tables_number   1
_chemical_formula_structural   Li3Ti2NiO6
_chemical_formula_sum   'Li3 Ti2 Ni1 O6'
_cell_volume   110.13823541
_cell_formula_units_Z   1
loop_
 _symmetry_equiv_pos_site_id
 _symmetry_equiv_pos_as_xyz
  1  'x, y, z'
loop_
 _atom_site_type_symbol
 _atom_site_label
 _atom_site_symmetry_multiplicity
 _atom_site_fract_x
 _atom_site_fract_y
 _atom_site_fract_z
 _atom_site_occupancy
  Li  Li0  1  0.16666700  0.50000000  0.50000000  1
  Li  Li1  1  0.50265534  0.50008043  0.50008043  1
  Li  Li2  1  0.83067766  0.49991957  0.49991957  1
  Ti  Ti3  1  0.01912548  0.98661350  0.98661350  1
  Ti  Ti4  1  0.31420752  0.01338650  0.01338650  1
  Ni  Ni5  1  0.66666700  0.00000000  0.00000000  1
  O  O6  1  0.23530484  0.26434512  0.26434512  1
  O  O7  1  0.58604909  0.25464435  0.25464435  1
  O  O8  1  0.09802816  0.73565488  0.73565488  1
  O  O9  1  0.93423214  0.24061485  0.24061485  1
  O  O10  1  0.39910186  0.75938515  0.75938515  1
  O  O11  1  0.74728391  0.74535565  0.74535565  1
