# generated using pymatgen
data_FeOF
_symmetry_space_group_name_H-M   'P 1'
_cell_length_a   14.23982055
_cell_length_b   14.23979909
_cell_length_c   3.08770668
_cell_angle_alpha   90.00000000
_cell_angle_beta   90.00000000
_cell_angle_gamma   89.96315558
_symmetry_Int_Tables_number   1
_chemical_formula_structural   FeOF
_chemical_formula_sum   'Fe18 O18 F18'
_cell_volume   626.10089682
_cell_formula_units_Z   18
loop_
 _symmetry_equiv_pos_site_id
 _symmetry_equiv_pos_as_xyz
  1  'x, y, z'
loop_
 _atom_site_type_symbol
 _atom_site_label
 _atom_site_symmetry_multiplicity
 _atom_site_fract_x
 _atom_site_fract_y
 _atom_site_fract_z
 _atom_site_occupancy
  Fe  Fe0  1  0.01567778  0.99371405  -0.00000000  1
  Fe  Fe1  1  0.01162926  0.32790196  0.00000000  1
  Fe  Fe2  1  0.99552148  0.67276851  0.00000000  1
  Fe  Fe3  1  0.15383408  0.16193149  0.50000000  1
  Fe  Fe4  1  0.15505835  0.49390460  0.50000000  1
  Fe  Fe5  1  0.17927070  0.84273879  0.50000000  1
  Fe  Fe6  1  0.34155349  0.99448111  -0.00000000  1
  Fe  Fe7  1  0.34317514  0.33672739  0.00000000  1
  Fe  Fe8  1  0.33561287  0.67670441  -0.00000000  1
  Fe  Fe9  1  0.48457150  0.50423892  0.50000000  1
  Fe  Fe10  1  0.50101299  0.14333420  0.50000000  1
  Fe  Fe11  1  0.48762598  0.83248864  0.50000000  1
  Fe  Fe12  1  0.67363123  0.00386763  -0.00000000  1
  Fe  Fe13  1  0.67649998  0.32944447  -0.00000000  1
  Fe  Fe14  1  0.68014250  0.66569794  0.00000000  1
  Fe  Fe15  1  0.82023257  0.16386753  0.50000000  1
  Fe  Fe16  1  0.81759465  0.49534343  0.50000000  1
  Fe  Fe17  1  0.81666314  0.83524279  0.50000000  1
  O  O18  1  0.06810233  0.26975552  0.50000000  1
  O  O19  1  0.06535738  0.93089641  0.50000000  1
  O  O20  1  0.10284697  0.10326499  0.00000000  1
  O  O21  1  0.10137656  0.43563175  0.00000000  1
  O  O22  1  0.23522482  0.90433480  0.00000000  1
  O  O23  1  0.26654906  0.72944252  0.50000000  1
  O  O24  1  0.39424332  0.60136273  0.50000000  1
  O  O25  1  0.40243845  0.93964517  0.50000000  1
  O  O26  1  0.43068650  0.10672186  -0.00000000  1
  O  O27  1  0.43303472  0.43140655  -0.00000000  1
  O  O28  1  0.43948048  0.76742852  0.00000000  1
  O  O29  1  0.60552788  0.06211069  0.50000000  1
  O  O30  1  0.72982519  0.26873808  0.50000000  1
  O  O31  1  0.73143040  0.60216013  0.50000000  1
  O  O32  1  0.72968676  0.93712309  0.50000000  1
  O  O33  1  0.77295041  0.10221019  -0.00000000  1
  O  O34  1  0.76595161  0.43395204  0.00000000  1
  O  O35  1  0.76761916  0.76927358  -0.00000000  1
  F  F36  1  0.06765200  0.60220970  0.50000000  1
  F  F37  1  0.10557087  0.76961184  0.00000000  1
  F  F38  1  0.23913016  0.23914177  0.00000000  1
  F  F39  1  0.22896156  0.55749331  0.00000000  1
  F  F40  1  0.26821983  0.07288507  0.50000000  1
  F  F41  1  0.26904544  0.39571480  0.50000000  1
  F  F42  1  0.39800735  0.26843972  0.50000000  1
  F  F43  1  0.56062244  0.23563587  0.00000000  1
  F  F44  1  0.56438120  0.56412440  -0.00000000  1
  F  F45  1  0.56782660  0.89426257  0.00000000  1
  F  F46  1  0.59754893  0.40134184  0.50000000  1
  F  F47  1  0.60217056  0.73086793  0.50000000  1
  F  F48  1  0.90016318  0.23473604  -0.00000000  1
  F  F49  1  0.89780822  0.56000985  0.00000000  1
  F  F50  1  0.89692143  0.89978336  -0.00000000  1
  F  F51  1  0.93800239  0.06561548  0.50000000  1
  F  F52  1  0.93648520  0.39800462  0.50000000  1
  F  F53  1  0.92984594  0.74026835  0.50000000  1
