# generated using pymatgen
data_Fe3(O2F)2
_symmetry_space_group_name_H-M   'P 1'
_cell_length_a   7.25736714
_cell_length_b   5.59945519
_cell_length_c   5.59945519
_cell_angle_alpha   72.08276038
_cell_angle_beta   72.17720477
_cell_angle_gamma   72.17720477
_symmetry_Int_Tables_number   1
_chemical_formula_structural   Fe3(O2F)2
_chemical_formula_sum   'Fe6 O8 F4'
_cell_volume   200.40061198
_cell_formula_units_Z   2
loop_
 _symmetry_equiv_pos_site_id
 _symmetry_equiv_pos_as_xyz
  1  'x, y, z'
loop_
 _atom_site_type_symbol
 _atom_site_label
 _atom_site_symmetry_multiplicity
 _atom_site_fract_x
 _atom_site_fract_y
 _atom_site_fract_z
 _atom_site_occupancy
  Fe  Fe0  1  0.83333300  0.64688971  0.68644429  1
  Fe  Fe1  1  0.67939094  0.35604320  0.31876303  1
  Fe  Fe2  1  0.33333300  0.65907542  0.67425858  1
  Fe  Fe3  1  0.16016274  0.30474992  0.32618505  1
  Fe  Fe4  1  0.50650426  0.00714795  0.02858308  1
  Fe  Fe5  1  0.98727606  0.01456997  0.97728980  1
  O  O6  1  0.33333300  0.35753698  0.97579602  1
  O  O7  1  0.96613120  0.22800714  0.21509801  1
  O  O8  1  0.62088218  0.56490595  0.57494348  1
  O  O9  1  0.04578382  0.75838952  0.76842705  1
  O  O10  1  0.70053480  0.11823499  0.10532586  1
  O  O11  1  0.33333300  0.95773677  0.37559623  1
  O  O12  1  0.66544692  0.65923552  0.02971080  1
  O  O13  1  0.00122008  0.30362320  0.67409848  1
  F  F14  1  0.66578003  0.03560912  0.63421219  1
  F  F15  1  0.30094682  0.90193607  0.90614423  1
  F  F16  1  0.36572018  0.42718877  0.43139693  1
  F  F17  1  0.00088597  0.69912081  0.29772488  1
