# generated using pymatgen
data_Li2Cu(Si2O5)2
_symmetry_space_group_name_H-M   'P 1'
_cell_length_a   9.54497802
_cell_length_b   14.35968825
_cell_length_c   6.84240367
_cell_angle_alpha   90.00000000
_cell_angle_beta   90.00000000
_cell_angle_gamma   90.00000000
_symmetry_Int_Tables_number   1
_chemical_formula_structural   Li2Cu(Si2O5)2
_chemical_formula_sum   'Li8 Cu4 Si16 O40'
_cell_volume   937.83974965
_cell_formula_units_Z   4
loop_
 _symmetry_equiv_pos_site_id
 _symmetry_equiv_pos_as_xyz
  1  'x, y, z'
loop_
 _atom_site_type_symbol
 _atom_site_label
 _atom_site_symmetry_multiplicity
 _atom_site_fract_x
 _atom_site_fract_y
 _atom_site_fract_z
 _atom_site_occupancy
  Li  Li0  1  0.09512165  0.82892094  0.64710995  1
  Li  Li1  1  0.11617442  0.52959976  0.93510024  1
  Li  Li2  1  0.38382558  0.47040024  0.43510024  1
  Li  Li3  1  0.40487835  0.17107906  0.14710995  1
  Li  Li4  1  0.59512165  0.67107906  0.35289005  1
  Li  Li5  1  0.61617442  0.97040024  0.06489976  1
  Li  Li6  1  0.88382558  0.02959976  0.56489976  1
  Li  Li7  1  0.90487835  0.32892094  0.85289005  1
  Cu  Cu8  1  0.18690868  0.34692379  0.97012992  1
  Cu  Cu9  1  0.31309132  0.65307621  0.47012992  1
  Cu  Cu10  1  0.68690868  0.15307621  0.02987008  1
  Cu  Cu11  1  0.81309132  0.84692379  0.52987008  1
  Si  Si12  1  0.04110436  0.56709602  0.48520384  1
  Si  Si13  1  0.06707940  0.90290182  0.25805700  1
  Si  Si14  1  0.09710385  0.22197107  0.28098632  1
  Si  Si15  1  0.12473177  0.16812247  0.71593356  1
  Si  Si16  1  0.37526823  0.83187753  0.21593356  1
  Si  Si17  1  0.40289615  0.77802893  0.78098632  1
  Si  Si18  1  0.43292060  0.09709818  0.75805700  1
  Si  Si19  1  0.45889564  0.43290398  0.98520384  1
  Si  Si20  1  0.54110436  0.93290398  0.51479616  1
  Si  Si21  1  0.56707840  0.59709818  0.74194300  1
  Si  Si22  1  0.59710385  0.27802893  0.71901368  1
  Si  Si23  1  0.62473177  0.33187753  0.28406644  1
  Si  Si24  1  0.87526823  0.66812247  0.78406644  1
  Si  Si25  1  0.90289615  0.72197107  0.21901368  1
  Si  Si26  1  0.93292160  0.40290182  0.24194300  1
  Si  Si27  1  0.95889564  0.06709602  0.01479616  1
  O  O28  1  0.99016026  0.81449764  0.15008972  1
  O  O29  1  0.98500793  0.15940548  0.15120816  1
  O  O30  1  0.00238016  0.42745897  0.03169483  1
  O  O31  1  0.99980509  0.09277050  0.78370747  1
  O  O32  1  0.06505309  0.98587444  0.09255315  1
  O  O33  1  0.13015743  0.16055460  0.47803635  1
  O  O34  1  0.08683503  0.27180264  0.79213167  1
  O  O35  1  0.20565722  0.53900666  0.48426626  1
  O  O36  1  0.22952069  0.87320688  0.30328427  1
  O  O37  1  0.23973587  0.24838696  0.16646951  1
  O  O38  1  0.26026313  0.75161304  0.66646951  1
  O  O39  1  0.27047931  0.12679312  0.80328427  1
  O  O40  1  0.29434278  0.46099334  0.98426626  1
  O  O41  1  0.41316497  0.72819736  0.29213167  1
  O  O42  1  0.36984257  0.83944540  0.97803635  1
  O  O43  1  0.43494691  0.01412556  0.59255315  1
  O  O44  1  0.50019491  0.90722950  0.28370747  1
  O  O45  1  0.49761984  0.57254103  0.53169483  1
  O  O46  1  0.51499207  0.84059452  0.65120816  1
  O  O47  1  0.50983974  0.18550236  0.65008972  1
  O  O48  1  0.49016026  0.68550236  0.84991028  1
  O  O49  1  0.48500793  0.34059452  0.84879184  1
  O  O50  1  0.50238016  0.07254103  0.96830517  1
  O  O51  1  0.49980509  0.40722950  0.21629253  1
  O  O52  1  0.56505309  0.51412556  0.90744685  1
  O  O53  1  0.63015743  0.33944540  0.52196365  1
  O  O54  1  0.58683503  0.22819736  0.20786833  1
  O  O55  1  0.70565722  0.96099334  0.51573374  1
  O  O56  1  0.72952069  0.62679312  0.69671573  1
  O  O57  1  0.73973687  0.25161304  0.83353049  1
  O  O58  1  0.76026313  0.74838696  0.33353049  1
  O  O59  1  0.77047931  0.37320688  0.19671573  1
  O  O60  1  0.79434278  0.03900666  0.01573374  1
  O  O61  1  0.91316497  0.77180264  0.70786833  1
  O  O62  1  0.86984257  0.66055460  0.02196365  1
  O  O63  1  0.93494691  0.48587444  0.40744685  1
  O  O64  1  0.00019491  0.59277050  0.71629253  1
  O  O65  1  0.99761984  0.92745897  0.46830517  1
  O  O66  1  0.01499207  0.65940548  0.34879184  1
  O  O67  1  0.00983974  0.31449764  0.34991028  1
