# generated using pymatgen
data_Fe5O3F7
_symmetry_space_group_name_H-M   'P 1'
_cell_length_a   4.81059935
_cell_length_b   4.79681283
_cell_length_c   15.68016056
_cell_angle_alpha   90.00000000
_cell_angle_beta   90.00000000
_cell_angle_gamma   90.00000000
_symmetry_Int_Tables_number   1
_chemical_formula_structural   Fe5O3F7
_chemical_formula_sum   'Fe10 O6 F14'
_cell_volume   361.82824562
_cell_formula_units_Z   2
loop_
 _symmetry_equiv_pos_site_id
 _symmetry_equiv_pos_as_xyz
  1  'x, y, z'
loop_
 _atom_site_type_symbol
 _atom_site_label
 _atom_site_symmetry_multiplicity
 _atom_site_fract_x
 _atom_site_fract_y
 _atom_site_fract_z
 _atom_site_occupancy
  Fe  Fe0  1  0.99785371  0.99066451  0.00478550  1
  Fe  Fe1  1  0.99785371  0.99066451  0.19521450  1
  Fe  Fe2  1  0.04039398  0.02066368  0.39102819  1
  Fe  Fe3  1  0.96914019  0.96909084  0.60000000  1
  Fe  Fe4  1  0.04039398  0.02066368  0.80897181  1
  Fe  Fe5  1  0.53085981  0.46909084  0.10000000  1
  Fe  Fe6  1  0.50214629  0.49066451  0.50478550  1
  Fe  Fe7  1  0.45960602  0.52066368  0.30897181  1
  Fe  Fe8  1  0.50214629  0.49066451  0.69521450  1
  Fe  Fe9  1  0.45960602  0.52066368  0.89102819  1
  O  O10  1  0.19030871  0.81485374  0.29860421  1
  O  O11  1  0.19030871  0.81485374  0.90139579  1
  O  O12  1  0.30969129  0.31485374  0.40139579  1
  O  O13  1  0.30969129  0.31485374  0.79860421  1
  O  O14  1  0.67829634  0.68171714  0.60000000  1
  O  O15  1  0.82170366  0.18171714  0.10000000  1
  F  F16  1  0.22545319  0.78018318  0.10000000  1
  F  F17  1  0.19713358  0.80393608  0.49275136  1
  F  F18  1  0.19713358  0.80393608  0.70724864  1
  F  F19  1  0.30286642  0.30393608  0.99275136  1
  F  F20  1  0.30286642  0.30393608  0.20724864  1
  F  F21  1  0.27454681  0.28018318  0.60000000  1
  F  F22  1  0.69272056  0.69189539  0.99086237  1
  F  F23  1  0.69272056  0.69189539  0.20913763  1
  F  F24  1  0.70592902  0.71249153  0.39881366  1
  F  F25  1  0.70592902  0.71249153  0.80118634  1
  F  F26  1  0.80727944  0.19189539  0.49086237  1
  F  F27  1  0.79407098  0.21249153  0.30118634  1
  F  F28  1  0.79407098  0.21249153  0.89881366  1
  F  F29  1  0.80727944  0.19189539  0.70913763  1
