# generated using pymatgen
data_Li2Co2NiO6
_symmetry_space_group_name_H-M   'P 1'
_cell_length_a   6.51238680
_cell_length_b   5.83804370
_cell_length_c   5.87933138
_cell_angle_alpha   88.82365169
_cell_angle_beta   104.81511501
_cell_angle_gamma   76.58277828
_symmetry_Int_Tables_number   1
_chemical_formula_structural   Li2Co2NiO6
_chemical_formula_sum   'Li4 Co4 Ni2 O12'
_cell_volume   209.44121058
_cell_formula_units_Z   2
loop_
 _symmetry_equiv_pos_site_id
 _symmetry_equiv_pos_as_xyz
  1  'x, y, z'
loop_
 _atom_site_type_symbol
 _atom_site_label
 _atom_site_symmetry_multiplicity
 _atom_site_fract_x
 _atom_site_fract_y
 _atom_site_fract_z
 _atom_site_occupancy
  Li  Li0  1  0.33333300  0.16666700  0.83333300  1
  Li  Li1  1  0.33333300  0.66666700  0.83333300  1
  Li  Li2  1  0.67443558  0.84475165  0.18059384  1
  Li  Li3  1  0.99223042  0.48858135  0.48607316  1
  Co  Co4  1  0.66972483  0.33604555  0.65881632  1
  Co  Co5  1  0.67137808  0.83197338  0.66428643  1
  Co  Co6  1  0.99694217  0.99728745  0.00785068  1
  Co  Co7  1  0.99528892  0.50136062  0.00237957  1
  Ni  Ni8  1  0.33333300  0.16666700  0.33333300  1
  Ni  Ni9  1  0.33333300  0.66666700  0.33333300  1
  O  O10  1  0.35677437  0.42313485  0.58223559  1
  O  O11  1  0.30412044  0.41471593  0.09654356  1
  O  O12  1  0.36254556  0.91861707  0.57012344  1
  O  O13  1  0.30989163  0.91019915  0.08443041  1
  O  O14  1  0.68671174  0.06243810  0.89190974  1
  O  O15  1  0.64169269  0.08115308  0.43556086  1
  O  O16  1  0.68339454  0.59355723  0.89091393  1
  O  O17  1  0.66603745  0.60517677  0.44634413  1
  O  O18  1  0.97995526  0.27089490  0.77475726  1
  O  O19  1  0.98327246  0.73977677  0.77575307  1
  O  O20  1  0.02497431  0.25217992  0.23110514  1
  O  O21  1  0.00062955  0.72815623  0.22032287  1
