# generated using pymatgen
data_Fe4O3F5
_symmetry_space_group_name_H-M   'P 1'
_cell_length_a   4.78367410
_cell_length_b   7.84925708
_cell_length_c   7.81493736
_cell_angle_alpha   75.90169294
_cell_angle_beta   91.96121524
_cell_angle_gamma   88.33723892
_symmetry_Int_Tables_number   1
_chemical_formula_structural   Fe4O3F5
_chemical_formula_sum   'Fe8 O6 F10'
_cell_volume   284.22097005
_cell_formula_units_Z   2
loop_
 _symmetry_equiv_pos_site_id
 _symmetry_equiv_pos_as_xyz
  1  'x, y, z'
loop_
 _atom_site_type_symbol
 _atom_site_label
 _atom_site_symmetry_multiplicity
 _atom_site_fract_x
 _atom_site_fract_y
 _atom_site_fract_z
 _atom_site_occupancy
  Fe  Fe0  1  0.50332214  0.35539153  0.88063179  1
  Fe  Fe1  1  0.47162016  0.15059036  0.61499860  1
  Fe  Fe2  1  0.49775952  0.87979454  0.37287357  1
  Fe  Fe3  1  0.56462483  0.61215522  0.13558729  1
  Fe  Fe4  1  0.98508277  0.75029811  0.77333726  1
  Fe  Fe5  1  0.00105280  0.50695963  0.49643911  1
  Fe  Fe6  1  0.00902361  0.24537572  0.24885403  1
  Fe  Fe7  1  0.96838471  -0.00109765  0.98628756  1
  O  O8  1  0.79695959  0.76514170  0.97225278  1
  O  O9  1  0.68323150  0.15576612  0.82933490  1
  O  O10  1  0.69801528  0.65547794  0.35882339  1
  O  O11  1  0.69288903  0.39600716  0.09285957  1
  O  O12  1  0.28761155  0.36231527  0.64837856  1
  O  O13  1  0.31823897  0.08970404  0.40606726  1
  F  F14  1  0.79912883  0.28650628  0.47743787  1
  F  F15  1  0.80467187  0.53843603  0.72183514  1
  F  F16  1  0.79419897  0.01206943  0.23003994  1
  F  F17  1  0.70971757  0.90070148  0.59898575  1
  F  F18  1  0.30494719  0.84363898  0.15305735  1
  F  F19  1  0.29972347  0.59695101  0.90179693  1
  F  F20  1  0.20603326  0.21669048  0.01897781  1
  F  F21  1  0.19138605  0.72708705  0.53712321  1
  F  F22  1  0.21011562  0.96426427  0.76663870  1
  F  F23  1  0.20226371  0.48977531  0.27737962  1
