# generated using pymatgen
data_Cr2Fe3P6WO24
_symmetry_space_group_name_H-M   'P 1'
_cell_length_a   8.69219354
_cell_length_b   8.68549385
_cell_length_c   8.68549405
_cell_angle_alpha   60.00000247
_cell_angle_beta   60.02549216
_cell_angle_gamma   60.02549226
_symmetry_Int_Tables_number   1
_chemical_formula_structural   Cr2Fe3P6WO24
_chemical_formula_sum   'Cr2 Fe3 P6 W1 O24'
_cell_volume   463.84264552
_cell_formula_units_Z   1
loop_
 _symmetry_equiv_pos_site_id
 _symmetry_equiv_pos_as_xyz
  1  'x, y, z'
loop_
 _atom_site_type_symbol
 _atom_site_label
 _atom_site_symmetry_multiplicity
 _atom_site_fract_x
 _atom_site_fract_y
 _atom_site_fract_z
 _atom_site_occupancy
  Cr  Cr0  1  0.01324276  0.99558541  0.99558541  1
  Cr  Cr1  1  0.50113852  0.49962083  0.49962083  1
  Fe  Fe2  1  0.06310260  0.64563247  0.64563247  1
  Fe  Fe3  1  0.43746139  0.85417920  0.85417920  1
  Fe  Fe4  1  0.93698505  0.35433798  0.35433798  1
  P  P5  1  0.24643821  0.25242757  0.54692153  1
  P  P6  1  0.24643821  0.95421369  0.25242757  1
  P  P7  1  0.24643821  0.54692153  0.95421369  1
  P  P8  1  0.74791884  0.46310929  0.04425573  1
  P  P9  1  0.74791884  0.04425573  0.74471614  1
  P  P10  1  0.74791884  0.74471614  0.46310929  1
  W  W11  1  0.56939920  0.14353393  0.14353393  1
  O  O12  1  0.07240617  0.11371773  0.31120609  1
  O  O13  1  0.07240617  0.50267001  0.11371773  1
  O  O14  1  0.07240617  0.31120609  0.50267001  1
  O  O15  1  0.23829951  0.08626326  0.73520153  1
  O  O16  1  0.42987414  0.19013024  0.38480600  1
  O  O17  1  0.26899166  0.41426807  0.55477492  1
  O  O18  1  0.23829951  0.94023571  0.08626326  1
  O  O19  1  0.26899166  0.76196535  0.41426807  1
  O  O20  1  0.56869432  0.61587435  0.00630509  1
  O  O21  1  0.26899166  0.55477492  0.76196535  1
  O  O22  1  0.75732042  0.26519984  0.06400055  1
  O  O23  1  0.56869432  0.00630509  0.80912724  1
  O  O24  1  0.42987414  0.99518863  0.19013024  1
  O  O25  1  0.23829951  0.73520153  0.94023571  1
  O  O26  1  0.73402400  0.44026029  0.23941485  1
  O  O27  1  0.42987414  0.38480600  0.99518863  1
  O  O28  1  0.73402400  0.23941485  0.58630086  1
  O  O29  1  0.75732042  0.06400055  0.91347919  1
  O  O30  1  0.73402400  0.58630086  0.44026029  1
  O  O31  1  0.56869432  0.80912724  0.61587435  1
  O  O32  1  0.75732042  0.91347919  0.26519984  1
  O  O33  1  0.92892255  0.69402426  0.49163438  1
  O  O34  1  0.92892255  0.49163438  0.88541782  1
  O  O35  1  0.92892255  0.88541782  0.69402426  1
