# generated using pymatgen
data_Li2CrFe3O8
_symmetry_space_group_name_H-M   'P 1'
_cell_length_a   8.45243123
_cell_length_b   8.42521664
_cell_length_c   8.42732832
_cell_angle_alpha   89.70906515
_cell_angle_beta   90.07012437
_cell_angle_gamma   90.10615136
_symmetry_Int_Tables_number   1
_chemical_formula_structural   Li2CrFe3O8
_chemical_formula_sum   'Li8 Cr4 Fe12 O32'
_cell_volume   600.13087742
_cell_formula_units_Z   4
loop_
 _symmetry_equiv_pos_site_id
 _symmetry_equiv_pos_as_xyz
  1  'x, y, z'
loop_
 _atom_site_type_symbol
 _atom_site_label
 _atom_site_symmetry_multiplicity
 _atom_site_fract_x
 _atom_site_fract_y
 _atom_site_fract_z
 _atom_site_occupancy
  Li  Li0  1  0.00168076  0.99740597  -0.00000823  1
  Li  Li1  1  0.24841439  0.25035993  0.25129086  1
  Li  Li2  1  0.24833720  0.75154416  0.75044654  1
  Li  Li3  1  0.50056323  0.99825856  0.49919260  1
  Li  Li4  1  0.50142695  0.50019593  -0.00017704  1
  Li  Li5  1  0.74884664  0.25087162  0.75049088  1
  Li  Li6  1  0.74796391  0.74989168  0.25211808  1
  Li  Li7  1  0.00125737  0.50088056  0.49858593  1
  Cr  Cr8  1  0.12463508  0.87250283  0.37594156  1
  Cr  Cr9  1  0.37384222  0.12557037  0.87585591  1
  Cr  Cr10  1  0.62427523  0.62766541  0.62355580  1
  Cr  Cr11  1  0.87596111  0.37538926  0.12535656  1
  Fe  Fe12  1  0.12673574  0.12091562  0.62015672  1
  Fe  Fe13  1  0.12649375  0.37633426  0.87519463  1
  Fe  Fe14  1  0.12541021  0.62896854  0.12816977  1
  Fe  Fe15  1  0.37571813  0.37661110  0.62784161  1
  Fe  Fe16  1  0.37381958  0.62616688  0.37613207  1
  Fe  Fe17  1  0.37277032  0.87404649  0.12367049  1
  Fe  Fe18  1  0.62735975  0.37730909  0.37726818  1
  Fe  Fe19  1  0.62518982  0.12308015  0.12626796  1
  Fe  Fe20  1  0.62106825  0.87311513  0.87152705  1
  Fe  Fe21  1  0.87788745  0.12389945  0.37345785  1
  Fe  Fe22  1  0.87630137  0.87404771  0.62297243  1
  Fe  Fe23  1  0.87386849  0.62489347  0.87550214  1
  O  O24  1  0.11675259  0.11092259  0.38492094  1
  O  O25  1  0.11331004  0.88464319  0.61460565  1
  O  O26  1  0.11546930  0.61191514  0.89294088  1
  O  O27  1  0.15624718  0.13041827  0.87113039  1
  O  O28  1  0.09409387  0.38008336  0.12084205  1
  O  O29  1  0.13549407  0.36030179  0.64056729  1
  O  O30  1  0.13596884  0.63346870  0.36157376  1
  O  O31  1  0.13464264  0.86359467  0.13677895  1
  O  O32  1  0.36883417  0.13545703  0.64695638  1
  O  O33  1  0.36734341  0.35394808  0.87026101  1
  O  O34  1  0.36552146  0.63168998  0.13916562  1
  O  O35  1  0.38781200  0.61623611  0.61212441  1
  O  O36  1  0.36418231  0.85486544  0.36501596  1
  O  O37  1  0.38745857  0.39560200  0.38308207  1
  O  O38  1  0.38343298  0.11813097  0.10363745  1
  O  O39  1  0.38186218  0.89721419  0.88268036  1
  O  O40  1  0.61713772  0.39789496  0.61783713  1
  O  O41  1  0.61468358  0.61821290  0.39485543  1
  O  O42  1  0.61369719  0.88732239  0.10889993  1
  O  O43  1  0.65664375  0.37022847  0.12918563  1
  O  O44  1  0.59450118  0.12045526  0.87982096  1
  O  O45  1  0.63504783  0.14144499  0.36188514  1
  O  O46  1  0.63399334  0.85461165  0.63093638  1
  O  O47  1  0.63276012  0.63228455  0.85319782  1
  O  O48  1  0.86775794  0.36647649  0.35234016  1
  O  O49  1  0.86664145  0.14666672  0.13067456  1
  O  O50  1  0.86110339  0.86736528  0.85533685  1
  O  O51  1  0.88475700  0.88399605  0.39215852  1
  O  O52  1  0.86152564  0.64000755  0.63453994  1
  O  O53  1  0.88547136  0.10791029  0.61710675  1
  O  O54  1  0.88438961  0.38273619  0.89771317  1
  O  O55  1  0.88163535  0.60411157  0.11655915  1
