# generated using pymatgen
data_SrO6
_symmetry_space_group_name_H-M   'P 1'
_cell_length_a   5.94617577
_cell_length_b   5.94617577
_cell_length_c   6.25372515
_cell_angle_alpha   87.67888401
_cell_angle_beta   92.32111599
_cell_angle_gamma   80.42210521
_symmetry_Int_Tables_number   1
_chemical_formula_structural   SrO6
_chemical_formula_sum   'Sr2 O12'
_cell_volume   217.60132170
_cell_formula_units_Z   2
loop_
 _symmetry_equiv_pos_site_id
 _symmetry_equiv_pos_as_xyz
  1  'x, y, z'
loop_
 _atom_site_type_symbol
 _atom_site_label
 _atom_site_symmetry_multiplicity
 _atom_site_fract_x
 _atom_site_fract_y
 _atom_site_fract_z
 _atom_site_occupancy
  Sr  Sr0  1  0.80841319  0.80841319  0.75000000  1
  Sr  Sr1  1  0.19158681  0.19158681  0.25000000  1
  O  O2  1  0.07260009  0.75691509  0.40914711  1
  O  O3  1  0.75691509  0.07260009  0.09085289  1
  O  O4  1  0.92739991  0.24308491  0.59085289  1
  O  O5  1  0.24308491  0.92739991  0.90914711  1
  O  O6  1  0.24841026  0.59737266  0.42112735  1
  O  O7  1  0.59737266  0.24841026  0.07887265  1
  O  O8  1  0.75158974  0.40262734  0.57887265  1
  O  O9  1  0.40262734  0.75158974  0.92112735  1
  O  O10  1  0.08601002  0.46622520  0.93473395  1
  O  O11  1  0.46622520  0.08601002  0.56526605  1
  O  O12  1  0.91398998  0.53377480  0.06526605  1
  O  O13  1  0.53377480  0.91398998  0.43473395  1
