# generated using pymatgen
data_Ge7H18O23
_symmetry_space_group_name_H-M   'P 1'
_cell_length_a   8.03120507
_cell_length_b   8.06406726
_cell_length_c   7.56724018
_cell_angle_alpha   91.31308970
_cell_angle_beta   90.61518073
_cell_angle_gamma   89.08021986
_symmetry_Int_Tables_number   1
_chemical_formula_structural   Ge7H18O23
_chemical_formula_sum   'Ge7 H18 O23'
_cell_volume   489.86790525
_cell_formula_units_Z   1
loop_
 _symmetry_equiv_pos_site_id
 _symmetry_equiv_pos_as_xyz
  1  'x, y, z'
loop_
 _atom_site_type_symbol
 _atom_site_label
 _atom_site_symmetry_multiplicity
 _atom_site_fract_x
 _atom_site_fract_y
 _atom_site_fract_z
 _atom_site_occupancy
  Ge  Ge0  1  0.86984469  0.85636643  0.14438191  1
  Ge  Ge1  1  0.82164774  0.19318837  0.89002624  1
  Ge  Ge2  1  0.14859850  0.85434819  0.86814264  1
  Ge  Ge3  1  0.14706705  0.11611054  0.14885596  1
  Ge  Ge4  1  0.00933474  0.01310713  0.52289017  1
  Ge  Ge5  1  0.01372633  0.51811431  0.01362891  1
  Ge  Ge6  1  0.50461260  -0.00097762  0.02240978  1
  H  H7  1  0.25434739  0.71872920  0.27413424  1
  H  H8  1  0.84218461  0.90952551  0.80218491  1
  H  H9  1  0.27726527  0.23602723  0.76403808  1
  H  H10  1  0.71677876  0.95829101  0.42610631  1
  H  H11  1  0.71416842  0.48306753  0.29912517  1
  H  H12  1  0.61917672  0.57604631  0.73032358  1
  H  H13  1  0.43310512  0.71258035  0.92371089  1
  H  H14  1  0.21651475  0.43119347  0.21875286  1
  H  H15  1  0.48853402  0.05405273  0.37792285  1
  H  H16  1  0.56398988  0.10044944  0.56763612  1
  H  H17  1  0.07664828  0.60262121  0.53829101  1
  H  H18  1  0.95579161  0.46518496  0.58878382  1
  H  H19  1  0.53659932  0.48933218  0.03409804  1
  H  H20  1  0.42300319  0.45726693  0.85773389  1
  H  H21  1  0.38677337  0.62986007  0.39578843  1
  H  H22  1  0.75974220  0.68669524  0.67421216  1
  H  H23  1  0.73710787  0.29687320  0.25670037  1
  H  H24  1  0.24156020  0.37737872  0.62982766  1
  O  O25  1  0.10438307  0.88148534  0.14605615  1
  O  O26  1  0.89929505  0.83243912  0.88318272  1
  O  O27  1  0.89265146  0.11938860  0.10031334  1
  O  O28  1  0.16607938  0.08411298  0.90251116  1
  O  O29  1  0.84672535  0.91044894  0.39153929  1
  O  O30  1  0.89300228  0.63146663  0.16702162  1
  O  O31  1  0.64648698  0.86705265  0.12743209  1
  O  O32  1  0.86314521  0.10167017  0.67711845  1
  O  O33  1  0.88391278  0.39891066  0.86957833  1
  O  O34  1  0.60361703  0.14538760  0.88579459  1
  O  O35  1  0.13515140  0.86052548  0.62365181  1
  O  O36  1  0.15274429  0.62829559  0.88679002  1
  O  O37  1  0.39040612  0.83763623  0.89914536  1
  O  O38  1  0.11104750  0.14911534  0.38761687  1
  O  O39  1  0.14801342  0.36612877  0.12876277  1
  O  O40  1  0.37814621  0.09755283  0.18340767  1
  O  O41  1  0.56500970  0.01492526  0.47383731  1
  O  O42  1  0.05710580  0.48383002  0.52191101  1
  O  O43  1  0.49609031  0.53921274  0.92346512  1
  O  O44  1  0.31718971  0.61451513  0.29046991  1
  O  O45  1  0.67228862  0.61786469  0.62323976  1
  O  O46  1  0.65413503  0.38671158  0.25170226  1
  O  O47  1  0.33212666  0.32549903  0.70097237  1
