# generated using pymatgen
data_Na(AsO3)2
_symmetry_space_group_name_H-M   'P 1'
_cell_length_a   5.64886830
_cell_length_b   9.10687800
_cell_length_c   9.39059202
_cell_angle_alpha   90.00000000
_cell_angle_beta   90.00000000
_cell_angle_gamma   100.49058764
_symmetry_Int_Tables_number   1
_chemical_formula_structural   Na(AsO3)2
_chemical_formula_sum   'Na4 As8 O24'
_cell_volume   475.01057731
_cell_formula_units_Z   4
loop_
 _symmetry_equiv_pos_site_id
 _symmetry_equiv_pos_as_xyz
  1  'x, y, z'
loop_
 _atom_site_type_symbol
 _atom_site_label
 _atom_site_symmetry_multiplicity
 _atom_site_fract_x
 _atom_site_fract_y
 _atom_site_fract_z
 _atom_site_occupancy
  Na  Na0  1  0.60282120  0.48329892  0.31000363  1
  Na  Na1  1  0.39717880  0.01670108  0.81000363  1
  Na  Na2  1  0.39717880  0.51670108  0.68999637  1
  Na  Na3  1  0.60282120  0.98329892  0.18999637  1
  As  As4  1  0.18442485  0.73724263  0.41393177  1
  As  As5  1  0.81557515  0.76275737  0.91393177  1
  As  As6  1  0.81557515  0.26275737  0.58606823  1
  As  As7  1  0.18442485  0.23724263  0.08606823  1
  As  As8  1  0.13317588  0.08473602  0.39594125  1
  As  As9  1  0.86682412  0.41526398  0.89594125  1
  As  As10  1  0.86682412  0.91526398  0.60405875  1
  As  As11  1  0.13317588  0.58473602  0.10405875  1
  O  O12  1  0.83029705  0.96794575  0.41653325  1
  O  O13  1  0.16970295  0.53205425  0.91653325  1
  O  O14  1  0.16970295  0.03205425  0.58346675  1
  O  O15  1  0.83029705  0.46794575  0.08346675  1
  O  O16  1  0.42645017  0.18458163  0.35563018  1
  O  O17  1  0.57354983  0.31541837  0.85563018  1
  O  O18  1  0.57354983  0.81541837  0.64436982  1
  O  O19  1  0.42645017  0.68458163  0.14436982  1
  O  O20  1  0.02504129  0.60683922  0.29475352  1
  O  O21  1  0.97495871  0.89316078  0.79475352  1
  O  O22  1  0.97495871  0.39316078  0.70524648  1
  O  O23  1  0.02504129  0.10683922  0.20524648  1
  O  O24  1  0.25675908  0.90819954  0.32988290  1
  O  O25  1  0.74324092  0.59180046  0.82988290  1
  O  O26  1  0.74324092  0.09180046  0.67011710  1
  O  O27  1  0.25675908  0.40819954  0.17011710  1
  O  O28  1  0.42349697  0.65959325  0.46884079  1
  O  O29  1  0.57650303  0.84040675  0.96884079  1
  O  O30  1  0.57650303  0.34040675  0.53115921  1
  O  O31  1  0.42349697  0.15959325  0.03115921  1
  O  O32  1  0.01946565  0.26260480  0.44773156  1
  O  O33  1  0.98053435  0.23739520  0.94773156  1
  O  O34  1  0.98053435  0.73739520  0.55226844  1
  O  O35  1  0.01946565  0.76260480  0.05226844  1
