# generated using pymatgen
data_Mg3B2H9SO13F
_symmetry_space_group_name_H-M   'P 1'
_cell_length_a   9.01009065
_cell_length_b   13.24163534
_cell_length_c   10.19138985
_cell_angle_alpha   90.00000000
_cell_angle_beta   90.00000000
_cell_angle_gamma   90.00000000
_symmetry_Int_Tables_number   1
_chemical_formula_structural   Mg3B2H9SO13F
_chemical_formula_sum   'Mg12 B8 H36 S4 O52 F4'
_cell_volume   1215.91775197
_cell_formula_units_Z   4
loop_
 _symmetry_equiv_pos_site_id
 _symmetry_equiv_pos_as_xyz
  1  'x, y, z'
loop_
 _atom_site_type_symbol
 _atom_site_label
 _atom_site_symmetry_multiplicity
 _atom_site_fract_x
 _atom_site_fract_y
 _atom_site_fract_z
 _atom_site_occupancy
  Mg  Mg0  1  0.65826417  0.25000000  0.94086603  1
  Mg  Mg1  1  0.15826417  0.25000000  0.55913397  1
  Mg  Mg2  1  0.34173583  0.75000000  0.05913397  1
  Mg  Mg3  1  0.84173583  0.75000000  0.44086603  1
  Mg  Mg4  1  0.61505700  0.60639332  0.12235693  1
  Mg  Mg5  1  0.11505700  0.89360668  0.37764307  1
  Mg  Mg6  1  0.38494300  0.10639332  0.87764307  1
  Mg  Mg7  1  0.88494300  0.39360668  0.62235693  1
  Mg  Mg8  1  0.38494300  0.39360668  0.87764307  1
  Mg  Mg9  1  0.88494300  0.10639332  0.62235693  1
  Mg  Mg10  1  0.61505700  0.89360668  0.12235693  1
  Mg  Mg11  1  0.11505700  0.60639332  0.37764307  1
  B  B12  1  0.80260976  0.51479735  0.36210705  1
  B  B13  1  0.30260976  0.98520265  0.13789295  1
  B  B14  1  0.19739024  0.01479735  0.63789295  1
  B  B15  1  0.69739024  0.48520265  0.86210705  1
  B  B16  1  0.19739024  0.48520265  0.63789295  1
  B  B17  1  0.69739024  0.01479735  0.86210705  1
  B  B18  1  0.80260976  0.98520265  0.36210705  1
  B  B19  1  0.30260976  0.51479735  0.13789295  1
  H  H20  1  0.63040531  0.35963736  0.70358999  1
  H  H21  1  0.13040531  0.14036264  0.79641001  1
  H  H22  1  0.36959469  0.85963736  0.29641001  1
  H  H23  1  0.86959469  0.64036264  0.20358999  1
  H  H24  1  0.36959469  0.64036264  0.29641001  1
  H  H25  1  0.86959469  0.85963736  0.20358999  1
  H  H26  1  0.63040531  0.14036264  0.70358999  1
  H  H27  1  0.13040531  0.35963736  0.79641001  1
  H  H28  1  0.62007249  0.44190117  0.29322616  1
  H  H29  1  0.12007249  0.05809883  0.20677384  1
  H  H30  1  0.37992751  0.94190117  0.70677384  1
  H  H31  1  0.87992751  0.55809883  0.79322616  1
  H  H32  1  0.37992751  0.55809883  0.70677384  1
  H  H33  1  0.87992751  0.94190117  0.79322616  1
  H  H34  1  0.62007249  0.05809883  0.29322616  1
  H  H35  1  0.12007249  0.44190117  0.20677384  1
  H  H36  1  0.83465458  0.13994291  0.38224549  1
  H  H37  1  0.33465458  0.36005709  0.11775451  1
  H  H38  1  0.16534542  0.63994291  0.61775451  1
  H  H39  1  0.66534542  0.86005709  0.88224549  1
  H  H40  1  0.16534542  0.86005709  0.61775451  1
  H  H41  1  0.66534542  0.63994291  0.88224549  1
  H  H42  1  0.83465458  0.36005709  0.38224549  1
  H  H43  1  0.33465458  0.13994291  0.11775451  1
  H  H44  1  0.93729289  0.30720816  0.98975605  1
  H  H45  1  0.43729289  0.19279184  0.51024395  1
  H  H46  1  0.06270711  0.80720816  0.01024395  1
  H  H47  1  0.56270711  0.69279184  0.48975605  1
  H  H48  1  0.06270711  0.69279184  0.01024395  1
  H  H49  1  0.56270711  0.80720816  0.48975605  1
  H  H50  1  0.93729289  0.19279184  0.98975605  1
  H  H51  1  0.43729289  0.30720816  0.51024395  1
  H  H52  1  0.32525696  0.75000000  0.38221990  1
  H  H53  1  0.82525696  0.75000000  0.11778010  1
  H  H54  1  0.67474304  0.25000000  0.61778010  1
  H  H55  1  0.17474304  0.25000000  0.88221990  1
  S  S56  1  0.01474568  0.25000000  0.26154161  1
  S  S57  1  0.51474568  0.25000000  0.23845839  1
  S  S58  1  0.98525432  0.75000000  0.73845839  1
  S  S59  1  0.48525432  0.75000000  0.76154161  1
  O  O60  1  0.97096861  0.65801857  0.82123452  1
  O  O61  1  0.47096861  0.84198143  0.67876548  1
  O  O62  1  0.02903139  0.15801857  0.17876548  1
  O  O63  1  0.52903139  0.34198143  0.32123452  1
  O  O64  1  0.02903139  0.34198143  0.17876548  1
  O  O65  1  0.52903139  0.15801857  0.32123452  1
  O  O66  1  0.97096861  0.84198143  0.82123452  1
  O  O67  1  0.47096861  0.65801857  0.67876548  1
  O  O68  1  0.86337274  0.25000000  0.32526910  1
  O  O69  1  0.36337274  0.25000000  0.17473090  1
  O  O70  1  0.13662726  0.75000000  0.67473090  1
  O  O71  1  0.63662726  0.75000000  0.82526910  1
  O  O72  1  0.62831130  0.25000000  0.13258855  1
  O  O73  1  0.12831130  0.25000000  0.36741145  1
  O  O74  1  0.37168870  0.75000000  0.86741145  1
  O  O75  1  0.87168870  0.75000000  0.63258855  1
  O  O76  1  0.62098921  0.39826246  0.87878777  1
  O  O77  1  0.12098921  0.10173754  0.62121223  1
  O  O78  1  0.37901079  0.89826246  0.12121223  1
  O  O79  1  0.87901079  0.60173754  0.37878777  1
  O  O80  1  0.37901079  0.60173754  0.12121223  1
  O  O81  1  0.87901079  0.89826246  0.37878777  1
  O  O82  1  0.62098921  0.10173754  0.87878777  1
  O  O83  1  0.12098921  0.39826246  0.62121223  1
  O  O84  1  0.82189997  0.65819529  0.12072712  1
  O  O85  1  0.32189997  0.84180471  0.37927288  1
  O  O86  1  0.17810003  0.15819529  0.87927288  1
  O  O87  1  0.67810003  0.34180471  0.62072712  1
  O  O88  1  0.17810003  0.34180471  0.87927288  1
  O  O89  1  0.67810003  0.15819529  0.62072712  1
  O  O90  1  0.82189997  0.84180471  0.12072712  1
  O  O91  1  0.32189997  0.65819529  0.37927288  1
  O  O92  1  0.67525238  0.50877817  0.28172372  1
  O  O93  1  0.17525238  0.99122183  0.21827628  1
  O  O94  1  0.32474762  0.00877817  0.71827628  1
  O  O95  1  0.82474762  0.49122183  0.78172372  1
  O  O96  1  0.32474762  0.49122183  0.71827628  1
  O  O97  1  0.82474762  0.00877817  0.78172372  1
  O  O98  1  0.67525238  0.99122183  0.28172372  1
  O  O99  1  0.17525238  0.50877817  0.21827628  1
  O  O100  1  0.11706312  0.75000000  0.04925011  1
  O  O101  1  0.61706312  0.75000000  0.45074989  1
  O  O102  1  0.88293688  0.25000000  0.95074989  1
  O  O103  1  0.38293688  0.25000000  0.54925011  1
  O  O104  1  0.14514418  0.57161320  0.57458746  1
  O  O105  1  0.64514418  0.92838680  0.92541254  1
  O  O106  1  0.85485582  0.07161320  0.42541254  1
  O  O107  1  0.35485582  0.42838680  0.07458746  1
  O  O108  1  0.85485582  0.42838680  0.42541254  1
  O  O109  1  0.35485582  0.07161320  0.07458746  1
  O  O110  1  0.14514418  0.92838680  0.57458746  1
  O  O111  1  0.64514418  0.57161320  0.92541254  1
  F  F112  1  0.04942230  0.75000000  0.37251442  1
  F  F113  1  0.54942230  0.75000000  0.12748558  1
  F  F114  1  0.95057770  0.25000000  0.62748558  1
  F  F115  1  0.45057770  0.25000000  0.87251442  1
