# generated using pymatgen
data_Ta2O5
_symmetry_space_group_name_H-M   'P 1'
_cell_length_a   5.56915494
_cell_length_b   5.56915420
_cell_length_c   6.10960808
_cell_angle_alpha   56.30639528
_cell_angle_beta   56.30640204
_cell_angle_gamma   73.36138140
_symmetry_Int_Tables_number   1
_chemical_formula_structural   Ta2O5
_chemical_formula_sum   'Ta2 O5'
_cell_volume   131.11350480
_cell_formula_units_Z   1
loop_
 _symmetry_equiv_pos_site_id
 _symmetry_equiv_pos_as_xyz
  1  'x, y, z'
loop_
 _atom_site_type_symbol
 _atom_site_label
 _atom_site_symmetry_multiplicity
 _atom_site_fract_x
 _atom_site_fract_y
 _atom_site_fract_z
 _atom_site_occupancy
  Ta  Ta0  1  0.76806730  0.79473420  0.31811097  1
  Ta  Ta1  1  0.20526580  0.23193270  0.68188903  1
  O  O2  1  0.45685982  0.54314018  0.50000000  1
  O  O3  1  0.50278266  0.01683683  0.51149141  1
  O  O4  1  0.08207668  0.10721442  0.08439767  1
  O  O5  1  0.89278558  0.91792332  0.91560233  1
  O  O6  1  0.98316317  0.49721734  0.48850859  1
