# generated using pymatgen
data_Ba5Y3I19
_symmetry_space_group_name_H-M   'P 1'
_cell_length_a   17.08376492
_cell_length_b   14.90082914
_cell_length_c   16.66359939
_cell_angle_alpha   93.12701381
_cell_angle_beta   100.86597675
_cell_angle_gamma   137.28068706
_symmetry_Int_Tables_number   1
_chemical_formula_structural   Ba5Y3I19
_chemical_formula_sum   'Ba10 Y6 I38'
_cell_volume   2704.91749295
_cell_formula_units_Z   2
loop_
 _symmetry_equiv_pos_site_id
 _symmetry_equiv_pos_as_xyz
  1  'x, y, z'
loop_
 _atom_site_type_symbol
 _atom_site_label
 _atom_site_symmetry_multiplicity
 _atom_site_fract_x
 _atom_site_fract_y
 _atom_site_fract_z
 _atom_site_occupancy
  Ba  Ba0  1  0.66401600  0.24974964  0.43384465  1
  Ba  Ba1  1  0.80393685  0.61461724  0.23859579  1
  Ba  Ba2  1  0.73783016  0.07075193  0.80081135  1
  Ba  Ba3  1  0.39147866  0.67368607  0.16797702  1
  Ba  Ba4  1  0.05878533  0.24844643  0.34968900  1
  Ba  Ba5  1  0.94121467  0.75155357  0.65031100  1
  Ba  Ba6  1  0.60852134  0.32631393  0.83202298  1
  Ba  Ba7  1  0.26216984  0.92924807  0.19918865  1
  Ba  Ba8  1  0.19606315  0.38538276  0.76140421  1
  Ba  Ba9  1  0.33598400  0.75025036  0.56615535  1
  Y  Y10  1  0.83588232  0.29814546  0.16865926  1
  Y  Y11  1  0.25687338  0.25641342  0.01609241  1
  Y  Y12  1  0.33371450  0.14850534  0.48009862  1
  Y  Y13  1  0.66628550  0.85149466  0.51990138  1
  Y  Y14  1  0.74312662  0.74358658  0.98390759  1
  Y  Y15  1  0.16411768  0.70185454  0.83134074  1
  I  I16  1  0.66100573  0.99784759  0.13956617  1
  I  I17  1  0.75810061  0.26161192  0.97529877  1
  I  I18  1  0.89498149  0.04802938  0.68269731  1
  I  I19  1  0.93427224  0.36222696  0.36208182  1
  I  I20  1  0.00284108  0.60867214  0.21038410  1
  I  I21  1  0.65131446  0.27391106  0.20486541  1
  I  I22  1  0.34069514  0.14609260  0.07372163  1
  I  I23  1  0.80067689  0.59440467  0.02805453  1
  I  I24  1  0.67381484  0.06298448  0.55142901  1
  I  I25  1  0.50000000  0.50000000  0.00000000  1
  I  I26  1  -0.00000000  -0.00000000  0.00000000  1
  I  I27  1  0.86592035  0.59687011  0.44142365  1
  I  I28  1  0.46418008  0.25569117  0.34387158  1
  I  I29  1  0.34614021  0.40869798  0.19906888  1
  I  I30  1  0.81639359  0.85342007  0.17715036  1
  I  I31  1  0.54161354  0.07337242  0.71203333  1
  I  I32  1  0.60782433  0.35908852  0.60092430  1
  I  I33  1  0.22727331  0.03647549  0.61829867  1
  I  I34  1  0.05839225  0.36974085  0.16994442  1
  I  I35  1  0.70152820  0.68326658  0.51152213  1
  I  I36  1  0.29847180  0.31673342  0.48847787  1
  I  I37  1  0.94160775  0.63025915  0.83005558  1
  I  I38  1  0.77272669  0.96352451  0.38170133  1
  I  I39  1  0.39217567  0.64091148  0.39907570  1
  I  I40  1  0.45838646  0.92662758  0.28796667  1
  I  I41  1  0.18360641  0.14657993  0.82284964  1
  I  I42  1  0.65385979  0.59130202  0.80093112  1
  I  I43  1  0.53581992  0.74430883  0.65612842  1
  I  I44  1  0.13407965  0.40312989  0.55857635  1
  I  I45  1  0.32618516  0.93701552  0.44857099  1
  I  I46  1  0.19932311  0.40559533  0.97194547  1
  I  I47  1  0.65930486  0.85390740  0.92627837  1
  I  I48  1  0.34868554  0.72608894  0.79513459  1
  I  I49  1  0.99715892  0.39132786  0.78961590  1
  I  I50  1  0.06572776  0.63777304  0.63791818  1
  I  I51  1  0.10501851  0.95197062  0.31730269  1
  I  I52  1  0.24189939  0.73838808  0.02470123  1
  I  I53  1  0.33899427  0.00215241  0.86043383  1
