# generated using pymatgen
data_Na3NiO2
_symmetry_space_group_name_H-M   'P 1'
_cell_length_a   10.82070877
_cell_length_b   6.30710588
_cell_length_c   5.54067241
_cell_angle_alpha   89.99992787
_cell_angle_beta   89.97441841
_cell_angle_gamma   90.00011552
_symmetry_Int_Tables_number   1
_chemical_formula_structural   Na3NiO2
_chemical_formula_sum   'Na12 Ni4 O8'
_cell_volume   378.13620411
_cell_formula_units_Z   4
loop_
 _symmetry_equiv_pos_site_id
 _symmetry_equiv_pos_as_xyz
  1  'x, y, z'
loop_
 _atom_site_type_symbol
 _atom_site_label
 _atom_site_symmetry_multiplicity
 _atom_site_fract_x
 _atom_site_fract_y
 _atom_site_fract_z
 _atom_site_occupancy
  Na  Na0  1  0.08799050  0.25000149  0.22219645  1
  Na  Na1  1  0.14173548  0.50289637  0.63824457  1
  Na  Na2  1  0.14173643  0.99710442  0.63824343  1
  Na  Na3  1  0.35823234  0.49746352  0.13819450  1
  Na  Na4  1  0.35823191  0.00253669  0.13819489  1
  Na  Na5  1  0.41212099  0.74999924  0.72220819  1
  Na  Na6  1  0.58795014  0.25000054  0.27781175  1
  Na  Na7  1  0.64174556  0.99708727  0.86174876  1
  Na  Na8  1  0.64174441  0.50291322  0.86174737  1
  Na  Na9  1  0.85822579  0.49741269  0.36179915  1
  Na  Na10  1  0.85822500  0.00258716  0.36180199  1
  Na  Na11  1  0.91203726  0.75000009  0.77775714  1
  Ni  Ni12  1  0.11466733  0.75000200  0.14982637  1
  Ni  Ni13  1  0.38531434  0.24999988  0.64989002  1
  Ni  Ni14  1  0.61465837  0.75000062  0.35008054  1
  Ni  Ni15  1  0.88536561  0.24999757  0.85009214  1
  O  O16  1  0.01609664  0.74999929  0.40676480  1
  O  O17  1  0.22509094  0.75000026  0.90911400  1
  O  O18  1  0.27492158  0.24999912  0.40923812  1
  O  O19  1  0.48386435  0.24999949  0.90654795  1
  O  O20  1  0.51614784  0.74999876  0.09349990  1
  O  O21  1  0.72509551  0.74999866  0.59081424  1
  O  O22  1  0.77489400  0.25000122  0.09088991  1
  O  O23  1  0.98390770  0.25000045  0.59329380  1
