# generated using pymatgen
data_CeSm3
_symmetry_space_group_name_H-M   'P 1'
_cell_length_a   7.20232120
_cell_length_b   7.20254852
_cell_length_c   5.85908927
_cell_angle_alpha   90.00299347
_cell_angle_beta   89.99610643
_cell_angle_gamma   119.99177201
_symmetry_Int_Tables_number   1
_chemical_formula_structural   CeSm3
_chemical_formula_sum   'Ce2 Sm6'
_cell_volume   263.24214785
_cell_formula_units_Z   2
loop_
 _symmetry_equiv_pos_site_id
 _symmetry_equiv_pos_as_xyz
  1  'x, y, z'
loop_
 _atom_site_type_symbol
 _atom_site_label
 _atom_site_symmetry_multiplicity
 _atom_site_fract_x
 _atom_site_fract_y
 _atom_site_fract_z
 _atom_site_occupancy
  Ce  Ce0  1  0.33328775  0.66664968  0.74999873  1
  Ce  Ce1  1  0.66673109  0.33340960  0.25000104  1
  Sm  Sm2  1  0.16641757  0.33291260  0.24999844  1
  Sm  Sm3  1  0.66707879  0.83348319  0.24999922  1
  Sm  Sm4  1  0.16636600  0.83344458  0.24998523  1
  Sm  Sm5  1  0.83351428  0.66692964  0.74999922  1
  Sm  Sm6  1  0.33309129  0.16655924  0.74999784  1
  Sm  Sm7  1  0.83351223  0.16660948  0.75001629  1
