# generated using pymatgen
data_Li4Cr3Fe2Sb3O16
_symmetry_space_group_name_H-M   'P 1'
_cell_length_a   6.08990921
_cell_length_b   6.12461949
_cell_length_c   9.91657279
_cell_angle_alpha   89.90964640
_cell_angle_beta   89.95778964
_cell_angle_gamma   120.20596718
_symmetry_Int_Tables_number   1
_chemical_formula_structural   Li4Cr3Fe2Sb3O16
_chemical_formula_sum   'Li4 Cr3 Fe2 Sb3 O16'
_cell_volume   319.65083003
_cell_formula_units_Z   1
loop_
 _symmetry_equiv_pos_site_id
 _symmetry_equiv_pos_as_xyz
  1  'x, y, z'
loop_
 _atom_site_type_symbol
 _atom_site_label
 _atom_site_symmetry_multiplicity
 _atom_site_fract_x
 _atom_site_fract_y
 _atom_site_fract_z
 _atom_site_occupancy
  Li  Li0  1  0.34355957  0.67133830  0.90307891  1
  Li  Li1  1  0.01604703  0.00827233  0.00585377  1
  Li  Li2  1  0.02179139  0.01138037  0.49091167  1
  Li  Li3  1  0.67234938  0.33611819  0.36837599  1
  Cr  Cr4  1  0.16782782  0.83179204  0.21495996  1
  Cr  Cr5  1  0.16779482  0.33637568  0.21511781  1
  Cr  Cr6  1  0.33433653  0.16709088  0.71700165  1
  Fe  Fe7  1  0.30863496  0.65475813  0.47624214  1
  Fe  Fe8  1  0.65271904  0.32724932  0.01434263  1
  Sb  Sb9  1  0.66129649  0.83072461  0.21523677  1
  Sb  Sb10  1  0.82943643  0.66224440  0.71573808  1
  Sb  Sb11  1  0.82945542  0.16696370  0.71585595  1
  O  O12  1  0.14690121  0.83945947  0.60782808  1
  O  O13  1  0.03504420  0.51846318  0.33013811  1
  O  O14  1  0.33502553  0.66817480  0.10552830  1
  O  O15  1  0.99816423  0.99874603  0.31286254  1
  O  O16  1  0.99845519  0.99881921  0.82047837  1
  O  O17  1  0.14670511  0.30767941  0.60781188  1
  O  O18  1  0.48712104  0.96762670  0.33271323  1
  O  O19  1  0.48750798  0.51940699  0.33318788  1
  O  O20  1  0.31433989  0.15566191  0.10651205  1
  O  O21  1  0.68600111  0.84294529  0.60385818  1
  O  O22  1  0.51958566  0.48787496  0.82765276  1
  O  O23  1  0.51958539  0.03140581  0.82767563  1
  O  O24  1  0.66525681  0.33281186  0.60430491  1
  O  O25  1  0.84007616  0.68902240  0.10261393  1
  O  O26  1  0.97512514  0.48744917  0.82965456  1
  O  O27  1  0.83985544  0.15044586  0.10230526  1
