# generated using pymatgen
data_Mg16Al12Fe
_symmetry_space_group_name_H-M   'P 1'
_cell_length_a   9.27413251
_cell_length_b   8.88571534
_cell_length_c   8.88571667
_cell_angle_alpha   108.56885228
_cell_angle_beta   110.35917791
_cell_angle_gamma   110.35917278
_symmetry_Int_Tables_number   1
_chemical_formula_structural   Mg16Al12Fe
_chemical_formula_sum   'Mg16 Al12 Fe1'
_cell_volume   557.39011251
_cell_formula_units_Z   1
loop_
 _symmetry_equiv_pos_site_id
 _symmetry_equiv_pos_as_xyz
  1  'x, y, z'
loop_
 _atom_site_type_symbol
 _atom_site_label
 _atom_site_symmetry_multiplicity
 _atom_site_fract_x
 _atom_site_fract_y
 _atom_site_fract_z
 _atom_site_occupancy
  Mg  Mg0  1  0.99622786  -0.00000000  0.99999900  1
  Mg  Mg1  1  0.00509081  0.35267006  0.99999900  1
  Mg  Mg2  1  0.31953259  0.59612469  0.99999900  1
  Mg  Mg3  1  0.57579048  0.27383248  1.00000000  1
  Mg  Mg4  1  0.68260932  0.67817234  0.27882928  1
  Mg  Mg5  1  0.57579048  1.00000000  0.27383248  1
  Mg  Mg6  1  0.00443598  0.60065694  0.32182766  1
  Mg  Mg7  1  0.00509081  0.00000000  0.35267006  1
  Mg  Mg8  1  0.40378004  0.72117072  0.39934406  1
  Mg  Mg9  1  0.72340990  0.40387731  0.40387631  1
  Mg  Mg10  1  0.31953359  1.00000000  0.59612369  1
  Mg  Mg11  1  0.00443598  0.32182766  0.60065694  1
  Mg  Mg12  1  0.65241876  0.64732894  0.64732794  1
  Mg  Mg13  1  0.68260932  0.27882928  0.67817234  1
  Mg  Mg14  1  0.30195800  0.72616752  0.72616852  1
  Mg  Mg15  1  0.40378004  0.39934406  0.72117172  1
  Al  Al16  1  0.64633628  0.80990244  0.99999900  1
  Al  Al17  1  0.81246760  0.61927895  1.00000000  1
  Al  Al18  1  0.36641178  0.35793226  0.17927933  1
  Al  Al19  1  0.18713146  0.82072067  0.17865293  1
  Al  Al20  1  0.83643184  0.19009656  0.19009656  1
  Al  Al21  1  0.36641178  0.17927933  0.35793326  1
  Al  Al22  1  0.19318865  0.38072205  0.38072205  1
  Al  Al23  1  0.81246760  0.00000100  0.61927895  1
  Al  Al24  1  0.00847752  0.82134707  0.64206774  1
  Al  Al25  1  0.64633528  -0.00000000  0.80990244  1
  Al  Al26  1  0.00847852  0.64206774  0.82134707  1
  Al  Al27  1  0.18713146  0.17865293  0.82071967  1
  Fe  Fe28  1  0.27223928  0.99999900  0.99999900  1
