# generated using pymatgen
data_Fe3Sb
_symmetry_space_group_name_H-M   'P 1'
_cell_length_a   5.49379632
_cell_length_b   5.49379573
_cell_length_c   4.35953265
_cell_angle_alpha   90.00000000
_cell_angle_beta   90.00000000
_cell_angle_gamma   119.99999638
_symmetry_Int_Tables_number   1
_chemical_formula_structural   Fe3Sb
_chemical_formula_sum   'Fe6 Sb2'
_cell_volume   113.95034484
_cell_formula_units_Z   2
loop_
 _symmetry_equiv_pos_site_id
 _symmetry_equiv_pos_as_xyz
  1  'x, y, z'
loop_
 _atom_site_type_symbol
 _atom_site_label
 _atom_site_symmetry_multiplicity
 _atom_site_fract_x
 _atom_site_fract_y
 _atom_site_fract_z
 _atom_site_occupancy
  Fe  Fe0  1  0.15222969  0.30445939  0.24999800  1
  Fe  Fe1  1  0.69554061  0.84777131  0.24999800  1
  Fe  Fe2  1  0.15222969  0.84777131  0.24999800  1
  Fe  Fe3  1  0.84777131  0.69554261  0.75000000  1
  Fe  Fe4  1  0.30445839  0.15222869  0.75000000  1
  Fe  Fe5  1  0.84777131  0.15222869  0.75000000  1
  Sb  Sb6  1  0.33333300  0.66666600  0.75000000  1
  Sb  Sb7  1  0.66666800  0.33333400  0.24999800  1
