# generated using pymatgen
data_Mg16Al12Te
_symmetry_space_group_name_H-M   'P 1'
_cell_length_a   9.40058065
_cell_length_b   9.10672482
_cell_length_c   9.10672549
_cell_angle_alpha   108.80834957
_cell_angle_beta   110.12621968
_cell_angle_gamma   110.12620236
_symmetry_Int_Tables_number   1
_chemical_formula_structural   Mg16Al12Te
_chemical_formula_sum   'Mg16 Al12 Te1'
_cell_volume   595.22709856
_cell_formula_units_Z   1
loop_
 _symmetry_equiv_pos_site_id
 _symmetry_equiv_pos_as_xyz
  1  'x, y, z'
loop_
 _atom_site_type_symbol
 _atom_site_label
 _atom_site_symmetry_multiplicity
 _atom_site_fract_x
 _atom_site_fract_y
 _atom_site_fract_z
 _atom_site_occupancy
  Mg  Mg0  1  0.60261343  0.31029390  0.00000000  1
  Mg  Mg1  1  0.31363384  0.60549997  0.00000000  1
  Mg  Mg2  1  0.01281022  0.99999900  1.00000000  1
  Mg  Mg3  1  0.00049271  0.34780273  0.00000000  1
  Mg  Mg4  1  0.67702600  0.68002562  0.27634624  1
  Mg  Mg5  1  0.60261443  0.99999900  0.31029290  1
  Mg  Mg6  1  0.99700038  0.59632162  0.31997438  1
  Mg  Mg7  1  0.00049371  0.00000100  0.34780173  1
  Mg  Mg8  1  0.70813487  0.39450103  0.39450003  1
  Mg  Mg9  1  0.40068076  0.72365476  0.40367938  1
  Mg  Mg10  1  0.99700038  0.31997438  0.59632162  1
  Mg  Mg11  1  0.31363384  0.99999900  0.60549997  1
  Mg  Mg12  1  0.65268898  0.65219727  0.65219727  1
  Mg  Mg13  1  0.67702600  0.27634624  0.68002562  1
  Mg  Mg14  1  0.29231953  0.68970610  0.68970710  1
  Mg  Mg15  1  0.40068076  0.40368038  0.72365376  1
  Al  Al16  1  0.64320979  0.81033739  0.99999900  1
  Al  Al17  1  0.81529608  0.63066412  0.00000100  1
  Al  Al18  1  0.36332987  0.37449779  0.18764183  1
  Al  Al19  1  0.83287140  0.18966161  0.18966261  1
  Al  Al20  1  0.17568704  0.81235717  0.18685596  1
  Al  Al21  1  0.18463196  0.36933588  0.36933688  1
  Al  Al22  1  0.36332987  0.18764183  0.37449779  1
  Al  Al23  1  0.98883308  0.81314504  0.62550321  1
  Al  Al24  1  0.81529608  1.00000000  0.63066512  1
  Al  Al25  1  0.98883208  0.62550421  0.81314504  1
  Al  Al26  1  0.64320979  0.99999900  0.81033739  1
  Al  Al27  1  0.17568704  0.18685496  0.81235717  1
  Te  Te28  1  0.36094005  1.00000000  1.00000000  1
