# generated using pymatgen
data_Mg16TaAl12
_symmetry_space_group_name_H-M   'P 1'
_cell_length_a   9.10021985
_cell_length_b   9.03759861
_cell_length_c   9.03759957
_cell_angle_alpha   109.33043382
_cell_angle_beta   109.61164149
_cell_angle_gamma   109.61163262
_symmetry_Int_Tables_number   1
_chemical_formula_structural   Mg16TaAl12
_chemical_formula_sum   'Mg16 Ta1 Al12'
_cell_volume   571.19005087
_cell_formula_units_Z   1
loop_
 _symmetry_equiv_pos_site_id
 _symmetry_equiv_pos_as_xyz
  1  'x, y, z'
loop_
 _atom_site_type_symbol
 _atom_site_label
 _atom_site_symmetry_multiplicity
 _atom_site_fract_x
 _atom_site_fract_y
 _atom_site_fract_z
 _atom_site_occupancy
  Mg  Mg0  1  0.00087909  1.00000000  1.00000000  1
  Mg  Mg1  1  0.00028343  0.34538787  0.00000000  1
  Mg  Mg2  1  0.59668389  0.31250446  -0.00000000  1
  Mg  Mg3  1  0.31810897  0.60138513  0.00000000  1
  Mg  Mg4  1  0.68560808  0.68514422  0.28795015  1
  Mg  Mg5  1  0.59668389  -0.00000000  0.31250446  1
  Mg  Mg6  1  0.00046487  0.60280493  0.31485578  1
  Mg  Mg7  1  0.00028343  0.00000000  0.34538787  1
  Mg  Mg8  1  0.39765893  0.71205085  0.39719507  1
  Mg  Mg9  1  0.71672584  0.39861687  0.39861587  1
  Mg  Mg10  1  0.31810897  0.00000000  0.60138413  1
  Mg  Mg11  1  0.00046487  0.31485578  0.60280593  1
  Mg  Mg12  1  0.65489357  0.65460913  0.65461013  1
  Mg  Mg13  1  0.68560908  0.28795015  0.68514422  1
  Mg  Mg14  1  0.28417943  0.68749654  0.68749654  1
  Mg  Mg15  1  0.39765993  0.39719507  0.71204985  1
  Ta  Ta16  1  0.33227184  0.00000000  0.00000000  1
  Al  Al17  1  0.81378067  0.63235753  0.00000000  1
  Al  Al18  1  0.62983432  0.81516328  0.00000000  1
  Al  Al19  1  0.36764413  0.35946537  0.17841114  1
  Al  Al20  1  0.18923198  0.82158686  0.18105323  1
  Al  Al21  1  0.81467104  0.18483672  0.18483772  1
  Al  Al22  1  0.36764413  0.17841114  0.35946537  1
  Al  Al23  1  0.18142315  0.36764247  0.36764247  1
  Al  Al24  1  0.81378067  0.00000000  0.63235753  1
  Al  Al25  1  0.00817675  0.81894577  0.64053363  1
  Al  Al26  1  0.62983432  0.00000000  0.81516328  1
  Al  Al27  1  0.00817775  0.64053363  0.81894577  1
  Al  Al28  1  0.18923198  0.18105323  0.82158686  1
