# generated using pymatgen
data_MgPt5
_symmetry_space_group_name_H-M   'P 1'
_cell_length_a   2.81003818
_cell_length_b   7.33942604
_cell_length_c   4.67021491
_cell_angle_alpha   90.00000000
_cell_angle_beta   90.00000000
_cell_angle_gamma   79.06169545
_symmetry_Int_Tables_number   1
_chemical_formula_structural   MgPt5
_chemical_formula_sum   'Mg1 Pt5'
_cell_volume   94.56891381
_cell_formula_units_Z   1
loop_
 _symmetry_equiv_pos_site_id
 _symmetry_equiv_pos_as_xyz
  1  'x, y, z'
loop_
 _atom_site_type_symbol
 _atom_site_label
 _atom_site_symmetry_multiplicity
 _atom_site_fract_x
 _atom_site_fract_y
 _atom_site_fract_z
 _atom_site_occupancy
  Mg  Mg0  1  0.78429332  0.43144455  0.50000000  1
  Pt  Pt1  1  0.99096026  0.01756393  0.00000000  1
  Pt  Pt2  1  0.32664357  0.34684476  0.00000000  1
  Pt  Pt3  1  0.65906407  0.68167963  0.00000000  1
  Pt  Pt4  1  0.44843523  0.10365268  0.50000000  1
  Pt  Pt5  1  0.12394556  0.75214747  0.50000000  1
