# generated using pymatgen
data_SbPb3
_symmetry_space_group_name_H-M   'P 1'
_cell_length_a   7.35641954
_cell_length_b   7.35642018
_cell_length_c   5.31840930
_cell_angle_alpha   90.00000000
_cell_angle_beta   90.00000000
_cell_angle_gamma   119.99999713
_symmetry_Int_Tables_number   1
_chemical_formula_structural   SbPb3
_chemical_formula_sum   'Sb2 Pb6'
_cell_volume   249.25588317
_cell_formula_units_Z   2
loop_
 _symmetry_equiv_pos_site_id
 _symmetry_equiv_pos_as_xyz
  1  'x, y, z'
loop_
 _atom_site_type_symbol
 _atom_site_label
 _atom_site_symmetry_multiplicity
 _atom_site_fract_x
 _atom_site_fract_y
 _atom_site_fract_z
 _atom_site_occupancy
  Sb  Sb0  1  0.33333400  0.66666800  0.75000000  1
  Sb  Sb1  1  0.66666600  0.33333300  0.24999900  1
  Pb  Pb2  1  0.16997879  0.33995858  0.24999900  1
  Pb  Pb3  1  0.66004142  0.83002121  0.24999900  1
  Pb  Pb4  1  0.16997979  0.83002121  0.24999900  1
  Pb  Pb5  1  0.83002021  0.66004242  0.75000000  1
  Pb  Pb6  1  0.33995758  0.16997879  0.75000000  1
  Pb  Pb7  1  0.83002021  0.16997879  0.75000000  1
