# generated using pymatgen
data_Mg16TaAl12
_symmetry_space_group_name_H-M   'P 1'
_cell_length_a   9.03377669
_cell_length_b   9.03377569
_cell_length_c   9.03377669
_cell_angle_alpha   109.47122257
_cell_angle_beta   109.47122388
_cell_angle_gamma   109.47122257
_symmetry_Int_Tables_number   1
_chemical_formula_structural   Mg16TaAl12
_chemical_formula_sum   'Mg16 Ta1 Al12'
_cell_volume   567.52640918
_cell_formula_units_Z   1
loop_
 _symmetry_equiv_pos_site_id
 _symmetry_equiv_pos_as_xyz
  1  'x, y, z'
loop_
 _atom_site_type_symbol
 _atom_site_label
 _atom_site_symmetry_multiplicity
 _atom_site_fract_x
 _atom_site_fract_y
 _atom_site_fract_z
 _atom_site_occupancy
  Mg  Mg0  1  0.31669529  0.60215296  0.00000000  1
  Mg  Mg1  1  0.00000000  0.34373947  0.00000000  1
  Mg  Mg2  1  0.60215296  0.31669429  1.00000000  1
  Mg  Mg3  1  0.34373947  0.00000000  0.00000000  1
  Mg  Mg4  1  0.68330471  0.68330571  0.28545868  1
  Mg  Mg5  1  0.00000000  0.60215296  0.31669529  1
  Mg  Mg6  1  0.60215296  0.00000000  0.31669429  1
  Mg  Mg7  1  0.00000000  0.00000000  0.34373947  1
  Mg  Mg8  1  0.39784804  0.71454332  0.39784804  1
  Mg  Mg9  1  0.71454332  0.39784804  0.39784804  1
  Mg  Mg10  1  0.31669429  0.00000000  0.60215296  1
  Mg  Mg11  1  1.00000000  0.31669429  0.60215296  1
  Mg  Mg12  1  0.65625953  0.65626053  0.65625953  1
  Mg  Mg13  1  0.68330471  0.28545868  0.68330471  1
  Mg  Mg14  1  0.28545868  0.68330571  0.68330471  1
  Mg  Mg15  1  0.39784804  0.39784804  0.71454332  1
  Ta  Ta16  1  0.00000000  0.00000000  0.00000000  1
  Al  Al17  1  0.81585716  0.63729735  1.00000000  1
  Al  Al18  1  0.63729735  0.81585716  1.00000000  1
  Al  Al19  1  0.36270465  0.36270465  0.17856081  1
  Al  Al20  1  0.18414184  0.82143819  0.18414184  1
  Al  Al21  1  0.82143819  0.18414184  0.18414284  1
  Al  Al22  1  0.36270465  0.17856081  0.36270465  1
  Al  Al23  1  0.17856081  0.36270465  0.36270465  1
  Al  Al24  1  0.81585716  0.00000100  0.63729635  1
  Al  Al25  1  1.00000000  0.81585716  0.63729735  1
  Al  Al26  1  0.63729635  0.00000100  0.81585716  1
  Al  Al27  1  1.00000000  0.63729735  0.81585716  1
  Al  Al28  1  0.18414284  0.18414184  0.82143819  1
