# generated using pymatgen
data_H5SeNO3
_symmetry_space_group_name_H-M   'P 1'
_cell_length_a   5.16189845
_cell_length_b   6.04725095
_cell_length_c   6.96552015
_cell_angle_alpha   72.26887025
_cell_angle_beta   71.78730398
_cell_angle_gamma   88.05944158
_symmetry_Int_Tables_number   1
_chemical_formula_structural   H5SeNO3
_chemical_formula_sum   'H10 Se2 N2 O6'
_cell_volume   196.27437088
_cell_formula_units_Z   2
loop_
 _symmetry_equiv_pos_site_id
 _symmetry_equiv_pos_as_xyz
  1  'x, y, z'
loop_
 _atom_site_type_symbol
 _atom_site_label
 _atom_site_symmetry_multiplicity
 _atom_site_fract_x
 _atom_site_fract_y
 _atom_site_fract_z
 _atom_site_occupancy
  H  H0  1  0.80717600  0.96391353  0.73064701  1
  H  H1  1  0.19282400  0.03608647  0.26935299  1
  H  H2  1  0.61264736  0.71008752  0.82079482  1
  H  H3  1  0.38735264  0.28991248  0.17920518  1
  H  H4  1  0.71606315  0.85917023  0.55993141  1
  H  H5  1  0.28393685  0.14082977  0.44006859  1
  H  H6  1  0.47405915  0.96683240  0.73229176  1
  H  H7  1  0.52594085  0.03316760  0.26770824  1
  H  H8  1  0.74500309  0.40851119  0.54053232  1
  H  H9  1  0.25499691  0.59148881  0.45946768  1
  Se  Se10  1  0.94940917  0.66661418  0.18598109  1
  Se  Se11  1  0.05059083  0.33338582  0.81401891  1
  N  N12  1  0.65110402  0.87536026  0.71381260  1
  N  N13  1  0.34889598  0.12463974  0.28618740  1
  O  O14  1  0.84556980  0.89170420  0.28745145  1
  O  O15  1  0.15443020  0.10829580  0.71254855  1
  O  O16  1  0.76343315  0.40879652  0.39129624  1
  O  O17  1  0.23656685  0.59120348  0.60870376  1
  O  O18  1  0.27349289  0.63544480  0.19822892  1
  O  O19  1  0.72650711  0.36455520  0.80177108  1
