# generated using pymatgen
data_BaMn2O8
_symmetry_space_group_name_H-M   'P 1'
_cell_length_a   9.47698085
_cell_length_b   9.47698085
_cell_length_c   7.76398601
_cell_angle_alpha   100.34259811
_cell_angle_beta   100.34259811
_cell_angle_gamma   134.89706244
_symmetry_Int_Tables_number   1
_chemical_formula_structural   BaMn2O8
_chemical_formula_sum   'Ba2 Mn4 O16'
_cell_volume   436.48956141
_cell_formula_units_Z   2
loop_
 _symmetry_equiv_pos_site_id
 _symmetry_equiv_pos_as_xyz
  1  'x, y, z'
loop_
 _atom_site_type_symbol
 _atom_site_label
 _atom_site_symmetry_multiplicity
 _atom_site_fract_x
 _atom_site_fract_y
 _atom_site_fract_z
 _atom_site_occupancy
  Ba  Ba0  1  0.75000000  0.25000000  0.50000000  1
  Ba  Ba1  1  0.00000000  0.00000000  -0.00000000  1
  Mn  Mn2  1  0.94984420  0.05015580  0.50000000  1
  Mn  Mn3  1  0.80015580  0.19984420  -0.00000000  1
  Mn  Mn4  1  0.55015580  0.44984420  0.50000000  1
  Mn  Mn5  1  0.19984420  0.80015580  -0.00000000  1
  O  O6  1  0.64883962  0.15439898  0.80638144  1
  O  O7  1  0.84560102  0.35116038  0.19361856  1
  O  O8  1  0.10116038  0.09560102  0.69361856  1
  O  O9  1  0.90439898  0.89883962  0.30638144  1
  O  O10  1  0.15754182  0.65198247  0.80638144  1
  O  O11  1  0.34801753  0.84245818  0.19361856  1
  O  O12  1  0.59245818  0.59801753  0.69361856  1
  O  O13  1  0.40198247  0.40754182  0.30638144  1
  O  O14  1  0.71898105  0.92940410  0.50552129  1
  O  O15  1  0.07059590  0.28101895  0.49447871  1
  O  O16  1  0.03101895  0.32059590  0.99447871  1
  O  O17  1  0.67940410  0.96898105  0.00552129  1
  O  O18  1  0.78654024  0.57611719  0.50552129  1
  O  O19  1  0.42388281  0.21345976  0.49447871  1
  O  O20  1  0.96345976  0.67388281  0.99447871  1
  O  O21  1  0.32611719  0.03654024  0.00552129  1
