# generated using pymatgen
data_K2CoP2(H3O4)2
_symmetry_space_group_name_H-M   'P 1'
_cell_length_a   5.35019773
_cell_length_b   7.02311658
_cell_length_c   7.54204048
_cell_angle_alpha   113.40737829
_cell_angle_beta   90.00000000
_cell_angle_gamma   112.38938953
_symmetry_Int_Tables_number   1
_chemical_formula_structural   K2CoP2(H3O4)2
_chemical_formula_sum   'K2 Co1 P2 H6 O8'
_cell_volume   236.61087934
_cell_formula_units_Z   1
loop_
 _symmetry_equiv_pos_site_id
 _symmetry_equiv_pos_as_xyz
  1  'x, y, z'
loop_
 _atom_site_type_symbol
 _atom_site_label
 _atom_site_symmetry_multiplicity
 _atom_site_fract_x
 _atom_site_fract_y
 _atom_site_fract_z
 _atom_site_occupancy
  K  K0  1  0.83469550  0.66939100  0.71287191  1
  K  K1  1  0.16530450  0.33060900  0.28712809  1
  Co  Co2  1  0.50000000  -0.00000000  0.50000000  1
  P  P3  1  0.85700686  0.71401373  0.26085532  1
  P  P4  1  0.14299314  0.28598627  0.73914468  1
  H  H5  1  0.74019241  0.48038483  0.12191298  1
  H  H6  1  0.25980759  0.51961517  0.87808702  1
  H  H7  1  0.62558065  0.95008030  0.16125511  1
  H  H8  1  0.32449965  0.95008030  0.16125511  1
  H  H9  1  0.37441935  0.04991970  0.83874489  1
  H  H10  1  0.67550035  0.04991970  0.83874489  1
  O  O11  1  0.92768805  0.85537610  0.14055301  1
  O  O12  1  0.07231195  0.14462390  0.85944699  1
  O  O13  1  0.51969369  0.03938738  0.22580845  1
  O  O14  1  0.48030631  0.96061262  0.77419155  1
  O  O15  1  0.10654666  0.73964176  0.38402969  1
  O  O16  1  0.63309511  0.73964176  0.38402969  1
  O  O17  1  0.89345334  0.26035824  0.61597031  1
  O  O18  1  0.36690489  0.26035824  0.61597031  1
