# generated using pymatgen
data_ZnCo
_symmetry_space_group_name_H-M   'P 1'
_cell_length_a   2.60722368
_cell_length_b   2.60722334
_cell_length_c   4.17168347
_cell_angle_alpha   89.99458779
_cell_angle_beta   90.00541097
_cell_angle_gamma   119.99451415
_symmetry_Int_Tables_number   1
_chemical_formula_structural   ZnCo
_chemical_formula_sum   'Zn1 Co1'
_cell_volume   24.55966892
_cell_formula_units_Z   1
loop_
 _symmetry_equiv_pos_site_id
 _symmetry_equiv_pos_as_xyz
  1  'x, y, z'
loop_
 _atom_site_type_symbol
 _atom_site_label
 _atom_site_symmetry_multiplicity
 _atom_site_fract_x
 _atom_site_fract_y
 _atom_site_fract_z
 _atom_site_occupancy
  Zn  Zn0  1  0.33333181  0.66666691  0.25000093  1
  Co  Co1  1  0.66666819  0.33333109  0.75000007  1
