# generated using pymatgen
data_V2(CuO3)3
_symmetry_space_group_name_H-M   'P 1'
_cell_length_a   6.55670736
_cell_length_b   7.60968037
_cell_length_c   7.78715782
_cell_angle_alpha   93.54506246
_cell_angle_beta   90.00000000
_cell_angle_gamma   90.00000000
_symmetry_Int_Tables_number   1
_chemical_formula_structural   V2(CuO3)3
_chemical_formula_sum   'V4 Cu6 O18'
_cell_volume   387.79246257
_cell_formula_units_Z   2
loop_
 _symmetry_equiv_pos_site_id
 _symmetry_equiv_pos_as_xyz
  1  'x, y, z'
loop_
 _atom_site_type_symbol
 _atom_site_label
 _atom_site_symmetry_multiplicity
 _atom_site_fract_x
 _atom_site_fract_y
 _atom_site_fract_z
 _atom_site_occupancy
  V  V0  1  0.75000000  0.33518097  0.21056215  1
  V  V1  1  0.25000000  0.66481903  0.78943785  1
  V  V2  1  0.75000000  0.26657605  0.66104443  1
  V  V3  1  0.25000000  0.73342395  0.33895557  1
  Cu  Cu4  1  0.50000000  -0.00000000  -0.00000000  1
  Cu  Cu5  1  -0.00000000  -0.00000000  -0.00000000  1
  Cu  Cu6  1  0.75000000  0.83926637  0.30043609  1
  Cu  Cu7  1  0.25000000  0.16073363  0.69956391  1
  Cu  Cu8  1  0.75000000  0.67396037  0.91665512  1
  Cu  Cu9  1  0.25000000  0.32603963  0.08334488  1
  O  O10  1  0.75000000  0.90037236  0.06554547  1
  O  O11  1  0.25000000  0.09962764  0.93445453  1
  O  O12  1  0.46908636  0.76808025  0.88387843  1
  O  O13  1  0.96908636  0.23191975  0.11612157  1
  O  O14  1  0.53091364  0.23191975  0.11612157  1
  O  O15  1  0.03091364  0.76808025  0.88387843  1
  O  O16  1  0.75000000  0.54716301  0.16554432  1
  O  O17  1  0.25000000  0.45283699  0.83445568  1
  O  O18  1  0.96468909  0.13892894  0.70254074  1
  O  O19  1  0.46468909  0.86107106  0.29745926  1
  O  O20  1  0.03531091  0.86107106  0.29745926  1
  O  O21  1  0.53531091  0.13892894  0.70254074  1
  O  O22  1  0.75000000  0.45965035  0.78323285  1
  O  O23  1  0.25000000  0.54034965  0.21676715  1
  O  O24  1  0.75000000  0.31665770  0.43911993  1
  O  O25  1  0.25000000  0.68334230  0.56088007  1
  O  O26  1  0.75000000  0.78885691  0.51893138  1
  O  O27  1  0.25000000  0.21114309  0.48106862  1
