# generated using pymatgen
data_Ce2Mn3Cu9P7
_symmetry_space_group_name_H-M   'P 1'
_cell_length_a   3.80310958
_cell_length_b   9.48961944
_cell_length_c   9.48865945
_cell_angle_alpha   120.00719459
_cell_angle_beta   90.00000000
_cell_angle_gamma   90.00000000
_symmetry_Int_Tables_number   1
_chemical_formula_structural   Ce2Mn3Cu9P7
_chemical_formula_sum   'Ce2 Mn3 Cu9 P7'
_cell_volume   296.54570436
_cell_formula_units_Z   1
loop_
 _symmetry_equiv_pos_site_id
 _symmetry_equiv_pos_as_xyz
  1  'x, y, z'
loop_
 _atom_site_type_symbol
 _atom_site_label
 _atom_site_symmetry_multiplicity
 _atom_site_fract_x
 _atom_site_fract_y
 _atom_site_fract_z
 _atom_site_occupancy
  Ce  Ce0  1  0.00000000  0.66668331  0.33334353  1
  Ce  Ce1  1  0.50000000  0.33334892  0.66666767  1
  Mn  Mn2  1  0.50000000  0.12678189  0.90946135  1
  Mn  Mn3  1  0.50000000  0.09044914  0.21729993  1
  Mn  Mn4  1  0.50000000  0.78269539  0.87323908  1
  Cu  Cu5  1  0.00000000  0.37365574  0.95083519  1
  Cu  Cu6  1  0.00000000  0.04916966  0.42282473  1
  Cu  Cu7  1  -0.00000000  0.57718422  0.62633841  1
  Cu  Cu8  1  0.00000000  0.88325613  0.72210516  1
  Cu  Cu9  1  -0.00000000  0.27791622  0.16119741  1
  Cu  Cu10  1  -0.00000000  0.83883074  0.11669992  1
  Cu  Cu11  1  0.50000000  0.95744268  0.57410958  1
  Cu  Cu12  1  0.50000000  0.42588977  0.38333077  1
  Cu  Cu13  1  0.50000000  0.61665999  0.04254934  1
  P  P14  1  0.00000000  0.12317733  0.70707355  1
  P  P15  1  0.00000000  0.29290645  0.41608179  1
  P  P16  1  0.00000000  0.58390891  0.87680964  1
  P  P17  1  0.50000000  0.70693154  0.58758818  1
  P  P18  1  0.50000000  0.41245031  0.11935369  1
  P  P19  1  0.50000000  0.88067364  0.29308362  1
  P  P20  1  0.00000000  -0.00001198  0.00000747  1
