# generated using pymatgen
data_HgNO4
_symmetry_space_group_name_H-M   'P 1'
_cell_length_a   7.09922263
_cell_length_b   7.03014924
_cell_length_c   8.40310026
_cell_angle_alpha   90.00000000
_cell_angle_beta   114.90443582
_cell_angle_gamma   90.00000000
_symmetry_Int_Tables_number   1
_chemical_formula_structural   HgNO4
_chemical_formula_sum   'Hg4 N4 O16'
_cell_volume   380.38872766
_cell_formula_units_Z   4
loop_
 _symmetry_equiv_pos_site_id
 _symmetry_equiv_pos_as_xyz
  1  'x, y, z'
loop_
 _atom_site_type_symbol
 _atom_site_label
 _atom_site_symmetry_multiplicity
 _atom_site_fract_x
 _atom_site_fract_y
 _atom_site_fract_z
 _atom_site_occupancy
  Hg  Hg0  1  0.76557842  0.62694895  0.76292630  1
  Hg  Hg1  1  0.73442158  0.12694895  0.73707370  1
  Hg  Hg2  1  0.23442158  0.37305105  0.23707370  1
  Hg  Hg3  1  0.26557842  0.87305105  0.26292630  1
  N  N4  1  0.67000710  0.84403953  0.09122931  1
  N  N5  1  0.82999290  0.34403953  0.40877069  1
  N  N6  1  0.32999290  0.15596047  0.90877069  1
  N  N7  1  0.17000710  0.65596047  0.59122931  1
  O  O8  1  0.82054024  0.89113821  0.05411860  1
  O  O9  1  0.67945976  0.39113821  0.44588140  1
  O  O10  1  0.17945976  0.10886179  0.94588140  1
  O  O11  1  0.32054024  0.60886179  0.55411860  1
  O  O12  1  0.55424600  0.70845179  0.00962678  1
  O  O13  1  0.94575400  0.20845179  0.49037322  1
  O  O14  1  0.44575400  0.29154821  0.99037322  1
  O  O15  1  0.05424600  0.79154821  0.50962678  1
  O  O16  1  0.63852558  0.93353584  0.20636173  1
  O  O17  1  0.86147442  0.43353584  0.29363827  1
  O  O18  1  0.36147442  0.06646416  0.79363827  1
  O  O19  1  0.13852558  0.56646416  0.70636173  1
  O  O20  1  0.79608042  0.37032611  0.88211337  1
  O  O21  1  0.70391958  0.87032611  0.61788663  1
  O  O22  1  0.20391958  0.62967389  0.11788663  1
  O  O23  1  0.29608042  0.12967389  0.38211337  1
