# generated using pymatgen
data_Na2FeO4
_symmetry_space_group_name_H-M   'P 1'
_cell_length_a   7.64514649
_cell_length_b   7.57162578
_cell_length_c   7.15767311
_cell_angle_alpha   90.00000000
_cell_angle_beta   90.00000000
_cell_angle_gamma   90.00000000
_symmetry_Int_Tables_number   1
_chemical_formula_structural   Na2FeO4
_chemical_formula_sum   'Na8 Fe4 O16'
_cell_volume   414.33041312
_cell_formula_units_Z   4
loop_
 _symmetry_equiv_pos_site_id
 _symmetry_equiv_pos_as_xyz
  1  'x, y, z'
loop_
 _atom_site_type_symbol
 _atom_site_label
 _atom_site_symmetry_multiplicity
 _atom_site_fract_x
 _atom_site_fract_y
 _atom_site_fract_z
 _atom_site_occupancy
  Na  Na0  1  0.00000000  0.50000000  0.25862200  1
  Na  Na1  1  0.00000000  0.50000000  0.74137800  1
  Na  Na2  1  0.26668108  0.73707360  0.00000000  1
  Na  Na3  1  0.23331892  0.23707360  0.50000000  1
  Na  Na4  1  0.50000000  0.00000000  0.24137800  1
  Na  Na5  1  0.50000000  0.00000000  0.75862200  1
  Na  Na6  1  0.76668108  0.76292640  0.50000000  1
  Na  Na7  1  0.73331892  0.26292640  0.00000000  1
  Fe  Fe8  1  0.14806074  0.22134538  0.00000000  1
  Fe  Fe9  1  0.35193926  0.72134538  0.50000000  1
  Fe  Fe10  1  0.64806074  0.27865462  0.50000000  1
  Fe  Fe11  1  0.85193926  0.77865462  0.00000000  1
  O  O12  1  0.02295821  0.20331936  0.18874272  1
  O  O13  1  0.02295821  0.20331936  0.81125728  1
  O  O14  1  0.19373921  0.56837073  0.50000000  1
  O  O15  1  0.21466765  0.43102877  0.00000000  1
  O  O16  1  0.28533235  0.93102877  0.50000000  1
  O  O17  1  0.30626079  0.06837073  0.00000000  1
  O  O18  1  0.47704179  0.70331936  0.31125728  1
  O  O19  1  0.47704179  0.70331936  0.68874272  1
  O  O20  1  0.52295821  0.29668064  0.31125728  1
  O  O21  1  0.52295821  0.29668064  0.68874272  1
  O  O22  1  0.69373921  0.93162927  0.00000000  1
  O  O23  1  0.71466765  0.06897123  0.50000000  1
  O  O24  1  0.78533235  0.56897123  0.00000000  1
  O  O25  1  0.80626079  0.43162927  0.50000000  1
  O  O26  1  0.97704179  0.79668064  0.18874272  1
  O  O27  1  0.97704179  0.79668064  0.81125728  1
