# generated using pymatgen
data_YGa3Ni2
_symmetry_space_group_name_H-M   'P 1'
_cell_length_a   3.80384174
_cell_length_b   9.35787542
_cell_length_c   9.36353743
_cell_angle_alpha   119.98000266
_cell_angle_beta   90.00000000
_cell_angle_gamma   90.00000000
_symmetry_Int_Tables_number   1
_chemical_formula_structural   YGa3Ni2
_chemical_formula_sum   'Y3 Ga9 Ni6'
_cell_volume   288.70729610
_cell_formula_units_Z   3
loop_
 _symmetry_equiv_pos_site_id
 _symmetry_equiv_pos_as_xyz
  1  'x, y, z'
loop_
 _atom_site_type_symbol
 _atom_site_label
 _atom_site_symmetry_multiplicity
 _atom_site_fract_x
 _atom_site_fract_y
 _atom_site_fract_z
 _atom_site_occupancy
  Y  Y0  1  0.50000000  0.99980318  1.00000000  1
  Y  Y1  1  0.00000000  0.33322118  0.66606818  1
  Y  Y2  1  0.00000000  0.66715300  0.33393182  1
  Ga  Ga3  1  0.50000000  0.18414459  0.36850869  1
  Ga  Ga4  1  0.50000000  0.18428458  0.81602963  1
  Ga  Ga5  1  0.50000000  0.63149770  0.81605204  1
  Ga  Ga6  1  0.50000000  0.81563590  0.63149131  1
  Ga  Ga7  1  0.50000000  0.36825495  0.18397037  1
  Ga  Ga8  1  0.50000000  0.81544566  0.18394796  1
  Ga  Ga9  1  0.50000000  0.49994059  0.00000000  1
  Ga  Ga10  1  0.50000000  0.49991716  0.50002517  1
  Ga  Ga11  1  0.50000000  0.99989200  0.49997483  1
  Ni  Ni12  1  -0.00000000  0.28893394  1.00000000  1
  Ni  Ni13  1  -0.00000000  0.71201898  0.71244891  1
  Ni  Ni14  1  -0.00000000  0.99957007  0.28755109  1
  Ni  Ni15  1  -0.00000000  0.71143828  0.00000000  1
  Ni  Ni16  1  -0.00000000  0.28852958  0.28831093  1
  Ni  Ni17  1  -0.00000000  0.00021865  0.71168907  1
