# generated using pymatgen
data_LiTl
_symmetry_space_group_name_H-M   'P 1'
_cell_length_a   8.30012836
_cell_length_b   8.30012836
_cell_length_c   8.13298724
_cell_angle_alpha   90.00000000
_cell_angle_beta   90.00000000
_cell_angle_gamma   99.81197634
_symmetry_Int_Tables_number   1
_chemical_formula_structural   LiTl
_chemical_formula_sum   'Li12 Tl12'
_cell_volume   552.10293715
_cell_formula_units_Z   12
loop_
 _symmetry_equiv_pos_site_id
 _symmetry_equiv_pos_as_xyz
  1  'x, y, z'
loop_
 _atom_site_type_symbol
 _atom_site_label
 _atom_site_symmetry_multiplicity
 _atom_site_fract_x
 _atom_site_fract_y
 _atom_site_fract_z
 _atom_site_occupancy
  Li  Li0  1  0.09608573  0.59608573  0.75000000  1
  Li  Li1  1  0.40391427  0.90391427  0.25000000  1
  Li  Li2  1  0.90391427  0.40391427  0.25000000  1
  Li  Li3  1  0.59608573  0.09608573  0.75000000  1
  Li  Li4  1  0.65662930  0.34337070  0.50000000  1
  Li  Li5  1  0.15662930  0.84337070  -0.00000000  1
  Li  Li6  1  0.34337070  0.65662930  0.50000000  1
  Li  Li7  1  0.84337070  0.15662930  -0.00000000  1
  Li  Li8  1  0.31898246  0.31898246  0.39313616  1
  Li  Li9  1  0.68101754  0.68101754  0.60686384  1
  Li  Li10  1  0.18101754  0.18101754  0.89313616  1
  Li  Li11  1  0.81898246  0.81898246  0.10686384  1
  Tl  Tl12  1  0.00452142  0.28796716  0.58928980  1
  Tl  Tl13  1  0.71203284  0.99547858  0.41071020  1
  Tl  Tl14  1  0.21203284  0.49547858  0.08928980  1
  Tl  Tl15  1  0.50452142  0.78796716  0.91071020  1
  Tl  Tl16  1  0.99547858  0.71203284  0.41071020  1
  Tl  Tl17  1  0.28796716  0.00452142  0.58928980  1
  Tl  Tl18  1  0.78796716  0.50452142  0.91071020  1
  Tl  Tl19  1  0.49547858  0.21203284  0.08928980  1
  Tl  Tl20  1  0.91970320  0.91970320  0.75979384  1
  Tl  Tl21  1  0.08029680  0.08029680  0.24020616  1
  Tl  Tl22  1  0.58029680  0.58029680  0.25979384  1
  Tl  Tl23  1  0.41970320  0.41970320  0.74020616  1
