# generated using pymatgen
data_Fe2O3
_symmetry_space_group_name_H-M   'P 1'
_cell_length_a   8.52521577
_cell_length_b   8.52521577
_cell_length_c   25.59301643
_cell_angle_alpha   90.00000000
_cell_angle_beta   90.00000000
_cell_angle_gamma   90.00000000
_symmetry_Int_Tables_number   1
_chemical_formula_structural   Fe2O3
_chemical_formula_sum   'Fe64 O96'
_cell_volume   1860.08261947
_cell_formula_units_Z   32
loop_
 _symmetry_equiv_pos_site_id
 _symmetry_equiv_pos_as_xyz
  1  'x, y, z'
loop_
 _atom_site_type_symbol
 _atom_site_label
 _atom_site_symmetry_multiplicity
 _atom_site_fract_x
 _atom_site_fract_y
 _atom_site_fract_z
 _atom_site_occupancy
  Fe  Fe0  1  0.24738518  0.51341455  0.71079922  1
  Fe  Fe1  1  0.75261482  0.48658545  0.21079922  1
  Fe  Fe2  1  0.01341455  0.25261482  0.46079922  1
  Fe  Fe3  1  0.98658545  0.74738518  0.96079922  1
  Fe  Fe4  1  0.48658545  0.75261482  0.78920078  1
  Fe  Fe5  1  0.51341455  0.24738518  0.28920078  1
  Fe  Fe6  1  0.25261482  0.01341455  0.53920078  1
  Fe  Fe7  1  0.74738518  0.98658545  0.03920078  1
  Fe  Fe8  1  0.75737146  0.49871968  0.54396484  1
  Fe  Fe9  1  0.24262854  0.50128032  0.04396484  1
  Fe  Fe10  1  0.99871968  0.74262854  0.29396484  1
  Fe  Fe11  1  0.00128032  0.25737146  0.79396484  1
  Fe  Fe12  1  0.50128032  0.24262854  0.95603516  1
  Fe  Fe13  1  0.49871968  0.75737146  0.45603516  1
  Fe  Fe14  1  0.74262854  0.99871968  0.70603516  1
  Fe  Fe15  1  0.25737146  0.00128032  0.20603516  1
  Fe  Fe16  1  0.99351361  0.74132836  0.62619885  1
  Fe  Fe17  1  0.00648639  0.25867164  0.12619885  1
  Fe  Fe18  1  0.24132836  0.50648639  0.37619885  1
  Fe  Fe19  1  0.75867164  0.49351361  0.87619885  1
  Fe  Fe20  1  0.25867164  0.00648639  0.87380115  1
  Fe  Fe21  1  0.74132836  0.99351361  0.37380115  1
  Fe  Fe22  1  0.50648639  0.24132836  0.62380115  1
  Fe  Fe23  1  0.49351361  0.75867164  0.12380115  1
  Fe  Fe24  1  0.11040334  0.88959666  0.75000000  1
  Fe  Fe25  1  0.88959666  0.11040334  0.25000000  1
  Fe  Fe26  1  0.38959666  0.38959666  0.50000000  1
  Fe  Fe27  1  0.61040334  0.61040334  -0.00000000  1
  Fe  Fe28  1  0.88454157  0.12129890  0.58594052  1
  Fe  Fe29  1  0.11545843  0.87870110  0.08594052  1
  Fe  Fe30  1  0.62129890  0.61545843  0.33594052  1
  Fe  Fe31  1  0.37870110  0.38454157  0.83594052  1
  Fe  Fe32  1  0.87870110  0.11545843  0.91405948  1
  Fe  Fe33  1  0.12129890  0.88454157  0.41405948  1
  Fe  Fe34  1  0.61545843  0.62129890  0.66405948  1
  Fe  Fe35  1  0.38454157  0.37870110  0.16405948  1
  Fe  Fe36  1  0.88550608  0.36889536  0.66867750  1
  Fe  Fe37  1  0.11449392  0.63110464  0.16867750  1
  Fe  Fe38  1  0.86889536  0.61449392  0.41867750  1
  Fe  Fe39  1  0.13110464  0.38550608  0.91867750  1
  Fe  Fe40  1  0.63110464  0.11449392  0.83132250  1
  Fe  Fe41  1  0.36889536  0.88550608  0.33132250  1
  Fe  Fe42  1  0.61449392  0.86889536  0.58132250  1
  Fe  Fe43  1  0.38550608  0.13110464  0.08132250  1
  Fe  Fe44  1  0.35670677  0.87602619  0.66197503  1
  Fe  Fe45  1  0.64329323  0.12397381  0.16197503  1
  Fe  Fe46  1  0.37602619  0.14329323  0.41197503  1
  Fe  Fe47  1  0.62397381  0.85670677  0.91197503  1
  Fe  Fe48  1  0.12397381  0.64329323  0.83802497  1
  Fe  Fe49  1  0.87602619  0.35670677  0.33802497  1
  Fe  Fe50  1  0.14329323  0.37602619  0.58802497  1
  Fe  Fe51  1  0.85670677  0.62397381  0.08802497  1
  Fe  Fe52  1  0.36337266  0.13051449  0.74637716  1
  Fe  Fe53  1  0.63662734  0.86948551  0.24637716  1
  Fe  Fe54  1  0.63051449  0.13662734  0.49637716  1
  Fe  Fe55  1  0.36948551  0.86337266  0.99637716  1
  Fe  Fe56  1  0.86948551  0.63662734  0.75362284  1
  Fe  Fe57  1  0.13051449  0.36337266  0.25362284  1
  Fe  Fe58  1  0.13662734  0.63051449  0.50362284  1
  Fe  Fe59  1  0.86337266  0.36948551  0.00362284  1
  Fe  Fe60  1  0.62443735  0.37556265  0.75000000  1
  Fe  Fe61  1  0.37556265  0.62443735  0.25000000  1
  Fe  Fe62  1  0.87556265  0.87556265  0.50000000  1
  Fe  Fe63  1  0.12443735  0.12443735  -0.00000000  1
  O  O64  1  0.10899803  0.64048151  0.75519557  1
  O  O65  1  0.89100197  0.35951849  0.25519557  1
  O  O66  1  0.14048151  0.39100197  0.50519557  1
  O  O67  1  0.85951849  0.60899803  0.00519557  1
  O  O68  1  0.35951849  0.89100197  0.74480443  1
  O  O69  1  0.64048151  0.10899803  0.24480443  1
  O  O70  1  0.39100197  0.14048151  0.49480443  1
  O  O71  1  0.60899803  0.85951849  0.99480443  1
  O  O72  1  0.85946273  0.61150367  0.67161057  1
  O  O73  1  0.14053727  0.38849633  0.17161057  1
  O  O74  1  0.11150367  0.64053727  0.42161057  1
  O  O75  1  0.88849633  0.35946273  0.92161057  1
  O  O76  1  0.38849633  0.14053727  0.82838943  1
  O  O77  1  0.61150367  0.85946273  0.32838943  1
  O  O78  1  0.64053727  0.11150367  0.57838943  1
  O  O79  1  0.35946273  0.88849633  0.07838943  1
  O  O80  1  0.88620380  0.36232446  0.58800202  1
  O  O81  1  0.11379620  0.63767554  0.08800202  1
  O  O82  1  0.86232446  0.61379620  0.33800202  1
  O  O83  1  0.13767554  0.38620380  0.83800202  1
  O  O84  1  0.63767554  0.11379620  0.91199798  1
  O  O85  1  0.36232446  0.88620380  0.41199798  1
  O  O86  1  0.61379620  0.86232446  0.66199798  1
  O  O87  1  0.38620380  0.13767554  0.16199798  1
  O  O88  1  0.61728354  0.13527747  0.75235409  1
  O  O89  1  0.38271646  0.86472253  0.25235409  1
  O  O90  1  0.63527747  0.88271646  0.50235409  1
  O  O91  1  0.36472253  0.11728354  0.00235409  1
  O  O92  1  0.86472253  0.38271646  0.74764591  1
  O  O93  1  0.13527747  0.61728354  0.24764591  1
  O  O94  1  0.88271646  0.63527747  0.49764591  1
  O  O95  1  0.11728354  0.36472253  0.99764591  1
  O  O96  1  0.39255014  0.11183785  0.67009449  1
  O  O97  1  0.60744986  0.88816215  0.17009449  1
  O  O98  1  0.61183785  0.10744986  0.42009449  1
  O  O99  1  0.38816215  0.89255014  0.92009449  1
  O  O100  1  0.88816215  0.60744986  0.82990551  1
  O  O101  1  0.11183785  0.39255014  0.32990551  1
  O  O102  1  0.10744986  0.61183785  0.57990551  1
  O  O103  1  0.89255014  0.38816215  0.07990551  1
  O  O104  1  0.38320832  0.89386157  0.58432612  1
  O  O105  1  0.61679168  0.10613843  0.08432612  1
  O  O106  1  0.39386157  0.11679168  0.33432612  1
  O  O107  1  0.60613843  0.88320832  0.83432612  1
  O  O108  1  0.10613843  0.61679168  0.91567388  1
  O  O109  1  0.89386157  0.38320832  0.41567388  1
  O  O110  1  0.11679168  0.39386157  0.66567388  1
  O  O111  1  0.88320832  0.60613843  0.16567388  1
  O  O112  1  0.87857320  0.86842495  0.74534014  1
  O  O113  1  0.12142680  0.13157505  0.24534014  1
  O  O114  1  0.36842495  0.62142680  0.49534014  1
  O  O115  1  0.63157505  0.37857320  0.99534014  1
  O  O116  1  0.13157505  0.12142680  0.75465986  1
  O  O117  1  0.86842495  0.87857320  0.25465986  1
  O  O118  1  0.62142680  0.36842495  0.50465986  1
  O  O119  1  0.37857320  0.63157505  0.00465986  1
  O  O120  1  0.63197138  0.38302589  0.66980047  1
  O  O121  1  0.36802862  0.61697411  0.16980047  1
  O  O122  1  0.88302589  0.86802862  0.41980047  1
  O  O123  1  0.11697411  0.13197138  0.91980047  1
  O  O124  1  0.61697411  0.36802862  0.83019953  1
  O  O125  1  0.38302589  0.63197138  0.33019953  1
  O  O126  1  0.86802862  0.88302589  0.58019953  1
  O  O127  1  0.13197138  0.11697411  0.08019953  1
  O  O128  1  0.11321304  0.14043056  0.57753240  1
  O  O129  1  0.88678696  0.85956944  0.07753240  1
  O  O130  1  0.64043056  0.38678696  0.32753240  1
  O  O131  1  0.35956944  0.61321304  0.82753240  1
  O  O132  1  0.85956944  0.88678696  0.92246760  1
  O  O133  1  0.14043056  0.11321304  0.42246760  1
  O  O134  1  0.38678696  0.64043056  0.67246760  1
  O  O135  1  0.61321304  0.35956944  0.17246760  1
  O  O136  1  0.85829518  0.13671235  0.66309315  1
  O  O137  1  0.14170482  0.86328765  0.16309315  1
  O  O138  1  0.63671235  0.64170482  0.41309315  1
  O  O139  1  0.36328765  0.35829518  0.91309315  1
  O  O140  1  0.86328765  0.14170482  0.83690685  1
  O  O141  1  0.13671235  0.85829518  0.33690685  1
  O  O142  1  0.64170482  0.63671235  0.58690685  1
  O  O143  1  0.35829518  0.36328765  0.08690685  1
  O  O144  1  0.12880635  0.85862882  0.66983255  1
  O  O145  1  0.87119365  0.14137118  0.16983255  1
  O  O146  1  0.35862882  0.37119365  0.41983255  1
  O  O147  1  0.64137118  0.62880635  0.91983255  1
  O  O148  1  0.14137118  0.87119365  0.83016745  1
  O  O149  1  0.85862882  0.12880635  0.33016745  1
  O  O150  1  0.37119365  0.35862882  0.58016745  1
  O  O151  1  0.62880635  0.64137118  0.08016745  1
  O  O152  1  0.63132366  0.61657426  0.74808455  1
  O  O153  1  0.36867634  0.38342574  0.24808455  1
  O  O154  1  0.11657426  0.86867634  0.49808455  1
  O  O155  1  0.88342574  0.13132366  0.99808455  1
  O  O156  1  0.38342574  0.36867634  0.75191545  1
  O  O157  1  0.61657426  0.63132366  0.25191545  1
  O  O158  1  0.86867634  0.11657426  0.50191545  1
  O  O159  1  0.13132366  0.88342574  0.00191545  1
