# generated using pymatgen
data_CdP2H10(NO4)2
_symmetry_space_group_name_H-M   'P 1'
_cell_length_a   6.54315349
_cell_length_b   10.77888964
_cell_length_c   13.36534645
_cell_angle_alpha   90.00000000
_cell_angle_beta   103.10605589
_cell_angle_gamma   90.00000000
_symmetry_Int_Tables_number   1
_chemical_formula_structural   CdP2H10(NO4)2
_chemical_formula_sum   'Cd4 P8 H40 N8 O32'
_cell_volume   918.07658353
_cell_formula_units_Z   4
loop_
 _symmetry_equiv_pos_site_id
 _symmetry_equiv_pos_as_xyz
  1  'x, y, z'
loop_
 _atom_site_type_symbol
 _atom_site_label
 _atom_site_symmetry_multiplicity
 _atom_site_fract_x
 _atom_site_fract_y
 _atom_site_fract_z
 _atom_site_occupancy
  Cd  Cd0  1  0.04122906  0.18726456  0.64977169  1
  Cd  Cd1  1  0.95877094  0.68726456  0.85022831  1
  Cd  Cd2  1  0.95877094  0.81273544  0.35022831  1
  Cd  Cd3  1  0.04122906  0.31273544  0.14977169  1
  P  P4  1  0.26393657  0.47194677  0.60490648  1
  P  P5  1  0.73606343  0.97194677  0.89509352  1
  P  P6  1  0.73606343  0.52805323  0.39509352  1
  P  P7  1  0.26393657  0.02805323  0.10490648  1
  P  P8  1  0.04622851  0.18445149  0.91816682  1
  P  P9  1  0.95377149  0.68445149  0.58183318  1
  P  P10  1  0.95377149  0.81554851  0.08183318  1
  P  P11  1  0.04622851  0.31554851  0.41816682  1
  H  H12  1  0.30553086  0.04286735  0.93766380  1
  H  H13  1  0.69446914  0.54286735  0.56233620  1
  H  H14  1  0.69446914  0.95713265  0.06233620  1
  H  H15  1  0.30553086  0.45713265  0.43766380  1
  H  H16  1  0.30902749  0.81221159  0.11059612  1
  H  H17  1  0.69097251  0.31221159  0.38940388  1
  H  H18  1  0.69097251  0.18778841  0.88940388  1
  H  H19  1  0.30902749  0.68778841  0.61059612  1
  H  H20  1  0.48191436  0.13354350  0.65648950  1
  H  H21  1  0.51808564  0.63354350  0.84351050  1
  H  H22  1  0.51808564  0.86645650  0.34351050  1
  H  H23  1  0.48191436  0.36645650  0.15648950  1
  H  H24  1  0.41367541  0.04522477  0.73934620  1
  H  H25  1  0.58632459  0.54522477  0.76065380  1
  H  H26  1  0.58632459  0.95477523  0.26065380  1
  H  H27  1  0.41367541  0.45477523  0.23934620  1
  H  H28  1  0.62135952  0.32409311  0.62828150  1
  H  H29  1  0.37864048  0.82409311  0.87171850  1
  H  H30  1  0.37864048  0.67590689  0.37171850  1
  H  H31  1  0.62135952  0.17590689  0.12828150  1
  H  H32  1  0.61698826  0.22044528  0.54175964  1
  H  H33  1  0.38301174  0.72044528  0.95824036  1
  H  H34  1  0.38301174  0.77955472  0.45824036  1
  H  H35  1  0.61698826  0.27955472  0.04175964  1
  H  H36  1  0.06744276  0.42917787  0.89949324  1
  H  H37  1  0.93255724  0.92917787  0.60050676  1
  H  H38  1  0.93255724  0.57082213  0.10050676  1
  H  H39  1  0.06744276  0.07082213  0.39949324  1
  H  H40  1  0.10023780  0.45610301  0.78655043  1
  H  H41  1  0.89976220  0.95610301  0.71344957  1
  H  H42  1  0.89976220  0.54389699  0.21344957  1
  H  H43  1  0.10023780  0.04389699  0.28655043  1
  H  H44  1  0.39001775  0.30953495  0.87221055  1
  H  H45  1  0.60998225  0.80953495  0.62778945  1
  H  H46  1  0.60998225  0.69046505  0.12778945  1
  H  H47  1  0.39001775  0.19046505  0.37221055  1
  H  H48  1  0.57296777  0.40943253  0.89183296  1
  H  H49  1  0.42703223  0.90943253  0.60816704  1
  H  H50  1  0.42703223  0.59056747  0.10816704  1
  H  H51  1  0.57296777  0.09056747  0.39183296  1
  N  N52  1  0.21221113  0.07944543  0.98285427  1
  N  N53  1  0.78778887  0.57944543  0.51714573  1
  N  N54  1  0.78778887  0.92055457  0.01714573  1
  N  N55  1  0.21221113  0.42055457  0.48285427  1
  N  N56  1  0.19332777  0.87906734  0.10620750  1
  N  N57  1  0.80667223  0.37906734  0.39379250  1
  N  N58  1  0.80667223  0.12093266  0.89379250  1
  N  N59  1  0.19332777  0.62093266  0.60620750  1
  O  O60  1  0.13057376  0.39688257  0.66234092  1
  O  O61  1  0.86942624  0.89688257  0.83765908  1
  O  O62  1  0.86942624  0.60311743  0.33765908  1
  O  O63  1  0.13057376  0.10311743  0.16234092  1
  O  O64  1  0.50218804  0.47088348  0.64278579  1
  O  O65  1  0.49781196  0.97088348  0.85721421  1
  O  O66  1  0.49781196  0.52911652  0.35721421  1
  O  O67  1  0.50218804  0.02911652  0.14278579  1
  O  O68  1  0.03309190  0.30253541  0.97932924  1
  O  O69  1  0.96690810  0.80253541  0.52067076  1
  O  O70  1  0.96690810  0.69746459  0.02067076  1
  O  O71  1  0.03309190  0.19746459  0.47932924  1
  O  O72  1  0.12602251  0.20940106  0.82186537  1
  O  O73  1  0.87397749  0.70940106  0.67813463  1
  O  O74  1  0.87397749  0.79059894  0.17813463  1
  O  O75  1  0.12602251  0.29059894  0.32186537  1
  O  O76  1  0.36861480  0.07703804  0.66743871  1
  O  O77  1  0.63138520  0.57703804  0.83256129  1
  O  O78  1  0.63138520  0.92296196  0.33256129  1
  O  O79  1  0.36861480  0.42296196  0.16743871  1
  O  O80  1  0.66716097  0.23807336  0.61658376  1
  O  O81  1  0.33283903  0.73807336  0.88341624  1
  O  O82  1  0.33283903  0.76192664  0.38341624  1
  O  O83  1  0.66716097  0.26192664  0.11658376  1
  O  O84  1  0.10606715  0.49436484  0.85444655  1
  O  O85  1  0.89393285  0.99436484  0.64555345  1
  O  O86  1  0.89393285  0.50563516  0.14555345  1
  O  O87  1  0.10606715  0.00563516  0.35444655  1
  O  O88  1  0.53631444  0.32402322  0.90844274  1
  O  O89  1  0.46368556  0.82402322  0.59155726  1
  O  O90  1  0.46368556  0.67597678  0.09155726  1
  O  O91  1  0.53631444  0.17597678  0.40844274  1
