# generated using pymatgen
data_PH7(NO2)2
_symmetry_space_group_name_H-M   'P 1'
_cell_length_a   5.72887895
_cell_length_b   7.92196935
_cell_length_c   10.71530621
_cell_angle_alpha   90.00000000
_cell_angle_beta   90.00000000
_cell_angle_gamma   90.00000000
_symmetry_Int_Tables_number   1
_chemical_formula_structural   PH7(NO2)2
_chemical_formula_sum   'P4 H28 N8 O16'
_cell_volume   486.30349402
_cell_formula_units_Z   4
loop_
 _symmetry_equiv_pos_site_id
 _symmetry_equiv_pos_as_xyz
  1  'x, y, z'
loop_
 _atom_site_type_symbol
 _atom_site_label
 _atom_site_symmetry_multiplicity
 _atom_site_fract_x
 _atom_site_fract_y
 _atom_site_fract_z
 _atom_site_occupancy
  P  P0  1  0.90496073  0.68636609  0.34673510  1
  P  P1  1  0.59503927  0.31363391  0.84673510  1
  P  P2  1  0.40496073  0.81363391  0.65326490  1
  P  P3  1  0.09503927  0.18636609  0.15326490  1
  H  H4  1  0.33814829  0.69079046  0.18351111  1
  H  H5  1  0.16185171  0.30920954  0.68351111  1
  H  H6  1  0.83814829  0.80920954  0.81648889  1
  H  H7  1  0.66185171  0.19079046  0.31648889  1
  H  H8  1  0.52515691  0.59933090  0.08764783  1
  H  H9  1  0.97484309  0.40066910  0.58764783  1
  H  H10  1  0.02515691  0.90066910  0.91235217  1
  H  H11  1  0.47484309  0.09933090  0.41235217  1
  H  H12  1  0.64005986  0.86958101  0.17790299  1
  H  H13  1  0.85994014  0.13041899  0.67790299  1
  H  H14  1  0.14005986  0.63041899  0.82209701  1
  H  H15  1  0.35994014  0.36958101  0.32209701  1
  H  H16  1  0.43575400  0.95452968  0.07536310  1
  H  H17  1  0.06424600  0.04547032  0.57536310  1
  H  H18  1  0.93575400  0.54547032  0.92463690  1
  H  H19  1  0.56424600  0.45452968  0.42463690  1
  H  H20  1  0.67305679  0.84073517  0.02141238  1
  H  H21  1  0.82694321  0.15926483  0.52141238  1
  H  H22  1  0.17305679  0.65926483  0.97858762  1
  H  H23  1  0.32694321  0.34073517  0.47858762  1
  H  H24  1  0.23184727  0.76987682  0.43508667  1
  H  H25  1  0.26815273  0.23012318  0.93508667  1
  H  H26  1  0.73184727  0.73012318  0.56491333  1
  H  H27  1  0.76815273  0.26987682  0.06491333  1
  H  H28  1  0.99841589  0.48454445  0.21082831  1
  H  H29  1  0.50158411  0.51545555  0.71082831  1
  H  H30  1  0.49841589  0.01545555  0.78917169  1
  H  H31  1  0.00158411  0.98454445  0.28917169  1
  N  N32  1  0.41003875  0.69821419  0.09543564  1
  N  N33  1  0.08996125  0.30178581  0.59543564  1
  N  N34  1  0.91003875  0.80178581  0.90456436  1
  N  N35  1  0.58996125  0.19821419  0.40456436  1
  N  N36  1  0.54793549  0.85211446  0.09374332  1
  N  N37  1  0.95206451  0.14788554  0.59374332  1
  N  N38  1  0.04793549  0.64788554  0.90625668  1
  N  N39  1  0.45206451  0.35211446  0.40625668  1
  O  O40  1  0.18156193  0.68855398  0.36411331  1
  O  O41  1  0.31843807  0.31144602  0.86411331  1
  O  O42  1  0.68156193  0.81144602  0.63588669  1
  O  O43  1  0.81843807  0.18855398  0.13588669  1
  O  O44  1  0.81565977  0.86469861  0.31768270  1
  O  O45  1  0.68434023  0.13530139  0.81768270  1
  O  O46  1  0.31565977  0.63530139  0.68231730  1
  O  O47  1  0.18434023  0.36469861  0.18231730  1
  O  O48  1  0.86867403  0.57573054  0.22606132  1
  O  O49  1  0.63132597  0.42426946  0.72606132  1
  O  O50  1  0.36867403  0.92426946  0.77393868  1
  O  O51  1  0.13132597  0.07573054  0.27393868  1
  O  O52  1  0.78623018  0.60444697  0.45955834  1
  O  O53  1  0.71376982  0.39555303  0.95955834  1
  O  O54  1  0.28623018  0.89555303  0.54044166  1
  O  O55  1  0.21376982  0.10444697  0.04044166  1
