# generated using pymatgen
data_Zn3Ag(AsO4)3
_symmetry_space_group_name_H-M   'P 1'
_cell_length_a   6.90854907
_cell_length_b   8.76227024
_cell_length_c   8.76227024
_cell_angle_alpha   94.47251975
_cell_angle_beta   105.52553053
_cell_angle_gamma   105.52553053
_symmetry_Int_Tables_number   1
_chemical_formula_structural   Zn3Ag(AsO4)3
_chemical_formula_sum   'Zn6 Ag2 As6 O24'
_cell_volume   485.97988881
_cell_formula_units_Z   2
loop_
 _symmetry_equiv_pos_site_id
 _symmetry_equiv_pos_as_xyz
  1  'x, y, z'
loop_
 _atom_site_type_symbol
 _atom_site_label
 _atom_site_symmetry_multiplicity
 _atom_site_fract_x
 _atom_site_fract_y
 _atom_site_fract_z
 _atom_site_occupancy
  Zn  Zn0  1  0.25000000  0.71684651  0.28315349  1
  Zn  Zn1  1  0.75000000  0.28315349  0.71684651  1
  Zn  Zn2  1  0.12054627  0.04767528  0.37187493  1
  Zn  Zn3  1  0.37945373  0.62812507  0.95232472  1
  Zn  Zn4  1  0.87945373  0.95232472  0.62812507  1
  Zn  Zn5  1  0.62054627  0.37187493  0.04767528  1
  Ag  Ag6  1  0.25000000  0.00717257  0.99282743  1
  Ag  Ag7  1  0.75000000  0.99282743  0.00717257  1
  As  As8  1  0.25000000  0.30795063  0.69204937  1
  As  As9  1  0.75000000  0.69204937  0.30795063  1
  As  As10  1  0.38518120  0.88957066  0.65548506  1
  As  As11  1  0.11481880  0.34451494  0.11042934  1
  As  As12  1  0.61481880  0.11042934  0.34451494  1
  As  As13  1  0.88518120  0.65548506  0.88957066  1
  O  O14  1  0.08479028  0.13930696  0.13974975  1
  O  O15  1  0.41520972  0.86025025  0.86069304  1
  O  O16  1  0.91520972  0.86069304  0.86025025  1
  O  O17  1  0.58479028  0.13974975  0.13930696  1
  O  O18  1  0.33642555  0.72069908  0.52714437  1
  O  O19  1  0.16357445  0.47285563  0.27930092  1
  O  O20  1  0.66357445  0.27930092  0.47285563  1
  O  O21  1  0.83642555  0.52714437  0.72069908  1
  O  O22  1  0.23462721  0.26990580  0.49272224  1
  O  O23  1  0.26537279  0.50727776  0.73009420  1
  O  O24  1  0.76537279  0.73009420  0.50727776  1
  O  O25  1  0.73462721  0.49272224  0.26990580  1
  O  O26  1  0.36928281  0.97681356  0.32464045  1
  O  O27  1  0.13071719  0.67535955  0.02318644  1
  O  O28  1  0.63071719  0.02318644  0.67535955  1
  O  O29  1  0.86928281  0.32464045  0.97681356  1
  O  O30  1  0.18630706  0.97759720  0.60718778  1
  O  O31  1  0.31369294  0.39281222  0.02240280  1
  O  O32  1  0.81369294  0.02240280  0.39281222  1
  O  O33  1  0.68630706  0.60718778  0.97759720  1
  O  O34  1  0.02294903  0.19396876  0.73036749  1
  O  O35  1  0.47705097  0.26963251  0.80603124  1
  O  O36  1  0.97705097  0.80603124  0.26963251  1
  O  O37  1  0.52294903  0.73036749  0.19396876  1
