# generated using pymatgen
data_Ba4Fe3Se10
_symmetry_space_group_name_H-M   'P 1'
_cell_length_a   8.80546525
_cell_length_b   8.86873326
_cell_length_c   12.52658890
_cell_angle_alpha   108.17620243
_cell_angle_beta   90.00000000
_cell_angle_gamma   90.00000000
_symmetry_Int_Tables_number   1
_chemical_formula_structural   Ba4Fe3Se10
_chemical_formula_sum   'Ba8 Fe6 Se20'
_cell_volume   929.43028374
_cell_formula_units_Z   2
loop_
 _symmetry_equiv_pos_site_id
 _symmetry_equiv_pos_as_xyz
  1  'x, y, z'
loop_
 _atom_site_type_symbol
 _atom_site_label
 _atom_site_symmetry_multiplicity
 _atom_site_fract_x
 _atom_site_fract_y
 _atom_site_fract_z
 _atom_site_occupancy
  Ba  Ba0  1  0.87782554  0.22649735  0.66609664  1
  Ba  Ba1  1  0.62217446  0.72649735  0.16609664  1
  Ba  Ba2  1  0.12217446  0.77350265  0.33390336  1
  Ba  Ba3  1  0.37782554  0.27350265  0.83390336  1
  Ba  Ba4  1  0.34659772  0.68446187  0.65393054  1
  Ba  Ba5  1  0.15340228  0.18446187  0.15393054  1
  Ba  Ba6  1  0.65340228  0.31553813  0.34606946  1
  Ba  Ba7  1  0.84659772  0.81553813  0.84606946  1
  Fe  Fe8  1  0.50000000  0.00000000  0.50000000  1
  Fe  Fe9  1  -0.00000000  0.50000000  -0.00000000  1
  Fe  Fe10  1  0.28955675  0.19552498  0.47299408  1
  Fe  Fe11  1  0.21044325  0.69552498  0.97299408  1
  Fe  Fe12  1  0.71044325  0.80447502  0.52700592  1
  Fe  Fe13  1  0.78955675  0.30447502  0.02700592  1
  Se  Se14  1  0.97766150  0.76446970  0.58788289  1
  Se  Se15  1  0.52233850  0.26446970  0.08788289  1
  Se  Se16  1  0.02233850  0.23553030  0.41211711  1
  Se  Se17  1  0.47766150  0.73553030  0.91211711  1
  Se  Se18  1  0.77717124  0.56734971  0.59174618  1
  Se  Se19  1  0.72282876  0.06734971  0.09174618  1
  Se  Se20  1  0.22282876  0.43265029  0.40825382  1
  Se  Se21  1  0.27717124  0.93265029  0.90825382  1
  Se  Se22  1  0.22269882  0.02475140  0.58697997  1
  Se  Se23  1  0.27730118  0.52475140  0.08697997  1
  Se  Se24  1  0.77730118  0.97524860  0.41302003  1
  Se  Se25  1  0.72269882  0.47524860  0.91302003  1
  Se  Se26  1  0.39285643  0.01903661  0.30241820  1
  Se  Se27  1  0.10714357  0.51903661  0.80241820  1
  Se  Se28  1  0.60714357  0.98096339  0.69758180  1
  Se  Se29  1  0.89285643  0.48096339  0.19758180  1
  Se  Se30  1  0.50925948  0.31610629  0.59060751  1
  Se  Se31  1  0.99074052  0.81610629  0.09060751  1
  Se  Se32  1  0.49074052  0.68389371  0.40939249  1
  Se  Se33  1  0.00925948  0.18389371  0.90939249  1
