# generated using pymatgen
data_Ti3Nb2Cr(PO4)6
_symmetry_space_group_name_H-M   'P 1'
_cell_length_a   8.63732097
_cell_length_b   8.63732052
_cell_length_c   8.63732047
_cell_angle_alpha   60.55716461
_cell_angle_beta   60.55716570
_cell_angle_gamma   60.55717049
_symmetry_Int_Tables_number   1
_chemical_formula_structural   Ti3Nb2Cr(PO4)6
_chemical_formula_sum   'Ti3 Nb2 Cr1 P6 O24'
_cell_volume   461.37553757
_cell_formula_units_Z   1
loop_
 _symmetry_equiv_pos_site_id
 _symmetry_equiv_pos_as_xyz
  1  'x, y, z'
loop_
 _atom_site_type_symbol
 _atom_site_label
 _atom_site_symmetry_multiplicity
 _atom_site_fract_x
 _atom_site_fract_y
 _atom_site_fract_z
 _atom_site_occupancy
  Ti  Ti0  1  0.14319805  0.14319805  0.14319805  1
  Ti  Ti1  1  0.35785126  0.35785126  0.35785126  1
  Ti  Ti2  1  0.64100726  0.64100726  0.64100726  1
  Nb  Nb3  1  0.00208212  0.00208212  0.00208212  1
  Nb  Nb4  1  0.50006130  0.50006130  0.50006130  1
  Cr  Cr5  1  0.85600144  0.85600144  0.85600144  1
  P  P6  1  0.03910437  0.74931452  0.46214047  1
  P  P7  1  0.46214047  0.03910437  0.74931452  1
  P  P8  1  0.24623257  0.54246297  0.96127643  1
  P  P9  1  0.54246297  0.96127643  0.24623257  1
  P  P10  1  0.96127643  0.24623257  0.54246297  1
  P  P11  1  0.74931452  0.46214047  0.03910437  1
  O  O12  1  0.11812788  0.30915099  0.50291126  1
  O  O13  1  0.30915099  0.50291126  0.11812788  1
  O  O14  1  0.05798948  0.91199309  0.26580112  1
  O  O15  1  0.50291126  0.11812788  0.30915099  1
  O  O16  1  0.00825234  0.80751539  0.61639588  1
  O  O17  1  0.23594250  0.58819759  0.43997318  1
  O  O18  1  0.26580112  0.05798948  0.91199309  1
  O  O19  1  0.43997318  0.23594250  0.58819759  1
  O  O20  1  0.18574553  0.38372275  -0.00004018  1
  O  O21  1  0.58819759  0.43997318  0.23594250  1
  O  O22  1  0.08657742  0.73792022  0.94345741  1
  O  O23  1  0.38372275  -0.00004018  0.18574553  1
  O  O24  1  0.61639588  0.00825234  0.80751539  1
  O  O25  1  0.91199309  0.26580112  0.05798948  1
  O  O26  1  0.40833999  0.55731777  0.76660298  1
  O  O27  1  0.80751539  0.61639588  0.00825234  1
  O  O28  1  0.55731777  0.76660298  0.40833999  1
  O  O29  1  0.73792022  0.94345741  0.08657742  1
  O  O30  1  0.76660298  0.40833999  0.55731777  1
  O  O31  1  -0.00004018  0.18574553  0.38372275  1
  O  O32  1  0.49592923  0.88302186  0.68842060  1
  O  O33  1  0.94345741  0.08657742  0.73792022  1
  O  O34  1  0.68842060  0.49592923  0.88302186  1
  O  O35  1  0.88302186  0.68842060  0.49592923  1
