# generated using pymatgen
data_Na4ZnP4H16C2(NO8)2
_symmetry_space_group_name_H-M   'P 1'
_cell_length_a   5.61672625
_cell_length_b   6.22558649
_cell_length_c   12.56039262
_cell_angle_alpha   92.38668228
_cell_angle_beta   92.56587795
_cell_angle_gamma   94.03931716
_symmetry_Int_Tables_number   1
_chemical_formula_structural   Na4ZnP4H16C2(NO8)2
_chemical_formula_sum   'Na4 Zn1 P4 H16 C2 N2 O16'
_cell_volume   437.23175124
_cell_formula_units_Z   1
loop_
 _symmetry_equiv_pos_site_id
 _symmetry_equiv_pos_as_xyz
  1  'x, y, z'
loop_
 _atom_site_type_symbol
 _atom_site_label
 _atom_site_symmetry_multiplicity
 _atom_site_fract_x
 _atom_site_fract_y
 _atom_site_fract_z
 _atom_site_occupancy
  Na  Na0  1  0.48110338  0.90242813  0.68568380  1
  Na  Na1  1  0.51889662  0.09757187  0.31431620  1
  Na  Na2  1  0.89020013  0.90189464  0.88271019  1
  Na  Na3  1  0.10979987  0.09810536  0.11728981  1
  Zn  Zn4  1  0.50000000  0.50000000  0.50000000  1
  P  P5  1  0.63527446  0.39459362  0.74876741  1
  P  P6  1  0.36472554  0.60540638  0.25123259  1
  P  P7  1  0.98688064  0.69925513  0.63404637  1
  P  P8  1  0.01311936  0.30074487  0.36595363  1
  H  H9  1  0.99765656  0.11300928  0.67538618  1
  H  H10  1  0.00234344  0.88699072  0.32461382  1
  H  H11  1  0.19268150  0.28622895  0.62193056  1
  H  H12  1  0.80731850  0.71377105  0.37806944  1
  H  H13  1  0.91108133  0.25335411  0.56581337  1
  H  H14  1  0.08891867  0.74664589  0.43418663  1
  H  H15  1  0.35267751  0.64505699  0.90019283  1
  H  H16  1  0.64732249  0.35494301  0.09980717  1
  H  H17  1  0.28129240  0.68659788  0.02063846  1
  H  H18  1  0.71870760  0.31340212  0.97936154  1
  H  H19  1  0.18884222  0.33409972  0.94846001  1
  H  H20  1  0.81115778  0.66590028  0.05153999  1
  H  H21  1  0.35053506  0.16330117  0.90114692  1
  H  H22  1  0.64946494  0.83669883  0.09885308  1
  H  H23  1  0.06792427  0.46316808  0.77811677  1
  H  H24  1  0.93207573  0.53683192  0.22188323  1
  C  C25  1  0.94502616  0.44695351  0.70684320  1
  C  C26  1  0.05497384  0.55304649  0.29315680  1
  N  N27  1  0.01125993  0.26286679  0.63816359  1
  N  N28  1  0.98874007  0.73713321  0.36183641  1
  O  O29  1  0.49665656  0.32288284  0.64122101  1
  O  O30  1  0.50334344  0.67711716  0.35877899  1
  O  O31  1  0.56545959  0.60695962  0.80096844  1
  O  O32  1  0.43454041  0.39304038  0.19903156  1
  O  O33  1  0.62719168  0.20155687  0.82289542  1
  O  O34  1  0.37280832  0.79844313  0.17710458  1
  O  O35  1  0.75123350  0.73325183  0.57047899  1
  O  O36  1  0.24876650  0.26674817  0.42952101  1
  O  O37  1  0.04643179  0.87956699  0.72042834  1
  O  O38  1  0.95356821  0.12043301  0.27957166  1
  O  O39  1  0.20053185  0.68089740  0.56142218  1
  O  O40  1  0.79946815  0.31910260  0.43857782  1
  O  O41  1  0.21530637  0.64220347  0.94829997  1
  O  O42  1  0.78469363  0.35779653  0.05170003  1
  O  O43  1  0.20675990  0.17654999  0.94356950  1
  O  O44  1  0.79324010  0.82345001  0.05643050  1
