# generated using pymatgen
data_Te2PO7
_symmetry_space_group_name_H-M   'P 1'
_cell_length_a   7.24004960
_cell_length_b   8.37378582
_cell_length_c   9.75040914
_cell_angle_alpha   90.00000000
_cell_angle_beta   90.00000000
_cell_angle_gamma   90.00000000
_symmetry_Int_Tables_number   1
_chemical_formula_structural   Te2PO7
_chemical_formula_sum   'Te8 P4 O28'
_cell_volume   591.13439537
_cell_formula_units_Z   4
loop_
 _symmetry_equiv_pos_site_id
 _symmetry_equiv_pos_as_xyz
  1  'x, y, z'
loop_
 _atom_site_type_symbol
 _atom_site_label
 _atom_site_symmetry_multiplicity
 _atom_site_fract_x
 _atom_site_fract_y
 _atom_site_fract_z
 _atom_site_occupancy
  Te  Te0  1  0.81092513  0.00253858  0.65717337  1
  Te  Te1  1  0.18907487  0.50253858  0.34282663  1
  Te  Te2  1  0.81092513  0.50253858  0.84282663  1
  Te  Te3  1  0.18907487  0.00253858  0.15717337  1
  Te  Te4  1  0.18329318  0.20358233  0.81918302  1
  Te  Te5  1  0.81670682  0.70358233  0.18081698  1
  Te  Te6  1  0.18329318  0.70358233  0.68081698  1
  Te  Te7  1  0.81670682  0.20358233  0.31918302  1
  P  P8  1  0.54755626  0.31147611  0.58703435  1
  P  P9  1  0.45244374  0.81147611  0.41296565  1
  P  P10  1  0.54755626  0.81147611  0.91296565  1
  P  P11  1  0.45244374  0.31147611  0.08703435  1
  O  O12  1  0.91033886  0.16894352  0.76615156  1
  O  O13  1  0.08966114  0.66894352  0.23384844  1
  O  O14  1  0.91033886  0.66894352  0.73384844  1
  O  O15  1  0.08966114  0.16894352  0.26615156  1
  O  O16  1  0.08453844  0.91735535  0.66101563  1
  O  O17  1  0.91546156  0.41735535  0.33898437  1
  O  O18  1  0.08453844  0.41735535  0.83898437  1
  O  O19  1  0.91546156  0.91735535  0.16101563  1
  O  O20  1  0.58571485  0.30421408  0.42988548  1
  O  O21  1  0.41428515  0.80421408  0.57011452  1
  O  O22  1  0.58571485  0.80421408  0.07011452  1
  O  O23  1  0.41428515  0.30421408  0.92988548  1
  O  O24  1  0.90519766  0.11978587  0.49287290  1
  O  O25  1  0.09480234  0.61978587  0.50712710  1
  O  O26  1  0.90519766  0.61978587  0.00712710  1
  O  O27  1  0.09480234  0.11978587  0.99287290  1
  O  O28  1  0.34800820  0.36243439  0.61243276  1
  O  O29  1  0.65199180  0.86243439  0.38756724  1
  O  O30  1  0.34800820  0.86243439  0.88756724  1
  O  O31  1  0.65199180  0.36243439  0.11243276  1
  O  O32  1  0.57170339  0.14019360  0.65270112  1
  O  O33  1  0.42829661  0.64019360  0.34729888  1
  O  O34  1  0.57170339  0.64019360  0.84729888  1
  O  O35  1  0.42829661  0.14019360  0.15270112  1
  O  O36  1  0.69477610  0.42868618  0.64746138  1
  O  O37  1  0.30522390  0.92868618  0.35253862  1
  O  O38  1  0.69477610  0.92868618  0.85253862  1
  O  O39  1  0.30522390  0.42868618  0.14746138  1
