# generated using pymatgen
data_MnBePO5
_symmetry_space_group_name_H-M   'P 1'
_cell_length_a   4.76763889
_cell_length_b   5.46092529
_cell_length_c   14.06423605
_cell_angle_alpha   90.00000000
_cell_angle_beta   90.00000000
_cell_angle_gamma   103.81984816
_symmetry_Int_Tables_number   1
_chemical_formula_structural   MnBePO5
_chemical_formula_sum   'Mn4 Be4 P4 O20'
_cell_volume   355.57239689
_cell_formula_units_Z   4
loop_
 _symmetry_equiv_pos_site_id
 _symmetry_equiv_pos_as_xyz
  1  'x, y, z'
loop_
 _atom_site_type_symbol
 _atom_site_label
 _atom_site_symmetry_multiplicity
 _atom_site_fract_x
 _atom_site_fract_y
 _atom_site_fract_z
 _atom_site_occupancy
  Mn  Mn0  1  0.88458457  0.75369616  0.07337014  1
  Mn  Mn1  1  0.11541543  0.74630384  0.57337014  1
  Mn  Mn2  1  0.11541543  0.24630384  0.92662986  1
  Mn  Mn3  1  0.88458457  0.25369616  0.42662986  1
  Be  Be4  1  0.78054560  0.94772755  0.24113107  1
  Be  Be5  1  0.21945440  0.55227245  0.74113107  1
  Be  Be6  1  0.21945440  0.05227245  0.75886893  1
  Be  Be7  1  0.78054560  0.44772755  0.25886893  1
  P  P8  1  0.52702508  0.71264302  0.39645202  1
  P  P9  1  0.47297492  0.78735698  0.89645202  1
  P  P10  1  0.47297492  0.28735698  0.60354798  1
  P  P11  1  0.52702508  0.21264302  0.10354798  1
  O  O12  1  0.73935068  0.88936247  0.46582298  1
  O  O13  1  0.26064932  0.61063753  0.96582298  1
  O  O14  1  0.26064932  0.11063753  0.53417702  1
  O  O15  1  0.73935068  0.38936247  0.03417702  1
  O  O16  1  0.65932193  0.98705009  0.13201716  1
  O  O17  1  0.34067807  0.51294991  0.63201716  1
  O  O18  1  0.34067807  0.01294991  0.86798284  1
  O  O19  1  0.65932193  0.48705009  0.36798284  1
  O  O20  1  0.49224225  0.84731363  0.30486175  1
  O  O21  1  0.50775775  0.65268637  0.80486175  1
  O  O22  1  0.50775775  0.15268637  0.69513825  1
  O  O23  1  0.49224225  0.34731363  0.19513825  1
  O  O24  1  0.23163917  0.60965181  0.44754889  1
  O  O25  1  0.76836083  0.89034819  0.94754889  1
  O  O26  1  0.76836083  0.39034819  0.55245111  1
  O  O27  1  0.23163917  0.10965181  0.05245111  1
  O  O28  1  0.93922241  0.71564498  0.20537600  1
  O  O29  1  0.06077759  0.78435502  0.70537600  1
  O  O30  1  0.06077759  0.28435502  0.79462400  1
  O  O31  1  0.93922241  0.21564498  0.29462400  1
