# generated using pymatgen
data_NaZr(PO4)2
_symmetry_space_group_name_H-M   'P 1'
_cell_length_a   5.44769252
_cell_length_b   9.03804062
_cell_length_c   14.87826476
_cell_angle_alpha   97.09698320
_cell_angle_beta   90.00000000
_cell_angle_gamma   90.00000000
_symmetry_Int_Tables_number   1
_chemical_formula_structural   NaZr(PO4)2
_chemical_formula_sum   'Na4 Zr4 P8 O32'
_cell_volume   726.94068430
_cell_formula_units_Z   4
loop_
 _symmetry_equiv_pos_site_id
 _symmetry_equiv_pos_as_xyz
  1  'x, y, z'
loop_
 _atom_site_type_symbol
 _atom_site_label
 _atom_site_symmetry_multiplicity
 _atom_site_fract_x
 _atom_site_fract_y
 _atom_site_fract_z
 _atom_site_occupancy
  Na  Na0  1  0.83602735  0.75000000  0.25000000  1
  Na  Na1  1  0.16397265  0.25000000  0.75000000  1
  Na  Na2  1  0.03401543  0.25000000  0.25000000  1
  Na  Na3  1  0.96598457  0.75000000  0.75000000  1
  Zr  Zr4  1  0.23366175  0.25804971  0.51270945  1
  Zr  Zr5  1  0.23366175  0.24195029  0.98729055  1
  Zr  Zr6  1  0.76633825  0.74195029  0.48729055  1
  Zr  Zr7  1  0.76633825  0.75804971  0.01270945  1
  P  P8  1  0.27407989  0.55585964  0.37887568  1
  P  P9  1  0.27407989  0.94414036  0.12112432  1
  P  P10  1  0.72592011  0.44414036  0.62112432  1
  P  P11  1  0.72592011  0.05585964  0.87887568  1
  P  P12  1  0.74048081  0.08366620  0.38650807  1
  P  P13  1  0.74048081  0.41633380  0.11349193  1
  P  P14  1  0.25951919  0.91633380  0.61349193  1
  P  P15  1  0.25951919  0.58366620  0.88650807  1
  O  O16  1  0.27399611  0.45008472  0.45321987  1
  O  O17  1  0.27399611  0.04991528  0.04678013  1
  O  O18  1  0.72600389  0.54991528  0.54678013  1
  O  O19  1  0.72600389  0.95008472  0.95321987  1
  O  O20  1  0.50433832  0.65663808  0.38900573  1
  O  O21  1  0.50433832  0.84336192  0.11099427  1
  O  O22  1  0.49566168  0.34336192  0.61099427  1
  O  O23  1  0.49566168  0.15663808  0.88900573  1
  O  O24  1  0.03922391  0.65414477  0.39065922  1
  O  O25  1  0.03922391  0.84585523  0.10934078  1
  O  O26  1  0.96077609  0.34585523  0.60934078  1
  O  O27  1  0.96077609  0.15414477  0.89065922  1
  O  O28  1  0.50321418  0.15069985  0.43079016  1
  O  O29  1  0.50321418  0.34930015  0.06920984  1
  O  O30  1  0.49678582  0.84930015  0.56920984  1
  O  O31  1  0.49678582  0.65069985  0.93079016  1
  O  O32  1  0.20849546  0.07115436  0.58280402  1
  O  O33  1  0.20849546  0.42884564  0.91719598  1
  O  O34  1  0.79150454  0.92884564  0.41719598  1
  O  O35  1  0.79150454  0.57115436  0.08280402  1
  O  O36  1  0.95793764  0.18986258  0.41730849  1
  O  O37  1  0.95793764  0.31013742  0.08269151  1
  O  O38  1  0.04206236  0.81013742  0.58269151  1
  O  O39  1  0.04206236  0.68986258  0.91730849  1
  O  O40  1  0.26188132  0.46986613  0.28300051  1
  O  O41  1  0.26188132  0.03013387  0.21699949  1
  O  O42  1  0.73811868  0.53013387  0.71699949  1
  O  O43  1  0.73811868  0.96986613  0.78300051  1
  O  O44  1  0.72525562  0.43248673  0.21765925  1
  O  O45  1  0.72525562  0.06751327  0.28234075  1
  O  O46  1  0.27474438  0.56751327  0.78234075  1
  O  O47  1  0.27474438  0.93248673  0.71765925  1
