# generated using pymatgen
data_Dy2Al5Fe12
_symmetry_space_group_name_H-M   'P 1'
_cell_length_a   8.35858907
_cell_length_b   8.56133309
_cell_length_c   8.56133309
_cell_angle_alpha   119.90519138
_cell_angle_beta   90.00000000
_cell_angle_gamma   90.00000000
_symmetry_Int_Tables_number   1
_chemical_formula_structural   Dy2Al5Fe12
_chemical_formula_sum   'Dy4 Al10 Fe24'
_cell_volume   531.08068604
_cell_formula_units_Z   2
loop_
 _symmetry_equiv_pos_site_id
 _symmetry_equiv_pos_as_xyz
  1  'x, y, z'
loop_
 _atom_site_type_symbol
 _atom_site_label
 _atom_site_symmetry_multiplicity
 _atom_site_fract_x
 _atom_site_fract_y
 _atom_site_fract_z
 _atom_site_occupancy
  Dy  Dy0  1  0.75000000  0.99989520  0.00010480  1
  Dy  Dy1  1  0.25000000  0.00010480  0.99989520  1
  Dy  Dy2  1  0.25000000  0.66661628  0.33338372  1
  Dy  Dy3  1  0.75000000  0.33338372  0.66661628  1
  Al  Al4  1  0.60337638  0.66684840  0.33315160  1
  Al  Al5  1  0.39662362  0.33315160  0.66684840  1
  Al  Al6  1  0.10337638  0.33315160  0.66684840  1
  Al  Al7  1  0.89662362  0.66684840  0.33315160  1
  Al  Al8  1  0.50000000  0.50000000  -0.00000000  1
  Al  Al9  1  0.50000000  0.50000000  0.50000000  1
  Al  Al10  1  0.50000000  -0.00000000  0.50000000  1
  Al  Al11  1  -0.00000000  0.50000000  -0.00000000  1
  Al  Al12  1  -0.00000000  0.50000000  0.50000000  1
  Al  Al13  1  -0.00000000  -0.00000000  0.50000000  1
  Fe  Fe14  1  0.75000000  0.67686988  0.02654211  1
  Fe  Fe15  1  0.75000000  0.34979158  0.32354772  1
  Fe  Fe16  1  0.75000000  0.97312706  0.64998687  1
  Fe  Fe17  1  0.75000000  0.35001313  0.02687294  1
  Fe  Fe18  1  0.75000000  0.97345789  0.32313012  1
  Fe  Fe19  1  0.75000000  0.67645228  0.65020842  1
  Fe  Fe20  1  0.25000000  0.32313012  0.97345789  1
  Fe  Fe21  1  0.25000000  0.65020842  0.67645228  1
  Fe  Fe22  1  0.25000000  0.02687294  0.35001313  1
  Fe  Fe23  1  0.25000000  0.64998687  0.97312706  1
  Fe  Fe24  1  0.25000000  0.02654211  0.67686988  1
  Fe  Fe25  1  0.25000000  0.32354772  0.34979158  1
  Fe  Fe26  1  0.48558071  0.83532701  0.67084460  1
  Fe  Fe27  1  0.48494849  0.83559235  0.16440765  1
  Fe  Fe28  1  0.48558071  0.32915540  0.16467299  1
  Fe  Fe29  1  0.51441929  0.16467299  0.32915540  1
  Fe  Fe30  1  0.51505151  0.16440765  0.83559235  1
  Fe  Fe31  1  0.51441929  0.67084460  0.83532701  1
  Fe  Fe32  1  0.98558071  0.16467299  0.32915540  1
  Fe  Fe33  1  0.98494849  0.16440765  0.83559235  1
  Fe  Fe34  1  0.98558071  0.67084460  0.83532701  1
  Fe  Fe35  1  0.01441929  0.83532701  0.67084460  1
  Fe  Fe36  1  0.01505151  0.83559235  0.16440765  1
  Fe  Fe37  1  0.01441929  0.32915540  0.16467299  1
