# generated using pymatgen
data_Dy2Fe17N3
_symmetry_space_group_name_H-M   'P 1'
_cell_length_a   8.38417382
_cell_length_b   8.64427532
_cell_length_c   8.64427532
_cell_angle_alpha   120.02060815
_cell_angle_beta   90.00000000
_cell_angle_gamma   90.00000000
_symmetry_Int_Tables_number   1
_chemical_formula_structural   Dy2Fe17N3
_chemical_formula_sum   'Dy4 Fe34 N6'
_cell_volume   542.44768896
_cell_formula_units_Z   2
loop_
 _symmetry_equiv_pos_site_id
 _symmetry_equiv_pos_as_xyz
  1  'x, y, z'
loop_
 _atom_site_type_symbol
 _atom_site_label
 _atom_site_symmetry_multiplicity
 _atom_site_fract_x
 _atom_site_fract_y
 _atom_site_fract_z
 _atom_site_occupancy
  Dy  Dy0  1  0.75000000  0.00005997  0.99994003  1
  Dy  Dy1  1  0.25000000  0.99994003  0.00005997  1
  Dy  Dy2  1  0.25000000  0.66664212  0.33335788  1
  Dy  Dy3  1  0.75000000  0.33335788  0.66664212  1
  Fe  Fe4  1  0.60781566  0.66663289  0.33336711  1
  Fe  Fe5  1  0.39218434  0.33336711  0.66663289  1
  Fe  Fe6  1  0.10781566  0.33336711  0.66663289  1
  Fe  Fe7  1  0.89218434  0.66663289  0.33336711  1
  Fe  Fe8  1  0.50000000  0.50000000  0.00000000  1
  Fe  Fe9  1  0.50000000  0.50000000  0.50000000  1
  Fe  Fe10  1  0.50000000  -0.00000000  0.50000000  1
  Fe  Fe11  1  0.00000000  0.50000000  0.00000000  1
  Fe  Fe12  1  0.00000000  0.50000000  0.50000000  1
  Fe  Fe13  1  0.00000000  -0.00000000  0.50000000  1
  Fe  Fe14  1  0.75000000  0.67155896  0.05253059  1
  Fe  Fe15  1  0.75000000  0.38106416  0.32858727  1
  Fe  Fe16  1  0.75000000  0.94727429  0.61889679  1
  Fe  Fe17  1  0.75000000  0.38110321  0.05272571  1
  Fe  Fe18  1  0.75000000  0.94746941  0.32844104  1
  Fe  Fe19  1  0.75000000  0.67141273  0.61893584  1
  Fe  Fe20  1  0.25000000  0.32844104  0.94746941  1
  Fe  Fe21  1  0.25000000  0.61893584  0.67141273  1
  Fe  Fe22  1  0.25000000  0.05272571  0.38110321  1
  Fe  Fe23  1  0.25000000  0.61889679  0.94727429  1
  Fe  Fe24  1  0.25000000  0.05253059  0.67155896  1
  Fe  Fe25  1  0.25000000  0.32858727  0.38106416  1
  Fe  Fe26  1  0.47952700  0.83078914  0.66172863  1
  Fe  Fe27  1  0.47944659  0.83085203  0.16914797  1
  Fe  Fe28  1  0.47952700  0.33827137  0.16921086  1
  Fe  Fe29  1  0.52047300  0.16921086  0.33827137  1
  Fe  Fe30  1  0.52055341  0.16914797  0.83085203  1
  Fe  Fe31  1  0.52047300  0.66172863  0.83078914  1
  Fe  Fe32  1  0.97952700  0.16921086  0.33827137  1
  Fe  Fe33  1  0.97944659  0.16914797  0.83085203  1
  Fe  Fe34  1  0.97952700  0.66172863  0.83078914  1
  Fe  Fe35  1  0.02047300  0.83078914  0.66172863  1
  Fe  Fe36  1  0.02055341  0.83085203  0.16914797  1
  Fe  Fe37  1  0.02047300  0.33827137  0.16921086  1
  N  N38  1  0.25000000  0.83559833  0.67125768  1
  N  N39  1  0.25000000  0.83566074  0.16433926  1
  N  N40  1  0.25000000  0.32874232  0.16440167  1
  N  N41  1  0.75000000  0.16440167  0.32874232  1
  N  N42  1  0.75000000  0.16433926  0.83566074  1
  N  N43  1  0.75000000  0.67125768  0.83559833  1
