# generated using pymatgen
data_PH10C2NO4
_symmetry_space_group_name_H-M   'P 1'
_cell_length_a   6.96517087
_cell_length_b   10.33029514
_cell_length_c   9.76674478
_cell_angle_alpha   90.00000000
_cell_angle_beta   90.00000000
_cell_angle_gamma   86.44378793
_symmetry_Int_Tables_number   1
_chemical_formula_structural   PH10C2NO4
_chemical_formula_sum   'P4 H40 C8 N4 O16'
_cell_volume   701.38628752
_cell_formula_units_Z   4
loop_
 _symmetry_equiv_pos_site_id
 _symmetry_equiv_pos_as_xyz
  1  'x, y, z'
loop_
 _atom_site_type_symbol
 _atom_site_label
 _atom_site_symmetry_multiplicity
 _atom_site_fract_x
 _atom_site_fract_y
 _atom_site_fract_z
 _atom_site_occupancy
  P  P0  1  0.74282491  0.65558113  0.76152586  1
  P  P1  1  0.24282491  0.15558113  0.23847414  1
  P  P2  1  0.75482437  0.80745777  0.28713563  1
  P  P3  1  0.25482437  0.30745777  0.71286437  1
  H  H4  1  0.75624487  0.77807488  0.57734114  1
  H  H5  1  0.25624487  0.27807488  0.42265886  1
  H  H6  1  0.50117612  0.98260912  0.28183741  1
  H  H7  1  0.00117612  0.48260912  0.71816259  1
  H  H8  1  0.74812266  0.69578661  0.09089649  1
  H  H9  1  0.24812266  0.19578661  0.90910351  1
  H  H10  1  0.51716057  0.49613188  0.73549513  1
  H  H11  1  0.01716057  0.99613188  0.26450487  1
  H  H12  1  0.23705429  0.70449943  0.13001267  1
  H  H13  1  0.73705429  0.20449943  0.86998733  1
  H  H14  1  0.45445601  0.71079946  0.05921471  1
  H  H15  1  0.95445601  0.21079946  0.94078529  1
  H  H16  1  0.32298667  0.83158378  0.39190618  1
  H  H17  1  0.82298667  0.33158378  0.60809382  1
  H  H18  1  0.08572480  0.80983092  0.43299581  1
  H  H19  1  0.58572480  0.30983092  0.56700419  1
  H  H20  1  0.34695206  0.87952132  0.90853052  1
  H  H21  1  0.84695206  0.37952132  0.09146948  1
  H  H22  1  0.10452177  0.86604954  0.96957858  1
  H  H23  1  0.60452177  0.36604954  0.03042142  1
  H  H24  1  0.28380958  0.92436156  0.08084503  1
  H  H25  1  0.78380958  0.42436156  0.91915497  1
  H  H26  1  0.34767310  0.64331981  0.84530947  1
  H  H27  1  0.84767310  0.14331981  0.15469053  1
  H  H28  1  0.29268029  0.52767576  0.97137192  1
  H  H29  1  0.79268029  0.02767576  0.02862808  1
  H  H30  1  0.10761769  0.64125320  0.90707897  1
  H  H31  1  0.60761769  0.14125320  0.09292103  1
  H  H32  1  0.40157446  0.86440504  0.62656288  1
  H  H33  1  0.90157446  0.36440504  0.37343712  1
  H  H34  1  0.22311691  0.98262083  0.56408851  1
  H  H35  1  0.72311691  0.48262083  0.43591149  1
  H  H36  1  0.15216677  0.85021895  0.66889198  1
  H  H37  1  0.65216677  0.35021895  0.33110802  1
  H  H38  1  0.17705295  0.62567541  0.56826527  1
  H  H39  1  0.67705295  0.12567541  0.43173473  1
  H  H40  1  0.42352138  0.64315851  0.52278720  1
  H  H41  1  0.92352138  0.14315851  0.47721280  1
  H  H42  1  0.25060919  0.60572308  0.39399185  1
  H  H43  1  0.75060919  0.10572308  0.60600815  1
  C  C44  1  0.25715688  0.85845967  0.99668986  1
  C  C45  1  0.75715688  0.35845967  0.00331014  1
  C  C46  1  0.25284014  0.88036792  0.59076902  1
  C  C47  1  0.75284014  0.38036792  0.40923098  1
  C  C48  1  0.27421494  0.65859355  0.48923920  1
  C  C49  1  0.77421494  0.15859355  0.51076080  1
  C  C50  1  0.25901937  0.62638717  0.93482925  1
  C  C51  1  0.75901937  0.12638717  0.06517075  1
  N  N52  1  0.30825627  0.72243774  0.04051996  1
  N  N53  1  0.80825627  0.22243774  0.95948004  1
  N  N54  1  0.22875289  0.79967453  0.46601989  1
  N  N55  1  0.72875289  0.29967453  0.53398011  1
  O  O56  1  0.71607695  0.78799142  0.67805942  1
  O  O57  1  0.21607695  0.28799142  0.32194058  1
  O  O58  1  0.54309643  0.87134383  0.29968560  1
  O  O59  1  0.04309643  0.37134383  0.70031440  1
  O  O60  1  0.69241290  0.68166653  0.90975166  1
  O  O61  1  0.19241290  0.18166653  0.09024834  1
  O  O62  1  0.94934243  0.59849306  0.73396434  1
  O  O63  1  0.44934243  0.09849306  0.26603566  1
  O  O64  1  0.72999623  0.68109266  0.19088945  1
  O  O65  1  0.22999623  0.18109266  0.80911055  1
  O  O66  1  0.60250901  0.56187089  0.68798084  1
  O  O67  1  0.10250901  0.06187089  0.31201916  1
  O  O68  1  0.89270058  0.89313904  0.21428686  1
  O  O69  1  0.39270058  0.39313904  0.78571314  1
  O  O70  1  0.82865357  0.75734401  0.42574708  1
  O  O71  1  0.32865357  0.25734401  0.57425292  1
