# generated using pymatgen
data_Lu2Ga5Ni12
_symmetry_space_group_name_H-M   'P 1'
_cell_length_a   8.28854861
_cell_length_b   8.37484868
_cell_length_c   8.37484868
_cell_angle_alpha   119.94765988
_cell_angle_beta   90.00000000
_cell_angle_gamma   90.00000000
_symmetry_Int_Tables_number   1
_chemical_formula_structural   Lu2Ga5Ni12
_chemical_formula_sum   'Lu4 Ga10 Ni24'
_cell_volume   503.72310213
_cell_formula_units_Z   2
loop_
 _symmetry_equiv_pos_site_id
 _symmetry_equiv_pos_as_xyz
  1  'x, y, z'
loop_
 _atom_site_type_symbol
 _atom_site_label
 _atom_site_symmetry_multiplicity
 _atom_site_fract_x
 _atom_site_fract_y
 _atom_site_fract_z
 _atom_site_occupancy
  Lu  Lu0  1  0.75000000  -0.00010724  0.00010724  1
  Lu  Lu1  1  0.25000000  0.00010724  -0.00010724  1
  Lu  Lu2  1  0.25000000  0.66669277  0.33330723  1
  Lu  Lu3  1  0.75000000  0.33330723  0.66669277  1
  Ga  Ga4  1  0.60676772  0.66678698  0.33321302  1
  Ga  Ga5  1  0.39323228  0.33321302  0.66678698  1
  Ga  Ga6  1  0.10676772  0.33321302  0.66678698  1
  Ga  Ga7  1  0.89323228  0.66678698  0.33321302  1
  Ga  Ga8  1  0.50000000  0.50000000  -0.00000000  1
  Ga  Ga9  1  0.50000000  0.50000000  0.50000000  1
  Ga  Ga10  1  0.50000000  -0.00000000  0.50000000  1
  Ga  Ga11  1  0.00000000  0.50000000  -0.00000000  1
  Ga  Ga12  1  0.00000000  0.50000000  0.50000000  1
  Ga  Ga13  1  0.00000000  -0.00000000  0.50000000  1
  Ni  Ni14  1  0.75000000  0.67277434  0.02622766  1
  Ni  Ni15  1  0.75000000  0.35354343  0.32723145  1
  Ni  Ni16  1  0.75000000  0.97366895  0.64644613  1
  Ni  Ni17  1  0.75000000  0.35355387  0.02633105  1
  Ni  Ni18  1  0.75000000  0.97377234  0.32722566  1
  Ni  Ni19  1  0.75000000  0.67276855  0.64645657  1
  Ni  Ni20  1  0.25000000  0.32722566  0.97377234  1
  Ni  Ni21  1  0.25000000  0.64645657  0.67276855  1
  Ni  Ni22  1  0.25000000  0.02633105  0.35355387  1
  Ni  Ni23  1  0.25000000  0.64644613  0.97366895  1
  Ni  Ni24  1  0.25000000  0.02622766  0.67277434  1
  Ni  Ni25  1  0.25000000  0.32723145  0.35354343  1
  Ni  Ni26  1  0.48645763  0.83372076  0.66752313  1
  Ni  Ni27  1  0.48631499  0.83397474  0.16602526  1
  Ni  Ni28  1  0.48645763  0.33247687  0.16627924  1
  Ni  Ni29  1  0.51354237  0.16627924  0.33247687  1
  Ni  Ni30  1  0.51368501  0.16602526  0.83397474  1
  Ni  Ni31  1  0.51354237  0.66752313  0.83372076  1
  Ni  Ni32  1  0.98645763  0.16627924  0.33247687  1
  Ni  Ni33  1  0.98631499  0.16602526  0.83397474  1
  Ni  Ni34  1  0.98645763  0.66752313  0.83372076  1
  Ni  Ni35  1  0.01354237  0.83372076  0.66752313  1
  Ni  Ni36  1  0.01368501  0.83397474  0.16602526  1
  Ni  Ni37  1  0.01354237  0.33247687  0.16627924  1
