# generated using pymatgen
data_InH3C2O5
_symmetry_space_group_name_H-M   'P 1'
_cell_length_a   6.32476154
_cell_length_b   9.63653582
_cell_length_c   9.63653582
_cell_angle_alpha   83.81767191
_cell_angle_beta   70.84252182
_cell_angle_gamma   70.84252182
_symmetry_Int_Tables_number   1
_chemical_formula_structural   InH3C2O5
_chemical_formula_sum   'In4 H12 C8 O20'
_cell_volume   524.08348269
_cell_formula_units_Z   4
loop_
 _symmetry_equiv_pos_site_id
 _symmetry_equiv_pos_as_xyz
  1  'x, y, z'
loop_
 _atom_site_type_symbol
 _atom_site_label
 _atom_site_symmetry_multiplicity
 _atom_site_fract_x
 _atom_site_fract_y
 _atom_site_fract_z
 _atom_site_occupancy
  In  In0  1  0.62500000  0.89679993  0.60320007  1
  In  In1  1  0.12500000  0.10320007  0.39679993  1
  In  In2  1  0.47820007  0.39679993  0.89679993  1
  In  In3  1  0.77179993  0.60320007  0.10320007  1
  H  H4  1  0.29957472  0.67666201  0.57262815  1
  H  H5  1  0.95042528  0.92737185  0.82333799  1
  H  H6  1  0.54886488  0.32333799  0.42737185  1
  H  H7  1  0.70113512  0.07262815  0.17666201  1
  H  H8  1  0.02376327  0.42737185  0.67666201  1
  H  H9  1  0.22623673  0.82333799  0.07262815  1
  H  H10  1  0.12779712  0.57262815  0.32333799  1
  H  H11  1  0.12220288  0.17666201  0.92737185  1
  H  H12  1  0.49981005  0.87518995  0.37518995  1
  H  H13  1  0.75018995  0.12481005  0.62481005  1
  H  H14  1  0.62500000  0.62481005  0.87518995  1
  H  H15  1  0.12500000  0.37518995  0.12481005  1
  C  C16  1  0.37829965  0.63446444  0.66134371  1
  C  C17  1  0.87170035  0.83865629  0.86553556  1
  C  C18  1  0.67410780  0.36553556  0.33865629  1
  C  C19  1  0.57589220  0.16134371  0.13446444  1
  C  C20  1  0.98723591  0.33865629  0.63446444  1
  C  C21  1  0.26276409  0.86553556  0.16134371  1
  C  C22  1  0.96035664  0.66134371  0.36553556  1
  C  C23  1  0.28964336  0.13446444  0.83865629  1
  O  O24  1  0.42322990  0.95177010  0.45177010  1
  O  O25  1  0.82677010  0.04822990  0.54822990  1
  O  O26  1  0.62500000  0.54822990  0.95177010  1
  O  O27  1  0.12500000  0.45177010  0.04822990  1
  O  O28  1  0.50513411  0.69739994  0.69123151  1
  O  O29  1  0.74486589  0.80876849  0.80260006  1
  O  O30  1  0.89376557  0.30260006  0.30876849  1
  O  O31  1  0.35623443  0.19123151  0.19739994  1
  O  O32  1  0.79746594  0.30876849  0.69739994  1
  O  O33  1  0.45253406  0.80260006  0.19123151  1
  O  O34  1  0.80363438  0.69123151  0.30260006  1
  O  O35  1  0.44636562  0.19739994  0.80876849  1
  O  O36  1  0.33069804  0.52144426  0.72857523  1
  O  O37  1  0.91930196  0.77142477  0.97855574  1
  O  O38  1  0.58071753  0.47855574  0.27142477  1
  O  O39  1  0.66928247  0.22857523  0.02144426  1
  O  O40  1  0.14785770  0.27142477  0.52144426  1
  O  O41  1  0.10214230  0.97855574  0.22857523  1
  O  O42  1  0.94072674  0.72857523  0.47855574  1
  O  O43  1  0.30927326  0.02144426  0.77142477  1
