# generated using pymatgen
data_CrBiO5
_symmetry_space_group_name_H-M   'P 1'
_cell_length_a   7.34290299
_cell_length_b   9.90081491
_cell_length_c   11.27448446
_cell_angle_alpha   90.00000000
_cell_angle_beta   90.00000000
_cell_angle_gamma   90.00000000
_symmetry_Int_Tables_number   1
_chemical_formula_structural   CrBiO5
_chemical_formula_sum   'Cr8 Bi8 O40'
_cell_volume   819.66317627
_cell_formula_units_Z   8
loop_
 _symmetry_equiv_pos_site_id
 _symmetry_equiv_pos_as_xyz
  1  'x, y, z'
loop_
 _atom_site_type_symbol
 _atom_site_label
 _atom_site_symmetry_multiplicity
 _atom_site_fract_x
 _atom_site_fract_y
 _atom_site_fract_z
 _atom_site_occupancy
  Cr  Cr0  1  0.65884299  0.41120402  0.35853946  1
  Cr  Cr1  1  0.34115701  0.08879598  0.85853946  1
  Cr  Cr2  1  0.84115701  0.91120402  0.64146054  1
  Cr  Cr3  1  0.15884299  0.58879598  0.14146054  1
  Cr  Cr4  1  0.34115701  0.58879598  0.64146054  1
  Cr  Cr5  1  0.65884299  0.91120402  0.14146054  1
  Cr  Cr6  1  0.15884299  0.08879598  0.35853946  1
  Cr  Cr7  1  0.84115701  0.41120402  0.85853946  1
  Bi  Bi8  1  0.49163916  0.82487660  0.41009633  1
  Bi  Bi9  1  0.50836084  0.67512340  0.91009633  1
  Bi  Bi10  1  0.00836084  0.32487660  0.58990367  1
  Bi  Bi11  1  0.99163916  0.17512340  0.08990367  1
  Bi  Bi12  1  0.50836084  0.17512340  0.58990367  1
  Bi  Bi13  1  0.49163916  0.32487660  0.08990367  1
  Bi  Bi14  1  0.99163916  0.67512340  0.41009633  1
  Bi  Bi15  1  0.00836084  0.82487660  0.91009633  1
  O  O16  1  0.71909262  0.81504219  0.01935033  1
  O  O17  1  0.28090738  0.68495781  0.51935033  1
  O  O18  1  0.78090738  0.31504219  0.98064967  1
  O  O19  1  0.21909262  0.18495781  0.48064967  1
  O  O20  1  0.28090738  0.18495781  0.98064967  1
  O  O21  1  0.71909262  0.31504219  0.48064967  1
  O  O22  1  0.21909262  0.68495781  0.01935033  1
  O  O23  1  0.78090738  0.81504219  0.51935033  1
  O  O24  1  0.75635111  0.85337373  0.26398383  1
  O  O25  1  0.24364889  0.64662627  0.76398383  1
  O  O26  1  0.74364889  0.35337373  0.73601617  1
  O  O27  1  0.25635111  0.14662627  0.23601617  1
  O  O28  1  0.24364889  0.14662627  0.73601617  1
  O  O29  1  0.75635111  0.35337373  0.23601617  1
  O  O30  1  0.25635111  0.64662627  0.26398383  1
  O  O31  1  0.74364889  0.85337373  0.76398383  1
  O  O32  1  0.44250080  0.89477020  0.16134037  1
  O  O33  1  0.55749920  0.60522980  0.66134037  1
  O  O34  1  0.05749920  0.39477020  0.83865963  1
  O  O35  1  0.94250080  0.10522980  0.33865963  1
  O  O36  1  0.55749920  0.10522980  0.83865963  1
  O  O37  1  0.44250080  0.39477020  0.33865963  1
  O  O38  1  0.94250080  0.60522980  0.16134037  1
  O  O39  1  0.05749920  0.89477020  0.66134037  1
  O  O40  1  0.70327385  0.07759821  0.12083473  1
  O  O41  1  0.29672615  0.42240179  0.62083473  1
  O  O42  1  0.79672615  0.57759821  0.87916527  1
  O  O43  1  0.20327385  0.92240179  0.37916527  1
  O  O44  1  0.29672615  0.92240179  0.87916527  1
  O  O45  1  0.70327385  0.57759821  0.37916527  1
  O  O46  1  0.20327385  0.42240179  0.12083473  1
  O  O47  1  0.79672615  0.07759821  0.62083473  1
  O  O48  1  0.46152185  0.94762143  0.57786944  1
  O  O49  1  0.53847815  0.55237857  0.07786944  1
  O  O50  1  0.03847815  0.44762143  0.42213056  1
  O  O51  1  0.96152185  0.05237857  0.92213056  1
  O  O52  1  0.53847815  0.05237857  0.42213056  1
  O  O53  1  0.46152185  0.44762143  0.92213056  1
  O  O54  1  0.96152185  0.55237857  0.57786944  1
  O  O55  1  0.03847815  0.94762143  0.07786944  1
