# generated using pymatgen
data_Cu2(ReS2)3
_symmetry_space_group_name_H-M   'P 1'
_cell_length_a   9.57589703
_cell_length_b   9.33777689
_cell_length_c   11.77320387
_cell_angle_alpha   92.19312436
_cell_angle_beta   89.99999990
_cell_angle_gamma   120.84720641
_symmetry_Int_Tables_number   1
_chemical_formula_structural   Cu2(ReS2)3
_chemical_formula_sum   'Cu8 Re12 S24'
_cell_volume   902.91144333
_cell_formula_units_Z   4
loop_
 _symmetry_equiv_pos_site_id
 _symmetry_equiv_pos_as_xyz
  1  'x, y, z'
loop_
 _atom_site_type_symbol
 _atom_site_label
 _atom_site_symmetry_multiplicity
 _atom_site_fract_x
 _atom_site_fract_y
 _atom_site_fract_z
 _atom_site_occupancy
  Cu  Cu0  1  0.60417408  0.00000000  0.25000000  1
  Cu  Cu1  1  0.39582592  1.00000000  0.75000000  1
  Cu  Cu2  1  0.90656361  0.00000000  0.25000000  1
  Cu  Cu3  1  0.09343639  1.00000000  0.75000000  1
  Cu  Cu4  1  0.86945112  0.18539610  0.40069959  1
  Cu  Cu5  1  0.68405502  0.81460390  0.09930041  1
  Cu  Cu6  1  0.13054888  0.81460390  0.59930041  1
  Cu  Cu7  1  0.31594498  0.18539610  0.90069959  1
  Re  Re8  1  0.98104832  0.68296631  0.03361952  1
  Re  Re9  1  0.29808200  0.31703369  0.46638048  1
  Re  Re10  1  0.01895168  0.31703369  0.96638048  1
  Re  Re11  1  0.70191800  0.68296631  0.53361952  1
  Re  Re12  1  0.88251794  0.40073478  0.12820906  1
  Re  Re13  1  0.48178315  0.59926522  0.37179094  1
  Re  Re14  1  0.11748206  0.59926522  0.87179094  1
  Re  Re15  1  0.51821685  0.40073478  0.62820906  1
  Re  Re16  1  0.19379250  0.59792762  0.08642627  1
  Re  Re17  1  0.59586488  0.40207238  0.41357373  1
  Re  Re18  1  0.80620750  0.40207238  0.91357373  1
  Re  Re19  1  0.40413512  0.59792762  0.58642627  1
  S  S20  1  0.97347397  0.91812790  0.57382399  1
  S  S21  1  0.05534607  0.08187210  0.92617601  1
  S  S22  1  0.02652603  0.08187210  0.42617601  1
  S  S23  1  0.94465393  0.91812790  0.07382399  1
  S  S24  1  0.91925279  0.67634460  0.83443580  1
  S  S25  1  0.24290819  0.32365540  0.66556420  1
  S  S26  1  0.08074721  0.32365540  0.16556420  1
  S  S27  1  0.75709181  0.67634460  0.33443580  1
  S  S28  1  0.20875689  0.51253337  0.43100223  1
  S  S29  1  0.69622353  0.48746663  0.06899777  1
  S  S30  1  0.79124311  0.48746663  0.56899777  1
  S  S31  1  0.30377647  0.51253337  0.93100223  1
  S  S32  1  0.94486923  0.33221477  0.77277286  1
  S  S33  1  0.61265446  0.66778523  0.72722714  1
  S  S34  1  0.05513077  0.66778523  0.22722714  1
  S  S35  1  0.38734554  0.33221477  0.27277286  1
  S  S36  1  0.73288767  0.14732086  0.00683266  1
  S  S37  1  0.58556681  0.85267914  0.49316734  1
  S  S38  1  0.26711233  0.85267914  0.99316734  1
  S  S39  1  0.41443319  0.14732086  0.50683266  1
  S  S40  1  0.72775321  0.26588244  0.30276468  1
  S  S41  1  0.46187077  0.73411756  0.19723532  1
  S  S42  1  0.27224679  0.73411756  0.69723532  1
  S  S43  1  0.53812923  0.26588244  0.80276468  1
