# generated using pymatgen
data_GaP2H15C5(NO4)2
_symmetry_space_group_name_H-M   'P 1'
_cell_length_a   9.09901786
_cell_length_b   9.20159032
_cell_length_c   15.46824624
_cell_angle_alpha   90.00000000
_cell_angle_beta   90.00000000
_cell_angle_gamma   89.26298248
_symmetry_Int_Tables_number   1
_chemical_formula_structural   GaP2H15C5(NO4)2
_chemical_formula_sum   'Ga4 P8 H60 C20 N8 O32'
_cell_volume   1294.97849356
_cell_formula_units_Z   4
loop_
 _symmetry_equiv_pos_site_id
 _symmetry_equiv_pos_as_xyz
  1  'x, y, z'
loop_
 _atom_site_type_symbol
 _atom_site_label
 _atom_site_symmetry_multiplicity
 _atom_site_fract_x
 _atom_site_fract_y
 _atom_site_fract_z
 _atom_site_occupancy
  Ga  Ga0  1  0.00853846  0.25584929  0.49570883  1
  Ga  Ga1  1  0.50853846  0.75584929  0.00429117  1
  Ga  Ga2  1  0.99146154  0.74415071  0.50429117  1
  Ga  Ga3  1  0.49146154  0.24415071  0.99570883  1
  P  P4  1  0.84444913  0.00297676  0.41246116  1
  P  P5  1  0.34444913  0.50297676  0.08753884  1
  P  P6  1  0.15555087  0.99702324  0.58753884  1
  P  P7  1  0.65555087  0.49702324  0.91246116  1
  P  P8  1  0.15735831  0.50435685  0.39197278  1
  P  P9  1  0.65735831  0.00435685  0.10802722  1
  P  P10  1  0.84264169  0.49564315  0.60802722  1
  P  P11  1  0.34264169  0.99564315  0.89197278  1
  H  H12  1  0.70018062  0.01252116  0.29772978  1
  H  H13  1  0.20018062  0.51252116  0.20227022  1
  H  H14  1  0.29981938  0.98747884  0.70227022  1
  H  H15  1  0.79981938  0.48747884  0.79772978  1
  H  H16  1  0.11755079  0.01351762  0.31077220  1
  H  H17  1  0.61755079  0.51351762  0.18922780  1
  H  H18  1  0.88244921  0.98648238  0.68922780  1
  H  H19  1  0.38244921  0.48648238  0.81077220  1
  H  H20  1  0.31034117  0.14958399  0.17606531  1
  H  H21  1  0.81034117  0.64958399  0.32393469  1
  H  H22  1  0.68965883  0.85041601  0.82393469  1
  H  H23  1  0.18965883  0.35041601  0.67606531  1
  H  H24  1  0.21078726  0.24463993  0.25865006  1
  H  H25  1  0.71078726  0.74463993  0.24134994  1
  H  H26  1  0.78921274  0.75536007  0.74134994  1
  H  H27  1  0.28921274  0.25536007  0.75865006  1
  H  H28  1  0.06968813  0.24466722  0.12003530  1
  H  H29  1  0.56968813  0.74466722  0.37996470  1
  H  H30  1  0.93031187  0.75533278  0.87996470  1
  H  H31  1  0.43031187  0.25533278  0.62003530  1
  H  H32  1  0.97341095  0.15335077  0.20479713  1
  H  H33  1  0.47341095  0.65335077  0.29520287  1
  H  H34  1  0.02658905  0.84664923  0.79520287  1
  H  H35  1  0.52658905  0.34664923  0.70479713  1
  H  H36  1  0.94900658  0.01383914  0.08172966  1
  H  H37  1  0.44900658  0.51383914  0.41827034  1
  H  H38  1  0.05099342  0.98616086  0.91827034  1
  H  H39  1  0.55099342  0.48616086  0.58172966  1
  H  H40  1  0.13458241  0.01425271  0.05742108  1
  H  H41  1  0.63458241  0.51425271  0.44257892  1
  H  H42  1  0.86541759  0.98574729  0.94257892  1
  H  H43  1  0.36541759  0.48574729  0.55742108  1
  H  H44  1  0.97973497  0.87480511  0.20472357  1
  H  H45  1  0.47973497  0.37480511  0.29527643  1
  H  H46  1  0.02026503  0.12519489  0.79527643  1
  H  H47  1  0.52026503  0.62519489  0.70472357  1
  H  H48  1  0.07995887  0.78661689  0.11922762  1
  H  H49  1  0.57995887  0.28661689  0.38077238  1
  H  H50  1  0.92004113  0.21338311  0.88077238  1
  H  H51  1  0.42004113  0.71338311  0.61922762  1
  H  H52  1  0.22015550  0.78801283  0.25840849  1
  H  H53  1  0.72015550  0.28801283  0.24159151  1
  H  H54  1  0.77984450  0.21198717  0.74159151  1
  H  H55  1  0.27984450  0.71198717  0.75840849  1
  H  H56  1  0.31625683  0.88465307  0.17613610  1
  H  H57  1  0.81625683  0.38465307  0.32386390  1
  H  H58  1  0.68374317  0.11534693  0.82386390  1
  H  H59  1  0.18374317  0.61534693  0.67613610  1
  H  H60  1  0.34570244  0.92060412  0.37016437  1
  H  H61  1  0.84570244  0.42060412  0.12983563  1
  H  H62  1  0.65429756  0.07939588  0.62983563  1
  H  H63  1  0.15429756  0.57939588  0.87016437  1
  H  H64  1  0.44675939  0.02073349  0.29020942  1
  H  H65  1  0.94675939  0.52073349  0.20979058  1
  H  H66  1  0.55324061  0.97926651  0.70979058  1
  H  H67  1  0.05324061  0.47926651  0.79020942  1
  H  H68  1  0.33894197  0.11388697  0.37137726  1
  H  H69  1  0.83894197  0.61388697  0.12862274  1
  H  H70  1  0.66105803  0.88611303  0.62862274  1
  H  H71  1  0.16105803  0.38611303  0.87137726  1
  C  C72  1  0.21046259  0.14912090  0.21618328  1
  C  C73  1  0.71046259  0.64912090  0.28381672  1
  C  C74  1  0.78953741  0.85087910  0.78381672  1
  C  C75  1  0.28953741  0.35087910  0.71618328  1
  C  C76  1  0.07059878  0.14966676  0.16275548  1
  C  C77  1  0.57059878  0.64966676  0.33724452  1
  C  C78  1  0.92940122  0.85033324  0.83724452  1
  C  C79  1  0.42940122  0.35033324  0.66275548  1
  C  C80  1  0.07644698  0.88084663  0.16252513  1
  C  C81  1  0.57644698  0.38084663  0.33747487  1
  C  C82  1  0.92355302  0.11915337  0.83747487  1
  C  C83  1  0.42355302  0.61915337  0.66252513  1
  C  C84  1  0.21621680  0.88377449  0.21608110  1
  C  C85  1  0.71621680  0.38377449  0.28391890  1
  C  C86  1  0.78378320  0.11622551  0.78391890  1
  C  C87  1  0.28378320  0.61622551  0.71608110  1
  C  C88  1  0.34693269  0.01807637  0.32962699  1
  C  C89  1  0.84693269  0.51807637  0.17037301  1
  C  C90  1  0.65306731  0.98192363  0.67037301  1
  C  C91  1  0.15306731  0.48192363  0.82962699  1
  N  N92  1  0.21707954  0.01649811  0.27187911  1
  N  N93  1  0.71707954  0.51649811  0.22812089  1
  N  N94  1  0.78292046  0.98350189  0.72812089  1
  N  N95  1  0.28292046  0.48350189  0.77187911  1
  N  N96  1  0.05834621  0.01529905  0.10906163  1
  N  N97  1  0.55834621  0.51529905  0.39093837  1
  N  N98  1  0.94165379  0.98470095  0.89093837  1
  N  N99  1  0.44165379  0.48470095  0.60906163  1
  O  O100  1  0.96963278  0.99332612  0.34884313  1
  O  O101  1  0.46963278  0.49332612  0.15115687  1
  O  O102  1  0.03036722  0.00667388  0.65115687  1
  O  O103  1  0.53036722  0.50667388  0.84884313  1
  O  O104  1  0.69108807  0.00849822  0.36440197  1
  O  O105  1  0.19108807  0.50849822  0.13559803  1
  O  O106  1  0.30891193  0.99150178  0.63559803  1
  O  O107  1  0.80891193  0.49150178  0.86440197  1
  O  O108  1  0.84667963  0.14300795  0.46981980  1
  O  O109  1  0.34667963  0.64300795  0.03018020  1
  O  O110  1  0.15332037  0.85699205  0.53018020  1
  O  O111  1  0.65332037  0.35699205  0.96981980  1
  O  O112  1  0.83612072  0.86788534  0.47377065  1
  O  O113  1  0.33612072  0.36788534  0.02622935  1
  O  O114  1  0.16387928  0.13211466  0.52622935  1
  O  O115  1  0.66387928  0.63211466  0.97377065  1
  O  O116  1  0.21051901  0.52088745  0.29956706  1
  O  O117  1  0.71051901  0.02088745  0.20043294  1
  O  O118  1  0.78948099  0.47911255  0.70043294  1
  O  O119  1  0.28948099  0.97911255  0.79956706  1
  O  O120  1  0.28459516  0.50640263  0.45793641  1
  O  O121  1  0.78459516  0.00640263  0.04206359  1
  O  O122  1  0.71540484  0.49359737  0.54206359  1
  O  O123  1  0.21540484  0.99359737  0.95793641  1
  O  O124  1  0.06963442  0.35657005  0.39917430  1
  O  O125  1  0.56963442  0.85657005  0.10082570  1
  O  O126  1  0.93036558  0.64342995  0.60082570  1
  O  O127  1  0.43036558  0.14342995  0.89917430  1
  O  O128  1  0.04016368  0.62852094  0.41163370  1
  O  O129  1  0.54016368  0.12852094  0.08836630  1
  O  O130  1  0.95983632  0.37147906  0.58836630  1
  O  O131  1  0.45983632  0.87147906  0.91163370  1
