# generated using pymatgen
data_H13C2Cl2O8F
_symmetry_space_group_name_H-M   'P 1'
_cell_length_a   8.55469751
_cell_length_b   9.32481345
_cell_length_c   8.92504254
_cell_angle_alpha   89.76006381
_cell_angle_beta   111.14749084
_cell_angle_gamma   115.68681771
_symmetry_Int_Tables_number   1
_chemical_formula_structural   H13C2Cl2O8F
_chemical_formula_sum   'H26 C4 Cl4 O16 F2'
_cell_volume   588.50082056
_cell_formula_units_Z   2
loop_
 _symmetry_equiv_pos_site_id
 _symmetry_equiv_pos_as_xyz
  1  'x, y, z'
loop_
 _atom_site_type_symbol
 _atom_site_label
 _atom_site_symmetry_multiplicity
 _atom_site_fract_x
 _atom_site_fract_y
 _atom_site_fract_z
 _atom_site_occupancy
  H  H0  1  0.14671813  0.73344389  0.48344506  1
  H  H1  1  0.85328187  0.26655611  0.51655494  1
  H  H2  1  0.36692226  0.70506676  0.56048422  1
  H  H3  1  0.63307774  0.29493324  0.43951578  1
  H  H4  1  0.23681827  0.64141659  0.66132170  1
  H  H5  1  0.76318173  0.35858341  0.33867830  1
  H  H6  1  0.98149260  0.80650603  0.47715232  1
  H  H7  1  0.01850740  0.19349397  0.52284768  1
  H  H8  1  0.99510764  0.76555522  0.30083558  1
  H  H9  1  0.00489236  0.23444478  0.69916442  1
  H  H10  1  0.17920928  0.92919327  0.95615405  1
  H  H11  1  0.82079072  0.07080673  0.04384595  1
  H  H12  1  0.00330420  0.81036990  0.79935894  1
  H  H13  1  0.99669580  0.18963010  0.20064106  1
  H  H14  1  0.21801995  0.53650037  0.88077445  1
  H  H15  1  0.78198005  0.46349963  0.11922555  1
  H  H16  1  0.20313492  0.70207733  0.88071681  1
  H  H17  1  0.79686508  0.29792267  0.11928319  1
  H  H18  1  0.55651759  0.79255716  0.94402255  1
  H  H19  1  0.44348241  0.20744284  0.05597745  1
  H  H20  1  0.67628194  0.83136084  0.83819589  1
  H  H21  1  0.32371806  0.16863916  0.16180411  1
  H  H22  1  0.80827116  0.74609398  0.05988223  1
  H  H23  1  0.19172884  0.25390602  0.94011777  1
  H  H24  1  0.97781777  0.73059572  0.04926969  1
  H  H25  1  0.02218223  0.26940428  0.95073031  1
  C  C26  1  0.60058828  0.78095698  0.35822436  1
  C  C27  1  0.39941172  0.21904302  0.64177564  1
  C  C28  1  0.70455913  0.79500462  0.54698743  1
  C  C29  1  0.29544087  0.20499538  0.45301257  1
  Cl  Cl30  1  0.45640794  0.57170248  0.27175790  1
  Cl  Cl31  1  0.54359206  0.42829752  0.72824210  1
  Cl  Cl32  1  0.46513925  0.88633968  0.31123536  1
  Cl  Cl33  1  0.53486075  0.11366032  0.68876464  1
  O  O34  1  0.86858224  0.80840005  0.59442439  1
  O  O35  1  0.13141776  0.19159995  0.40557561  1
  O  O36  1  0.61103059  0.78640512  0.63116960  1
  O  O37  1  0.38896941  0.21359488  0.36883040  1
  O  O38  1  0.23204892  0.65152746  0.54695219  1
  O  O39  1  0.76795108  0.34847254  0.45304781  1
  O  O40  1  0.06766753  0.80648770  0.42406928  1
  O  O41  1  0.93233247  0.19351230  0.57593072  1
  O  O42  1  0.09253725  0.81273066  0.90975480  1
  O  O43  1  0.90746275  0.18726934  0.09024520  1
  O  O44  1  0.26923653  0.64602773  0.85442522  1
  O  O45  1  0.73076347  0.35397227  0.14557478  1
  O  O46  1  0.68792092  0.85031975  0.95280036  1
  O  O47  1  0.31207908  0.14968025  0.04719964  1
  O  O48  1  0.89356097  0.69629497  0.10979243  1
  O  O49  1  0.10643903  0.30370503  0.89020757  1
  F  F50  1  0.73001434  0.84375609  0.28789327  1
  F  F51  1  0.26998566  0.15624391  0.71210673  1
