# generated using pymatgen
data_Ca6Si3O13
_symmetry_space_group_name_H-M   'P 1'
_cell_length_a   6.87858623
_cell_length_b   7.04384082
_cell_length_c   12.95012205
_cell_angle_alpha   91.00178144
_cell_angle_beta   98.09118582
_cell_angle_gamma   98.01924138
_symmetry_Int_Tables_number   1
_chemical_formula_structural   Ca6Si3O13
_chemical_formula_sum   'Ca12 Si6 O26'
_cell_volume   614.69318028
_cell_formula_units_Z   2
loop_
 _symmetry_equiv_pos_site_id
 _symmetry_equiv_pos_as_xyz
  1  'x, y, z'
loop_
 _atom_site_type_symbol
 _atom_site_label
 _atom_site_symmetry_multiplicity
 _atom_site_fract_x
 _atom_site_fract_y
 _atom_site_fract_z
 _atom_site_occupancy
  Ca  Ca0  1  0.91055254  0.81490140  0.89039491  1
  Ca  Ca1  1  0.08944746  0.18509860  0.10960509  1
  Ca  Ca2  1  0.81355972  0.80364169  0.51185665  1
  Ca  Ca3  1  0.18644028  0.19635831  0.48814335  1
  Ca  Ca4  1  0.68639689  0.80698037  0.12412953  1
  Ca  Ca5  1  0.31360311  0.19301963  0.87587047  1
  Ca  Ca6  1  0.44944181  0.96517621  0.68024052  1
  Ca  Ca7  1  0.55055819  0.03482379  0.31975948  1
  Ca  Ca8  1  0.10652178  0.53087300  0.71044445  1
  Ca  Ca9  1  0.89347822  0.46912700  0.28955555  1
  Ca  Ca10  1  0.40818999  0.53191318  0.29484564  1
  Ca  Ca11  1  0.59181001  0.46808682  0.70515436  1
  Si  Si12  1  0.38586065  0.71437484  0.90222007  1
  Si  Si13  1  0.61413935  0.28562516  0.09777993  1
  Si  Si14  1  0.18883934  0.71316749  0.11420298  1
  Si  Si15  1  0.81116066  0.28683251  0.88579702  1
  Si  Si16  1  0.28709180  0.69764364  0.49081074  1
  Si  Si17  1  0.71290820  0.30235636  0.50918926  1
  O  O18  1  0.38743103  0.51419189  0.83527432  1
  O  O19  1  0.61256897  0.48580811  0.16472568  1
  O  O20  1  0.60819491  0.81584502  0.94657609  1
  O  O21  1  0.39180509  0.18415498  0.05342391  1
  O  O22  1  0.38409763  0.81461327  0.19421439  1
  O  O23  1  0.61590237  0.18538673  0.80578561  1
  O  O24  1  0.25099479  0.84670369  0.82314113  1
  O  O25  1  0.74900521  0.15329631  0.17685887  1
  O  O26  1  0.01234600  0.84680884  0.08694751  1
  O  O27  1  0.98765400  0.15319116  0.91305249  1
  O  O28  1  0.75330914  0.82509229  0.69661864  1
  O  O29  1  0.24669086  0.17490771  0.30338136  1
  O  O30  1  0.15486594  0.86739377  0.51296843  1
  O  O31  1  0.84513406  0.13260623  0.48703157  1
  O  O32  1  0.78911011  0.78029010  0.31682146  1
  O  O33  1  0.21088989  0.21970990  0.68317854  1
  O  O34  1  0.47838884  0.78365346  0.43362487  1
  O  O35  1  0.52161116  0.21634654  0.56637513  1
  O  O36  1  0.25788770  0.66156117  0.00035484  1
  O  O37  1  0.74211230  0.33843883  0.99964516  1
  O  O38  1  0.36391741  0.63134627  0.61032176  1
  O  O39  1  0.63608259  0.36865373  0.38967824  1
  O  O40  1  0.16798702  0.51156317  0.41829314  1
  O  O41  1  0.83201298  0.48843683  0.58170686  1
  O  O42  1  0.88472009  0.48932349  0.83160356  1
  O  O43  1  0.11527991  0.51067651  0.16839644  1
