# generated using pymatgen
data_Fe2O3
_symmetry_space_group_name_H-M   'P 1'
_cell_length_a   5.14257520
_cell_length_b   5.38325856
_cell_length_c   14.90158199
_cell_angle_alpha   90.39095785
_cell_angle_beta   90.01411824
_cell_angle_gamma   89.83420415
_symmetry_Int_Tables_number   1
_chemical_formula_structural   Fe2O3
_chemical_formula_sum   'Fe16 O24'
_cell_volume   412.52125239
_cell_formula_units_Z   8
loop_
 _symmetry_equiv_pos_site_id
 _symmetry_equiv_pos_as_xyz
  1  'x, y, z'
loop_
 _atom_site_type_symbol
 _atom_site_label
 _atom_site_symmetry_multiplicity
 _atom_site_fract_x
 _atom_site_fract_y
 _atom_site_fract_z
 _atom_site_occupancy
  Fe  Fe0  1  0.00037514  0.17718277  0.07630993  1
  Fe  Fe1  1  0.99788555  0.73950802  0.17905239  1
  Fe  Fe2  1  0.00334094  0.31637810  0.57202827  1
  Fe  Fe3  1  -0.00289999  0.76298904  0.67990177  1
  Fe  Fe4  1  0.50027048  0.23963082  0.18176427  1
  Fe  Fe5  1  0.50248650  0.25899154  0.68079153  1
  Fe  Fe6  1  0.49866386  0.67659195  0.07490072  1
  Fe  Fe7  1  0.49770369  0.81465186  0.57255228  1
  Fe  Fe8  1  0.50318978  0.18567131  0.42640005  1
  Fe  Fe9  1  0.50271470  0.31563698  0.92983794  1
  Fe  Fe10  1  0.50012130  0.74426212  0.31900986  1
  Fe  Fe11  1  0.49857706  0.75565833  0.82125950  1
  Fe  Fe12  1  -0.00093805  0.68736489  0.42523304  1
  Fe  Fe13  1  0.99806813  0.24901480  0.32433930  1
  Fe  Fe14  1  0.00379788  0.26123566  0.82111373  1
  Fe  Fe15  1  -0.00150512  0.81892399  0.92853121  1
  O  O16  1  0.13677771  0.11811414  0.20569780  1
  O  O17  1  0.14214735  0.38990600  0.70280447  1
  O  O18  1  0.14690310  0.84522781  0.05202786  1
  O  O19  1  0.15347312  0.66579039  0.54883478  1
  O  O20  1  0.19179837  0.96450387  0.37268877  1
  O  O21  1  0.19772606  0.54156932  0.87733766  1
  O  O22  1  0.29786612  0.45534163  0.37152277  1
  O  O23  1  0.29775913  0.04063053  0.87664941  1
  O  O24  1  0.34651237  0.16696094  0.54932826  1
  O  O25  1  0.34763625  0.34441899  0.05189004  1
  O  O26  1  0.36459409  0.61618462  0.20095584  1
  O  O27  1  0.36024939  0.88956897  0.70271363  1
  O  O28  1  0.65379058  0.10310489  0.29731232  1
  O  O29  1  0.64247522  0.38977075  0.79719006  1
  O  O30  1  0.64722594  0.82943414  0.44791113  1
  O  O31  1  0.65193322  0.66903907  0.95050464  1
  O  O32  1  0.70171680  0.53829396  0.62184981  1
  O  O33  1  0.69409234  0.95429242  0.12371767  1
  O  O34  1  0.80566825  0.45357077  0.12195502  1
  O  O35  1  0.80395760  0.04186200  0.62236167  1
  O  O36  1  0.85328516  0.32984962  0.44689805  1
  O  O37  1  0.84661303  0.16727719  0.95157573  1
  O  O38  1  0.85700942  0.88802141  0.79701679  1
  O  O39  1  0.85693753  0.59357438  0.29623004  1
