# generated using pymatgen
data_CdH5N2F3
_symmetry_space_group_name_H-M   'P 1'
_cell_length_a   4.48153699
_cell_length_b   6.98107341
_cell_length_c   14.41158630
_cell_angle_alpha   90.00000000
_cell_angle_beta   90.00000000
_cell_angle_gamma   90.00000000
_symmetry_Int_Tables_number   1
_chemical_formula_structural   CdH5N2F3
_chemical_formula_sum   'Cd4 H20 N8 F12'
_cell_volume   450.88000579
_cell_formula_units_Z   4
loop_
 _symmetry_equiv_pos_site_id
 _symmetry_equiv_pos_as_xyz
  1  'x, y, z'
loop_
 _atom_site_type_symbol
 _atom_site_label
 _atom_site_symmetry_multiplicity
 _atom_site_fract_x
 _atom_site_fract_y
 _atom_site_fract_z
 _atom_site_occupancy
  Cd  Cd0  1  0.75000000  0.18014890  0.04223699  1
  Cd  Cd1  1  0.75000000  0.31985110  0.54223699  1
  Cd  Cd2  1  0.25000000  0.81985110  0.95776301  1
  Cd  Cd3  1  0.25000000  0.68014890  0.45776301  1
  H  H4  1  0.56060072  0.41770075  0.89167860  1
  H  H5  1  0.93939928  0.08229925  0.39167860  1
  H  H6  1  0.06060072  0.58229925  0.10832140  1
  H  H7  1  0.43939928  0.91770075  0.60832140  1
  H  H8  1  0.43939928  0.58229925  0.10832140  1
  H  H9  1  0.06060072  0.91770075  0.60832140  1
  H  H10  1  0.93939928  0.41770075  0.89167860  1
  H  H11  1  0.56060072  0.08229925  0.39167860  1
  H  H12  1  0.55852475  0.12056627  0.81734700  1
  H  H13  1  0.94147525  0.37943373  0.31734700  1
  H  H14  1  0.05852475  0.87943373  0.18265300  1
  H  H15  1  0.44147525  0.62056627  0.68265300  1
  H  H16  1  0.44147525  0.87943373  0.18265300  1
  H  H17  1  0.05852475  0.62056627  0.68265300  1
  H  H18  1  0.94147525  0.12056627  0.81734700  1
  H  H19  1  0.55852475  0.37943373  0.31734700  1
  H  H20  1  0.75000000  0.29350587  0.75633090  1
  H  H21  1  0.75000000  0.20649413  0.25633090  1
  H  H22  1  0.25000000  0.70649413  0.24366910  1
  H  H23  1  0.25000000  0.79350587  0.74366910  1
  N  N24  1  0.75000000  0.33073694  0.89767433  1
  N  N25  1  0.75000000  0.16926306  0.39767433  1
  N  N26  1  0.25000000  0.66926306  0.10232567  1
  N  N27  1  0.25000000  0.83073694  0.60232567  1
  N  N28  1  0.75000000  0.20872825  0.81621292  1
  N  N29  1  0.75000000  0.29127175  0.31621292  1
  N  N30  1  0.25000000  0.79127175  0.18378708  1
  N  N31  1  0.25000000  0.70872825  0.68378708  1
  F  F32  1  0.25000000  0.11573880  0.03622788  1
  F  F33  1  0.25000000  0.38426120  0.53622788  1
  F  F34  1  0.75000000  0.88426120  0.96377212  1
  F  F35  1  0.75000000  0.61573880  0.46377212  1
  F  F36  1  0.75000000  0.01237594  0.17878685  1
  F  F37  1  0.75000000  0.48762406  0.67878685  1
  F  F38  1  0.25000000  0.98762406  0.82121315  1
  F  F39  1  0.25000000  0.51237594  0.32121315  1
  F  F40  1  0.75000000  0.45147866  0.12208640  1
  F  F41  1  0.75000000  0.04852134  0.62208640  1
  F  F42  1  0.25000000  0.54852134  0.87791360  1
  F  F43  1  0.25000000  0.95147866  0.37791360  1
