# generated using pymatgen
data_K3HoSi3O10
_symmetry_space_group_name_H-M   'P 1'
_cell_length_a   5.94599628
_cell_length_b   13.25409994
_cell_length_c   13.59456573
_cell_angle_alpha   90.00000000
_cell_angle_beta   90.00000000
_cell_angle_gamma   90.00000000
_symmetry_Int_Tables_number   1
_chemical_formula_structural   K3HoSi3O10
_chemical_formula_sum   'K12 Ho4 Si12 O40'
_cell_volume   1071.37180510
_cell_formula_units_Z   4
loop_
 _symmetry_equiv_pos_site_id
 _symmetry_equiv_pos_as_xyz
  1  'x, y, z'
loop_
 _atom_site_type_symbol
 _atom_site_label
 _atom_site_symmetry_multiplicity
 _atom_site_fract_x
 _atom_site_fract_y
 _atom_site_fract_z
 _atom_site_occupancy
  K  K0  1  0.92298553  0.37218306  0.75000000  1
  K  K1  1  0.57701447  0.87218306  0.75000000  1
  K  K2  1  0.07701447  0.62781694  0.25000000  1
  K  K3  1  0.42298553  0.12781694  0.25000000  1
  K  K4  1  0.91360959  0.86272517  0.51568053  1
  K  K5  1  0.58639041  0.36272517  0.98431947  1
  K  K6  1  0.08639041  0.13727483  0.01568053  1
  K  K7  1  0.41360959  0.63727483  0.48431947  1
  K  K8  1  0.08639041  0.13727483  0.48431947  1
  K  K9  1  0.41360959  0.63727483  0.01568053  1
  K  K10  1  0.91360959  0.86272517  0.98431947  1
  K  K11  1  0.58639041  0.36272517  0.51568053  1
  Ho  Ho12  1  0.08556001  0.03916218  0.75000000  1
  Ho  Ho13  1  0.41443999  0.53916218  0.75000000  1
  Ho  Ho14  1  0.91443999  0.96083782  0.25000000  1
  Ho  Ho15  1  0.58556001  0.46083782  0.25000000  1
  Si  Si16  1  0.58930300  0.09669018  0.60128954  1
  Si  Si17  1  0.91069700  0.59669018  0.89871046  1
  Si  Si18  1  0.41069700  0.90330982  0.10128954  1
  Si  Si19  1  0.08930300  0.40330982  0.39871046  1
  Si  Si20  1  0.41069700  0.90330982  0.39871046  1
  Si  Si21  1  0.08930300  0.40330982  0.10128954  1
  Si  Si22  1  0.58930300  0.09669018  0.89871046  1
  Si  Si23  1  0.91069700  0.59669018  0.60128954  1
  Si  Si24  1  0.41518915  0.25258503  0.75000000  1
  Si  Si25  1  0.08481085  0.75258503  0.75000000  1
  Si  Si26  1  0.58481085  0.74741497  0.25000000  1
  Si  Si27  1  0.91518915  0.24741497  0.25000000  1
  O  O28  1  0.58422675  0.13310205  0.48387761  1
  O  O29  1  0.91577325  0.63310205  0.01612239  1
  O  O30  1  0.41577325  0.86689795  0.98387761  1
  O  O31  1  0.08422675  0.36689795  0.51612239  1
  O  O32  1  0.41577325  0.86689795  0.51612239  1
  O  O33  1  0.08422675  0.36689795  0.98387761  1
  O  O34  1  0.58422675  0.13310205  0.01612239  1
  O  O35  1  0.91577325  0.63310205  0.48387761  1
  O  O36  1  0.82455995  0.04421996  0.63132279  1
  O  O37  1  0.67544005  0.54421996  0.86867721  1
  O  O38  1  0.17544005  0.95578004  0.13132279  1
  O  O39  1  0.32455995  0.45578004  0.36867721  1
  O  O40  1  0.17544005  0.95578004  0.36867721  1
  O  O41  1  0.32455995  0.45578004  0.13132279  1
  O  O42  1  0.82455995  0.04421996  0.86867721  1
  O  O43  1  0.67544005  0.54421996  0.63132279  1
  O  O44  1  0.36476318  0.03196455  0.63181792  1
  O  O45  1  0.13523682  0.53196455  0.86818208  1
  O  O46  1  0.63523682  0.96803545  0.13181792  1
  O  O47  1  0.86476318  0.46803545  0.36818208  1
  O  O48  1  0.63523682  0.96803545  0.36818208  1
  O  O49  1  0.86476318  0.46803545  0.13181792  1
  O  O50  1  0.36476318  0.03196455  0.86818208  1
  O  O51  1  0.13523682  0.53196455  0.63181792  1
  O  O52  1  0.56797347  0.21104180  0.65383087  1
  O  O53  1  0.93202653  0.71104180  0.84616913  1
  O  O54  1  0.43202653  0.78895820  0.15383087  1
  O  O55  1  0.06797347  0.28895820  0.34616913  1
  O  O56  1  0.43202653  0.78895820  0.34616913  1
  O  O57  1  0.06797347  0.28895820  0.15383087  1
  O  O58  1  0.56797347  0.21104180  0.84616913  1
  O  O59  1  0.93202653  0.71104180  0.65383087  1
  O  O60  1  0.16806120  0.20344515  0.75000000  1
  O  O61  1  0.33193880  0.70344515  0.75000000  1
  O  O62  1  0.83193880  0.79655485  0.25000000  1
  O  O63  1  0.66806120  0.29655485  0.25000000  1
  O  O64  1  0.43262515  0.37306195  0.75000000  1
  O  O65  1  0.06737485  0.87306195  0.75000000  1
  O  O66  1  0.56737485  0.62693805  0.25000000  1
  O  O67  1  0.93262515  0.12693805  0.25000000  1
