# generated using pymatgen
data_CdRe2H8C2S2(NO2)4
_symmetry_space_group_name_H-M   'P 1'
_cell_length_a   6.16929756
_cell_length_b   10.89403011
_cell_length_c   11.83427783
_cell_angle_alpha   90.00000000
_cell_angle_beta   90.00000000
_cell_angle_gamma   93.92601223
_symmetry_Int_Tables_number   1
_chemical_formula_structural   CdRe2H8C2S2(NO2)4
_chemical_formula_sum   'Cd2 Re4 H16 C4 S4 N8 O16'
_cell_volume   793.49773611
_cell_formula_units_Z   2
loop_
 _symmetry_equiv_pos_site_id
 _symmetry_equiv_pos_as_xyz
  1  'x, y, z'
loop_
 _atom_site_type_symbol
 _atom_site_label
 _atom_site_symmetry_multiplicity
 _atom_site_fract_x
 _atom_site_fract_y
 _atom_site_fract_z
 _atom_site_occupancy
  Cd  Cd0  1  -0.00000000  0.50000000  0.50000000  1
  Cd  Cd1  1  -0.00000000  0.00000000  -0.00000000  1
  Re  Re2  1  0.51459785  0.55821618  0.72076722  1
  Re  Re3  1  0.48540215  0.94178382  0.22076722  1
  Re  Re4  1  0.48540215  0.44178382  0.27923278  1
  Re  Re5  1  0.51459785  0.05821618  0.77923278  1
  H  H6  1  0.37425667  0.15052215  0.45837325  1
  H  H7  1  0.62574333  0.34947785  0.95837325  1
  H  H8  1  0.62574333  0.84947785  0.54162675  1
  H  H9  1  0.37425667  0.65052215  0.04162675  1
  H  H10  1  0.30870331  0.24055742  0.57515433  1
  H  H11  1  0.69129669  0.25944258  0.07515433  1
  H  H12  1  0.69129669  0.75944258  0.42484567  1
  H  H13  1  0.30870331  0.74055742  0.92484567  1
  H  H14  1  0.10234422  0.09487483  0.32468994  1
  H  H15  1  0.89765578  0.40512517  0.82468994  1
  H  H16  1  0.89765578  0.90512517  0.67531006  1
  H  H17  1  0.10234422  0.59487483  0.17531006  1
  H  H18  1  0.84213142  0.14566529  0.34333742  1
  H  H19  1  0.15786858  0.35433471  0.84333742  1
  H  H20  1  0.15786858  0.85433471  0.65666258  1
  H  H21  1  0.84213142  0.64566529  0.15666258  1
  C  C22  1  0.06000483  0.20194161  0.46533723  1
  C  C23  1  0.93999517  0.29805839  0.96533723  1
  C  C24  1  0.93999517  0.79805839  0.53466277  1
  C  C25  1  0.06000483  0.70194161  0.03466277  1
  S  S26  1  0.87164434  0.28025810  0.54118259  1
  S  S27  1  0.12835566  0.21974190  0.04118259  1
  S  S28  1  0.12835566  0.71974190  0.45881741  1
  S  S29  1  0.87164434  0.78025810  0.95881741  1
  N  N30  1  0.26357542  0.19864011  0.50113671  1
  N  N31  1  0.73642458  0.30135989  0.00113671  1
  N  N32  1  0.73642458  0.80135989  0.49886329  1
  N  N33  1  0.26357542  0.69864011  0.99886329  1
  N  N34  1  0.99666536  0.14106742  0.37178563  1
  N  N35  1  0.00333464  0.35893258  0.87178563  1
  N  N36  1  0.00333464  0.85893258  0.62821437  1
  N  N37  1  0.99666536  0.64106742  0.12821437  1
  O  O38  1  0.78111906  0.55061585  0.66781957  1
  O  O39  1  0.21888094  0.94938415  0.16781957  1
  O  O40  1  0.21888094  0.44938415  0.33218043  1
  O  O41  1  0.78111906  0.05061585  0.83218043  1
  O  O42  1  0.32621234  0.48280737  0.62797745  1
  O  O43  1  0.67378766  0.01719263  0.12797745  1
  O  O44  1  0.67378766  0.51719263  0.37202255  1
  O  O45  1  0.32621234  0.98280737  0.87202255  1
  O  O46  1  0.45347299  0.71120105  0.73731738  1
  O  O47  1  0.54652701  0.78879895  0.23731738  1
  O  O48  1  0.54652701  0.28879895  0.26268262  1
  O  O49  1  0.45347299  0.21120105  0.76268262  1
  O  O50  1  0.49802514  0.48493817  0.85263160  1
  O  O51  1  0.50197486  0.01506183  0.35263160  1
  O  O52  1  0.50197486  0.51506183  0.14736840  1
  O  O53  1  0.49802514  0.98493817  0.64736840  1
