# generated using pymatgen
data_VBi2O5
_symmetry_space_group_name_H-M   'P 1'
_cell_length_a   5.45585936
_cell_length_b   15.60310231
_cell_length_c   16.54608736
_cell_angle_alpha   90.00000000
_cell_angle_beta   90.00000000
_cell_angle_gamma   90.00000000
_symmetry_Int_Tables_number   1
_chemical_formula_structural   VBi2O5
_chemical_formula_sum   'V12 Bi24 O60'
_cell_volume   1408.54081449
_cell_formula_units_Z   12
loop_
 _symmetry_equiv_pos_site_id
 _symmetry_equiv_pos_as_xyz
  1  'x, y, z'
loop_
 _atom_site_type_symbol
 _atom_site_label
 _atom_site_symmetry_multiplicity
 _atom_site_fract_x
 _atom_site_fract_y
 _atom_site_fract_z
 _atom_site_occupancy
  V  V0  1  0.75906619  0.98487183  0.75000000  1
  V  V1  1  0.25906619  0.51512817  0.75000000  1
  V  V2  1  0.24093381  0.01512817  0.25000000  1
  V  V3  1  0.74093381  0.48487183  0.25000000  1
  V  V4  1  0.24825582  0.00056209  0.58208688  1
  V  V5  1  0.74825582  0.49943791  0.91791312  1
  V  V6  1  0.75174418  0.99943791  0.08208688  1
  V  V7  1  0.25174418  0.50056209  0.41791312  1
  V  V8  1  0.75174418  0.99943791  0.41791312  1
  V  V9  1  0.25174418  0.50056209  0.08208688  1
  V  V10  1  0.24825582  0.00056209  0.91791312  1
  V  V11  1  0.74825582  0.49943791  0.58208688  1
  Bi  Bi12  1  0.25456893  0.85987257  0.75000000  1
  Bi  Bi13  1  0.75456893  0.64012743  0.75000000  1
  Bi  Bi14  1  0.74543107  0.14012743  0.25000000  1
  Bi  Bi15  1  0.24543107  0.35987257  0.25000000  1
  Bi  Bi16  1  0.25318656  0.16354420  0.75000000  1
  Bi  Bi17  1  0.75318656  0.33645580  0.75000000  1
  Bi  Bi18  1  0.74681344  0.83645580  0.25000000  1
  Bi  Bi19  1  0.24681344  0.66354420  0.25000000  1
  Bi  Bi20  1  0.76358195  0.17257953  0.58951855  1
  Bi  Bi21  1  0.26358195  0.32742047  0.91048145  1
  Bi  Bi22  1  0.23641805  0.82742047  0.08951855  1
  Bi  Bi23  1  0.73641805  0.67257953  0.41048145  1
  Bi  Bi24  1  0.23641805  0.82742047  0.41048145  1
  Bi  Bi25  1  0.73641805  0.67257953  0.08951855  1
  Bi  Bi26  1  0.76358195  0.17257953  0.91048145  1
  Bi  Bi27  1  0.26358195  0.32742047  0.58951855  1
  Bi  Bi28  1  0.73545488  0.83193375  0.58495165  1
  Bi  Bi29  1  0.23545488  0.66806625  0.91504835  1
  Bi  Bi30  1  0.26454512  0.16806625  0.08495165  1
  Bi  Bi31  1  0.76454512  0.33193375  0.41504835  1
  Bi  Bi32  1  0.26454512  0.16806625  0.41504835  1
  Bi  Bi33  1  0.76454512  0.33193375  0.08495165  1
  Bi  Bi34  1  0.73545488  0.83193375  0.91504835  1
  Bi  Bi35  1  0.23545488  0.66806625  0.58495165  1
  O  O36  1  0.78064333  0.09519222  0.75000000  1
  O  O37  1  0.28064333  0.40480778  0.75000000  1
  O  O38  1  0.21935667  0.90480778  0.25000000  1
  O  O39  1  0.71935667  0.59519222  0.25000000  1
  O  O40  1  0.23799530  0.10470494  0.61376669  1
  O  O41  1  0.73799530  0.39529506  0.88623331  1
  O  O42  1  0.76200470  0.89529506  0.11376669  1
  O  O43  1  0.26200470  0.60470494  0.38623331  1
  O  O44  1  0.76200470  0.89529506  0.38623331  1
  O  O45  1  0.26200470  0.60470494  0.11376669  1
  O  O46  1  0.23799530  0.10470494  0.88623331  1
  O  O47  1  0.73799530  0.39529506  0.61376669  1
  O  O48  1  0.50300543  0.94787215  0.66920278  1
  O  O49  1  0.00300543  0.55212785  0.83079722  1
  O  O50  1  0.49699457  0.05212785  0.16920278  1
  O  O51  1  0.99699457  0.44787215  0.33079722  1
  O  O52  1  0.49699457  0.05212785  0.33079722  1
  O  O53  1  0.99699457  0.44787215  0.16920278  1
  O  O54  1  0.50300543  0.94787215  0.83079722  1
  O  O55  1  0.00300543  0.55212785  0.66920278  1
  O  O56  1  0.00013219  0.94502632  0.66547199  1
  O  O57  1  0.50013219  0.55497368  0.83452801  1
  O  O58  1  0.99986781  0.05497368  0.16547199  1
  O  O59  1  0.49986781  0.44502632  0.33452801  1
  O  O60  1  0.99986781  0.05497368  0.33452801  1
  O  O61  1  0.49986781  0.44502632  0.16547199  1
  O  O62  1  0.00013219  0.94502632  0.83452801  1
  O  O63  1  0.50013219  0.55497368  0.66547199  1
  O  O64  1  0.00000000  -0.00000000  0.50000000  1
  O  O65  1  0.50000000  0.50000000  0.00000000  1
  O  O66  1  0.00000000  -0.00000000  0.00000000  1
  O  O67  1  0.50000000  0.50000000  0.50000000  1
  O  O68  1  0.50000000  -0.00000000  0.50000000  1
  O  O69  1  0.00000000  0.50000000  0.00000000  1
  O  O70  1  0.50000000  -0.00000000  0.00000000  1
  O  O71  1  0.00000000  0.50000000  0.50000000  1
  O  O72  1  0.99884266  0.25194100  0.51051956  1
  O  O73  1  0.49884266  0.24805900  0.98948044  1
  O  O74  1  0.00115734  0.74805900  0.01051956  1
  O  O75  1  0.50115734  0.75194100  0.48948044  1
  O  O76  1  0.00115734  0.74805900  0.48948044  1
  O  O77  1  0.50115734  0.75194100  0.01051956  1
  O  O78  1  0.99884266  0.25194100  0.98948044  1
  O  O79  1  0.49884266  0.24805900  0.51051956  1
  O  O80  1  0.94345566  0.73426896  0.65221900  1
  O  O81  1  0.44345566  0.76573104  0.84778100  1
  O  O82  1  0.05654434  0.26573104  0.15221900  1
  O  O83  1  0.55654434  0.23426896  0.34778100  1
  O  O84  1  0.05654434  0.26573104  0.34778100  1
  O  O85  1  0.55654434  0.23426896  0.15221900  1
  O  O86  1  0.94345566  0.73426896  0.84778100  1
  O  O87  1  0.44345566  0.76573104  0.65221900  1
  O  O88  1  0.01059129  0.25083775  0.67153458  1
  O  O89  1  0.51059129  0.24916225  0.82846542  1
  O  O90  1  0.98940871  0.74916225  0.17153458  1
  O  O91  1  0.48940871  0.75083775  0.32846542  1
  O  O92  1  0.98940871  0.74916225  0.32846542  1
  O  O93  1  0.48940871  0.75083775  0.17153458  1
  O  O94  1  0.01059129  0.25083775  0.82846542  1
  O  O95  1  0.51059129  0.24916225  0.67153458  1
