# generated using pymatgen
data_GaP2H15C5(NO4)2
_symmetry_space_group_name_H-M   'P 1'
_cell_length_a   9.13282800
_cell_length_b   9.21404003
_cell_length_c   15.50183783
_cell_angle_alpha   90.00000000
_cell_angle_beta   90.00000000
_cell_angle_gamma   90.00000000
_symmetry_Int_Tables_number   1
_chemical_formula_structural   GaP2H15C5(NO4)2
_chemical_formula_sum   'Ga4 P8 H60 C20 N8 O32'
_cell_volume   1304.48341692
_cell_formula_units_Z   4
loop_
 _symmetry_equiv_pos_site_id
 _symmetry_equiv_pos_as_xyz
  1  'x, y, z'
loop_
 _atom_site_type_symbol
 _atom_site_label
 _atom_site_symmetry_multiplicity
 _atom_site_fract_x
 _atom_site_fract_y
 _atom_site_fract_z
 _atom_site_occupancy
  Ga  Ga0  1  0.50000000  0.74576107  0.00000000  1
  Ga  Ga1  1  -0.00000000  0.75423893  0.50000000  1
  Ga  Ga2  1  0.50000000  0.25423893  -0.00000000  1
  Ga  Ga3  1  -0.00000000  0.24576107  0.50000000  1
  P  P4  1  0.65421913  -0.00000000  0.08963230  1
  P  P5  1  0.34578087  0.00000000  0.91036770  1
  P  P6  1  0.84578087  0.50000000  0.58963230  1
  P  P7  1  0.15421913  0.50000000  0.41036770  1
  P  P8  1  0.65930928  0.50000000  0.89320932  1
  P  P9  1  0.34069072  0.50000000  0.10679068  1
  P  P10  1  0.84069072  0.00000000  0.39320932  1
  P  P11  1  0.15930928  0.00000000  0.60679068  1
  H  H12  1  0.79558631  -0.00000000  0.20542638  1
  H  H13  1  0.20441369  -0.00000000  0.79457362  1
  H  H14  1  0.70441369  0.50000000  0.70542638  1
  H  H15  1  0.29558631  0.50000000  0.29457362  1
  H  H16  1  0.33799490  0.59671990  0.62733710  1
  H  H17  1  0.66200510  0.59671990  0.37266290  1
  H  H18  1  0.16200510  0.90328010  0.12733710  1
  H  H19  1  0.83799490  0.90328010  0.87266290  1
  H  H20  1  0.66200510  0.40328010  0.37266290  1
  H  H21  1  0.33799490  0.40328010  0.62733710  1
  H  H22  1  0.83799490  0.09671990  0.87266290  1
  H  H23  1  0.16200510  0.09671990  0.12733710  1
  H  H24  1  0.11889572  0.50000000  0.68966951  1
  H  H25  1  0.88110428  0.50000000  0.31033049  1
  H  H26  1  0.38110428  -0.00000000  0.18966951  1
  H  H27  1  0.61889572  0.00000000  0.81033049  1
  H  H28  1  0.21465379  0.72862366  0.74126898  1
  H  H29  1  0.78534621  0.72862366  0.25873102  1
  H  H30  1  0.28534621  0.77137634  0.24126898  1
  H  H31  1  0.71465379  0.77137634  0.75873102  1
  H  H32  1  0.78534621  0.27137634  0.25873102  1
  H  H33  1  0.21465379  0.27137634  0.74126898  1
  H  H34  1  0.71465379  0.22862366  0.75873102  1
  H  H35  1  0.28534621  0.22862366  0.24126898  1
  H  H36  1  0.31485775  0.63235264  0.82333323  1
  H  H37  1  0.68514225  0.63235264  0.17666677  1
  H  H38  1  0.18514225  0.86764736  0.32333323  1
  H  H39  1  0.81485775  0.86764736  0.67666677  1
  H  H40  1  0.68514225  0.36764736  0.17666677  1
  H  H41  1  0.31485775  0.36764736  0.82333323  1
  H  H42  1  0.81485775  0.13235264  0.67666677  1
  H  H43  1  0.18514225  0.13235264  0.32333323  1
  H  H44  1  0.97977438  0.63857208  0.79650938  1
  H  H45  1  0.02022562  0.63857208  0.20349062  1
  H  H46  1  0.52022562  0.86142792  0.29650938  1
  H  H47  1  0.47977438  0.86142792  0.70349062  1
  H  H48  1  0.02022562  0.36142792  0.20349062  1
  H  H49  1  0.97977438  0.36142792  0.79650938  1
  H  H50  1  0.47977438  0.13857208  0.70349062  1
  H  H51  1  0.52022562  0.13857208  0.29650938  1
  H  H52  1  0.08006790  0.72810697  0.88147110  1
  H  H53  1  0.91993210  0.72810697  0.11852890  1
  H  H54  1  0.41993210  0.77189303  0.38147110  1
  H  H55  1  0.58006790  0.77189303  0.61852890  1
  H  H56  1  0.91993210  0.27189303  0.11852890  1
  H  H57  1  0.08006790  0.27189303  0.88147110  1
  H  H58  1  0.58006790  0.22810697  0.61852890  1
  H  H59  1  0.41993210  0.22810697  0.38147110  1
  H  H60  1  0.13802064  0.50000000  0.94318332  1
  H  H61  1  0.86197936  0.50000000  0.05681668  1
  H  H62  1  0.36197936  -0.00000000  0.44318332  1
  H  H63  1  0.63802064  -0.00000000  0.55681668  1
  H  H64  1  0.95366335  0.50000000  0.91775136  1
  H  H65  1  0.04633665  0.50000000  0.08224864  1
  H  H66  1  0.54633665  -0.00000000  0.41775136  1
  H  H67  1  0.45366335  -0.00000000  0.58224864  1
  H  H68  1  0.44667256  0.50000000  0.70544933  1
  H  H69  1  0.55332744  0.50000000  0.29455067  1
  H  H70  1  0.05332744  -0.00000000  0.20544933  1
  H  H71  1  0.94667256  0.00000000  0.79455067  1
  C  C72  1  0.21513559  0.63282400  0.78348054  1
  C  C73  1  0.78486441  0.63282400  0.21651946  1
  C  C74  1  0.28486441  0.86717600  0.28348054  1
  C  C75  1  0.71513559  0.86717600  0.71651946  1
  C  C76  1  0.78486441  0.36717600  0.21651946  1
  C  C77  1  0.21513559  0.36717600  0.78348054  1
  C  C78  1  0.71513559  0.13282400  0.71651946  1
  C  C79  1  0.28486441  0.13282400  0.28348054  1
  C  C80  1  0.07708516  0.63428119  0.83800662  1
  C  C81  1  0.92291484  0.63428119  0.16199338  1
  C  C82  1  0.42291484  0.86571881  0.33800662  1
  C  C83  1  0.57708516  0.86571881  0.66199338  1
  C  C84  1  0.92291484  0.36571881  0.16199338  1
  C  C85  1  0.07708516  0.36571881  0.83800662  1
  C  C86  1  0.57708516  0.13428119  0.66199338  1
  C  C87  1  0.42291484  0.13428119  0.33800662  1
  C  C88  1  0.34502475  0.50000000  0.66819807  1
  C  C89  1  0.65497525  0.50000000  0.33180193  1
  C  C90  1  0.15497525  -0.00000000  0.16819807  1
  C  C91  1  0.84502475  0.00000000  0.83180193  1
  N  N92  1  0.21844316  0.50000000  0.72802121  1
  N  N93  1  0.78155684  0.50000000  0.27197879  1
  N  N94  1  0.28155684  0.00000000  0.22802121  1
  N  N95  1  0.71844316  -0.00000000  0.77197879  1
  N  N96  1  0.06229606  0.50000000  0.89113634  1
  N  N97  1  0.93770394  0.50000000  0.10886366  1
  N  N98  1  0.43770394  0.00000000  0.39113634  1
  N  N99  1  0.56229606  -0.00000000  0.60886366  1
  O  O100  1  0.52753101  -0.00000000  0.15192195  1
  O  O101  1  0.47246899  -0.00000000  0.84807805  1
  O  O102  1  0.97246899  0.50000000  0.65192195  1
  O  O103  1  0.02753101  0.50000000  0.34807805  1
  O  O104  1  0.80575971  0.00000000  0.13854424  1
  O  O105  1  0.19424029  0.00000000  0.86145576  1
  O  O106  1  0.69424029  0.50000000  0.63854424  1
  O  O107  1  0.30575971  0.50000000  0.36145576  1
  O  O108  1  0.65834935  0.86209558  0.03063763  1
  O  O109  1  0.34165065  0.86209558  0.96936237  1
  O  O110  1  0.84165065  0.63790442  0.53063763  1
  O  O111  1  0.15834935  0.63790442  0.46936237  1
  O  O112  1  0.34165065  0.13790442  0.96936237  1
  O  O113  1  0.65834935  0.13790442  0.03063763  1
  O  O114  1  0.15834935  0.36209558  0.46936237  1
  O  O115  1  0.84165065  0.36209558  0.53063763  1
  O  O116  1  0.78588165  0.50000000  0.95907891  1
  O  O117  1  0.21411835  0.50000000  0.04092109  1
  O  O118  1  0.71411835  -0.00000000  0.45907891  1
  O  O119  1  0.28588165  0.00000000  0.54092109  1
  O  O120  1  0.71427080  0.50000000  0.80088521  1
  O  O121  1  0.28572920  0.50000000  0.19911479  1
  O  O122  1  0.78572920  -0.00000000  0.30088521  1
  O  O123  1  0.21427080  -0.00000000  0.69911479  1
  O  O124  1  0.55705687  0.63733130  0.90601876  1
  O  O125  1  0.44294313  0.63733130  0.09398124  1
  O  O126  1  0.94294313  0.86266870  0.40601876  1
  O  O127  1  0.05705687  0.86266870  0.59398124  1
  O  O128  1  0.44294313  0.36266870  0.09398124  1
  O  O129  1  0.55705687  0.36266870  0.90601876  1
  O  O130  1  0.05705687  0.13733130  0.59398124  1
  O  O131  1  0.94294313  0.13733130  0.40601876  1
