# generated using pymatgen
data_ZnH7C3NO6
_symmetry_space_group_name_H-M   'P 1'
_cell_length_a   8.17358160
_cell_length_b   12.92813884
_cell_length_c   12.92813247
_cell_angle_alpha   120.00025333
_cell_angle_beta   90.00000000
_cell_angle_gamma   90.00000000
_symmetry_Int_Tables_number   1
_chemical_formula_structural   ZnH7C3NO6
_chemical_formula_sum   'Zn6 H42 C18 N6 O36'
_cell_volume   1183.07894852
_cell_formula_units_Z   6
loop_
 _symmetry_equiv_pos_site_id
 _symmetry_equiv_pos_as_xyz
  1  'x, y, z'
loop_
 _atom_site_type_symbol
 _atom_site_label
 _atom_site_symmetry_multiplicity
 _atom_site_fract_x
 _atom_site_fract_y
 _atom_site_fract_z
 _atom_site_occupancy
  Zn  Zn0  1  0.91311684  0.99727279  0.33224141  1
  Zn  Zn1  1  0.91311659  0.66776571  0.66503505  1
  Zn  Zn2  1  0.91311483  0.33496194  0.00272291  1
  Zn  Zn3  1  0.41311684  0.00272721  0.66775859  1
  Zn  Zn4  1  0.41311659  0.33223429  0.33496495  1
  Zn  Zn5  1  0.41311483  0.66503806  0.99727709  1
  H  H6  1  0.17633376  0.86846026  0.14530431  1
  H  H7  1  0.17633278  0.85469744  0.72315641  1
  H  H8  1  0.17633475  0.27684385  0.13154089  1
  H  H9  1  0.67633376  0.13153974  0.85469569  1
  H  H10  1  0.67633278  0.14530256  0.27684359  1
  H  H11  1  0.67633475  0.72315615  0.86845911  1
  H  H12  1  0.19199068  0.94528494  0.45536021  1
  H  H13  1  0.19199043  0.54464044  0.48992509  1
  H  H14  1  0.19199261  0.51007600  0.05471386  1
  H  H15  1  0.69199068  0.05471506  0.54463979  1
  H  H16  1  0.69199043  0.45535956  0.51007491  1
  H  H17  1  0.69199261  0.48992400  0.94528614  1
  H  H18  1  0.12657426  0.21293022  0.38625746  1
  H  H19  1  0.12657435  0.61374394  0.82667441  1
  H  H20  1  0.12657508  0.17332485  0.78706924  1
  H  H21  1  0.62657426  0.78706978  0.61374254  1
  H  H22  1  0.62657435  0.38625606  0.17332559  1
  H  H23  1  0.62657508  0.82667515  0.21293076  1
  H  H24  1  0.00618347  0.72704956  0.30675884  1
  H  H25  1  0.00619511  0.69321986  0.42029201  1
  H  H26  1  0.00623663  0.57968363  0.27292543  1
  H  H27  1  0.50618347  0.27295044  0.69324116  1
  H  H28  1  0.50619511  0.30678014  0.57970799  1
  H  H29  1  0.50623663  0.42031637  0.72707457  1
  H  H30  1  0.84077863  0.66661328  0.33330638  1
  H  H31  1  0.34077863  0.33338672  0.66669362  1
  H  H32  1  0.00737302  0.24593026  0.60776724  1
  H  H33  1  0.00742545  0.39225775  0.63816315  1
  H  H34  1  0.00741573  0.36185943  0.75409423  1
  H  H35  1  0.50737302  0.75406974  0.39223276  1
  H  H36  1  0.50742545  0.60774225  0.36183685  1
  H  H37  1  0.50741573  0.63814057  0.24590577  1
  H  H38  1  0.84188475  0.33338711  0.66669381  1
  H  H39  1  0.34188475  0.66661289  0.33330619  1
  H  H40  1  0.32595534  0.05876871  0.08749245  1
  H  H41  1  0.32595548  0.91250705  0.97127569  1
  H  H42  1  0.32595495  0.02872372  0.94123043  1
  H  H43  1  0.82595534  0.94123129  0.91250755  1
  H  H44  1  0.82595548  0.08749295  0.02872431  1
  H  H45  1  0.82595495  0.97127628  0.05876957  1
  H  H46  1  0.49130312  0.99999979  0.99999972  1
  H  H47  1  0.99130312  0.00000021  0.00000028  1
  C  C48  1  0.16821765  0.81138451  0.18631640  1
  C  C49  1  0.16821940  0.81368373  0.62506965  1
  C  C50  1  0.16822274  0.37492992  0.18861455  1
  C  C51  1  0.66821765  0.18861549  0.81368360  1
  C  C52  1  0.66821940  0.18631627  0.37493035  1
  C  C53  1  0.66822274  0.62507008  0.81138545  1
  C  C54  1  0.17462625  0.04213402  0.51610295  1
  C  C55  1  0.17462989  0.48389995  0.52603129  1
  C  C56  1  0.17462862  0.47396961  0.95786652  1
  C  C57  1  0.67462625  0.95786598  0.48389705  1
  C  C58  1  0.67462989  0.51610005  0.47396871  1
  C  C59  1  0.67462862  0.52603039  0.04213348  1
  C  C60  1  0.14877020  0.14903034  0.29074203  1
  C  C61  1  0.14877118  0.70925860  0.85828878  1
  C  C62  1  0.14877185  0.14171093  0.85096853  1
  C  C63  1  0.64877020  0.85096966  0.70925797  1
  C  C64  1  0.64877118  0.29074140  0.14171122  1
  C  C65  1  0.64877185  0.85828907  0.14903147  1
  N  N66  1  0.96591230  0.66664345  0.33332201  1
  N  N67  1  0.46591230  0.33335655  0.66667799  1
  N  N68  1  0.96720183  0.33335643  0.66667847  1
  N  N69  1  0.46720183  0.66664357  0.33332153  1
  N  N70  1  0.36573344  -0.00000005  0.00000012  1
  N  N71  1  0.86573344  0.00000005  -0.00000012  1
  O  O72  1  0.05918216  0.83852023  0.26671312  1
  O  O73  1  0.05918504  0.73328296  0.57180751  1
  O  O74  1  0.05918812  0.42819296  0.16147694  1
  O  O75  1  0.55918216  0.16147977  0.73328688  1
  O  O76  1  0.55918504  0.26671704  0.42819249  1
  O  O77  1  0.55918812  0.57180704  0.83852306  1
  O  O78  1  0.26538738  0.72439677  0.15251530  1
  O  O79  1  0.26539104  0.84748243  0.57188205  1
  O  O80  1  0.26539333  0.42811864  0.27560240  1
  O  O81  1  0.76538738  0.27560323  0.84748470  1
  O  O82  1  0.76539104  0.15251757  0.42811795  1
  O  O83  1  0.76539333  0.57188136  0.72439760  1
  O  O84  1  0.06050453  0.09349975  0.49122537  1
  O  O85  1  0.06050915  0.50877644  0.60227597  1
  O  O86  1  0.06050572  0.39772636  0.90649850  1
  O  O87  1  0.56050453  0.90650025  0.50877463  1
  O  O88  1  0.56050915  0.49122356  0.39772403  1
  O  O89  1  0.56050572  0.60227364  0.09350150  1
  O  O90  1  0.26700645  0.09602925  0.60621837  1
  O  O91  1  0.26701006  0.39378517  0.48981435  1
  O  O92  1  0.26701022  0.51018918  0.90397046  1
  O  O93  1  0.76700645  0.90397075  0.39378163  1
  O  O94  1  0.76701006  0.60621483  0.51018565  1
  O  O95  1  0.76701022  0.48981082  0.09602954  1
  O  O96  1  0.05896202  0.05747326  0.23735011  1
  O  O97  1  0.05896013  0.76265053  0.82012334  1
  O  O98  1  0.05896135  0.17987926  0.94252877  1
  O  O99  1  0.55896202  0.94252674  0.76264989  1
  O  O100  1  0.55896013  0.23734947  0.17987666  1
  O  O101  1  0.55896135  0.82012074  0.05747123  1
  O  O102  1  0.26569232  0.17261747  0.24006987  1
  O  O103  1  0.26569379  0.75993071  0.93254612  1
  O  O104  1  0.26569319  0.06745320  0.82738495  1
  O  O105  1  0.76569232  0.82738253  0.75993013  1
  O  O106  1  0.76569379  0.24006929  0.06745388  1
  O  O107  1  0.76569319  0.93254680  0.17261505  1
