# generated using pymatgen
data_Na3NiO2
_symmetry_space_group_name_H-M   'P 1'
_cell_length_a   5.54089023
_cell_length_b   5.54088620
_cell_length_c   12.18101115
_cell_angle_alpha   89.98217341
_cell_angle_beta   89.97645083
_cell_angle_gamma   89.90294929
_symmetry_Int_Tables_number   1
_chemical_formula_structural   Na3NiO2
_chemical_formula_sum   'Na12 Ni4 O8'
_cell_volume   373.97402417
_cell_formula_units_Z   4
loop_
 _symmetry_equiv_pos_site_id
 _symmetry_equiv_pos_as_xyz
  1  'x, y, z'
loop_
 _atom_site_type_symbol
 _atom_site_label
 _atom_site_symmetry_multiplicity
 _atom_site_fract_x
 _atom_site_fract_y
 _atom_site_fract_z
 _atom_site_occupancy
  Na  Na0  1  0.01999876  0.52184424  0.62608000  1
  Na  Na1  1  0.02180893  0.48001503  0.37618802  1
  Na  Na2  1  0.04953652  0.95046302  0.25001299  1
  Na  Na3  1  0.45040271  0.45041951  0.99985844  1
  Na  Na4  1  0.47816075  0.98000054  0.87389659  1
  Na  Na5  1  0.48002480  0.02186341  0.62398426  1
  Na  Na6  1  0.51998178  0.97819051  0.12383473  1
  Na  Na7  1  0.52185693  0.01993660  0.37409085  1
  Na  Na8  1  0.54957220  0.54958846  0.50014095  1
  Na  Na9  1  0.95043212  0.04957014  0.74998797  1
  Na  Na10  1  0.97813624  0.51997274  0.87599293  1
  Na  Na11  1  0.98006243  0.47814898  0.12593163  1
  Ni  Ni12  1  0.00419922  0.00419622  0.50001008  1
  Ni  Ni13  1  0.49579423  0.50420683  0.74999917  1
  Ni  Ni14  1  0.50422513  0.49577483  0.25000088  1
  Ni  Ni15  1  0.99580517  0.99580399  0.99999175  1
  O  O16  1  0.22116523  0.76649285  0.01002090  1
  O  O17  1  0.23351760  0.77882609  0.48998193  1
  O  O18  1  0.26673020  0.27916806  0.76000157  1
  O  O19  1  0.27923435  0.26679510  0.23999299  1
  O  O20  1  0.72083336  0.73327077  0.73999197  1
  O  O21  1  0.73320544  0.72076497  0.26001309  1
  O  O22  1  0.76649063  0.22116640  0.98992760  1
  O  O23  1  0.77882526  0.23352070  0.51006870  1
