# generated using pymatgen
data_ZrH24C8(NF3)2
_symmetry_space_group_name_H-M   'P 1'
_cell_length_a   8.47224634
_cell_length_b   8.47225159
_cell_length_c   8.64113646
_cell_angle_alpha   60.64453696
_cell_angle_beta   60.64318426
_cell_angle_gamma   60.00018544
_symmetry_Int_Tables_number   1
_chemical_formula_structural   ZrH24C8(NF3)2
_chemical_formula_sum   'Zr1 H24 C8 N2 F6'
_cell_volume   442.80506787
_cell_formula_units_Z   1
loop_
 _symmetry_equiv_pos_site_id
 _symmetry_equiv_pos_as_xyz
  1  'x, y, z'
loop_
 _atom_site_type_symbol
 _atom_site_label
 _atom_site_symmetry_multiplicity
 _atom_site_fract_x
 _atom_site_fract_y
 _atom_site_fract_z
 _atom_site_occupancy
  Zr  Zr0  1  0.00000000  0.00000000  -0.00000000  1
  H  H1  1  0.76611106  0.70411901  0.51605982  1
  H  H2  1  0.70411223  0.01370901  0.51606789  1
  H  H3  1  0.01371711  0.76612298  0.51603456  1
  H  H4  1  0.23388894  0.29588099  0.48394018  1
  H  H5  1  0.29588777  0.98629099  0.48393211  1
  H  H6  1  0.98628289  0.23387702  0.48396544  1
  H  H7  1  0.79339703  0.49518034  0.72171928  1
  H  H8  1  0.49512505  0.98971900  0.72173509  1
  H  H9  1  0.98970300  0.79341018  0.72172143  1
  H  H10  1  0.20660297  0.50481966  0.27828072  1
  H  H11  1  0.50487495  0.01028100  0.27826491  1
  H  H12  1  0.01029700  0.20658982  0.27827857  1
  H  H13  1  0.55951367  0.67916669  0.72430468  1
  H  H14  1  0.67915443  0.03700002  0.72429620  1
  H  H15  1  0.03699039  0.55955380  0.72429202  1
  H  H16  1  0.44048633  0.32083331  0.27569532  1
  H  H17  1  0.32084557  0.96299998  0.27570380  1
  H  H18  1  0.96300961  0.44044620  0.27570798  1
  H  H19  1  0.75348511  0.52658778  0.99799410  1
  H  H20  1  0.52656179  0.72193846  0.99797399  1
  H  H21  1  0.72189636  0.75352402  0.99799147  1
  H  H22  1  0.24651489  0.47341222  0.00200590  1
  H  H23  1  0.47343821  0.27806154  0.00202601  1
  H  H24  1  0.27810364  0.24647598  0.00200853  1
  C  C25  1  0.71501139  0.64964194  0.67002776  1
  C  C26  1  0.64969148  0.96533551  0.67001560  1
  C  C27  1  0.96531986  0.71497666  0.67005640  1
  C  C28  1  0.28498861  0.35035806  0.32997224  1
  C  C29  1  0.35030852  0.03466449  0.32998440  1
  C  C30  1  0.03468014  0.28502334  0.32994360  1
  C  C31  1  0.68327448  0.68332684  0.95007796  1
  C  C32  1  0.31672552  0.31667316  0.04992204  1
  N  N33  1  0.75337921  0.75341630  0.73978832  1
  N  N34  1  0.24662079  0.24658370  0.26021168  1
  F  F35  1  0.83354409  0.12173325  0.83325119  1
  F  F36  1  0.12174110  0.21146922  0.83324699  1
  F  F37  1  0.21147554  0.83354209  0.83324606  1
  F  F38  1  0.16645591  0.87826675  0.16674881  1
  F  F39  1  0.87825890  0.78853078  0.16675301  1
  F  F40  1  0.78852446  0.16645791  0.16675394  1
