# generated using pymatgen
data_Te2NO7
_symmetry_space_group_name_H-M   'P 1'
_cell_length_a   4.53993337
_cell_length_b   9.07888623
_cell_length_c   15.76157716
_cell_angle_alpha   90.00000000
_cell_angle_beta   90.00000000
_cell_angle_gamma   90.00000000
_symmetry_Int_Tables_number   1
_chemical_formula_structural   Te2NO7
_chemical_formula_sum   'Te8 N4 O28'
_cell_volume   649.65341433
_cell_formula_units_Z   4
loop_
 _symmetry_equiv_pos_site_id
 _symmetry_equiv_pos_as_xyz
  1  'x, y, z'
loop_
 _atom_site_type_symbol
 _atom_site_label
 _atom_site_symmetry_multiplicity
 _atom_site_fract_x
 _atom_site_fract_y
 _atom_site_fract_z
 _atom_site_occupancy
  Te  Te0  1  0.52608678  0.92109296  0.32550374  1
  Te  Te1  1  0.97391322  0.57890704  0.82550374  1
  Te  Te2  1  0.47391322  0.42109296  0.67449626  1
  Te  Te3  1  0.02608678  0.07890704  0.17449626  1
  Te  Te4  1  0.47391322  0.07890704  0.67449626  1
  Te  Te5  1  0.02608678  0.42109296  0.17449626  1
  Te  Te6  1  0.52608678  0.57890704  0.32550374  1
  Te  Te7  1  0.97391322  0.92109296  0.82550374  1
  N  N8  1  0.21068906  0.75000000  0.05637267  1
  N  N9  1  0.28931094  0.75000000  0.55637267  1
  N  N10  1  0.78931094  0.25000000  0.94362733  1
  N  N11  1  0.71068906  0.25000000  0.44362733  1
  O  O12  1  0.92155963  0.95872191  0.28826849  1
  O  O13  1  0.57844037  0.54127809  0.78826849  1
  O  O14  1  0.07844037  0.45872191  0.71173151  1
  O  O15  1  0.42155963  0.04127809  0.21173151  1
  O  O16  1  0.07844037  0.04127809  0.71173151  1
  O  O17  1  0.42155963  0.45872191  0.21173151  1
  O  O18  1  0.92155963  0.54127809  0.28826849  1
  O  O19  1  0.57844037  0.95872191  0.78826849  1
  O  O20  1  0.43493835  0.75000000  0.25240808  1
  O  O21  1  0.06506165  0.75000000  0.75240808  1
  O  O22  1  0.56506165  0.25000000  0.74759192  1
  O  O23  1  0.93493835  0.25000000  0.24759192  1
  O  O24  1  0.66172369  0.75000000  0.39896519  1
  O  O25  1  0.83827631  0.75000000  0.89896519  1
  O  O26  1  0.33827631  0.25000000  0.60103481  1
  O  O27  1  0.16172369  0.25000000  0.10103481  1
  O  O28  1  0.00918326  0.75000000  0.11197544  1
  O  O29  1  0.49081674  0.75000000  0.61197544  1
  O  O30  1  0.99081674  0.25000000  0.88802456  1
  O  O31  1  0.50918326  0.25000000  0.38802456  1
  O  O32  1  0.30831378  0.87057952  0.02948578  1
  O  O33  1  0.19168622  0.62942048  0.52948578  1
  O  O34  1  0.69168622  0.37057952  0.97051422  1
  O  O35  1  0.80831378  0.12942048  0.47051422  1
  O  O36  1  0.69168622  0.12942048  0.97051422  1
  O  O37  1  0.80831378  0.37057952  0.47051422  1
  O  O38  1  0.30831378  0.62942048  0.02948578  1
  O  O39  1  0.19168622  0.87057952  0.52948578  1
