# generated using pymatgen
data_CuH5N2Cl3
_symmetry_space_group_name_H-M   'P 1'
_cell_length_a   5.67711013
_cell_length_b   7.14277341
_cell_length_c   14.59673949
_cell_angle_alpha   90.00000000
_cell_angle_beta   90.00000000
_cell_angle_gamma   90.00000000
_symmetry_Int_Tables_number   1
_chemical_formula_structural   CuH5N2Cl3
_chemical_formula_sum   'Cu4 H20 N8 Cl12'
_cell_volume   591.90233002
_cell_formula_units_Z   4
loop_
 _symmetry_equiv_pos_site_id
 _symmetry_equiv_pos_as_xyz
  1  'x, y, z'
loop_
 _atom_site_type_symbol
 _atom_site_label
 _atom_site_symmetry_multiplicity
 _atom_site_fract_x
 _atom_site_fract_y
 _atom_site_fract_z
 _atom_site_occupancy
  Cu  Cu0  1  0.25000000  0.35190649  0.95393673  1
  Cu  Cu1  1  0.25000000  0.14809351  0.45393673  1
  Cu  Cu2  1  0.75000000  0.64809351  0.04606327  1
  Cu  Cu3  1  0.75000000  0.85190649  0.54606327  1
  H  H4  1  0.10247419  0.09811099  0.06862065  1
  H  H5  1  0.39752581  0.40188901  0.56862065  1
  H  H6  1  0.60247419  0.90188901  0.93137935  1
  H  H7  1  0.89752581  0.59811099  0.43137935  1
  H  H8  1  0.89752581  0.90188901  0.93137935  1
  H  H9  1  0.60247419  0.59811099  0.43137935  1
  H  H10  1  0.39752581  0.09811099  0.06862065  1
  H  H11  1  0.10247419  0.40188901  0.56862065  1
  H  H12  1  0.40003903  0.35012724  0.16894390  1
  H  H13  1  0.09996097  0.14987276  0.66894390  1
  H  H14  1  0.90003903  0.64987276  0.83105610  1
  H  H15  1  0.59996097  0.85012724  0.33105610  1
  H  H16  1  0.59996097  0.64987276  0.83105610  1
  H  H17  1  0.90003903  0.85012724  0.33105610  1
  H  H18  1  0.09996097  0.35012724  0.16894390  1
  H  H19  1  0.40003903  0.14987276  0.66894390  1
  H  H20  1  0.25000000  0.16417965  0.21441584  1
  H  H21  1  0.25000000  0.33582035  0.71441584  1
  H  H22  1  0.75000000  0.83582035  0.78558416  1
  H  H23  1  0.75000000  0.66417965  0.28558416  1
  N  N24  1  0.25000000  0.18284125  0.07166570  1
  N  N25  1  0.25000000  0.31715875  0.57166570  1
  N  N26  1  0.75000000  0.81715875  0.92833430  1
  N  N27  1  0.75000000  0.68284125  0.42833430  1
  N  N28  1  0.25000000  0.26641055  0.16200738  1
  N  N29  1  0.25000000  0.23358945  0.66200738  1
  N  N30  1  0.75000000  0.73358945  0.83799262  1
  N  N31  1  0.75000000  0.76641055  0.33799262  1
  Cl  Cl32  1  0.25000000  0.62238172  0.03918620  1
  Cl  Cl33  1  0.25000000  0.87761828  0.53918620  1
  Cl  Cl34  1  0.75000000  0.37761828  0.96081380  1
  Cl  Cl35  1  0.75000000  0.12238172  0.46081380  1
  Cl  Cl36  1  0.25000000  0.06795883  0.87843649  1
  Cl  Cl37  1  0.25000000  0.43204117  0.37843649  1
  Cl  Cl38  1  0.75000000  0.93204117  0.12156351  1
  Cl  Cl39  1  0.75000000  0.56795883  0.62156351  1
  Cl  Cl40  1  0.25000000  0.52859872  0.81963507  1
  Cl  Cl41  1  0.25000000  0.97140128  0.31963507  1
  Cl  Cl42  1  0.75000000  0.47140128  0.18036493  1
  Cl  Cl43  1  0.75000000  0.02859872  0.68036493  1
