# generated using pymatgen
data_RbNd2Br5
_symmetry_space_group_name_H-M   'P 1'
_cell_length_a   7.64394657
_cell_length_b   9.39997324
_cell_length_c   14.15831194
_cell_angle_alpha   89.68453886
_cell_angle_beta   90.00000000
_cell_angle_gamma   90.00000000
_symmetry_Int_Tables_number   1
_chemical_formula_structural   RbNd2Br5
_chemical_formula_sum   'Rb4 Nd8 Br20'
_cell_volume   1017.30025701
_cell_formula_units_Z   4
loop_
 _symmetry_equiv_pos_site_id
 _symmetry_equiv_pos_as_xyz
  1  'x, y, z'
loop_
 _atom_site_type_symbol
 _atom_site_label
 _atom_site_symmetry_multiplicity
 _atom_site_fract_x
 _atom_site_fract_y
 _atom_site_fract_z
 _atom_site_occupancy
  Rb  Rb0  1  0.92979652  0.49964959  0.66348856  1
  Rb  Rb1  1  0.07020348  0.50035041  0.33651144  1
  Rb  Rb2  1  0.42979652  0.50035041  0.83651144  1
  Rb  Rb3  1  0.57020348  0.49964959  0.16348856  1
  Nd  Nd4  1  0.89717011  0.00670190  0.65874039  1
  Nd  Nd5  1  0.10282989  0.99329810  0.34125961  1
  Nd  Nd6  1  0.39717011  0.99329810  0.84125961  1
  Nd  Nd7  1  0.60282989  0.00670190  0.15874039  1
  Nd  Nd8  1  0.96680647  0.80149208  0.00153857  1
  Nd  Nd9  1  0.03319353  0.19850792  0.99846143  1
  Nd  Nd10  1  0.46680647  0.19850792  0.49846143  1
  Nd  Nd11  1  0.53319353  0.80149208  0.50153857  1
  Br  Br12  1  0.82944257  0.47254773  0.92223640  1
  Br  Br13  1  0.17055743  0.52745227  0.07776360  1
  Br  Br14  1  0.32944257  0.52745227  0.57776360  1
  Br  Br15  1  0.67055743  0.47254773  0.42223640  1
  Br  Br16  1  0.13791473  0.76334824  0.81113689  1
  Br  Br17  1  0.86208527  0.23665176  0.18886311  1
  Br  Br18  1  0.63791473  0.23665176  0.68886311  1
  Br  Br19  1  0.36208527  0.76334824  0.31113689  1
  Br  Br20  1  0.65509686  0.76970666  0.70913854  1
  Br  Br21  1  0.34490314  0.23029334  0.29086146  1
  Br  Br22  1  0.15509686  0.23029334  0.79086146  1
  Br  Br23  1  0.84490314  0.76970666  0.20913854  1
  Br  Br24  1  0.54935745  0.79443799  0.00114233  1
  Br  Br25  1  0.45064255  0.20556201  0.99885767  1
  Br  Br26  1  0.04935745  0.20556201  0.49885767  1
  Br  Br27  1  0.95064255  0.79443799  0.50114233  1
  Br  Br28  1  0.30680858  0.97555728  0.63062680  1
  Br  Br29  1  0.69319142  0.02444272  0.36937320  1
  Br  Br30  1  0.80680858  0.02444272  0.86937320  1
  Br  Br31  1  0.19319142  0.97555728  0.13062680  1
