# generated using pymatgen
data_Ce2AgGe6
_symmetry_space_group_name_H-M   'P 1'
_cell_length_a   4.16087039
_cell_length_b   4.21998604
_cell_length_c   11.31499018
_cell_angle_alpha   90.00000000
_cell_angle_beta   100.59498991
_cell_angle_gamma   90.00000000
_symmetry_Int_Tables_number   1
_chemical_formula_structural   Ce2AgGe6
_chemical_formula_sum   'Ce2 Ag1 Ge6'
_cell_volume   195.29064618
_cell_formula_units_Z   1
loop_
 _symmetry_equiv_pos_site_id
 _symmetry_equiv_pos_as_xyz
  1  'x, y, z'
loop_
 _atom_site_type_symbol
 _atom_site_label
 _atom_site_symmetry_multiplicity
 _atom_site_fract_x
 _atom_site_fract_y
 _atom_site_fract_z
 _atom_site_occupancy
  Ce  Ce0  1  0.77906395  0.50000000  0.55812789  1
  Ce  Ce1  1  0.11666706  0.50000000  0.23333412  1
  Ag  Ag2  1  0.55981633  0.00000000  0.11963265  1
  Ge  Ge3  1  0.49214741  0.50000000  0.98429483  1
  Ge  Ge4  1  0.38003487  0.50000000  0.76006973  1
  Ge  Ge5  1  0.99140375  0.00000000  0.98280751  1
  Ge  Ge6  1  0.87906739  0.00000000  0.75813477  1
  Ge  Ge7  1  0.67187426  -0.00000000  0.34374853  1
  Ge  Ge8  1  0.23692498  0.00000000  0.47384996  1
