# generated using pymatgen
data_ZnAs2Pb2O9
_symmetry_space_group_name_H-M   'P 1'
_cell_length_a   5.87092913
_cell_length_b   8.15478047
_cell_length_c   9.14759310
_cell_angle_alpha   113.41939715
_cell_angle_beta   90.00000000
_cell_angle_gamma   90.00000000
_symmetry_Int_Tables_number   1
_chemical_formula_structural   ZnAs2Pb2O9
_chemical_formula_sum   'Zn2 As4 Pb4 O18'
_cell_volume   401.87304592
_cell_formula_units_Z   2
loop_
 _symmetry_equiv_pos_site_id
 _symmetry_equiv_pos_as_xyz
  1  'x, y, z'
loop_
 _atom_site_type_symbol
 _atom_site_label
 _atom_site_symmetry_multiplicity
 _atom_site_fract_x
 _atom_site_fract_y
 _atom_site_fract_z
 _atom_site_occupancy
  Zn  Zn0  1  -0.00000000  0.00000000  0.00000000  1
  Zn  Zn1  1  0.50000000  0.00000000  0.00000000  1
  As  As2  1  0.75000000  0.02067074  0.65054161  1
  As  As3  1  0.25000000  0.97932926  0.34945839  1
  As  As4  1  0.75000000  0.57859414  0.83540988  1
  As  As5  1  0.25000000  0.42140586  0.16459012  1
  Pb  Pb6  1  0.75000000  0.72665775  0.26411408  1
  Pb  Pb7  1  0.25000000  0.27334225  0.73588592  1
  Pb  Pb8  1  0.75000000  0.29838970  0.35326848  1
  Pb  Pb9  1  0.25000000  0.70161030  0.64673152  1
  O  O10  1  0.75000000  0.54321610  0.00747908  1
  O  O11  1  0.25000000  0.45678390  0.99252092  1
  O  O12  1  0.75000000  0.13767838  0.53685217  1
  O  O13  1  0.25000000  0.86232162  0.46314783  1
  O  O14  1  0.75000000  0.15063709  0.09174841  1
  O  O15  1  0.25000000  0.84936291  0.90825159  1
  O  O16  1  0.75000000  0.79095231  0.53153992  1
  O  O17  1  0.25000000  0.20904769  0.46846008  1
  O  O18  1  0.75000000  0.80000449  0.86424666  1
  O  O19  1  0.25000000  0.19999551  0.13575334  1
  O  O20  1  0.99168102  0.48497960  0.72125761  1
  O  O21  1  0.00831898  0.51502040  0.27874239  1
  O  O22  1  0.49168102  0.51502040  0.27874239  1
  O  O23  1  0.50831898  0.48497960  0.72125761  1
  O  O24  1  0.49491992  0.92662197  0.22876028  1
  O  O25  1  0.50508008  0.07337803  0.77123972  1
  O  O26  1  0.99491992  0.07337803  0.77123972  1
  O  O27  1  0.00508008  0.92662197  0.22876028  1
