# generated using pymatgen
data_Sr4Ir3O10
_symmetry_space_group_name_H-M   'P 1'
_cell_length_a   3.98717517
_cell_length_b   3.98717517
_cell_length_c   14.66336292
_cell_angle_alpha   97.81396514
_cell_angle_beta   97.81396514
_cell_angle_gamma   90.00000000
_symmetry_Int_Tables_number   1
_chemical_formula_structural   Sr4Ir3O10
_chemical_formula_sum   'Sr4 Ir3 O10'
_cell_volume   228.76228749
_cell_formula_units_Z   1
loop_
 _symmetry_equiv_pos_site_id
 _symmetry_equiv_pos_as_xyz
  1  'x, y, z'
loop_
 _atom_site_type_symbol
 _atom_site_label
 _atom_site_symmetry_multiplicity
 _atom_site_fract_x
 _atom_site_fract_y
 _atom_site_fract_z
 _atom_site_occupancy
  Sr  Sr0  1  0.29831434  0.29831434  0.59662868  1
  Sr  Sr1  1  0.70168566  0.70168566  0.40337132  1
  Sr  Sr2  1  0.43109572  0.43109572  0.86219144  1
  Sr  Sr3  1  0.56890428  0.56890428  0.13780856  1
  Ir  Ir4  1  0.14251019  0.14251019  0.28502038  1
  Ir  Ir5  1  0.85748981  0.85748981  0.71497962  1
  Ir  Ir6  1  -0.00000000  0.00000000  -0.00000000  1
  O  O7  1  0.21298933  0.21298933  0.42597866  1
  O  O8  1  0.78701067  0.78701067  0.57402134  1
  O  O9  1  0.13712129  0.63712129  0.27424257  1
  O  O10  1  0.86287871  0.36287871  0.72575743  1
  O  O11  1  0.63712129  0.13712129  0.27424257  1
  O  O12  1  0.36287871  0.86287871  0.72575743  1
  O  O13  1  0.06975641  0.06975641  0.13951282  1
  O  O14  1  0.93024359  0.93024359  0.86048718  1
  O  O15  1  -0.00000000  0.50000000  0.00000000  1
  O  O16  1  0.50000000  0.00000000  0.00000000  1
