# generated using pymatgen
data_Y2Fe17N3
_symmetry_space_group_name_H-M   'P 1'
_cell_length_a   8.38377425
_cell_length_b   8.64851154
_cell_length_c   8.64851154
_cell_angle_alpha   120.00000517
_cell_angle_beta   90.00000000
_cell_angle_gamma   90.00000000
_symmetry_Int_Tables_number   1
_chemical_formula_structural   Y2Fe17N3
_chemical_formula_sum   'Y4 Fe34 N6'
_cell_volume   543.06638655
_cell_formula_units_Z   2
loop_
 _symmetry_equiv_pos_site_id
 _symmetry_equiv_pos_as_xyz
  1  'x, y, z'
loop_
 _atom_site_type_symbol
 _atom_site_label
 _atom_site_symmetry_multiplicity
 _atom_site_fract_x
 _atom_site_fract_y
 _atom_site_fract_z
 _atom_site_occupancy
  Y  Y0  1  0.75000000  0.66666700  0.33333300  1
  Y  Y1  1  0.25000000  0.33333300  0.66666700  1
  Y  Y2  1  0.75000000  0.00000000  0.00000000  1
  Y  Y3  1  0.25000000  0.00000000  0.00000000  1
  Fe  Fe4  1  0.75000000  0.61854084  0.67142133  1
  Fe  Fe5  1  0.25000000  0.38145916  0.32857867  1
  Fe  Fe6  1  0.75000000  0.05288049  0.38145916  1
  Fe  Fe7  1  0.25000000  0.94711951  0.32857867  1
  Fe  Fe8  1  0.25000000  0.94711951  0.61854084  1
  Fe  Fe9  1  0.75000000  0.05288049  0.67142133  1
  Fe  Fe10  1  0.75000000  0.32857867  0.94711951  1
  Fe  Fe11  1  0.25000000  0.67142133  0.61854084  1
  Fe  Fe12  1  0.25000000  0.67142133  0.05288049  1
  Fe  Fe13  1  0.75000000  0.32857867  0.38145916  1
  Fe  Fe14  1  0.25000000  0.38145916  0.05288049  1
  Fe  Fe15  1  0.75000000  0.61854084  0.94711951  1
  Fe  Fe16  1  0.39203653  0.66666700  0.33333300  1
  Fe  Fe17  1  0.60796347  0.33333300  0.66666700  1
  Fe  Fe18  1  0.89203653  0.33333300  0.66666700  1
  Fe  Fe19  1  0.10796347  0.66666700  0.33333300  1
  Fe  Fe20  1  0.97929023  0.83074447  0.16925553  1
  Fe  Fe21  1  0.02070977  0.16925553  0.83074447  1
  Fe  Fe22  1  0.97929023  0.33851107  0.16925553  1
  Fe  Fe23  1  0.47929023  0.16925553  0.83074447  1
  Fe  Fe24  1  0.02070977  0.66148893  0.83074447  1
  Fe  Fe25  1  0.52070977  0.83074447  0.16925553  1
  Fe  Fe26  1  0.97929023  0.83074447  0.66148893  1
  Fe  Fe27  1  0.47929023  0.66148893  0.83074447  1
  Fe  Fe28  1  0.02070977  0.16925553  0.33851107  1
  Fe  Fe29  1  0.52070977  0.33851107  0.16925553  1
  Fe  Fe30  1  0.47929023  0.16925553  0.33851107  1
  Fe  Fe31  1  0.52070977  0.83074447  0.66148893  1
  Fe  Fe32  1  -0.00000000  0.50000000  0.50000000  1
  Fe  Fe33  1  -0.00000000  0.00000000  0.50000000  1
  Fe  Fe34  1  0.50000000  0.50000000  0.50000000  1
  Fe  Fe35  1  -0.00000000  0.50000000  0.00000000  1
  Fe  Fe36  1  0.50000000  0.00000000  0.50000000  1
  Fe  Fe37  1  0.50000000  0.50000000  0.00000000  1
  N  N38  1  0.75000000  0.83595578  0.16404422  1
  N  N39  1  0.25000000  0.16404422  0.83595578  1
  N  N40  1  0.75000000  0.32808844  0.16404422  1
  N  N41  1  0.25000000  0.67191156  0.83595578  1
  N  N42  1  0.75000000  0.83595578  0.67191156  1
  N  N43  1  0.25000000  0.16404422  0.32808844  1
