# generated using pymatgen
data_UPbI6
_symmetry_space_group_name_H-M   'P 1'
_cell_length_a   7.76578931
_cell_length_b   7.76578931
_cell_length_c   14.34737526
_cell_angle_alpha   90.00000000
_cell_angle_beta   90.00000000
_cell_angle_gamma   120.00000315
_symmetry_Int_Tables_number   1
_chemical_formula_structural   UPbI6
_chemical_formula_sum   'U2 Pb2 I12'
_cell_volume   749.33200609
_cell_formula_units_Z   2
loop_
 _symmetry_equiv_pos_site_id
 _symmetry_equiv_pos_as_xyz
  1  'x, y, z'
loop_
 _atom_site_type_symbol
 _atom_site_label
 _atom_site_symmetry_multiplicity
 _atom_site_fract_x
 _atom_site_fract_y
 _atom_site_fract_z
 _atom_site_occupancy
  U  U0  1  0.00000000  0.00000000  -0.00000000  1
  U  U1  1  -0.00000000  -0.00000000  0.50000000  1
  Pb  Pb2  1  0.66666700  0.33333300  0.75000000  1
  Pb  Pb3  1  0.33333300  0.66666700  0.25000000  1
  I  I4  1  0.01394263  0.32797699  0.87981473  1
  I  I5  1  0.98605737  0.67202301  0.12018527  1
  I  I6  1  0.31403436  0.98605737  0.87981473  1
  I  I7  1  0.31403436  0.32797699  0.62018527  1
  I  I8  1  0.68596564  0.01394263  0.12018527  1
  I  I9  1  0.68596564  0.67202301  0.37981473  1
  I  I10  1  0.67202301  0.68596564  0.87981473  1
  I  I11  1  0.67202301  0.98605737  0.62018527  1
  I  I12  1  0.32797699  0.31403436  0.12018527  1
  I  I13  1  0.32797699  0.01394263  0.37981473  1
  I  I14  1  0.01394263  0.68596564  0.62018527  1
  I  I15  1  0.98605737  0.31403436  0.37981473  1
