# generated using pymatgen
data_K2CdH2C8(N3O4)2
_symmetry_space_group_name_H-M   'P 1'
_cell_length_a   8.38168043
_cell_length_b   9.33475537
_cell_length_c   10.09412561
_cell_angle_alpha   95.17045206
_cell_angle_beta   95.22636555
_cell_angle_gamma   100.21981259
_symmetry_Int_Tables_number   1
_chemical_formula_structural   K2CdH2C8(N3O4)2
_chemical_formula_sum   'K4 Cd2 H4 C16 N12 O16'
_cell_volume   769.44743607
_cell_formula_units_Z   2
loop_
 _symmetry_equiv_pos_site_id
 _symmetry_equiv_pos_as_xyz
  1  'x, y, z'
loop_
 _atom_site_type_symbol
 _atom_site_label
 _atom_site_symmetry_multiplicity
 _atom_site_fract_x
 _atom_site_fract_y
 _atom_site_fract_z
 _atom_site_occupancy
  K  K0  1  0.06462582  0.92740797  0.19085591  1
  K  K1  1  0.93537418  0.07259203  0.80914409  1
  K  K2  1  0.32912094  0.37276827  0.59922559  1
  K  K3  1  0.67087906  0.62723173  0.40077441  1
  Cd  Cd4  1  0.46403131  0.24610869  0.03104663  1
  Cd  Cd5  1  0.53596869  0.75389131  0.96895337  1
  H  H6  1  0.06767271  0.66421683  0.76267682  1
  H  H7  1  0.93232729  0.33578317  0.23732318  1
  H  H8  1  0.67826406  0.21092565  0.54513562  1
  H  H9  1  0.32173594  0.78907435  0.45486438  1
  C  C10  1  0.56947851  0.27293580  0.34696537  1
  C  C11  1  0.43052149  0.72706420  0.65303463  1
  C  C12  1  0.11314134  0.25073751  0.11396310  1
  C  C13  1  0.88685866  0.74926249  0.88603690  1
  C  C14  1  0.17330441  0.40869597  0.10793859  1
  C  C15  1  0.82669559  0.59130403  0.89206141  1
  C  C16  1  0.59723904  0.12505035  0.29963595  1
  C  C17  1  0.40276096  0.87494965  0.70036405  1
  C  C18  1  0.11466725  0.53372268  0.15502572  1
  C  C19  1  0.88533275  0.46627732  0.84497428  1
  C  C20  1  0.02215384  0.44897753  0.76585709  1
  C  C21  1  0.97784616  0.55102247  0.23414291  1
  C  C22  1  0.65875324  0.01631491  0.36502986  1
  C  C23  1  0.34124676  0.98368509  0.63497014  1
  C  C24  1  0.72406816  0.01135309  0.50517484  1
  C  C25  1  0.27593184  0.98864691  0.49482516  1
  N  N26  1  0.35142090  0.10119720  0.72696955  1
  N  N27  1  0.64857910  0.89880280  0.27303045  1
  N  N28  1  0.30478010  0.45430456  0.04432367  1
  N  N29  1  0.69521990  0.54569544  0.95567633  1
  N  N30  1  0.21201713  0.65180549  0.11717860  1
  N  N31  1  0.78798287  0.34819451  0.88282140  1
  N  N32  1  0.32526252  0.60085110  0.05207626  1
  N  N33  1  0.67473748  0.39914890  0.94792374  1
  N  N34  1  0.41476126  0.06618891  0.84237110  1
  N  N35  1  0.58523874  0.93381109  0.15762890  1
  N  N36  1  0.55372234  0.07008653  0.17041595  1
  N  N37  1  0.44627766  0.92991347  0.82958405  1
  O  O38  1  0.98824865  0.21138503  0.17449900  1
  O  O39  1  0.01175135  0.78861497  0.82550100  1
  O  O40  1  0.22587326  0.09703582  0.45665737  1
  O  O41  1  0.77412674  0.90296418  0.54334263  1
  O  O42  1  0.10322848  0.56733168  0.72202217  1
  O  O43  1  0.89677152  0.43266832  0.27797783  1
  O  O44  1  0.60534123  0.31857262  0.47179256  1
  O  O45  1  0.39465877  0.68142738  0.52820744  1
  O  O46  1  0.18776928  0.15920502  0.05532933  1
  O  O47  1  0.81223072  0.84079498  0.94467067  1
  O  O48  1  0.05999436  0.32796914  0.73879639  1
  O  O49  1  0.94000564  0.67203086  0.26120361  1
  O  O50  1  0.72665402  0.12861346  0.59086075  1
  O  O51  1  0.27334598  0.87138654  0.40913925  1
  O  O52  1  0.50997591  0.34712987  0.26220546  1
  O  O53  1  0.49002409  0.65287013  0.73779454  1
