# generated using pymatgen
data_MnH12C4(N9O2)2
_symmetry_space_group_name_H-M   'P 1'
_cell_length_a   7.53429459
_cell_length_b   14.81595812
_cell_length_c   15.11636380
_cell_angle_alpha   90.00000000
_cell_angle_beta   90.00000000
_cell_angle_gamma   90.00000000
_symmetry_Int_Tables_number   1
_chemical_formula_structural   MnH12C4(N9O2)2
_chemical_formula_sum   'Mn4 H48 C16 N72 O16'
_cell_volume   1687.40633083
_cell_formula_units_Z   4
loop_
 _symmetry_equiv_pos_site_id
 _symmetry_equiv_pos_as_xyz
  1  'x, y, z'
loop_
 _atom_site_type_symbol
 _atom_site_label
 _atom_site_symmetry_multiplicity
 _atom_site_fract_x
 _atom_site_fract_y
 _atom_site_fract_z
 _atom_site_occupancy
  Mn  Mn0  1  -0.00000000  -0.00000000  -0.00000000  1
  Mn  Mn1  1  0.50000000  0.50000000  -0.00000000  1
  Mn  Mn2  1  -0.00000000  0.50000000  0.50000000  1
  Mn  Mn3  1  0.50000000  0.00000000  0.50000000  1
  H  H4  1  0.83893631  0.82802798  0.75082475  1
  H  H5  1  0.16106369  0.17197202  0.24917525  1
  H  H6  1  0.66106369  0.32802798  0.24917525  1
  H  H7  1  0.16106369  0.67197202  0.25082475  1
  H  H8  1  0.33893631  0.67197202  0.75082475  1
  H  H9  1  0.83893631  0.32802798  0.74917525  1
  H  H10  1  0.33893631  0.17197202  0.74917525  1
  H  H11  1  0.66106369  0.82802798  0.25082475  1
  H  H12  1  0.93221663  0.67693125  0.83395425  1
  H  H13  1  0.06778337  0.32306875  0.16604575  1
  H  H14  1  0.56778337  0.17693125  0.16604575  1
  H  H15  1  0.06778337  0.82306875  0.33395425  1
  H  H16  1  0.43221663  0.82306875  0.83395425  1
  H  H17  1  0.93221663  0.17693125  0.66604575  1
  H  H18  1  0.43221663  0.32306875  0.66604575  1
  H  H19  1  0.56778337  0.67693125  0.33395425  1
  H  H20  1  0.76893652  0.73027783  0.63507551  1
  H  H21  1  0.23106348  0.26972217  0.36492449  1
  H  H22  1  0.73106348  0.23027783  0.36492449  1
  H  H23  1  0.23106348  0.76972217  0.13507551  1
  H  H24  1  0.26893652  0.76972217  0.63507551  1
  H  H25  1  0.76893652  0.23027783  0.86492449  1
  H  H26  1  0.26893652  0.26972217  0.86492449  1
  H  H27  1  0.73106348  0.73027783  0.13507551  1
  H  H28  1  0.61637324  0.80215908  0.65454012  1
  H  H29  1  0.38362676  0.19784092  0.34545988  1
  H  H30  1  0.88362676  0.30215908  0.34545988  1
  H  H31  1  0.38362676  0.69784092  0.15454012  1
  H  H32  1  0.11637324  0.69784092  0.65454012  1
  H  H33  1  0.61637324  0.30215908  0.84545988  1
  H  H34  1  0.11637324  0.19784092  0.84545988  1
  H  H35  1  0.88362676  0.80215908  0.15454012  1
  H  H36  1  0.85674951  0.92531351  0.51234310  1
  H  H37  1  0.14325049  0.07468649  0.48765690  1
  H  H38  1  0.64325049  0.42531351  0.48765690  1
  H  H39  1  0.14325049  0.57468649  0.01234310  1
  H  H40  1  0.35674951  0.57468649  0.51234310  1
  H  H41  1  0.85674951  0.42531351  0.98765690  1
  H  H42  1  0.35674951  0.07468649  0.98765690  1
  H  H43  1  0.64325049  0.92531351  0.01234310  1
  H  H44  1  0.82030530  0.97746630  0.60264932  1
  H  H45  1  0.17969470  0.02253370  0.39735068  1
  H  H46  1  0.67969470  0.47746630  0.39735068  1
  H  H47  1  0.17969470  0.52253370  0.10264932  1
  H  H48  1  0.32030530  0.52253370  0.60264932  1
  H  H49  1  0.82030530  0.47746630  0.89735068  1
  H  H50  1  0.32030530  0.02253370  0.89735068  1
  H  H51  1  0.67969470  0.97746630  0.10264932  1
  C  C52  1  0.90029032  0.95811305  0.79403186  1
  C  C53  1  0.09970968  0.04188695  0.20596814  1
  C  C54  1  0.59970968  0.45811305  0.20596814  1
  C  C55  1  0.09970968  0.54188695  0.29403186  1
  C  C56  1  0.40029032  0.54188695  0.79403186  1
  C  C57  1  0.90029032  0.45811305  0.70596814  1
  C  C58  1  0.40029032  0.04188695  0.70596814  1
  C  C59  1  0.59970968  0.95811305  0.29403186  1
  C  C60  1  0.95618914  0.82024484  0.87477949  1
  C  C61  1  0.04381086  0.17975516  0.12522051  1
  C  C62  1  0.54381086  0.32024484  0.12522051  1
  C  C63  1  0.04381086  0.67975516  0.37477949  1
  C  C64  1  0.45618914  0.67975516  0.87477949  1
  C  C65  1  0.95618914  0.32024484  0.62522051  1
  C  C66  1  0.45618914  0.17975516  0.62522051  1
  C  C67  1  0.54381086  0.82024484  0.37477949  1
  N  N68  1  0.51859606  0.64572710  0.95116219  1
  N  N69  1  0.48140394  0.35427290  0.04883781  1
  N  N70  1  0.98140394  0.14572710  0.04883781  1
  N  N71  1  0.48140394  0.85427290  0.45116219  1
  N  N72  1  0.01859606  0.85427290  0.95116219  1
  N  N73  1  0.51859606  0.14572710  0.54883781  1
  N  N74  1  0.01859606  0.35427290  0.54883781  1
  N  N75  1  0.98140394  0.64572710  0.45116219  1
  N  N76  1  0.93151516  0.71795858  0.50106343  1
  N  N77  1  0.06848484  0.28204142  0.49893657  1
  N  N78  1  0.56848484  0.21795858  0.49893657  1
  N  N79  1  0.06848484  0.78204142  0.00106343  1
  N  N80  1  0.43151516  0.78204142  0.50106343  1
  N  N81  1  0.93151516  0.21795858  0.99893657  1
  N  N82  1  0.43151516  0.28204142  0.99893657  1
  N  N83  1  0.56848484  0.71795858  0.00106343  1
  N  N84  1  0.93225224  0.59951696  0.68153009  1
  N  N85  1  0.06774776  0.40048304  0.31846991  1
  N  N86  1  0.56774776  0.09951696  0.31846991  1
  N  N87  1  0.06774776  0.90048304  0.18153009  1
  N  N88  1  0.43225224  0.90048304  0.68153009  1
  N  N89  1  0.93225224  0.09951696  0.81846991  1
  N  N90  1  0.43225224  0.40048304  0.81846991  1
  N  N91  1  0.56774776  0.59951696  0.18153009  1
  N  N92  1  0.96697223  0.72932322  0.87978584  1
  N  N93  1  0.03302777  0.27067678  0.12021416  1
  N  N94  1  0.53302777  0.22932322  0.12021416  1
  N  N95  1  0.03302777  0.77067678  0.37978584  1
  N  N96  1  0.46697223  0.77067678  0.87978584  1
  N  N97  1  0.96697223  0.22932322  0.62021416  1
  N  N98  1  0.46697223  0.27067678  0.62021416  1
  N  N99  1  0.53302777  0.72932322  0.37978584  1
  N  N100  1  0.93214100  0.51838582  0.64120993  1
  N  N101  1  0.06785900  0.48161418  0.35879007  1
  N  N102  1  0.56785900  0.01838582  0.35879007  1
  N  N103  1  0.06785900  0.98161418  0.14120993  1
  N  N104  1  0.43214100  0.98161418  0.64120993  1
  N  N105  1  0.93214100  0.01838582  0.85879007  1
  N  N106  1  0.43214100  0.48161418  0.85879007  1
  N  N107  1  0.56785900  0.51838582  0.14120993  1
  N  N108  1  0.89889811  0.58782975  0.76570706  1
  N  N109  1  0.10110189  0.41217025  0.23429294  1
  N  N110  1  0.60110189  0.08782975  0.23429294  1
  N  N111  1  0.10110189  0.91217025  0.26570706  1
  N  N112  1  0.39889811  0.91217025  0.76570706  1
  N  N113  1  0.89889811  0.08782975  0.73429294  1
  N  N114  1  0.39889811  0.41217025  0.73429294  1
  N  N115  1  0.60110189  0.58782975  0.26570706  1
  N  N116  1  0.53801885  0.79258910  0.95926228  1
  N  N117  1  0.46198115  0.20741090  0.04073772  1
  N  N118  1  0.96198115  0.29258910  0.04073772  1
  N  N119  1  0.46198115  0.70741090  0.45926228  1
  N  N120  1  0.03801885  0.70741090  0.95926228  1
  N  N121  1  0.53801885  0.29258910  0.54073772  1
  N  N122  1  0.03801885  0.20741090  0.54073772  1
  N  N123  1  0.96198115  0.79258910  0.45926228  1
  N  N124  1  0.87784363  0.99964761  0.71569492  1
  N  N125  1  0.12215637  0.00035239  0.28430508  1
  N  N126  1  0.62215637  0.49964761  0.28430508  1
  N  N127  1  0.12215637  0.50035239  0.21569492  1
  N  N128  1  0.37784363  0.50035239  0.71569492  1
  N  N129  1  0.87784363  0.49964761  0.78430508  1
  N  N130  1  0.37784363  0.00035239  0.78430508  1
  N  N131  1  0.62215637  0.99964761  0.21569492  1
  N  N132  1  0.89385696  0.86562228  0.80329504  1
  N  N133  1  0.10614304  0.13437772  0.19670496  1
  N  N134  1  0.60614304  0.36562228  0.19670496  1
  N  N135  1  0.10614304  0.63437772  0.30329504  1
  N  N136  1  0.39385696  0.63437772  0.80329504  1
  N  N137  1  0.89385696  0.36562228  0.69670496  1
  N  N138  1  0.39385696  0.13437772  0.69670496  1
  N  N139  1  0.60614304  0.86562228  0.30329504  1
  O  O140  1  0.78423877  0.97296388  0.53897951  1
  O  O141  1  0.21576123  0.02703612  0.46102049  1
  O  O142  1  0.71576123  0.47296388  0.46102049  1
  O  O143  1  0.21576123  0.52703612  0.03897951  1
  O  O144  1  0.28423877  0.52703612  0.53897951  1
  O  O145  1  0.78423877  0.47296388  0.96102049  1
  O  O146  1  0.28423877  0.02703612  0.96102049  1
  O  O147  1  0.71576123  0.97296388  0.03897951  1
  O  O148  1  0.71282569  0.76678645  0.68128272  1
  O  O149  1  0.28717431  0.23321355  0.31871728  1
  O  O150  1  0.78717431  0.26678645  0.31871728  1
  O  O151  1  0.28717431  0.73321355  0.18128272  1
  O  O152  1  0.21282569  0.73321355  0.68128272  1
  O  O153  1  0.71282569  0.26678645  0.81871728  1
  O  O154  1  0.21282569  0.23321355  0.81871728  1
  O  O155  1  0.78717431  0.76678645  0.18128272  1
