# generated using pymatgen
data_Mn8Sn5
_symmetry_space_group_name_H-M   'P 1'
_cell_length_a   5.45640043
_cell_length_b   7.51006842
_cell_length_c   21.53212999
_cell_angle_alpha   90.00000000
_cell_angle_beta   90.00000000
_cell_angle_gamma   90.00000000
_symmetry_Int_Tables_number   1
_chemical_formula_structural   Mn8Sn5
_chemical_formula_sum   'Mn32 Sn20'
_cell_volume   882.34234278
_cell_formula_units_Z   4
loop_
 _symmetry_equiv_pos_site_id
 _symmetry_equiv_pos_as_xyz
  1  'x, y, z'
loop_
 _atom_site_type_symbol
 _atom_site_label
 _atom_site_symmetry_multiplicity
 _atom_site_fract_x
 _atom_site_fract_y
 _atom_site_fract_z
 _atom_site_occupancy
  Mn  Mn0  1  0.75000000  0.66107326  0.80109040  1
  Mn  Mn1  1  0.25000000  0.33892674  0.19890960  1
  Mn  Mn2  1  0.25000000  0.83892674  0.30109040  1
  Mn  Mn3  1  0.75000000  0.16107326  0.69890960  1
  Mn  Mn4  1  0.99355216  0.98759077  0.79644901  1
  Mn  Mn5  1  0.00644784  0.01240923  0.20355099  1
  Mn  Mn6  1  0.00644784  0.51240923  0.29644901  1
  Mn  Mn7  1  0.49355216  0.01240923  0.20355099  1
  Mn  Mn8  1  0.99355216  0.48759077  0.70355099  1
  Mn  Mn9  1  0.50644784  0.98759077  0.79644901  1
  Mn  Mn10  1  0.50644784  0.48759077  0.70355099  1
  Mn  Mn11  1  0.49355216  0.51240923  0.29644901  1
  Mn  Mn12  1  0.75000000  0.65964356  0.39726743  1
  Mn  Mn13  1  0.25000000  0.34035644  0.60273257  1
  Mn  Mn14  1  0.25000000  0.84035644  0.89726743  1
  Mn  Mn15  1  0.75000000  0.15964356  0.10273257  1
  Mn  Mn16  1  0.00000000  -0.00000000  0.00000000  1
  Mn  Mn17  1  0.00000000  0.50000000  0.50000000  1
  Mn  Mn18  1  0.50000000  -0.00000000  0.00000000  1
  Mn  Mn19  1  0.50000000  0.50000000  0.50000000  1
  Mn  Mn20  1  0.75000000  0.16503560  0.49731117  1
  Mn  Mn21  1  0.25000000  0.83496440  0.50268883  1
  Mn  Mn22  1  0.25000000  0.33496440  0.99731117  1
  Mn  Mn23  1  0.75000000  0.66503560  0.00268883  1
  Mn  Mn24  1  0.00023579  0.52087037  0.90224297  1
  Mn  Mn25  1  0.99976421  0.47912963  0.09775703  1
  Mn  Mn26  1  0.99976421  0.97912963  0.40224297  1
  Mn  Mn27  1  0.50023579  0.47912963  0.09775703  1
  Mn  Mn28  1  0.00023579  0.02087037  0.59775703  1
  Mn  Mn29  1  0.49976421  0.52087037  0.90224297  1
  Mn  Mn30  1  0.49976421  0.02087037  0.59775703  1
  Mn  Mn31  1  0.50023579  0.97912963  0.40224297  1
  Sn  Sn32  1  0.75000000  0.81397524  0.51049095  1
  Sn  Sn33  1  0.25000000  0.18602476  0.48950905  1
  Sn  Sn34  1  0.25000000  0.68602476  0.01049095  1
  Sn  Sn35  1  0.75000000  0.31397524  0.98950905  1
  Sn  Sn36  1  0.75000000  0.84608045  0.29336235  1
  Sn  Sn37  1  0.25000000  0.15391955  0.70663765  1
  Sn  Sn38  1  0.25000000  0.65391955  0.79336235  1
  Sn  Sn39  1  0.75000000  0.34608045  0.20663765  1
  Sn  Sn40  1  0.75000000  0.80990768  0.11413278  1
  Sn  Sn41  1  0.25000000  0.19009232  0.88586722  1
  Sn  Sn42  1  0.25000000  0.69009232  0.61413278  1
  Sn  Sn43  1  0.75000000  0.30990768  0.38586722  1
  Sn  Sn44  1  0.75000000  0.81302675  0.68928374  1
  Sn  Sn45  1  0.25000000  0.18697325  0.31071626  1
  Sn  Sn46  1  0.25000000  0.68697325  0.18928374  1
  Sn  Sn47  1  0.75000000  0.31302675  0.81071626  1
  Sn  Sn48  1  0.75000000  0.86883331  0.90051416  1
  Sn  Sn49  1  0.25000000  0.13116669  0.09948584  1
  Sn  Sn50  1  0.25000000  0.63116669  0.40051416  1
  Sn  Sn51  1  0.75000000  0.36883331  0.59948584  1
