# generated using pymatgen
data_Nd2Ta6O19
_symmetry_space_group_name_H-M   'P 1'
_cell_length_a   6.46310326
_cell_length_b   6.46310326
_cell_length_c   20.57772769
_cell_angle_alpha   90.00000000
_cell_angle_beta   90.00000000
_cell_angle_gamma   120.00000039
_symmetry_Int_Tables_number   1
_chemical_formula_structural   Nd2Ta6O19
_chemical_formula_sum   'Nd4 Ta12 O38'
_cell_volume   744.40663400
_cell_formula_units_Z   2
loop_
 _symmetry_equiv_pos_site_id
 _symmetry_equiv_pos_as_xyz
  1  'x, y, z'
loop_
 _atom_site_type_symbol
 _atom_site_label
 _atom_site_symmetry_multiplicity
 _atom_site_fract_x
 _atom_site_fract_y
 _atom_site_fract_z
 _atom_site_occupancy
  Nd  Nd0  1  0.66666700  0.33333300  -0.00000000  1
  Nd  Nd1  1  0.33333300  0.66666700  -0.00000000  1
  Nd  Nd2  1  0.33333300  0.66666700  0.50000000  1
  Nd  Nd3  1  0.66666700  0.33333300  0.50000000  1
  Ta  Ta4  1  0.65471006  0.65471006  0.84329203  1
  Ta  Ta5  1  0.34528994  0.34528994  0.15670797  1
  Ta  Ta6  1  1.00000000  0.34528994  0.84329203  1
  Ta  Ta7  1  0.34528994  0.34528994  0.34329203  1
  Ta  Ta8  1  1.00000000  0.34528994  0.65670797  1
  Ta  Ta9  1  0.00000000  0.65471006  0.15670797  1
  Ta  Ta10  1  0.65471006  0.65471006  0.65670797  1
  Ta  Ta11  1  0.00000000  0.65471006  0.34329203  1
  Ta  Ta12  1  0.34528994  1.00000000  0.84329203  1
  Ta  Ta13  1  0.65471006  0.00000000  0.15670797  1
  Ta  Ta14  1  0.65471006  0.00000000  0.34329203  1
  Ta  Ta15  1  0.34528994  1.00000000  0.65670797  1
  O  O16  1  0.59785975  0.59785975  0.75000000  1
  O  O17  1  0.40214025  0.40214025  0.25000000  1
  O  O18  1  1.00000000  0.40214025  0.75000000  1
  O  O19  1  0.00000000  0.59785975  0.25000000  1
  O  O20  1  0.40214025  1.00000000  0.75000000  1
  O  O21  1  0.59785975  0.00000000  0.25000000  1
  O  O22  1  0.66666700  0.33333300  0.84311732  1
  O  O23  1  0.33333300  0.66666700  0.15688268  1
  O  O24  1  0.33333300  0.66666700  0.34311732  1
  O  O25  1  0.33333300  0.66666700  0.65688268  1
  O  O26  1  0.66666700  0.33333300  0.65688268  1
  O  O27  1  0.66666700  0.33333300  0.34311732  1
  O  O28  1  0.66666700  0.33333300  0.15688268  1
  O  O29  1  0.33333300  0.66666700  0.84311732  1
  O  O30  1  0.76782354  0.76782354  0.34317932  1
  O  O31  1  0.23217646  0.23217646  0.65682068  1
  O  O32  1  1.00000000  0.23217646  0.34317932  1
  O  O33  1  0.23217646  0.23217646  0.84317932  1
  O  O34  1  1.00000000  0.23217646  0.15682068  1
  O  O35  1  0.00000000  0.76782354  0.65682068  1
  O  O36  1  0.76782354  0.76782354  0.15682068  1
  O  O37  1  0.00000000  0.76782354  0.84317932  1
  O  O38  1  0.23217646  1.00000000  0.34317932  1
  O  O39  1  0.76782354  0.00000000  0.65682068  1
  O  O40  1  0.76782354  0.00000000  0.84317932  1
  O  O41  1  0.23217646  1.00000000  0.15682068  1
  O  O42  1  0.59567286  0.59567286  0.93580886  1
  O  O43  1  0.40432714  0.40432714  0.06419114  1
  O  O44  1  1.00000000  0.40432714  0.93580886  1
  O  O45  1  0.40432714  0.40432714  0.43580886  1
  O  O46  1  1.00000000  0.40432714  0.56419114  1
  O  O47  1  0.00000000  0.59567286  0.06419114  1
  O  O48  1  0.59567286  0.59567286  0.56419114  1
  O  O49  1  0.00000000  0.59567286  0.43580886  1
  O  O50  1  0.40432714  1.00000000  0.93580886  1
  O  O51  1  0.59567286  0.00000000  0.06419114  1
  O  O52  1  0.59567286  0.00000000  0.43580886  1
  O  O53  1  0.40432714  1.00000000  0.56419114  1
