# generated using pymatgen
data_Li3FeS3
_symmetry_space_group_name_H-M   'P 1'
_cell_length_a   6.38562183
_cell_length_b   11.83746520
_cell_length_c   6.46556152
_cell_angle_alpha   90.00000000
_cell_angle_beta   77.42912859
_cell_angle_gamma   90.00000000
_symmetry_Int_Tables_number   1
_chemical_formula_structural   Li3FeS3
_chemical_formula_sum   'Li12 Fe4 S12'
_cell_volume   477.01301593
_cell_formula_units_Z   4
loop_
 _symmetry_equiv_pos_site_id
 _symmetry_equiv_pos_as_xyz
  1  'x, y, z'
loop_
 _atom_site_type_symbol
 _atom_site_label
 _atom_site_symmetry_multiplicity
 _atom_site_fract_x
 _atom_site_fract_y
 _atom_site_fract_z
 _atom_site_occupancy
  Li  Li0  1  0.97375935  0.85948101  0.31870499  1
  Li  Li1  1  0.99478231  0.28876594  0.28113755  1
  Li  Li2  1  0.92503816  0.42613533  0.82413355  1
  Li  Li3  1  0.50521769  0.78876594  0.21886245  1
  Li  Li4  1  0.57496184  0.92613533  0.67586645  1
  Li  Li5  1  0.52624065  0.35948101  0.18129501  1
  Li  Li6  1  0.47375935  0.64051899  0.81870499  1
  Li  Li7  1  0.42503816  0.07386467  0.32413355  1
  Li  Li8  1  0.49478231  0.21123406  0.78113755  1
  Li  Li9  1  0.07496184  0.57386467  0.17586645  1
  Li  Li10  1  0.00521769  0.71123406  0.71886245  1
  Li  Li11  1  0.02624065  0.14051899  0.68129501  1
  Fe  Fe12  1  0.11418078  0.91800124  0.88423624  1
  Fe  Fe13  1  0.38581922  0.41800124  0.61576376  1
  Fe  Fe14  1  0.61418078  0.58199876  0.38423624  1
  Fe  Fe15  1  0.88581922  0.08199876  0.11576376  1
  S  S16  1  0.25306463  0.57334238  0.49374180  1
  S  S17  1  0.27115726  0.41627705  0.96163917  1
  S  S18  1  0.22884274  0.91627705  0.53836083  1
  S  S19  1  0.24693537  0.07334238  0.00625820  1
  S  S20  1  0.20859139  0.75982898  0.02736536  1
  S  S21  1  0.29140861  0.25982898  0.47263464  1
  S  S22  1  0.70859139  0.74017102  0.52736536  1
  S  S23  1  0.79140861  0.24017102  0.97263464  1
  S  S24  1  0.75306463  0.92665762  0.99374180  1
  S  S25  1  0.77115726  0.08372295  0.46163917  1
  S  S26  1  0.72884274  0.58372295  0.03836083  1
  S  S27  1  0.74693537  0.42665762  0.50625820  1
