# generated using pymatgen
data_Cu2H5C3N3O5
_symmetry_space_group_name_H-M   'P 1'
_cell_length_a   6.44891733
_cell_length_b   7.93215034
_cell_length_c   7.93215034
_cell_angle_alpha   99.04739474
_cell_angle_beta   98.12173038
_cell_angle_gamma   98.12173038
_symmetry_Int_Tables_number   1
_chemical_formula_structural   Cu2H5C3N3O5
_chemical_formula_sum   'Cu4 H10 C6 N6 O10'
_cell_volume   391.10596538
_cell_formula_units_Z   2
loop_
 _symmetry_equiv_pos_site_id
 _symmetry_equiv_pos_as_xyz
  1  'x, y, z'
loop_
 _atom_site_type_symbol
 _atom_site_label
 _atom_site_symmetry_multiplicity
 _atom_site_fract_x
 _atom_site_fract_y
 _atom_site_fract_z
 _atom_site_occupancy
  Cu  Cu0  1  0.68587343  0.45955097  0.78681751  1
  Cu  Cu1  1  0.31412657  0.54044903  0.21318249  1
  Cu  Cu2  1  0.81412657  0.21318249  0.54044903  1
  Cu  Cu3  1  0.18587343  0.78681751  0.45955097  1
  H  H4  1  0.96783386  0.59212227  0.66535366  1
  H  H5  1  0.03216614  0.40787773  0.33464634  1
  H  H6  1  0.53216614  0.33464634  0.40787773  1
  H  H7  1  0.46783386  0.66535366  0.59212227  1
  H  H8  1  0.75000000  0.99065556  0.00934444  1
  H  H9  1  0.25000000  0.00934444  0.99065556  1
  H  H10  1  0.91741012  0.74845702  0.79176117  1
  H  H11  1  0.08258988  0.25154298  0.20823883  1
  H  H12  1  0.58258988  0.20823883  0.25154298  1
  H  H13  1  0.41741012  0.79176117  0.74845702  1
  C  C14  1  0.56738322  0.78848455  0.08221371  1
  C  C15  1  0.43261678  0.21151545  0.91778629  1
  C  C16  1  0.93261678  0.91778629  0.21151545  1
  C  C17  1  0.06738322  0.08221371  0.78848455  1
  C  C18  1  0.75000000  0.68310148  0.31689852  1
  C  C19  1  0.25000000  0.31689852  0.68310148  1
  N  N20  1  0.75000000  0.90617896  0.09382104  1
  N  N21  1  0.25000000  0.09382104  0.90617896  1
  N  N22  1  0.56616983  0.68442934  0.20337189  1
  N  N23  1  0.43383017  0.31557066  0.79662811  1
  N  N24  1  0.93383017  0.79662811  0.31557066  1
  N  N25  1  0.06616983  0.20337189  0.68442934  1
  O  O26  1  0.75000000  0.57902726  0.42097274  1
  O  O27  1  0.25000000  0.42097274  0.57902726  1
  O  O28  1  0.92924942  0.62231831  0.78071688  1
  O  O29  1  0.07075058  0.37768169  0.21928312  1
  O  O30  1  0.57075058  0.21928312  0.37768169  1
  O  O31  1  0.42924942  0.78071688  0.62231831  1
  O  O32  1  0.41159142  0.78140280  0.96542943  1
  O  O33  1  0.58840858  0.21859720  0.03457057  1
  O  O34  1  0.08840858  0.03457057  0.21859720  1
  O  O35  1  0.91159142  0.96542943  0.78140280  1
