# generated using pymatgen
data_CrAsRu
_symmetry_space_group_name_H-M   'P 1'
_cell_length_a   3.98715735
_cell_length_b   6.06045175
_cell_length_c   7.31609542
_cell_angle_alpha   90.00000000
_cell_angle_beta   90.00000000
_cell_angle_gamma   90.00000000
_symmetry_Int_Tables_number   1
_chemical_formula_structural   CrAsRu
_chemical_formula_sum   'Cr4 As4 Ru4'
_cell_volume   176.78594492
_cell_formula_units_Z   4
loop_
 _symmetry_equiv_pos_site_id
 _symmetry_equiv_pos_as_xyz
  1  'x, y, z'
loop_
 _atom_site_type_symbol
 _atom_site_label
 _atom_site_symmetry_multiplicity
 _atom_site_fract_x
 _atom_site_fract_y
 _atom_site_fract_z
 _atom_site_occupancy
  Cr  Cr0  1  0.75000000  0.96674592  0.30759047  1
  Cr  Cr1  1  0.25000000  0.03325408  0.69240953  1
  Cr  Cr2  1  0.25000000  0.53325408  0.80759047  1
  Cr  Cr3  1  0.75000000  0.46674592  0.19240953  1
  As  As4  1  0.75000000  0.74835448  0.61845834  1
  As  As5  1  0.25000000  0.25164552  0.38154166  1
  As  As6  1  0.25000000  0.75164552  0.11845834  1
  As  As7  1  0.75000000  0.24835448  0.88154166  1
  Ru  Ru8  1  0.75000000  0.84286676  0.94082871  1
  Ru  Ru9  1  0.25000000  0.15713324  0.05917129  1
  Ru  Ru10  1  0.25000000  0.65713324  0.44082871  1
  Ru  Ru11  1  0.75000000  0.34286676  0.55917129  1
