# generated using pymatgen
data_CoBi6P2(O7F)2
_symmetry_space_group_name_H-M   'P 1'
_cell_length_a   5.59635323
_cell_length_b   8.85253484
_cell_length_c   16.35034621
_cell_angle_alpha   78.11774221
_cell_angle_beta   80.14596926
_cell_angle_gamma   71.57351543
_symmetry_Int_Tables_number   1
_chemical_formula_structural   CoBi6P2(O7F)2
_chemical_formula_sum   'Co2 Bi12 P4 O28 F4'
_cell_volume   747.10758796
_cell_formula_units_Z   2
loop_
 _symmetry_equiv_pos_site_id
 _symmetry_equiv_pos_as_xyz
  1  'x, y, z'
loop_
 _atom_site_type_symbol
 _atom_site_label
 _atom_site_symmetry_multiplicity
 _atom_site_fract_x
 _atom_site_fract_y
 _atom_site_fract_z
 _atom_site_occupancy
  Co  Co0  1  0.00000000  -0.00000000  -0.00000000  1
  Co  Co1  1  0.00000000  0.50000000  0.50000000  1
  Bi  Bi2  1  0.89339805  0.89406466  0.32603552  1
  Bi  Bi3  1  0.10660195  0.10593534  0.67396448  1
  Bi  Bi4  1  0.11349823  0.60593534  0.17396448  1
  Bi  Bi5  1  0.88650177  0.39406466  0.82603552  1
  Bi  Bi6  1  0.76927247  0.23474517  0.16512640  1
  Bi  Bi7  1  0.23072753  0.76525483  0.83487360  1
  Bi  Bi8  1  0.16914404  0.26525483  0.33487360  1
  Bi  Bi9  1  0.83085596  0.73474517  0.66512640  1
  Bi  Bi10  1  0.57715492  0.54914946  0.32857405  1
  Bi  Bi11  1  0.42284508  0.45085054  0.67142595  1
  Bi  Bi12  1  0.45487844  0.95085054  0.17142595  1
  Bi  Bi13  1  0.54512156  0.04914946  0.82857405  1
  P  P14  1  0.63505983  0.72052008  0.99610058  1
  P  P15  1  0.36494017  0.27947992  0.00389942  1
  P  P16  1  0.35168049  0.77947992  0.50389942  1
  P  P17  1  0.64831951  0.22052008  0.49610058  1
  O  O18  1  0.83015019  0.00696871  0.11278509  1
  O  O19  1  0.16984981  0.99303129  0.88721491  1
  O  O20  1  0.94990399  0.49303129  0.38721491  1
  O  O21  1  0.05009601  0.50696871  0.61278509  1
  O  O22  1  0.21963800  0.75000000  0.25000000  1
  O  O23  1  0.78036200  0.25000000  0.75000000  1
  O  O24  1  0.71753024  0.75000000  0.25000000  1
  O  O25  1  0.28246976  0.25000000  0.75000000  1
  O  O26  1  0.62655263  0.68394357  0.51434767  1
  O  O27  1  0.37344737  0.31605643  0.48565233  1
  O  O28  1  0.82484388  0.81605643  0.98565233  1
  O  O29  1  0.17515612  0.18394357  0.01434767  1
  O  O30  1  0.38457499  0.78337615  0.05018034  1
  O  O31  1  0.61542501  0.21662385  0.94981966  1
  O  O32  1  0.21813148  0.71662385  0.44981966  1
  O  O33  1  0.78186852  0.28337615  0.55018034  1
  O  O34  1  0.38436625  0.32501007  0.08746788  1
  O  O35  1  0.61563375  0.67498993  0.91253212  1
  O  O36  1  0.79684420  0.17498993  0.41253212  1
  O  O37  1  0.20315580  0.82501007  0.58746788  1
  O  O38  1  0.40553420  0.41988885  0.24392282  1
  O  O39  1  0.59446580  0.58011115  0.75607718  1
  O  O40  1  0.06934587  0.08011115  0.25607718  1
  O  O41  1  0.93065413  0.91988885  0.74392282  1
  O  O42  1  0.56791833  0.07961860  0.25839783  1
  O  O43  1  0.43208167  0.92038140  0.74160217  1
  O  O44  1  0.90593477  0.42038140  0.24160217  1
  O  O45  1  0.09406523  0.57961860  0.75839783  1
  F  F46  1  0.36729130  0.95102188  0.44709726  1
  F  F47  1  0.63270870  0.04897812  0.55290274  1
  F  F48  1  0.76541044  0.54897812  0.05290274  1
  F  F49  1  0.23458956  0.45102188  0.94709726  1
