# generated using pymatgen
data_Ni5B2SbO10
_symmetry_space_group_name_H-M   'P 1'
_cell_length_a   3.14365640
_cell_length_b   5.46190061
_cell_length_c   10.81330176
_cell_angle_alpha   94.95210290
_cell_angle_beta   90.00000000
_cell_angle_gamma   90.00000000
_symmetry_Int_Tables_number   1
_chemical_formula_structural   Ni5B2SbO10
_chemical_formula_sum   'Ni5 B2 Sb1 O10'
_cell_volume   184.97499491
_cell_formula_units_Z   1
loop_
 _symmetry_equiv_pos_site_id
 _symmetry_equiv_pos_as_xyz
  1  'x, y, z'
loop_
 _atom_site_type_symbol
 _atom_site_label
 _atom_site_symmetry_multiplicity
 _atom_site_fract_x
 _atom_site_fract_y
 _atom_site_fract_z
 _atom_site_occupancy
  Ni  Ni0  1  0.50000000  0.71951027  0.78968590  1
  Ni  Ni1  1  0.50000000  0.28048973  0.21031410  1
  Ni  Ni2  1  0.00000000  0.50000000  0.00000000  1
  Ni  Ni3  1  0.50000000  0.00000000  0.50000000  1
  Ni  Ni4  1  0.00000000  0.00000000  0.00000000  1
  B  B5  1  0.00000000  0.79400967  0.25778304  1
  B  B6  1  0.00000000  0.20599033  0.74221696  1
  Sb  Sb7  1  0.00000000  0.50000000  0.50000000  1
  O  O8  1  0.50000000  0.74478340  0.97074990  1
  O  O9  1  0.50000000  0.25521660  0.02925010  1
  O  O10  1  0.50000000  0.69254081  0.59652380  1
  O  O11  1  0.50000000  0.30745919  0.40347620  1
  O  O12  1  0.00000000  0.82384391  0.39376875  1
  O  O13  1  0.00000000  0.17615609  0.60623125  1
  O  O14  1  0.00000000  0.99262602  0.79936161  1
  O  O15  1  0.00000000  0.00737398  0.20063839  1
  O  O16  1  0.00000000  0.44112332  0.79625414  1
  O  O17  1  0.00000000  0.55887668  0.20374586  1
