# generated using pymatgen
data_NaMg3Si3HO10
_symmetry_space_group_name_H-M   'P 1'
_cell_length_a   8.95047053
_cell_length_b   9.73276722
_cell_length_c   10.41047423
_cell_angle_alpha   65.85921561
_cell_angle_beta   83.57145730
_cell_angle_gamma   64.16504397
_symmetry_Int_Tables_number   1
_chemical_formula_structural   NaMg3Si3HO10
_chemical_formula_sum   'Na4 Mg12 Si12 H4 O40'
_cell_volume   742.43150355
_cell_formula_units_Z   4
loop_
 _symmetry_equiv_pos_site_id
 _symmetry_equiv_pos_as_xyz
  1  'x, y, z'
loop_
 _atom_site_type_symbol
 _atom_site_label
 _atom_site_symmetry_multiplicity
 _atom_site_fract_x
 _atom_site_fract_y
 _atom_site_fract_z
 _atom_site_occupancy
  Na  Na0  1  -0.00000000  0.50000000  0.50000000  1
  Na  Na1  1  0.16444622  0.14787357  0.54275384  1
  Na  Na2  1  0.83555378  0.85212643  0.45724616  1
  Na  Na3  1  0.50000000  0.00000000  -0.00000000  1
  Mg  Mg4  1  0.36705648  0.33491219  0.44379924  1
  Mg  Mg5  1  0.63294352  0.66508781  0.55620076  1
  Mg  Mg6  1  0.25804511  0.26853703  0.74262745  1
  Mg  Mg7  1  0.74195489  0.73146297  0.25737255  1
  Mg  Mg8  1  0.06428344  0.05909324  0.35087022  1
  Mg  Mg9  1  0.93571656  0.94090676  0.64912978  1
  Mg  Mg10  1  0.65925913  0.63435177  0.04220153  1
  Mg  Mg11  1  0.34074087  0.36564823  0.95779847  1
  Mg  Mg12  1  0.04528624  0.05838864  0.84390048  1
  Mg  Mg13  1  0.95471376  0.94161136  0.15609952  1
  Mg  Mg14  1  0.15073307  0.16411991  0.05573635  1
  Mg  Mg15  1  0.84926693  0.83588009  0.94426365  1
  Si  Si16  1  0.25384906  0.65347869  0.54851440  1
  Si  Si17  1  0.74615094  0.34652131  0.45148560  1
  Si  Si18  1  0.43934696  0.05577997  0.30095357  1
  Si  Si19  1  0.56065304  0.94422003  0.69904643  1
  Si  Si20  1  0.23251005  0.65941507  0.05712588  1
  Si  Si21  1  0.76748995  0.34058493  0.94287412  1
  Si  Si22  1  0.66477122  0.23861728  0.24370909  1
  Si  Si23  1  0.33522878  0.76138272  0.75629091  1
  Si  Si24  1  0.35467692  0.75372557  0.25054935  1
  Si  Si25  1  0.64532308  0.24627443  0.74945065  1
  Si  Si26  1  0.05835036  0.43886814  0.19246617  1
  Si  Si27  1  0.94164964  0.56113186  0.80753383  1
  H  H28  1  0.65746267  0.05305653  0.07834020  1
  H  H29  1  0.34253733  0.94694347  0.92165980  1
  H  H30  1  0.05979169  0.64071753  0.30513006  1
  H  H31  1  0.94020831  0.35928247  0.69486994  1
  O  O32  1  0.14289202  0.40181712  0.34091991  1
  O  O33  1  0.85710798  0.59818288  0.65908009  1
  O  O34  1  0.06601366  0.83193402  0.00950515  1
  O  O35  1  0.93398634  0.16806598  0.99049485  1
  O  O36  1  0.12527459  0.39262848  0.86994590  1
  O  O37  1  0.87472541  0.60737152  0.13005410  1
  O  O38  1  0.50598024  0.19534515  0.31510418  1
  O  O39  1  0.49401976  0.80465485  0.68489582  1
  O  O40  1  0.24589820  0.48304219  0.56370544  1
  O  O41  1  0.75410180  0.51695781  0.43629456  1
  O  O42  1  0.65237710  0.37867036  0.30155344  1
  O  O43  1  0.34762290  0.62132964  0.69844656  1
  O  O44  1  0.62632114  0.33676732  0.06453113  1
  O  O45  1  0.37367886  0.66323268  0.93546887  1
  O  O46  1  0.38966151  0.67813192  0.42493564  1
  O  O47  1  0.61033849  0.32186808  0.57506436  1
  O  O48  1  0.18506375  0.92892199  0.20632077  1
  O  O49  1  0.81493625  0.07107801  0.79367923  1
  O  O50  1  0.38885553  0.14363046  0.12750604  1
  O  O51  1  0.61114447  0.85636954  0.87249396  1
  O  O52  1  0.52174513  0.75013250  0.16885631  1
  O  O53  1  0.47825487  0.24986750  0.83114369  1
  O  O54  1  0.04078127  0.28635926  0.18055955  1
  O  O55  1  0.95921873  0.71364074  0.81944045  1
  O  O56  1  0.25564855  0.05488939  0.91320288  1
  O  O57  1  0.74435145  0.94511061  0.08679712  1
  O  O58  1  0.19811832  0.49893704  0.07428784  1
  O  O59  1  0.80188168  0.50106296  0.92571216  1
  O  O60  1  0.39925741  0.12910429  0.63510576  1
  O  O61  1  0.60074259  0.87089571  0.36489424  1
  O  O62  1  0.28804056  0.04293666  0.39275935  1
  O  O63  1  0.71195944  0.95706334  0.60724065  1
  O  O64  1  0.08789010  0.82660278  0.51432490  1
  O  O65  1  0.91210990  0.17339722  0.48567510  1
  O  O66  1  0.31224548  0.62027848  0.21117976  1
  O  O67  1  0.68775452  0.37972152  0.78882024  1
  O  O68  1  0.84183669  0.08202370  0.27386612  1
  O  O69  1  0.15816331  0.91797630  0.72613388  1
  O  O70  1  0.04150519  0.26747092  0.69005232  1
  O  O71  1  0.95849481  0.73252908  0.30994768  1
