# generated using pymatgen
data_Nd5Ge3O13
_symmetry_space_group_name_H-M   'P 1'
_cell_length_a   7.22147471
_cell_length_b   9.89086693
_cell_length_c   9.89086694
_cell_angle_alpha   119.99999989
_cell_angle_beta   90.00000000
_cell_angle_gamma   90.00000000
_symmetry_Int_Tables_number   1
_chemical_formula_structural   Nd5Ge3O13
_chemical_formula_sum   'Nd10 Ge6 O26'
_cell_volume   611.82221940
_cell_formula_units_Z   2
loop_
 _symmetry_equiv_pos_site_id
 _symmetry_equiv_pos_as_xyz
  1  'x, y, z'
loop_
 _atom_site_type_symbol
 _atom_site_label
 _atom_site_symmetry_multiplicity
 _atom_site_fract_x
 _atom_site_fract_y
 _atom_site_fract_z
 _atom_site_occupancy
  Nd  Nd0  1  0.00009133  0.66666700  0.33333300  1
  Nd  Nd1  1  0.99990867  0.33333300  0.66666700  1
  Nd  Nd2  1  0.50009133  0.33333300  0.66666700  1
  Nd  Nd3  1  0.49990867  0.66666700  0.33333300  1
  Nd  Nd4  1  0.75000000  0.76378028  0.99442468  1
  Nd  Nd5  1  0.25000000  0.23621972  0.00557532  1
  Nd  Nd6  1  0.75000000  0.23064440  0.23621972  1
  Nd  Nd7  1  0.25000000  0.76935560  0.76378028  1
  Nd  Nd8  1  0.75000000  0.00557532  0.76935560  1
  Nd  Nd9  1  0.25000000  0.99442468  0.23064440  1
  Ge  Ge10  1  0.75000000  0.97505218  0.37278332  1
  Ge  Ge11  1  0.25000000  0.02494782  0.62721668  1
  Ge  Ge12  1  0.75000000  0.39773114  0.02494782  1
  Ge  Ge13  1  0.25000000  0.60226886  0.97505218  1
  Ge  Ge14  1  0.75000000  0.62721668  0.60226886  1
  Ge  Ge15  1  0.25000000  0.37278332  0.39773114  1
  O  O16  1  0.75000000  0.50929746  0.69030051  1
  O  O17  1  0.25000000  0.49070254  0.30969949  1
  O  O18  1  0.75000000  0.18100305  0.49070254  1
  O  O19  1  0.25000000  0.81899695  0.50929746  1
  O  O20  1  0.75000000  0.30969949  0.81899695  1
  O  O21  1  0.25000000  0.69030051  0.18100305  1
  O  O22  1  0.94458987  0.90271073  0.24405148  1
  O  O23  1  0.05541013  0.09728927  0.75594852  1
  O  O24  1  0.94458987  0.34134075  0.09728927  1
  O  O25  1  0.44458987  0.09728927  0.75594852  1
  O  O26  1  0.05541013  0.65865925  0.90271073  1
  O  O27  1  0.55541013  0.90271073  0.24405148  1
  O  O28  1  0.94458987  0.75594852  0.65865925  1
  O  O29  1  0.44458987  0.65865925  0.90271073  1
  O  O30  1  0.05541013  0.24405148  0.34134075  1
  O  O31  1  0.55541013  0.34134075  0.09728927  1
  O  O32  1  0.44458987  0.24405148  0.34134075  1
  O  O33  1  0.55541013  0.75594852  0.65865925  1
  O  O34  1  0.75000000  -0.00000000  0.00000000  1
  O  O35  1  0.25000000  -0.00000000  0.00000000  1
  O  O36  1  0.75000000  0.86898498  0.47627482  1
  O  O37  1  0.25000000  0.13101502  0.52372518  1
  O  O38  1  0.75000000  0.60728984  0.13101502  1
  O  O39  1  0.25000000  0.39271016  0.86898498  1
  O  O40  1  0.75000000  0.52372518  0.39271016  1
  O  O41  1  0.25000000  0.47627482  0.60728984  1
