# generated using pymatgen
data_ZnCu2Ni
_symmetry_space_group_name_H-M   'P 1'
_cell_length_a   2.59441742
_cell_length_b   2.59441742
_cell_length_c   8.37505368
_cell_angle_alpha   90.00000000
_cell_angle_beta   81.08960657
_cell_angle_gamma   120.00000000
_symmetry_Int_Tables_number   1
_chemical_formula_structural   ZnCu2Ni
_chemical_formula_sum   'Zn1 Cu2 Ni1'
_cell_volume   48.03285134
_cell_formula_units_Z   1
loop_
 _symmetry_equiv_pos_site_id
 _symmetry_equiv_pos_as_xyz
  1  'x, y, z'
loop_
 _atom_site_type_symbol
 _atom_site_label
 _atom_site_symmetry_multiplicity
 _atom_site_fract_x
 _atom_site_fract_y
 _atom_site_fract_z
 _atom_site_occupancy
  Zn  Zn0  1  0.50383835  0.25191918  0.24424247  1
  Cu  Cu1  1  0.99776111  0.49888056  0.50335833  1
  Cu  Cu2  1  0.49754219  0.74877110  0.75368671  1
  Ni  Ni3  1  0.00085834  0.00042917  0.99871249  1
