# generated using pymatgen
data_Ba3Bi2I2O5
_symmetry_space_group_name_H-M   'P 1'
_cell_length_a   4.65698110
_cell_length_b   4.65698110
_cell_length_c   14.16025826
_cell_angle_alpha   99.46461293
_cell_angle_beta   99.46461293
_cell_angle_gamma   90.00000000
_symmetry_Int_Tables_number   1
_chemical_formula_structural   Ba3Bi2I2O5
_chemical_formula_sum   'Ba3 Bi2 I2 O5'
_cell_volume   298.68081740
_cell_formula_units_Z   1
loop_
 _symmetry_equiv_pos_site_id
 _symmetry_equiv_pos_as_xyz
  1  'x, y, z'
loop_
 _atom_site_type_symbol
 _atom_site_label
 _atom_site_symmetry_multiplicity
 _atom_site_fract_x
 _atom_site_fract_y
 _atom_site_fract_z
 _atom_site_occupancy
  Ba  Ba0  1  0.35455130  0.35455130  0.70910261  1
  Ba  Ba1  1  0.64544870  0.64544870  0.29089739  1
  Ba  Ba2  1  0.50000000  0.50000000  -0.00000000  1
  Bi  Bi3  1  0.07907158  0.07907158  0.15814315  1
  Bi  Bi4  1  0.92092842  0.92092842  0.84185685  1
  I  I5  1  0.20608432  0.20608432  0.41216865  1
  I  I6  1  0.79391568  0.79391568  0.58783135  1
  O  O7  1  0.08400652  0.58400652  0.16801305  1
  O  O8  1  0.91599348  0.41599348  0.83198695  1
  O  O9  1  0.58400652  0.08400652  0.16801305  1
  O  O10  1  0.41599348  0.91599348  0.83198695  1
  O  O11  1  -0.00000000  -0.00000000  -0.00000000  1
