# generated using pymatgen
data_Zr4NbAl3
_symmetry_space_group_name_H-M   'P 1'
_cell_length_a   5.33163153
_cell_length_b   8.18324965
_cell_length_c   8.19400809
_cell_angle_alpha   95.81249933
_cell_angle_beta   108.98600393
_cell_angle_gamma   70.98807774
_symmetry_Int_Tables_number   1
_chemical_formula_structural   Zr4NbAl3
_chemical_formula_sum   'Zr8 Nb2 Al6'
_cell_volume   319.61106610
_cell_formula_units_Z   2
loop_
 _symmetry_equiv_pos_site_id
 _symmetry_equiv_pos_as_xyz
  1  'x, y, z'
loop_
 _atom_site_type_symbol
 _atom_site_label
 _atom_site_symmetry_multiplicity
 _atom_site_fract_x
 _atom_site_fract_y
 _atom_site_fract_z
 _atom_site_occupancy
  Zr  Zr0  1  0.92513333  0.29427994  0.14454661  1
  Zr  Zr1  1  0.07486667  0.70572006  0.85545339  1
  Zr  Zr2  1  0.72001302  0.70250307  0.14252911  1
  Zr  Zr3  1  0.27998698  0.29749693  0.85747089  1
  Zr  Zr4  1  0.77848855  0.14043372  0.69741081  1
  Zr  Zr5  1  0.22151145  0.85956628  0.30258919  1
  Zr  Zr6  1  0.24980415  0.50000000  0.50000000  1
  Zr  Zr7  1  0.75019585  0.50000000  0.50000000  1
  Nb  Nb8  1  0.42296358  0.86445984  0.71038701  1
  Nb  Nb9  1  0.57703642  0.13554016  0.28961299  1
  Al  Al10  1  0.25218860  0.00000000  1.00000000  1
  Al  Al11  1  0.74781140  1.00000000  0.00000000  1
  Al  Al12  1  0.33967956  0.49352519  0.17288432  1
  Al  Al13  1  0.66032044  0.50647481  0.82711568  1
  Al  Al14  1  0.83263843  0.83373783  0.49901469  1
  Al  Al15  1  0.16736157  0.16626217  0.50098531  1
