# generated using pymatgen
data_Zr8As5
_symmetry_space_group_name_H-M   'P 1'
_cell_length_a   3.73493104
_cell_length_b   10.21268134
_cell_length_c   28.80093398
_cell_angle_alpha   90.00000000
_cell_angle_beta   90.00000000
_cell_angle_gamma   90.00000000
_symmetry_Int_Tables_number   1
_chemical_formula_structural   Zr8As5
_chemical_formula_sum   'Zr32 As20'
_cell_volume   1098.57304892
_cell_formula_units_Z   4
loop_
 _symmetry_equiv_pos_site_id
 _symmetry_equiv_pos_as_xyz
  1  'x, y, z'
loop_
 _atom_site_type_symbol
 _atom_site_label
 _atom_site_symmetry_multiplicity
 _atom_site_fract_x
 _atom_site_fract_y
 _atom_site_fract_z
 _atom_site_occupancy
  Zr  Zr0  1  0.50000000  0.50794009  0.41798607  1
  Zr  Zr1  1  0.50000000  0.49111522  0.58286327  1
  Zr  Zr2  1  0.50000000  0.99205991  0.91798607  1
  Zr  Zr3  1  0.50000000  0.00888478  0.08286327  1
  Zr  Zr4  1  0.50000000  0.82398384  0.38066363  1
  Zr  Zr5  1  0.50000000  0.17403940  0.61891464  1
  Zr  Zr6  1  0.50000000  0.67601616  0.88066363  1
  Zr  Zr7  1  0.50000000  0.32596060  0.11891464  1
  Zr  Zr8  1  0.50000000  0.50502624  0.23583676  1
  Zr  Zr9  1  0.50000000  0.49484037  0.76535784  1
  Zr  Zr10  1  0.50000000  0.99497376  0.73583676  1
  Zr  Zr11  1  0.50000000  0.00515963  0.26535784  1
  Zr  Zr12  1  0.50000000  0.66138643  0.12646694  1
  Zr  Zr13  1  0.50000000  0.33520467  0.87355192  1
  Zr  Zr14  1  0.50000000  0.83861357  0.62646694  1
  Zr  Zr15  1  0.50000000  0.16479533  0.37355192  1
  Zr  Zr16  1  -0.00000000  0.91335993  0.17096194  1
  Zr  Zr17  1  0.00000000  0.08938647  0.82988180  1
  Zr  Zr18  1  0.00000000  0.58664007  0.67096194  1
  Zr  Zr19  1  -0.00000000  0.41061353  0.32988180  1
  Zr  Zr20  1  0.00000000  0.50146600  0.50057873  1
  Zr  Zr21  1  -0.00000000  0.99853400  0.00057873  1
  Zr  Zr22  1  0.50000000  0.72640354  0.00752476  1
  Zr  Zr23  1  0.50000000  0.27022656  0.99328429  1
  Zr  Zr24  1  0.50000000  0.77359646  0.50752476  1
  Zr  Zr25  1  0.50000000  0.22977344  0.49328429  1
  Zr  Zr26  1  0.00000000  0.75204163  0.28331984  1
  Zr  Zr27  1  -0.00000000  0.24653764  0.71655093  1
  Zr  Zr28  1  -0.00000000  0.74795837  0.78331984  1
  Zr  Zr29  1  0.00000000  0.25346236  0.21655093  1
  Zr  Zr30  1  0.00000000  0.00417951  0.44376285  1
  Zr  Zr31  1  -0.00000000  0.49582049  0.94376285  1
  As  As32  1  -0.00000000  0.71400361  0.43975992  1
  As  As33  1  0.00000000  0.28804510  0.56152786  1
  As  As34  1  0.00000000  0.78599639  0.93975992  1
  As  As35  1  -0.00000000  0.21195490  0.06152786  1
  As  As36  1  0.00000000  0.80824834  0.07670152  1
  As  As37  1  -0.00000000  0.19626693  0.92522988  1
  As  As38  1  -0.00000000  0.69175166  0.57670152  1
  As  As39  1  -0.00000000  0.30373307  0.42522988  1
  As  As40  1  0.50000000  0.76342864  0.21388930  1
  As  As41  1  0.50000000  0.23566606  0.78541445  1
  As  As42  1  0.50000000  0.73657136  0.71388930  1
  As  As43  1  0.50000000  0.26433394  0.28541445  1
  As  As44  1  0.50000000  0.60377596  0.32857014  1
  As  As45  1  0.50000000  0.39299833  0.67146118  1
  As  As46  1  0.50000000  0.89622404  0.82857014  1
  As  As47  1  0.50000000  0.10700167  0.17146118  1
  As  As48  1  -0.00000000  0.48233775  0.16287006  1
  As  As49  1  -0.00000000  0.51821756  0.83906947  1
  As  As50  1  0.00000000  0.01766225  0.66287006  1
  As  As51  1  -0.00000000  0.98178244  0.33906947  1
