# generated using pymatgen
data_Ge11N11O5
_symmetry_space_group_name_H-M   'P 1'
_cell_length_a   5.91523389
_cell_length_b   5.91523389
_cell_length_c   10.22425331
_cell_angle_alpha   90.14765602
_cell_angle_beta   73.18192352
_cell_angle_gamma   120.28835058
_symmetry_Int_Tables_number   1
_chemical_formula_structural   Ge11N11O5
_chemical_formula_sum   'Ge11 N11 O5'
_cell_volume   291.21984075
_cell_formula_units_Z   1
loop_
 _symmetry_equiv_pos_site_id
 _symmetry_equiv_pos_as_xyz
  1  'x, y, z'
loop_
 _atom_site_type_symbol
 _atom_site_label
 _atom_site_symmetry_multiplicity
 _atom_site_fract_x
 _atom_site_fract_y
 _atom_site_fract_z
 _atom_site_occupancy
  Ge  Ge0  1  0.62558389  0.31321526  0.56212432  1
  Ge  Ge1  1  0.61934159  0.80232291  0.06592969  1
  Ge  Ge2  1  0.13174740  0.31472873  0.06592969  1
  Ge  Ge3  1  0.74309358  0.38295494  0.87395048  1
  Ge  Ge4  1  0.75078926  0.87633256  0.37287818  1
  Ge  Ge5  1  0.13315442  0.05660454  0.81024104  1
  Ge  Ge6  1  0.12841322  0.81016115  0.06142663  1
  Ge  Ge7  1  0.12471666  0.56388004  0.31140329  1
  Ge  Ge8  1  0.12275982  0.31270465  0.56453653  1
  Ge  Ge9  1  0.50148605  0.74861010  0.74990385  1
  Ge  Ge10  1  0.12465942  0.81229178  0.56212432  1
  N  N11  1  0.88594921  0.21115428  0.43827266  1
  N  N12  1  0.88582339  0.67647550  0.43770111  1
  N  N13  1  0.88351491  0.94260412  0.17388097  1
  N  N14  1  0.88177227  0.44533084  0.67289688  1
  N  N15  1  0.34405762  0.17630633  0.94432064  1
  N  N16  1  0.87937303  0.71162174  0.94432064  1
  N  N17  1  0.89798014  0.95016122  0.68556766  1
  N  N18  1  0.35057306  0.67577813  0.43827266  1
  N  N19  1  0.36427112  0.41645220  0.68556766  1
  N  N20  1  0.36881748  0.94762511  0.68355740  1
  N  N21  1  0.36867577  0.68364441  0.94767882  1
  O  O22  1  0.92495317  0.45967378  0.17690974  1
  O  O23  1  0.87832515  0.17423945  0.94743640  1
  O  O24  1  0.36077624  0.45897348  0.18025128  1
  O  O25  1  0.35597664  0.17801664  0.46600672  1
  O  O26  1  0.36341548  0.89813609  0.17690974  1
