# generated using pymatgen
data_Sr8Fe2Ru2O13
_symmetry_space_group_name_H-M   'P 1'
_cell_length_a   5.44758007
_cell_length_b   8.75735575
_cell_length_c   8.75735575
_cell_angle_alpha   85.01148558
_cell_angle_beta   106.29906493
_cell_angle_gamma   73.70093507
_symmetry_Int_Tables_number   1
_chemical_formula_structural   Sr8Fe2Ru2O13
_chemical_formula_sum   'Sr8 Fe2 Ru2 O13'
_cell_volume   378.59671280
_cell_formula_units_Z   1
loop_
 _symmetry_equiv_pos_site_id
 _symmetry_equiv_pos_as_xyz
  1  'x, y, z'
loop_
 _atom_site_type_symbol
 _atom_site_label
 _atom_site_symmetry_multiplicity
 _atom_site_fract_x
 _atom_site_fract_y
 _atom_site_fract_z
 _atom_site_occupancy
  Sr  Sr0  1  0.75552500  0.40142426  0.90087632  1
  Sr  Sr1  1  0.99409941  0.64463459  0.64302393  1
  Sr  Sr2  1  0.25590059  0.89302393  0.39463459  1
  Sr  Sr3  1  0.49447500  0.15087632  0.15142426  1
  Sr  Sr4  1  0.99409941  0.35697607  0.35536541  1
  Sr  Sr5  1  0.25590059  0.60536541  0.10697607  1
  Sr  Sr6  1  0.49447500  0.84857574  0.84912368  1
  Sr  Sr7  1  0.75552500  0.09912368  0.59857574  1
  Fe  Fe8  1  0.50041343  0.49818681  0.50181319  1
  Fe  Fe9  1  0.74958657  0.75181319  0.24818681  1
  Ru  Ru10  1  0.98914959  0.00480463  0.99519537  1
  Ru  Ru11  1  0.26085041  0.24519537  0.75480463  1
  O  O12  1  0.76349946  0.60571483  0.07984735  1
  O  O13  1  0.99950869  0.84079104  0.83892921  1
  O  O14  1  0.25049131  0.08892921  0.59079104  1
  O  O15  1  0.48650054  0.32984735  0.35571483  1
  O  O16  1  0.99950869  0.16107079  0.15920896  1
  O  O17  1  0.25049131  0.40920896  0.91107079  1
  O  O18  1  0.48650054  0.64428517  0.67015265  1
  O  O19  1  0.76349946  0.92015265  0.39428517  1
  O  O20  1  0.62500000  0.12500000  0.87500000  1
  O  O21  1  0.87249118  0.36120058  0.63879942  1
  O  O22  1  0.12500000  0.62500000  0.37500000  1
  O  O23  1  0.37750882  0.88879942  0.11120058  1
  O  O24  1  0.62500000  0.62500000  0.37500000  1
