# generated using pymatgen
data_Fe5(O4F)2
_symmetry_space_group_name_H-M   'P 1'
_cell_length_a   4.63453025
_cell_length_b   7.58441550
_cell_length_c   9.71754679
_cell_angle_alpha   109.55183148
_cell_angle_beta   91.54358739
_cell_angle_gamma   88.97360610
_symmetry_Int_Tables_number   1
_chemical_formula_structural   Fe5(O4F)2
_chemical_formula_sum   'Fe10 O16 F4'
_cell_volume   321.74714756
_cell_formula_units_Z   2
loop_
 _symmetry_equiv_pos_site_id
 _symmetry_equiv_pos_as_xyz
  1  'x, y, z'
loop_
 _atom_site_type_symbol
 _atom_site_label
 _atom_site_symmetry_multiplicity
 _atom_site_fract_x
 _atom_site_fract_y
 _atom_site_fract_z
 _atom_site_occupancy
  Fe  Fe0  1  0.48755849  0.31444708  0.90305236  1
  Fe  Fe1  1  0.47555779  0.09301138  0.31281748  1
  Fe  Fe2  1  0.48017437  0.89049739  0.69287489  1
  Fe  Fe3  1  0.53696582  0.70992647  0.09294802  1
  Fe  Fe4  1  0.51308987  0.49864233  0.48957845  1
  Fe  Fe5  1  0.98974740  0.60378462  0.80474220  1
  Fe  Fe6  1  0.98136315  0.18964573  0.60812037  1
  Fe  Fe7  1  0.98428125  0.80065523  0.40740382  1
  Fe  Fe8  1  0.00492654  0.40484159  0.19334279  1
  Fe  Fe9  1  0.03897814  0.99551036  0.00035419  1
  O  O10  1  0.79766712  0.76636317  0.98535506  1
  O  O11  1  0.78578842  0.95835418  0.58119931  1
  O  O12  1  0.81954921  0.56201172  0.36899082  1
  O  O13  1  0.80816976  0.36041986  0.77810906  1
  O  O14  1  0.69163636  0.65015117  0.66840119  1
  O  O15  1  0.70510866  0.47395067  0.07884696  1
  O  O16  1  0.69326526  0.85954216  0.27672651  1
  O  O17  1  0.68505357  0.26155977  0.47870505  1
  O  O18  1  0.29742770  0.13981228  0.72379898  1
  O  O19  1  0.30030733  0.72699966  0.51098610  1
  O  O20  1  0.30875354  0.33675272  0.31958313  1
  O  O21  1  0.32386379  0.93419813  0.12778837  1
  O  O22  1  0.31555144  0.55598090  0.92791228  1
  O  O23  1  0.17371395  0.03567153  0.42920834  1
  O  O24  1  0.18695146  0.83634890  0.81951724  1
  O  O25  1  0.19690924  0.24032984  0.02391136  1
  F  F26  1  0.80765953  0.15888815  0.17829700  1
  F  F27  1  0.69832835  0.06013826  0.88309242  1
  F  F28  1  0.19356142  0.43502769  0.61979328  1
  F  F29  1  0.21809106  0.64653706  0.21454496  1
