# generated using pymatgen
data_TaNbCu3O8
_symmetry_space_group_name_H-M   'P 1'
_cell_length_a   5.25265687
_cell_length_b   5.49784866
_cell_length_c   6.12654089
_cell_angle_alpha   73.46506451
_cell_angle_beta   82.46995856
_cell_angle_gamma   66.37067451
_symmetry_Int_Tables_number   1
_chemical_formula_structural   TaNbCu3O8
_chemical_formula_sum   'Ta1 Nb1 Cu3 O8'
_cell_volume   155.35838772
_cell_formula_units_Z   1
loop_
 _symmetry_equiv_pos_site_id
 _symmetry_equiv_pos_as_xyz
  1  'x, y, z'
loop_
 _atom_site_type_symbol
 _atom_site_label
 _atom_site_symmetry_multiplicity
 _atom_site_fract_x
 _atom_site_fract_y
 _atom_site_fract_z
 _atom_site_occupancy
  Ta  Ta0  1  0.77778925  0.46286257  0.35090041  1
  Nb  Nb1  1  0.21966977  0.53980368  0.65165371  1
  Cu  Cu2  1  0.99948031  0.00096584  0.00090850  1
  Cu  Cu3  1  0.53965777  0.92868462  0.75997428  1
  Cu  Cu4  1  0.46091797  0.07277205  0.23909910  1
  O  O5  1  0.76202349  0.79790425  0.10215868  1
  O  O6  1  0.24073145  0.20007788  0.89938103  1
  O  O7  1  0.73884333  0.25506325  0.17038774  1
  O  O8  1  0.26140282  0.74791377  0.83036427  1
  O  O9  1  0.82725070  0.68599521  0.59486933  1
  O  O10  1  0.16894654  0.31100207  0.40126345  1
  O  O11  1  0.63731190  0.26201261  0.63150718  1
  O  O12  1  0.36597470  0.73494221  0.36753234  1
