# generated using pymatgen
data_UCu2(SiNi4)2
_symmetry_space_group_name_H-M   'P 1'
_cell_length_a   4.86873934
_cell_length_b   6.29955299
_cell_length_c   6.19391125
_cell_angle_alpha   98.70472817
_cell_angle_beta   113.15069482
_cell_angle_gamma   67.34190178
_symmetry_Int_Tables_number   1
_chemical_formula_structural   UCu2(SiNi4)2
_chemical_formula_sum   'U1 Cu2 Si2 Ni8'
_cell_volume   161.19357052
_cell_formula_units_Z   1
loop_
 _symmetry_equiv_pos_site_id
 _symmetry_equiv_pos_as_xyz
  1  'x, y, z'
loop_
 _atom_site_type_symbol
 _atom_site_label
 _atom_site_symmetry_multiplicity
 _atom_site_fract_x
 _atom_site_fract_y
 _atom_site_fract_z
 _atom_site_occupancy
  U  U0  1  0.99994425  0.00000375  0.99998888  1
  Cu  Cu1  1  0.50001805  0.99999704  0.50000611  1
  Cu  Cu2  1  0.00001393  0.00000331  0.50004292  1
  Si  Si3  1  0.50006132  0.50000097  -0.00000611  1
  Si  Si4  1  -0.00007634  0.49997866  0.99995178  1
  Ni  Ni5  1  0.72241420  0.77248131  0.21664193  1
  Ni  Ni6  1  0.27762638  0.22748951  0.78335028  1
  Ni  Ni7  1  0.50553564  0.77249296  0.78335024  1
  Ni  Ni8  1  0.49452574  0.22743559  0.21665732  1
  Ni  Ni9  1  0.65357525  0.35241146  0.66034451  1
  Ni  Ni10  1  0.34629584  0.64764186  0.33950867  1
  Ni  Ni11  1  0.99324206  0.35232092  0.33961200  1
  Ni  Ni12  1  0.00682369  0.64774266  0.66055145  1
