# generated using pymatgen
data_Sr4Be3Ge5
_symmetry_space_group_name_H-M   'P 1'
_cell_length_a   4.17855878
_cell_length_b   4.17846371
_cell_length_c   18.45154955
_cell_angle_alpha   90.00000000
_cell_angle_beta   90.00000000
_cell_angle_gamma   60.00075999
_symmetry_Int_Tables_number   1
_chemical_formula_structural   Sr4Be3Ge5
_chemical_formula_sum   'Sr4 Be3 Ge5'
_cell_volume   279.00369284
_cell_formula_units_Z   1
loop_
 _symmetry_equiv_pos_site_id
 _symmetry_equiv_pos_as_xyz
  1  'x, y, z'
loop_
 _atom_site_type_symbol
 _atom_site_label
 _atom_site_symmetry_multiplicity
 _atom_site_fract_x
 _atom_site_fract_y
 _atom_site_fract_z
 _atom_site_occupancy
  Sr  Sr0  1  0.99999679  0.00000161  0.99421607  1
  Sr  Sr1  1  0.99999679  0.00000161  0.25578393  1
  Sr  Sr2  1  0.99994924  0.00002538  0.50013200  1
  Sr  Sr3  1  0.99994924  0.00002538  0.74986800  1
  Be  Be4  1  0.66663770  0.66668115  0.37424853  1
  Be  Be5  1  0.66672274  0.66663863  0.62500000  1
  Be  Be6  1  0.66663770  0.66668115  0.87575147  1
  Ge  Ge7  1  0.33330458  0.33334771  0.12500000  1
  Ge  Ge8  1  0.33339463  0.33330268  0.37495642  1
  Ge  Ge9  1  0.33334023  0.33332988  0.62500000  1
  Ge  Ge10  1  0.33339463  0.33330268  0.87504358  1
  Ge  Ge11  1  0.66667572  0.66666214  0.12500000  1
