# generated using pymatgen
data_YCo4Ge
_symmetry_space_group_name_H-M   'P 1'
_cell_length_a   3.99851007
_cell_length_b   4.93286963
_cell_length_c   4.93286950
_cell_angle_alpha   60.36286099
_cell_angle_beta   90.00000000
_cell_angle_gamma   90.00000000
_symmetry_Int_Tables_number   1
_chemical_formula_structural   YCo4Ge
_chemical_formula_sum   'Y1 Co4 Ge1'
_cell_volume   84.56769077
_cell_formula_units_Z   1
loop_
 _symmetry_equiv_pos_site_id
 _symmetry_equiv_pos_as_xyz
  1  'x, y, z'
loop_
 _atom_site_type_symbol
 _atom_site_label
 _atom_site_symmetry_multiplicity
 _atom_site_fract_x
 _atom_site_fract_y
 _atom_site_fract_z
 _atom_site_occupancy
  Y  Y0  1  -0.00000000  0.99998583  0.00001417  1
  Co  Co1  1  -0.00000000  0.33239860  0.33247437  1
  Co  Co2  1  -0.00000000  0.66752563  0.66760140  1
  Co  Co3  1  0.50000000  0.49999602  0.00000695  1
  Co  Co4  1  0.50000000  0.99999305  0.50000398  1
  Ge  Ge5  1  0.50000000  0.50000087  0.49999913  1
