# generated using pymatgen
data_SrNd3AlCuO8
_symmetry_space_group_name_H-M   'P 1'
_cell_length_a   5.33110202
_cell_length_b   5.32214145
_cell_length_c   6.93223606
_cell_angle_alpha   90.00000000
_cell_angle_beta   67.38634552
_cell_angle_gamma   90.00000000
_symmetry_Int_Tables_number   1
_chemical_formula_structural   SrNd3AlCuO8
_chemical_formula_sum   'Sr1 Nd3 Al1 Cu1 O8'
_cell_volume   181.56588673
_cell_formula_units_Z   1
loop_
 _symmetry_equiv_pos_site_id
 _symmetry_equiv_pos_as_xyz
  1  'x, y, z'
loop_
 _atom_site_type_symbol
 _atom_site_label
 _atom_site_symmetry_multiplicity
 _atom_site_fract_x
 _atom_site_fract_y
 _atom_site_fract_z
 _atom_site_occupancy
  Sr  Sr0  1  0.85539985  0.50000000  0.28920030  1
  Nd  Nd1  1  0.36244236  -0.00000000  0.27511528  1
  Nd  Nd2  1  0.63860106  0.00000000  0.72279788  1
  Nd  Nd3  1  0.13855037  0.50000000  0.72289927  1
  Al  Al4  1  0.50247380  0.50000000  0.99505239  1
  Cu  Cu5  1  0.99561303  0.00000000  0.00877395  1
  O  O6  1  0.18485981  -0.00000000  0.63028037  1
  O  O7  1  0.65946682  0.50000000  0.68106637  1
  O  O8  1  0.33074734  0.50000000  0.33850531  1
  O  O9  1  0.81552404  0.00000000  0.36895192  1
  O  O10  1  0.26218747  0.25451082  0.99183924  1
  O  O11  1  0.74597328  0.74548918  0.99183924  1
  O  O12  1  0.74597328  0.25451082  0.99183924  1
  O  O13  1  0.26218747  0.74548918  0.99183924  1
