# generated using pymatgen
data_RbNa2Al3Si3O13
_symmetry_space_group_name_H-M   'P 1'
_cell_length_a   5.22992427
_cell_length_b   8.16190336
_cell_length_c   15.45256404
_cell_angle_alpha   90.00000000
_cell_angle_beta   89.96272176
_cell_angle_gamma   90.00000000
_symmetry_Int_Tables_number   1
_chemical_formula_structural   RbNa2Al3Si3O13
_chemical_formula_sum   'Rb2 Na4 Al6 Si6 O26'
_cell_volume   659.61011733
_cell_formula_units_Z   2
loop_
 _symmetry_equiv_pos_site_id
 _symmetry_equiv_pos_as_xyz
  1  'x, y, z'
loop_
 _atom_site_type_symbol
 _atom_site_label
 _atom_site_symmetry_multiplicity
 _atom_site_fract_x
 _atom_site_fract_y
 _atom_site_fract_z
 _atom_site_occupancy
  Rb  Rb0  1  0.28065670  0.56398630  0.76390987  1
  Rb  Rb1  1  0.78065670  0.43601370  0.26390987  1
  Na  Na2  1  0.28401497  0.82024832  0.00082633  1
  Na  Na3  1  0.78401497  0.17975168  0.50082633  1
  Na  Na4  1  0.28094626  0.83530863  0.49965402  1
  Na  Na5  1  0.78094626  0.16469137  0.99965402  1
  Al  Al6  1  0.75337759  0.59660898  0.99988783  1
  Al  Al7  1  0.25337759  0.40339102  0.49988783  1
  Al  Al8  1  0.74463405  0.89984054  0.64591475  1
  Al  Al9  1  0.74412572  0.89801550  0.35419061  1
  Al  Al10  1  0.24412572  0.10198450  0.85419061  1
  Al  Al11  1  0.24463405  0.10015946  0.14591475  1
  Si  Si12  1  0.75110633  0.61594717  0.50052012  1
  Si  Si13  1  0.25110633  0.38405283  0.00052012  1
  Si  Si14  1  0.74333914  0.88355977  0.85737319  1
  Si  Si15  1  0.74318219  0.88225119  0.14276463  1
  Si  Si16  1  0.24318219  0.11774881  0.64276463  1
  Si  Si17  1  0.24333914  0.11644023  0.35737319  1
  O  O18  1  0.66606839  0.71509871  0.90893995  1
  O  O19  1  0.66776588  0.71528879  0.09031537  1
  O  O20  1  0.16776588  0.28471121  0.59031537  1
  O  O21  1  0.16606839  0.28490129  0.40893995  1
  O  O22  1  0.66634352  0.72357874  0.58545016  1
  O  O23  1  0.66873716  0.72312499  0.41524086  1
  O  O24  1  0.16873716  0.27687501  0.91524086  1
  O  O25  1  0.16634352  0.27642126  0.08545016  1
  O  O26  1  0.08510451  0.55485491  0.99915518  1
  O  O27  1  0.58510451  0.44514509  0.49915518  1
  O  O28  1  0.71967719  0.84625814  0.75464005  1
  O  O29  1  0.72070213  0.84760589  0.24558815  1
  O  O30  1  0.22070213  0.15239411  0.74558815  1
  O  O31  1  0.21967719  0.15374186  0.25464005  1
  O  O32  1  0.04630407  0.97083663  0.61175708  1
  O  O33  1  0.04481256  0.97158942  0.38856440  1
  O  O34  1  0.54481256  0.02841058  0.88856440  1
  O  O35  1  0.54630407  0.02916337  0.11175708  1
  O  O36  1  0.03193286  0.94246937  0.88588251  1
  O  O37  1  0.02980996  0.94411169  0.11368368  1
  O  O38  1  0.52980996  0.05588831  0.61368368  1
  O  O39  1  0.53193286  0.05753063  0.38588251  1
  O  O40  1  0.06000641  0.58058327  0.50011882  1
  O  O41  1  0.56000641  0.41941673  0.00011882  1
  O  O42  1  0.28135244  0.56471428  0.23562244  1
  O  O43  1  0.78135244  0.43528572  0.73562244  1
