# generated using pymatgen
data_Nb4C3
_symmetry_space_group_name_H-M   'P 1'
_cell_length_a   3.15596507
_cell_length_b   3.15596474
_cell_length_c   10.44907297
_cell_angle_alpha   81.31415812
_cell_angle_beta   98.68584096
_cell_angle_gamma   120.00000879
_symmetry_Int_Tables_number   1
_chemical_formula_structural   Nb4C3
_chemical_formula_sum   'Nb4 C3'
_cell_volume   88.74976242
_cell_formula_units_Z   1
loop_
 _symmetry_equiv_pos_site_id
 _symmetry_equiv_pos_as_xyz
  1  'x, y, z'
loop_
 _atom_site_type_symbol
 _atom_site_label
 _atom_site_symmetry_multiplicity
 _atom_site_fract_x
 _atom_site_fract_y
 _atom_site_fract_z
 _atom_site_occupancy
  Nb  Nb0  1  0.62639375  0.37360625  0.87918125  1
  Nb  Nb1  1  0.37504371  0.62495629  0.12513114  1
  Nb  Nb2  1  0.79112218  0.20887782  0.37336654  1
  Nb  Nb3  1  0.20566155  0.79433845  0.61698464  1
  C  C4  1  0.49682708  0.50317292  0.49048123  1
  C  C5  1  0.00420186  0.99579814  0.01260557  1
  C  C6  1  0.91574988  0.08425012  0.74724964  1
