# generated using pymatgen
data_SbAsRu
_symmetry_space_group_name_H-M   'P 1'
_cell_length_a   3.13329371
_cell_length_b   5.79344363
_cell_length_c   6.53264147
_cell_angle_alpha   87.22737182
_cell_angle_beta   90.00000000
_cell_angle_gamma   90.00000000
_symmetry_Int_Tables_number   1
_chemical_formula_structural   SbAsRu
_chemical_formula_sum   'Sb2 As2 Ru2'
_cell_volume   118.44535001
_cell_formula_units_Z   2
loop_
 _symmetry_equiv_pos_site_id
 _symmetry_equiv_pos_as_xyz
  1  'x, y, z'
loop_
 _atom_site_type_symbol
 _atom_site_label
 _atom_site_symmetry_multiplicity
 _atom_site_fract_x
 _atom_site_fract_y
 _atom_site_fract_z
 _atom_site_occupancy
  Sb  Sb0  1  -0.00000000  0.18350544  0.35397090  1
  Sb  Sb1  1  -0.00000000  0.81649456  0.64602910  1
  As  As2  1  0.50000000  0.67732823  0.13521308  1
  As  As3  1  0.50000000  0.32267177  0.86478692  1
  Ru  Ru4  1  0.50000000  0.50000000  0.50000000  1
  Ru  Ru5  1  -0.00000000  0.00000000  0.00000000  1
