# generated using pymatgen
data_NiMo4N5
_symmetry_space_group_name_H-M   'P 1'
_cell_length_a   2.88591362
_cell_length_b   9.53729511
_cell_length_c   3.99650453
_cell_angle_alpha   83.41954699
_cell_angle_beta   111.16517859
_cell_angle_gamma   98.70254921
_symmetry_Int_Tables_number   1
_chemical_formula_structural   NiMo4N5
_chemical_formula_sum   'Ni1 Mo4 N5'
_cell_volume   101.18310097
_cell_formula_units_Z   1
loop_
 _symmetry_equiv_pos_site_id
 _symmetry_equiv_pos_as_xyz
  1  'x, y, z'
loop_
 _atom_site_type_symbol
 _atom_site_label
 _atom_site_symmetry_multiplicity
 _atom_site_fract_x
 _atom_site_fract_y
 _atom_site_fract_z
 _atom_site_occupancy
  Ni  Ni0  1  0.19502280  0.79845237  0.59199410  1
  Mo  Mo1  1  0.99894171  0.99612095  0.00169458  1
  Mo  Mo2  1  0.79574650  0.19651163  0.39486590  1
  Mo  Mo3  1  0.59901912  0.40039646  0.79752685  1
  Mo  Mo4  1  0.40165885  0.60959696  0.19360492  1
  N  N5  1  0.69548456  0.97616780  0.41469591  1
  N  N6  1  0.49549950  0.16389881  0.82702479  1
  N  N7  1  0.29872762  0.36595501  0.23139378  1
  N  N8  1  0.10049269  0.56076318  0.64015018  1
  N  N9  1  0.91960665  0.76543683  0.07364899  1
