# generated using pymatgen
data_SbPd6Se
_symmetry_space_group_name_H-M   'P 1'
_cell_length_a   4.53899150
_cell_length_b   4.53899151
_cell_length_c   7.86077003
_cell_angle_alpha   73.21915525
_cell_angle_beta   90.00000000
_cell_angle_gamma   119.99999995
_symmetry_Int_Tables_number   1
_chemical_formula_structural   SbPd6Se
_chemical_formula_sum   'Sb1 Pd6 Se1'
_cell_volume   132.23040236
_cell_formula_units_Z   1
loop_
 _symmetry_equiv_pos_site_id
 _symmetry_equiv_pos_as_xyz
  1  'x, y, z'
loop_
 _atom_site_type_symbol
 _atom_site_label
 _atom_site_symmetry_multiplicity
 _atom_site_fract_x
 _atom_site_fract_y
 _atom_site_fract_z
 _atom_site_occupancy
  Sb  Sb0  1  0.00000000  0.00000000  -0.00000000  1
  Pd  Pd1  1  0.25128494  0.50256988  0.24614518  1
  Pd  Pd2  1  0.74871506  0.49743012  0.75385482  1
  Pd  Pd3  1  0.62389637  0.24779275  0.12831088  1
  Pd  Pd4  1  0.12609836  0.25219672  0.62170492  1
  Pd  Pd5  1  0.87390164  0.74780328  0.37829508  1
  Pd  Pd6  1  0.37610363  0.75220725  0.87168912  1
  Se  Se7  1  0.50000000  0.00000000  0.50000000  1
