# generated using pymatgen
data_Fe4O7F
_symmetry_space_group_name_H-M   'P 1'
_cell_length_a   4.59238314
_cell_length_b   9.67020430
_cell_length_c   6.04909054
_cell_angle_alpha   71.76348423
_cell_angle_beta   89.98821608
_cell_angle_gamma   88.36628830
_symmetry_Int_Tables_number   1
_chemical_formula_structural   Fe4O7F
_chemical_formula_sum   'Fe8 O14 F2'
_cell_volume   255.02849140
_cell_formula_units_Z   2
loop_
 _symmetry_equiv_pos_site_id
 _symmetry_equiv_pos_as_xyz
  1  'x, y, z'
loop_
 _atom_site_type_symbol
 _atom_site_label
 _atom_site_symmetry_multiplicity
 _atom_site_fract_x
 _atom_site_fract_y
 _atom_site_fract_z
 _atom_site_occupancy
  Fe  Fe0  1  0.49407237  0.24553268  0.62719899  1
  Fe  Fe1  1  0.51361028  0.75632093  0.87186198  1
  Fe  Fe2  1  0.49856861  0.74886410  0.37564039  1
  Fe  Fe3  1  0.52019524  0.26162414  0.11917922  1
  Fe  Fe4  1  0.99328791  0.99413445  0.50726119  1
  Fe  Fe5  1  0.99154570  0.49786478  0.74141191  1
  Fe  Fe6  1  0.99323572  0.99410245  0.99825115  1
  Fe  Fe7  1  0.99140711  0.49794743  0.26073547  1
  O  O8  1  0.79923047  0.39881577  0.55041525  1
  O  O9  1  0.81790494  0.41055396  0.04465719  1
  O  O10  1  0.80678593  0.89896747  0.80068737  1
  O  O11  1  0.80303098  0.90388360  0.29770524  1
  O  O12  1  0.69097086  0.15265063  0.42039107  1
  O  O13  1  0.69327893  0.65398184  0.17381940  1
  O  O14  1  0.69121362  0.15262488  0.92690228  1
  O  O15  1  0.69377232  0.65404939  0.67205297  1
  O  O16  1  0.30850283  0.84586399  0.07989409  1
  O  O17  1  0.30881705  0.84584784  0.57446135  1
  O  O18  1  0.30593760  0.34723334  0.82768302  1
  O  O19  1  0.30556349  0.34704058  0.32531241  1
  O  O20  1  0.19402385  0.59798694  0.45111335  1
  O  O21  1  0.19104035  0.09145323  0.70473152  1
  F  F22  1  0.20221765  0.60202920  0.94909804  1
  F  F23  1  0.19178822  0.10062437  0.19953312  1
