# generated using pymatgen
data_Nb2CrMo2
_symmetry_space_group_name_H-M   'P 1'
_cell_length_a   2.76453476
_cell_length_b   2.76453476
_cell_length_c   11.28035115
_cell_angle_alpha   85.35750959
_cell_angle_beta   85.35750959
_cell_angle_gamma   109.84541352
_symmetry_Int_Tables_number   1
_chemical_formula_structural   Nb2CrMo2
_chemical_formula_sum   'Nb2 Cr1 Mo2'
_cell_volume   80.28356075
_cell_formula_units_Z   1
loop_
 _symmetry_equiv_pos_site_id
 _symmetry_equiv_pos_as_xyz
  1  'x, y, z'
loop_
 _atom_site_type_symbol
 _atom_site_label
 _atom_site_symmetry_multiplicity
 _atom_site_fract_x
 _atom_site_fract_y
 _atom_site_fract_z
 _atom_site_occupancy
  Nb  Nb0  1  0.20179292  0.20179292  0.59641417  1
  Nb  Nb1  1  0.59096546  0.59096546  0.81806909  1
  Cr  Cr2  1  0.99555181  0.99555181  0.00889639  1
  Mo  Mo3  1  0.40564551  0.40564551  0.18870899  1
  Mo  Mo4  1  0.80604432  0.80604432  0.38791137  1
