# generated using pymatgen
data_MnFe5O8
_symmetry_space_group_name_H-M   'P 1'
_cell_length_a   6.06135890
_cell_length_b   6.06135890
_cell_length_c   6.12331544
_cell_angle_alpha   90.00000000
_cell_angle_beta   60.33414463
_cell_angle_gamma   120.00000000
_symmetry_Int_Tables_number   1
_chemical_formula_structural   MnFe5O8
_chemical_formula_sum   'Mn1 Fe5 O8'
_cell_volume   159.87726656
_cell_formula_units_Z   1
loop_
 _symmetry_equiv_pos_site_id
 _symmetry_equiv_pos_as_xyz
  1  'x, y, z'
loop_
 _atom_site_type_symbol
 _atom_site_label
 _atom_site_symmetry_multiplicity
 _atom_site_fract_x
 _atom_site_fract_y
 _atom_site_fract_z
 _atom_site_occupancy
  Mn  Mn0  1  0.75000000  0.37500000  0.87500000  1
  Fe  Fe1  1  0.50265611  0.75132805  0.74601584  1
  Fe  Fe2  1  0.99734389  0.99867195  0.00398416  1
  Fe  Fe3  1  0.25000000  0.37500000  0.37500000  1
  Fe  Fe4  1  0.25000000  0.87500000  0.37500000  1
  Fe  Fe5  1  0.75000000  0.37500000  0.37500000  1
  O  O6  1  0.25969006  0.12984503  0.61046490  1
  O  O7  1  0.73179139  0.12275822  0.14545039  1
  O  O8  1  0.73179139  0.60903317  0.14545039  1
  O  O9  1  0.24551643  0.12275822  0.14545039  1
  O  O10  1  0.24030994  0.62015497  0.13953510  1
  O  O11  1  0.76820861  0.62724178  0.60454961  1
  O  O12  1  0.76820861  0.14096683  0.60454961  1
  O  O13  1  0.25448357  0.62724178  0.60454961  1
