# generated using pymatgen
data_Nb3Fe8Si
_symmetry_space_group_name_H-M   'P 1'
_cell_length_a   4.78356367
_cell_length_b   4.78356294
_cell_length_c   7.77386221
_cell_angle_alpha   89.99968257
_cell_angle_beta   90.00034069
_cell_angle_gamma   119.99565501
_symmetry_Int_Tables_number   1
_chemical_formula_structural   Nb3Fe8Si
_chemical_formula_sum   'Nb3 Fe8 Si1'
_cell_volume   154.05987275
_cell_formula_units_Z   1
loop_
 _symmetry_equiv_pos_site_id
 _symmetry_equiv_pos_as_xyz
  1  'x, y, z'
loop_
 _atom_site_type_symbol
 _atom_site_label
 _atom_site_symmetry_multiplicity
 _atom_site_fract_x
 _atom_site_fract_y
 _atom_site_fract_z
 _atom_site_occupancy
  Nb  Nb0  1  0.33331149  0.66668814  0.44503272  1
  Nb  Nb1  1  0.33333914  0.66666039  0.06813882  1
  Nb  Nb2  1  0.66661703  0.33338355  0.91575806  1
  Fe  Fe3  1  0.00008717  0.99991194  0.50196923  1
  Fe  Fe4  1  0.99996872  0.00003238  0.00904378  1
  Fe  Fe5  1  0.16840980  0.33674929  0.74998859  1
  Fe  Fe6  1  0.16839383  0.83160602  0.74996958  1
  Fe  Fe7  1  0.66325078  0.83159043  0.74998855  1
  Fe  Fe8  1  0.83023911  0.66051638  0.25280321  1
  Fe  Fe9  1  0.83024188  0.16975821  0.25289804  1
  Fe  Fe10  1  0.33948338  0.16976072  0.25280326  1
  Si  Si11  1  0.66665766  0.33334253  0.55160615  1
