# generated using pymatgen
data_NaTi8(Bi3O10)3
_symmetry_space_group_name_H-M   'P 1'
_cell_length_a   5.50699732
_cell_length_b   5.50901101
_cell_length_c   20.48178846
_cell_angle_alpha   90.00000000
_cell_angle_beta   82.27396737
_cell_angle_gamma   90.00000000
_symmetry_Int_Tables_number   1
_chemical_formula_structural   NaTi8(Bi3O10)3
_chemical_formula_sum   'Na1 Ti8 Bi9 O30'
_cell_volume   615.73798843
_cell_formula_units_Z   1
loop_
 _symmetry_equiv_pos_site_id
 _symmetry_equiv_pos_as_xyz
  1  'x, y, z'
loop_
 _atom_site_type_symbol
 _atom_site_label
 _atom_site_symmetry_multiplicity
 _atom_site_fract_x
 _atom_site_fract_y
 _atom_site_fract_z
 _atom_site_occupancy
  Na  Na0  1  -0.00000000  0.00000000  0.00000000  1
  Ti  Ti1  1  0.35007370  0.00000000  0.29985259  1
  Ti  Ti2  1  0.85005173  0.50000000  0.29989653  1
  Ti  Ti3  1  0.14994827  0.50000000  0.70010347  1
  Ti  Ti4  1  0.64992630  -0.00000000  0.70014741  1
  Ti  Ti5  1  0.45176441  -0.00000000  0.09647118  1
  Ti  Ti6  1  0.95177255  0.50000000  0.09645491  1
  Ti  Ti7  1  0.04822745  0.50000000  0.90354509  1
  Ti  Ti8  1  0.54823559  0.00000000  0.90352882  1
  Bi  Bi9  1  0.10655309  0.00000000  0.78689382  1
  Bi  Bi10  1  0.59359999  0.50000000  0.81280002  1
  Bi  Bi11  1  0.40640001  0.50000000  0.18719998  1
  Bi  Bi12  1  0.89344691  -0.00000000  0.21310618  1
  Bi  Bi13  1  0.21880144  -0.00000000  0.56239711  1
  Bi  Bi14  1  0.71892453  0.50000000  0.56215094  1
  Bi  Bi15  1  0.28107547  0.50000000  0.43784906  1
  Bi  Bi16  1  0.78119856  0.00000000  0.43760289  1
  Bi  Bi17  1  0.50000000  0.50000000  0.00000000  1
  O  O18  1  0.40476246  0.00000000  0.19047509  1
  O  O19  1  0.90480866  0.50000000  0.19038268  1
  O  O20  1  0.09519134  0.50000000  0.80961732  1
  O  O21  1  0.59523754  0.00000000  0.80952491  1
  O  O22  1  0.38595231  0.24530354  0.71863262  1
  O  O23  1  0.89541508  0.75469646  0.71863262  1
  O  O24  1  0.89541508  0.24530354  0.71863262  1
  O  O25  1  0.38595231  0.75469646  0.71863262  1
  O  O26  1  0.10458492  0.24530354  0.28136738  1
  O  O27  1  0.61404769  0.75469646  0.28136738  1
  O  O28  1  0.61404769  0.24530354  0.28136738  1
  O  O29  1  0.10458492  0.75469646  0.28136738  1
  O  O30  1  0.30590422  -0.00000000  0.38819156  1
  O  O31  1  0.80588295  0.50000000  0.38823410  1
  O  O32  1  0.19411705  0.50000000  0.61176590  1
  O  O33  1  0.69409578  0.00000000  0.61180844  1
  O  O34  1  0.50000000  0.00000000  0.00000000  1
  O  O35  1  -0.00000000  0.50000000  0.00000000  1
  O  O36  1  0.31054134  0.26262830  0.90424247  1
  O  O37  1  0.78521620  0.73737170  0.90424247  1
  O  O38  1  0.78521620  0.26262830  0.90424247  1
  O  O39  1  0.31054134  0.73737170  0.90424247  1
  O  O40  1  0.21478380  0.26262830  0.09575753  1
  O  O41  1  0.68945866  0.73737170  0.09575753  1
  O  O42  1  0.68945866  0.26262830  0.09575753  1
  O  O43  1  0.21478380  0.73737170  0.09575753  1
  O  O44  1  0.50000000  0.25005054  0.50000000  1
  O  O45  1  -0.00000000  0.74994946  0.50000000  1
  O  O46  1  -0.00000000  0.25005054  0.50000000  1
  O  O47  1  0.50000000  0.74994946  0.50000000  1
