# generated using pymatgen
data_MnHgS2
_symmetry_space_group_name_H-M   'P 1'
_cell_length_a   4.11957476
_cell_length_b   4.11957476
_cell_length_c   7.06531951
_cell_angle_alpha   73.05012799
_cell_angle_beta   90.00000000
_cell_angle_gamma   120.00000000
_symmetry_Int_Tables_number   1
_chemical_formula_structural   MnHgS2
_chemical_formula_sum   'Mn1 Hg1 S2'
_cell_volume   97.77995191
_cell_formula_units_Z   1
loop_
 _symmetry_equiv_pos_site_id
 _symmetry_equiv_pos_as_xyz
  1  'x, y, z'
loop_
 _atom_site_type_symbol
 _atom_site_label
 _atom_site_symmetry_multiplicity
 _atom_site_fract_x
 _atom_site_fract_y
 _atom_site_fract_z
 _atom_site_occupancy
  Mn  Mn0  1  0.50160128  0.00320256  0.49519616  1
  Hg  Hg1  1  0.99781524  0.99563048  0.00655427  1
  S  S2  1  0.86880104  0.73760208  0.39359688  1
  S  S3  1  0.38178244  0.76356488  0.85465268  1
