# generated using pymatgen
data_MnZnTe4
_symmetry_space_group_name_H-M   'P 1'
_cell_length_a   6.89624077
_cell_length_b   6.90667303
_cell_length_c   6.87918445
_cell_angle_alpha   89.82857706
_cell_angle_beta   90.00000000
_cell_angle_gamma   90.00000000
_symmetry_Int_Tables_number   1
_chemical_formula_structural   MnZnTe4
_chemical_formula_sum   'Mn2 Zn2 Te8'
_cell_volume   327.65463990
_cell_formula_units_Z   2
loop_
 _symmetry_equiv_pos_site_id
 _symmetry_equiv_pos_as_xyz
  1  'x, y, z'
loop_
 _atom_site_type_symbol
 _atom_site_label
 _atom_site_symmetry_multiplicity
 _atom_site_fract_x
 _atom_site_fract_y
 _atom_site_fract_z
 _atom_site_occupancy
  Mn  Mn0  1  0.50000000  -0.00000000  0.50000000  1
  Mn  Mn1  1  -0.00000000  0.50000000  0.50000000  1
  Zn  Zn2  1  0.50000000  0.50000000  0.00000000  1
  Zn  Zn3  1  -0.00000000  -0.00000000  0.00000000  1
  Te  Te4  1  0.88464669  0.38382808  0.12087939  1
  Te  Te5  1  0.38464669  0.11617192  0.87912061  1
  Te  Te6  1  0.12066615  0.88006670  0.38483018  1
  Te  Te7  1  0.62066615  0.61993330  0.61516982  1
  Te  Te8  1  0.11535331  0.61617192  0.87912061  1
  Te  Te9  1  0.61535331  0.88382808  0.12087939  1
  Te  Te10  1  0.87933385  0.11993330  0.61516982  1
  Te  Te11  1  0.37933385  0.38006670  0.38483018  1
