# generated using pymatgen
data_Na4Eu2P4Pb
_symmetry_space_group_name_H-M   'P 1'
_cell_length_a   7.26053725
_cell_length_b   9.65282383
_cell_length_c   9.64543222
_cell_angle_alpha   60.01637527
_cell_angle_beta   91.97171359
_cell_angle_gamma   90.97465587
_symmetry_Int_Tables_number   1
_chemical_formula_structural   Na4Eu2P4Pb
_chemical_formula_sum   'Na8 Eu4 P8 Pb2'
_cell_volume   585.18055330
_cell_formula_units_Z   2
loop_
 _symmetry_equiv_pos_site_id
 _symmetry_equiv_pos_as_xyz
  1  'x, y, z'
loop_
 _atom_site_type_symbol
 _atom_site_label
 _atom_site_symmetry_multiplicity
 _atom_site_fract_x
 _atom_site_fract_y
 _atom_site_fract_z
 _atom_site_occupancy
  Na  Na0  1  0.37696884  0.53870102  0.53335028  1
  Na  Na1  1  0.87700544  0.46129109  0.07213203  1
  Na  Na2  1  0.18968766  0.14270699  0.13397937  1
  Na  Na3  1  0.22281687  0.15266475  0.71071376  1
  Na  Na4  1  0.21001222  0.71655287  0.14776073  1
  Na  Na5  1  0.72277403  0.84726281  0.86331591  1
  Na  Na6  1  0.68964329  0.85738580  0.27660008  1
  Na  Na7  1  0.71022437  0.28341416  0.86436636  1
  Eu  Eu8  1  0.38330059  0.52534133  0.94247567  1
  Eu  Eu9  1  0.37543457  0.94688016  0.51660412  1
  Eu  Eu10  1  0.88326765  0.47508621  0.46739766  1
  Eu  Eu11  1  0.87481050  0.05259337  0.46369675  1
  P  P12  1  0.14016070  0.82200508  0.80765157  1
  P  P13  1  0.09222040  0.81850326  0.36929107  1
  P  P14  1  0.11335636  0.36993596  0.80910632  1
  P  P15  1  0.59228654  0.18138225  0.18787531  1
  P  P16  1  0.63969454  0.17783447  0.62952794  1
  P  P17  1  0.61359879  0.63009131  0.17917472  1
  P  P18  1  0.12778453  0.32333993  0.34174870  1
  P  P19  1  0.62768730  0.67680561  0.66503033  1
  Pb  Pb20  1  0.49267431  0.33733062  0.34053541  1
  Pb  Pb21  1  0.99259051  0.66289097  0.67766591  1
