# generated using pymatgen
data_Mn8O17
_symmetry_space_group_name_H-M   'P 1'
_cell_length_a   5.83466664
_cell_length_b   7.17895535
_cell_length_c   7.16340672
_cell_angle_alpha   92.39973831
_cell_angle_beta   101.87319621
_cell_angle_gamma   78.36668942
_symmetry_Int_Tables_number   1
_chemical_formula_structural   Mn8O17
_chemical_formula_sum   'Mn8 O17'
_cell_volume   287.60097673
_cell_formula_units_Z   1
loop_
 _symmetry_equiv_pos_site_id
 _symmetry_equiv_pos_as_xyz
  1  'x, y, z'
loop_
 _atom_site_type_symbol
 _atom_site_label
 _atom_site_symmetry_multiplicity
 _atom_site_fract_x
 _atom_site_fract_y
 _atom_site_fract_z
 _atom_site_occupancy
  Mn  Mn0  1  0.17472655  0.81802572  0.51599895  1
  Mn  Mn1  1  0.67413861  0.81811640  0.51480006  1
  Mn  Mn2  1  0.82586139  0.18188360  0.48519994  1
  Mn  Mn3  1  0.32527345  0.18197428  0.48400105  1
  Mn  Mn4  1  0.58326283  0.48453866  0.81772773  1
  Mn  Mn5  1  0.08296198  0.48530017  0.81750944  1
  Mn  Mn6  1  0.41703802  0.51469983  0.18249056  1
  Mn  Mn7  1  0.91673717  0.51546134  0.18227227  1
  O  O8  1  0.77083917  0.62171154  0.70632307  1
  O  O9  1  0.27171670  0.62163544  0.70638685  1
  O  O10  1  0.22828330  0.37836456  0.29361315  1
  O  O11  1  0.72916083  0.37828846  0.29367693  1
  O  O12  1  0.08215101  0.29355865  0.62161104  1
  O  O13  1  0.58254120  0.29228595  0.62228341  1
  O  O14  1  0.91745880  0.70771405  0.37771659  1
  O  O15  1  0.41784899  0.70644135  0.37838896  1
  O  O16  1  0.07679896  0.04722850  0.35958382  1
  O  O17  1  0.57770983  0.04777084  0.35909114  1
  O  O18  1  0.92229017  0.95222916  0.64090886  1
  O  O19  1  0.42320104  0.95277150  0.64041618  1
  O  O20  1  0.10265564  0.64008451  0.04823096  1
  O  O21  1  0.60183188  0.64008192  0.04745723  1
  O  O22  1  0.89816812  0.35991808  0.95254277  1
  O  O23  1  0.39734436  0.35991549  0.95176904  1
  O  O24  1  0.75000000  -0.00000000  0.00000000  1
