# generated using pymatgen
data_NaZr2SN2Cl
_symmetry_space_group_name_H-M   'P 1'
_cell_length_a   3.68660159
_cell_length_b   3.68660189
_cell_length_c   10.32778628
_cell_angle_alpha   79.71877661
_cell_angle_beta   100.28122511
_cell_angle_gamma   120.00000279
_symmetry_Int_Tables_number   1
_chemical_formula_structural   NaZr2SN2Cl
_chemical_formula_sum   'Na1 Zr2 S1 N2 Cl1'
_cell_volume   118.95035362
_cell_formula_units_Z   1
loop_
 _symmetry_equiv_pos_site_id
 _symmetry_equiv_pos_as_xyz
  1  'x, y, z'
loop_
 _atom_site_type_symbol
 _atom_site_label
 _atom_site_symmetry_multiplicity
 _atom_site_fract_x
 _atom_site_fract_y
 _atom_site_fract_z
 _atom_site_occupancy
  Na  Na0  1  0.99551906  0.00448094  0.98655717  1
  Zr  Zr1  1  0.79460426  0.20539574  0.38381279  1
  Zr  Zr2  1  0.21449987  0.78550013  0.64349962  1
  S  S3  1  0.60432590  0.39567410  0.81297771  1
  N  N4  1  0.86276952  0.13723048  0.58830855  1
  N  N5  1  0.13722436  0.86277564  0.41167309  1
  Cl  Cl6  1  0.39105702  0.60894298  0.17317107  1
