# generated using pymatgen
data_Li2Co2H24C6(N4O5)3
_symmetry_space_group_name_H-M   'P 1'
_cell_length_a   5.05261268
_cell_length_b   9.66806748
_cell_length_c   11.58295703
_cell_angle_alpha   92.44358691
_cell_angle_beta   90.42082923
_cell_angle_gamma   90.16017796
_symmetry_Int_Tables_number   1
_chemical_formula_structural   Li2Co2H24C6(N4O5)3
_chemical_formula_sum   'Li2 Co2 H24 C6 N12 O15'
_cell_volume   565.28338191
_cell_formula_units_Z   1
loop_
 _symmetry_equiv_pos_site_id
 _symmetry_equiv_pos_as_xyz
  1  'x, y, z'
loop_
 _atom_site_type_symbol
 _atom_site_label
 _atom_site_symmetry_multiplicity
 _atom_site_fract_x
 _atom_site_fract_y
 _atom_site_fract_z
 _atom_site_occupancy
  Li  Li0  1  0.76194676  0.80061729  0.18661303  1
  Li  Li1  1  0.26250853  0.20149644  0.81642271  1
  Co  Co2  1  0.27726645  0.26855135  0.33087555  1
  Co  Co3  1  0.78002089  0.72909129  0.67102344  1
  H  H4  1  0.06257618  0.51311731  0.43571710  1
  H  H5  1  0.55399732  0.48737212  0.56628746  1
  H  H6  1  0.11956804  0.06151889  0.03983720  1
  H  H7  1  0.62560552  0.93350156  0.95976433  1
  H  H8  1  0.08140143  0.67659813  0.04774690  1
  H  H9  1  0.60085791  0.32966922  0.94365601  1
  H  H10  1  0.91095780  0.46007560  0.31408590  1
  H  H11  1  0.42369720  0.53213876  0.69335916  1
  H  H12  1  0.86601708  0.21107600  0.17923259  1
  H  H13  1  0.36505759  0.79139712  0.81469568  1
  H  H14  1  0.10215099  0.28934654  0.10811266  1
  H  H15  1  0.59406333  0.70324368  0.88471273  1
  H  H16  1  0.95619473  0.06362191  0.38696842  1
  H  H17  1  0.46890346  0.93692632  0.61324664  1
  H  H18  1  0.21524972  0.81927356  0.08484158  1
  H  H19  1  0.71468026  0.17999288  0.91606244  1
  H  H20  1  0.02852289  0.07117131  0.59785151  1
  H  H21  1  0.52935631  0.92770674  0.40219936  1
  H  H22  1  0.18659988  0.66708874  0.29478241  1
  H  H23  1  0.70018633  0.33101777  0.70498601  1
  H  H24  1  0.81525089  0.20257720  0.45043801  1
  H  H25  1  0.31707795  0.79889744  0.55192238  1
  H  H26  1  0.39408175  0.50404062  0.94046849  1
  H  H27  1  0.58831556  0.55028354  0.04691498  1
  C  C28  1  0.38064179  0.03071475  0.17639647  1
  C  C29  1  0.88545484  0.96648000  0.82532341  1
  C  C30  1  0.35838274  0.19114033  0.56624138  1
  C  C31  1  0.85816316  0.80691138  0.43418046  1
  C  C32  1  0.48198323  0.52357222  0.24566854  1
  C  C33  1  0.99063361  0.47654502  0.75805132  1
  N  N34  1  0.24815808  0.56575332  0.29363891  1
  N  N35  1  0.76992736  0.43007916  0.69865930  1
  N  N36  1  0.06715043  0.21650861  0.16803725  1
  N  N37  1  0.56506281  0.78210318  0.82837005  1
  N  N38  1  0.09375819  0.47088823  0.35404172  1
  N  N39  1  0.59866886  0.52614726  0.64795634  1
  N  N40  1  0.16215285  0.08701846  0.12509103  1
  N  N41  1  0.66855347  0.90831394  0.87517608  1
  N  N42  1  0.99493831  0.15538110  0.43224183  1
  N  N43  1  0.49986987  0.84442578  0.56815355  1
  N  N44  1  0.12381693  0.12633289  0.53698023  1
  N  N45  1  0.62323629  0.87027378  0.46232550  1
  O  O46  1  0.47860945  0.92188338  0.12549664  1
  O  O47  1  0.98717852  0.07359173  0.87837337  1
  O  O48  1  0.46858881  0.08441987  0.27240816  1
  O  O49  1  0.96973583  0.91529128  0.72819408  1
  O  O50  1  0.55653107  0.39725726  0.25740739  1
  O  O51  1  0.05725250  0.60543304  0.74962636  1
  O  O52  1  0.61514349  0.61100409  0.18975582  1
  O  O53  1  0.12461887  0.39104874  0.81436090  1
  O  O54  1  0.45625274  0.16969462  0.66553791  1
  O  O55  1  0.95498732  0.82941848  0.33514400  1
  O  O56  1  0.46878342  0.26652472  0.49042623  1
  O  O57  1  0.96939855  0.73107301  0.50956922  1
  O  O58  1  0.04146271  0.77285874  0.06726610  1
  O  O59  1  0.54912323  0.23140487  0.93409517  1
  O  O60  1  0.57890792  0.52289745  0.96288057  1
