# generated using pymatgen
data_K(CrS2)2
_symmetry_space_group_name_H-M   'P 1'
_cell_length_a   3.54834863
_cell_length_b   3.54834863
_cell_length_c   14.71153502
_cell_angle_alpha   90.00000000
_cell_angle_beta   90.00000000
_cell_angle_gamma   120.00184495
_symmetry_Int_Tables_number   1
_chemical_formula_structural   K(CrS2)2
_chemical_formula_sum   'K1 Cr2 S4'
_cell_volume   160.41061880
_cell_formula_units_Z   1
loop_
 _symmetry_equiv_pos_site_id
 _symmetry_equiv_pos_as_xyz
  1  'x, y, z'
loop_
 _atom_site_type_symbol
 _atom_site_label
 _atom_site_symmetry_multiplicity
 _atom_site_fract_x
 _atom_site_fract_y
 _atom_site_fract_z
 _atom_site_occupancy
  K  K0  1  0.66663094  0.33336906  0.25000000  1
  Cr  Cr1  1  0.00001632  0.99998368  0.50009217  1
  Cr  Cr2  1  0.00001632  0.99998368  0.99990783  1
  S  S3  1  0.66666572  0.33333428  0.57857598  1
  S  S4  1  0.33335249  0.66664751  0.40748035  1
  S  S5  1  0.33335249  0.66664751  0.09251965  1
  S  S6  1  0.66666572  0.33333428  0.92142402  1
