# generated using pymatgen
data_K2NaNb(OF2)2
_symmetry_space_group_name_H-M   'P 1'
_cell_length_a   6.08373794
_cell_length_b   6.08373794
_cell_length_c   6.08373794
_cell_angle_alpha   88.69619735
_cell_angle_beta   60.74987418
_cell_angle_gamma   119.25012582
_symmetry_Int_Tables_number   1
_chemical_formula_structural   K2NaNb(OF2)2
_chemical_formula_sum   'K2 Na1 Nb1 O2 F4'
_cell_volume   160.97912785
_cell_formula_units_Z   1
loop_
 _symmetry_equiv_pos_site_id
 _symmetry_equiv_pos_as_xyz
  1  'x, y, z'
loop_
 _atom_site_type_symbol
 _atom_site_label
 _atom_site_symmetry_multiplicity
 _atom_site_fract_x
 _atom_site_fract_y
 _atom_site_fract_z
 _atom_site_occupancy
  K  K0  1  0.50000000  0.75000000  0.75000000  1
  K  K1  1  0.50000000  0.25000000  0.25000000  1
  Na  Na2  1  0.00000000  -0.00000000  0.00000000  1
  Nb  Nb3  1  0.00000000  0.50000000  0.50000000  1
  O  O4  1  -0.00000000  0.27795896  0.72204104  1
  O  O5  1  0.00000000  0.72204104  0.27795896  1
  F  F6  1  0.53085573  0.26542787  0.73457213  1
  F  F7  1  0.00000000  0.73457213  0.73457213  1
  F  F8  1  0.46914427  0.73457213  0.26542787  1
  F  F9  1  -0.00000000  0.26542787  0.26542787  1
