# generated using pymatgen
data_KMg3Al(SiO4)3
_symmetry_space_group_name_H-M   'P 1'
_cell_length_a   5.44387861
_cell_length_b   5.40859955
_cell_length_c   10.26439931
_cell_angle_alpha   95.31885342
_cell_angle_beta   94.02166391
_cell_angle_gamma   120.57345421
_symmetry_Int_Tables_number   1
_chemical_formula_structural   KMg3Al(SiO4)3
_chemical_formula_sum   'K1 Mg3 Al1 Si3 O12'
_cell_volume   256.65033317
_cell_formula_units_Z   1
loop_
 _symmetry_equiv_pos_site_id
 _symmetry_equiv_pos_as_xyz
  1  'x, y, z'
loop_
 _atom_site_type_symbol
 _atom_site_label
 _atom_site_symmetry_multiplicity
 _atom_site_fract_x
 _atom_site_fract_y
 _atom_site_fract_z
 _atom_site_occupancy
  K  K0  1  0.50715887  0.50772715  0.02077371  1
  Mg  Mg1  1  0.67691247  0.32518313  0.49623677  1
  Mg  Mg2  1  0.32069001  0.66826089  0.49396898  1
  Mg  Mg3  1  0.98986130  0.99299863  0.49650285  1
  Al  Al4  1  0.24498459  0.91721513  0.22535169  1
  Si  Si5  1  0.90704349  0.24182975  0.22002707  1
  Si  Si6  1  0.75820918  0.09085265  0.77545961  1
  Si  Si7  1  0.09025286  0.75679413  0.77534556  1
  O  O8  1  0.56845273  0.06372653  0.15930901  1
  O  O9  1  0.05535947  0.54833537  0.16264199  1
  O  O10  1  0.44130068  0.94091335  0.83272178  1
  O  O11  1  0.94121239  0.44385792  0.83602897  1
  O  O12  1  0.62238167  0.62197624  0.41151101  1
  O  O13  1  0.37957261  0.37359432  0.58380518  1
  O  O14  1  0.04931989  0.06079941  0.16111492  1
  O  O15  1  0.94131959  0.94256874  0.83290709  1
  O  O16  1  0.29521757  0.96640764  0.40047854  1
  O  O17  1  0.95323363  0.28905857  0.38411021  1
  O  O18  1  0.71472488  0.04544405  0.61593779  1
  O  O19  1  0.04279212  0.70245639  0.61576726  1
