# generated using pymatgen
data_NaFeCuS2
_symmetry_space_group_name_H-M   'P 1'
_cell_length_a   3.85478393
_cell_length_b   3.84965864
_cell_length_c   6.88103680
_cell_angle_alpha   90.00000003
_cell_angle_beta   90.05399824
_cell_angle_gamma   119.95603030
_symmetry_Int_Tables_number   1
_chemical_formula_structural   NaFeCuS2
_chemical_formula_sum   'Na1 Fe1 Cu1 S2'
_cell_volume   88.47055829
_cell_formula_units_Z   1
loop_
 _symmetry_equiv_pos_site_id
 _symmetry_equiv_pos_as_xyz
  1  'x, y, z'
loop_
 _atom_site_type_symbol
 _atom_site_label
 _atom_site_symmetry_multiplicity
 _atom_site_fract_x
 _atom_site_fract_y
 _atom_site_fract_z
 _atom_site_occupancy
  Na  Na0  1  0.00020459  0.00010230  0.99355352  1
  Fe  Fe1  1  0.66737989  0.33368995  0.38786191  1
  Cu  Cu2  1  0.33243344  0.66621672  0.62061880  1
  S  S3  1  0.66710462  0.33355231  0.72623652  1
  S  S4  1  0.33287745  0.66643873  0.27172924  1
