# generated using pymatgen
data_Na6Mn3B9P6H3O38
_symmetry_space_group_name_H-M   'P 1'
_cell_length_a   12.03904397
_cell_length_b   12.03295238
_cell_length_c   12.28349097
_cell_angle_alpha   90.00000000
_cell_angle_beta   90.00000000
_cell_angle_gamma   59.97235631
_symmetry_Int_Tables_number   1
_chemical_formula_structural   Na6Mn3B9P6H3O38
_chemical_formula_sum   'Na12 Mn6 B18 P12 H6 O76'
_cell_volume   1540.62023670
_cell_formula_units_Z   2
loop_
 _symmetry_equiv_pos_site_id
 _symmetry_equiv_pos_as_xyz
  1  'x, y, z'
loop_
 _atom_site_type_symbol
 _atom_site_label
 _atom_site_symmetry_multiplicity
 _atom_site_fract_x
 _atom_site_fract_y
 _atom_site_fract_z
 _atom_site_occupancy
  Na  Na0  1  0.66644859  0.66697050  0.22994614  1
  Na  Na1  1  0.33355141  0.33302950  0.72994614  1
  Na  Na2  1  0.99959811  0.00079216  0.87982948  1
  Na  Na3  1  0.00040189  0.99920784  0.37982948  1
  Na  Na4  1  0.33361237  0.33367150  0.23259261  1
  Na  Na5  1  0.66638763  0.66632850  0.73259261  1
  Na  Na6  1  0.98198579  0.72091361  0.38873830  1
  Na  Na7  1  0.29732929  0.98192234  0.38906599  1
  Na  Na8  1  0.72066495  0.29753594  0.38890365  1
  Na  Na9  1  0.01801421  0.27908639  0.88873830  1
  Na  Na10  1  0.70267071  0.01807766  0.88906599  1
  Na  Na11  1  0.27933505  0.70246406  0.88890365  1
  Mn  Mn12  1  0.49524622  0.00456873  0.14442589  1
  Mn  Mn13  1  0.50054619  0.49504500  0.14410368  1
  Mn  Mn14  1  0.00437126  0.50093558  0.14425686  1
  Mn  Mn15  1  0.50475378  0.99543127  0.64442589  1
  Mn  Mn16  1  0.49945381  0.50495500  0.64410368  1
  Mn  Mn17  1  0.99562874  0.49906442  0.64425686  1
  B  B18  1  0.29573226  0.95327952  0.79272153  1
  B  B19  1  0.75116947  0.29573516  0.79277626  1
  B  B20  1  0.95343964  0.75101225  0.79269990  1
  B  B21  1  0.70426774  0.04672048  0.29272153  1
  B  B22  1  0.24883053  0.70426484  0.29277626  1
  B  B23  1  0.04656036  0.24898775  0.29269990  1
  B  B24  1  0.28944504  0.95876089  0.99448266  1
  B  B25  1  0.75251864  0.28908082  0.99462940  1
  B  B26  1  0.95823879  0.75261959  0.99453828  1
  B  B27  1  0.71055496  0.04123911  0.49448266  1
  B  B28  1  0.24748136  0.71091918  0.49462940  1
  B  B29  1  0.04176121  0.24738041  0.49453828  1
  B  B30  1  0.49119711  0.91041830  0.89772254  1
  B  B31  1  0.59838900  0.49094585  0.89774969  1
  B  B32  1  0.91055981  0.59859059  0.89755733  1
  B  B33  1  0.50880289  0.08958170  0.39772254  1
  B  B34  1  0.40161100  0.50905415  0.39774969  1
  B  B35  1  0.08944019  0.40140941  0.39755733  1
  P  P36  1  0.37722395  0.81132461  0.17906052  1
  P  P37  1  0.81151164  0.37768415  0.17873498  1
  P  P38  1  0.81126905  0.81144909  0.17855035  1
  P  P39  1  0.62277605  0.18867539  0.67906052  1
  P  P40  1  0.18848836  0.62231585  0.67873498  1
  P  P41  1  0.18873095  0.18855091  0.67855035  1
  P  P42  1  0.62199766  0.18513267  0.10412139  1
  P  P43  1  0.19282370  0.62207609  0.10417004  1
  P  P44  1  0.18555547  0.19375707  0.10361646  1
  P  P45  1  0.37800234  0.81486733  0.60412139  1
  P  P46  1  0.80717630  0.37792391  0.60417004  1
  P  P47  1  0.81444453  0.80624293  0.60361646  1
  H  H48  1  0.65627624  0.83949936  0.97567752  1
  H  H49  1  0.50417486  0.65623534  0.97571523  1
  H  H50  1  0.83960271  0.50442420  0.97547916  1
  H  H51  1  0.34372376  0.16050064  0.47567752  1
  H  H52  1  0.49582514  0.34376466  0.47571523  1
  H  H53  1  0.16039729  0.49557580  0.47547916  1
  O  O54  1  0.42434867  0.93627610  0.99357496  1
  O  O55  1  0.63910749  0.42375633  0.99345216  1
  O  O56  1  0.93722508  0.63909983  0.99319678  1
  O  O57  1  0.57565133  0.06372390  0.49357496  1
  O  O58  1  0.36089251  0.57624367  0.49345216  1
  O  O59  1  0.06277492  0.36090017  0.49319678  1
  O  O60  1  0.29835040  0.79480998  0.27244711  1
  O  O61  1  0.90681320  0.29832507  0.27227440  1
  O  O62  1  0.79521707  0.90673985  0.27211634  1
  O  O63  1  0.70164960  0.20519002  0.77244711  1
  O  O64  1  0.09318680  0.70167493  0.77227440  1
  O  O65  1  0.20478293  0.09326015  0.77211634  1
  O  O66  1  0.71433096  0.12324721  0.20479928  1
  O  O67  1  0.16216370  0.71464875  0.20477745  1
  O  O68  1  0.12313835  0.16245551  0.20400361  1
  O  O69  1  0.28566904  0.87675279  0.70479928  1
  O  O70  1  0.83783630  0.28535125  0.70477745  1
  O  O71  1  0.87686165  0.83754449  0.70400361  1
  O  O72  1  0.31542070  0.17409120  0.13984872  1
  O  O73  1  0.51104756  0.31570431  0.13844504  1
  O  O74  1  0.17325212  0.51126387  0.13854910  1
  O  O75  1  0.68457930  0.82590880  0.63984872  1
  O  O76  1  0.48895244  0.68429569  0.63844504  1
  O  O77  1  0.82674788  0.48873613  0.63854910  1
  O  O78  1  0.42856260  0.89344676  0.22961112  1
  O  O79  1  0.67798310  0.42886834  0.22923041  1
  O  O80  1  0.89384523  0.67790145  0.22913678  1
  O  O81  1  0.57143740  0.10655324  0.72961112  1
  O  O82  1  0.32201690  0.57113166  0.72923041  1
  O  O83  1  0.10615477  0.32209855  0.72913678  1
  O  O84  1  0.62332084  0.86043063  0.90036230  1
  O  O85  1  0.51634263  0.62316751  0.90042767  1
  O  O86  1  0.86039161  0.51663903  0.90018416  1
  O  O87  1  0.37667916  0.13956937  0.40036230  1
  O  O88  1  0.48365737  0.37683249  0.40042767  1
  O  O89  1  0.13960839  0.48336097  0.40018416  1
  O  O90  1  0.27856361  0.88317710  0.08491074  1
  O  O91  1  0.83873037  0.27947595  0.08452088  1
  O  O92  1  0.88195707  0.83873497  0.08425478  1
  O  O93  1  0.72143639  0.11682290  0.58491074  1
  O  O94  1  0.16126963  0.72052405  0.58452088  1
  O  O95  1  0.11804293  0.16126503  0.58425478  1
  O  O96  1  0.48616796  0.68203119  0.13648179  1
  O  O97  1  0.83181557  0.48683560  0.13707211  1
  O  O98  1  0.68177692  0.83143634  0.13711051  1
  O  O99  1  0.51383204  0.31796881  0.63648179  1
  O  O100  1  0.16818443  0.51316440  0.63707211  1
  O  O101  1  0.31822308  0.16856366  0.63711051  1
  O  O102  1  0.33346595  0.33242121  0.92380818  1
  O  O103  1  0.66653405  0.66757879  0.42380818  1
  O  O104  1  0.70759875  0.19591651  0.01287993  1
  O  O105  1  0.09652430  0.70749086  0.01272148  1
  O  O106  1  0.19766594  0.09746569  0.01202019  1
  O  O107  1  0.29240125  0.80408349  0.51287993  1
  O  O108  1  0.90347570  0.29250914  0.51272148  1
  O  O109  1  0.80233406  0.90253431  0.51202019  1
  O  O110  1  0.25807060  0.91884050  0.89352301  1
  O  O111  1  0.82349117  0.25792401  0.89342069  1
  O  O112  1  0.91853515  0.82353955  0.89314584  1
  O  O113  1  0.74192940  0.08115950  0.39352301  1
  O  O114  1  0.17650883  0.74207599  0.39342069  1
  O  O115  1  0.08146485  0.17646045  0.39314584  1
  O  O116  1  0.56792179  0.06916032  0.29801341  1
  O  O117  1  0.36272583  0.56787183  0.29794071  1
  O  O118  1  0.06942381  0.36251746  0.29773745  1
  O  O119  1  0.43207821  0.93083968  0.79801341  1
  O  O120  1  0.63727417  0.43212817  0.79794071  1
  O  O121  1  0.93057619  0.63748254  0.79773745  1
  O  O122  1  0.58149125  0.09334105  0.05670863  1
  O  O123  1  0.32516622  0.58168563  0.05706730  1
  O  O124  1  0.09320836  0.32598046  0.05670507  1
  O  O125  1  0.41850875  0.90665895  0.55670863  1
  O  O126  1  0.67483378  0.41831437  0.55706730  1
  O  O127  1  0.90679164  0.67401954  0.55670507  1
  O  O128  1  0.02423877  0.01784624  0.13223411  1
  O  O129  1  0.97576123  0.98215376  0.63223411  1
