# generated using pymatgen
data_Fe5NiO8
_symmetry_space_group_name_H-M   'P 1'
_cell_length_a   6.03076423
_cell_length_b   6.03426805
_cell_length_c   6.03076423
_cell_angle_alpha   90.00000000
_cell_angle_beta   60.00000000
_cell_angle_gamma   119.98079403
_symmetry_Int_Tables_number   1
_chemical_formula_structural   Fe5NiO8
_chemical_formula_sum   'Fe5 Ni1 O8'
_cell_volume   155.23166453
_cell_formula_units_Z   1
loop_
 _symmetry_equiv_pos_site_id
 _symmetry_equiv_pos_as_xyz
  1  'x, y, z'
loop_
 _atom_site_type_symbol
 _atom_site_label
 _atom_site_symmetry_multiplicity
 _atom_site_fract_x
 _atom_site_fract_y
 _atom_site_fract_z
 _atom_site_occupancy
  Fe  Fe0  1  0.25158700  0.12738050  0.12420650  1
  Fe  Fe1  1  0.74841300  0.87261950  0.87579350  1
  Fe  Fe2  1  0.50000000  0.50000000  0.50000000  1
  Fe  Fe3  1  0.00000000  0.50000000  -0.00000000  1
  Fe  Fe4  1  0.00000000  0.50000000  0.50000000  1
  Ni  Ni5  1  0.50000000  -0.00000000  0.50000000  1
  O  O6  1  0.98798388  0.73197582  0.25600806  1
  O  O7  1  0.98980794  0.25933741  0.25509603  1
  O  O8  1  0.51443344  0.25933741  0.73047053  1
  O  O9  1  0.51443344  0.25933741  0.25509603  1
  O  O10  1  0.01201612  0.26802418  0.74399194  1
  O  O11  1  0.01019206  0.74066259  0.74490397  1
  O  O12  1  0.48556656  0.74066259  0.26952947  1
  O  O13  1  0.48556656  0.74066259  0.74490397  1
