# generated using pymatgen
data_GaNi4Ge3
_symmetry_space_group_name_H-M   'P 1'
_cell_length_a   4.69406011
_cell_length_b   4.69406011
_cell_length_c   4.69406011
_cell_angle_alpha   90.62234284
_cell_angle_beta   89.37765716
_cell_angle_gamma   90.62234284
_symmetry_Int_Tables_number   1
_chemical_formula_structural   GaNi4Ge3
_chemical_formula_sum   'Ga1 Ni4 Ge3'
_cell_volume   103.41168826
_cell_formula_units_Z   1
loop_
 _symmetry_equiv_pos_site_id
 _symmetry_equiv_pos_as_xyz
  1  'x, y, z'
loop_
 _atom_site_type_symbol
 _atom_site_label
 _atom_site_symmetry_multiplicity
 _atom_site_fract_x
 _atom_site_fract_y
 _atom_site_fract_z
 _atom_site_occupancy
  Ga  Ga0  1  0.15647783  0.34352217  0.65647783  1
  Ni  Ni1  1  0.85844556  0.64155444  0.35844556  1
  Ni  Ni2  1  0.63889819  0.35986400  0.86364546  1
  Ni  Ni3  1  0.36364546  0.86110181  0.64013600  1
  Ni  Ni4  1  0.14013600  0.13635454  0.13889819  1
  Ge  Ge5  1  0.33909166  0.65438868  0.15769398  1
  Ge  Ge6  1  0.65769398  0.16090834  0.34561132  1
  Ge  Ge7  1  0.84561132  0.84230602  0.83909166  1
