# generated using pymatgen
data_FeSiW
_symmetry_space_group_name_H-M   'P 1'
_cell_length_a   4.92272358
_cell_length_b   4.72871176
_cell_length_c   7.64797850
_cell_angle_alpha   90.00000000
_cell_angle_beta   90.00000000
_cell_angle_gamma   121.36938523
_symmetry_Int_Tables_number   1
_chemical_formula_structural   FeSiW
_chemical_formula_sum   'Fe4 Si4 W4'
_cell_volume   152.00780416
_cell_formula_units_Z   4
loop_
 _symmetry_equiv_pos_site_id
 _symmetry_equiv_pos_as_xyz
  1  'x, y, z'
loop_
 _atom_site_type_symbol
 _atom_site_label
 _atom_site_symmetry_multiplicity
 _atom_site_fract_x
 _atom_site_fract_y
 _atom_site_fract_z
 _atom_site_occupancy
  Fe  Fe0  1  0.82948296  0.65879820  0.25000000  1
  Fe  Fe1  1  0.82803194  0.17643865  0.25000000  1
  Fe  Fe2  1  0.34832340  0.17635758  0.25000000  1
  Fe  Fe3  1  0.14822979  0.29637346  0.75000000  1
  Si  Si4  1  0.16424500  0.80890467  0.75000000  1
  Si  Si5  1  0.64472853  0.80877457  0.75000000  1
  Si  Si6  1  0.01126384  0.02290051  0.48674201  1
  Si  Si7  1  0.01126384  0.02290051  0.01325799  1
  W  W8  1  0.66929001  0.33849837  0.56009777  1
  W  W9  1  0.33792535  0.67577755  0.43235305  1
  W  W10  1  0.33792535  0.67577755  0.06764695  1
  W  W11  1  0.66929001  0.33849837  0.93990223  1
