# generated using pymatgen
data_K4PSe3O16
_symmetry_space_group_name_H-M   'P 1'
_cell_length_a   7.62979867
_cell_length_b   7.88514731
_cell_length_c   7.85621092
_cell_angle_alpha   72.25737591
_cell_angle_beta   87.02703188
_cell_angle_gamma   85.68889151
_symmetry_Int_Tables_number   1
_chemical_formula_structural   K4PSe3O16
_chemical_formula_sum   'K4 P1 Se3 O16'
_cell_volume   448.68225433
_cell_formula_units_Z   1
loop_
 _symmetry_equiv_pos_site_id
 _symmetry_equiv_pos_as_xyz
  1  'x, y, z'
loop_
 _atom_site_type_symbol
 _atom_site_label
 _atom_site_symmetry_multiplicity
 _atom_site_fract_x
 _atom_site_fract_y
 _atom_site_fract_z
 _atom_site_occupancy
  K  K0  1  0.65533515  0.19208673  0.32055360  1
  K  K1  1  0.34429054  0.80423491  0.67968651  1
  K  K2  1  0.96619466  0.25399225  0.78940981  1
  K  K3  1  0.03047784  0.74689925  0.21115231  1
  P  P4  1  0.46794155  0.27467698  0.80251089  1
  Se  Se5  1  0.13473007  0.21762541  0.27143021  1
  Se  Se6  1  0.86598974  0.78110490  0.72910321  1
  Se  Se7  1  0.53443703  0.72673470  0.19613176  1
  O  O8  1  0.34296888  0.12932097  0.80195098  1
  O  O9  1  0.66386741  0.89028173  0.19103174  1
  O  O10  1  0.34622075  0.42771821  0.83537910  1
  O  O11  1  0.66333358  0.55645778  0.16190118  1
  O  O12  1  0.18730856  0.42907068  0.15500296  1
  O  O13  1  0.80822485  0.57315176  0.85395733  1
  O  O14  1  0.30959420  0.08803771  0.35345687  1
  O  O15  1  0.69086668  0.91212544  0.64764371  1
  O  O16  1  0.56729227  0.33458362  0.61899631  1
  O  O17  1  0.42963571  0.64903003  0.39665735  1
  O  O18  1  0.01159136  0.12997850  0.15594129  1
  O  O19  1  0.98963877  0.87124680  0.84242528  1
  O  O20  1  0.61304098  0.21327937  0.93997728  1
  O  O21  1  0.37731760  0.79841511  0.04526335  1
  O  O22  1  0.00779184  0.27796253  0.42936320  1
  O  O23  1  0.99190998  0.72198462  0.57107378  1
