# generated using pymatgen
data_CaSnHg
_symmetry_space_group_name_H-M   'P 1'
_cell_length_a   3.80690702
_cell_length_b   4.99079976
_cell_length_c   4.99091400
_cell_angle_alpha   119.99937458
_cell_angle_beta   90.00000000
_cell_angle_gamma   90.00000000
_symmetry_Int_Tables_number   1
_chemical_formula_structural   CaSnHg
_chemical_formula_sum   'Ca1 Sn1 Hg1'
_cell_volume   82.12131033
_cell_formula_units_Z   1
loop_
 _symmetry_equiv_pos_site_id
 _symmetry_equiv_pos_as_xyz
  1  'x, y, z'
loop_
 _atom_site_type_symbol
 _atom_site_label
 _atom_site_symmetry_multiplicity
 _atom_site_fract_x
 _atom_site_fract_y
 _atom_site_fract_z
 _atom_site_occupancy
  Ca  Ca0  1  0.00000000  0.99999411  0.99999529  1
  Sn  Sn1  1  0.50000000  0.66661871  0.33332311  1
  Hg  Hg2  1  0.50000000  0.33328718  0.66668159  1
