# generated using pymatgen
data_Ce2CoSi3
_symmetry_space_group_name_H-M   'P 1'
_cell_length_a   4.05625705
_cell_length_b   4.05183299
_cell_length_c   8.11965725
_cell_angle_alpha   90.00000000
_cell_angle_beta   90.00000000
_cell_angle_gamma   120.00188547
_symmetry_Int_Tables_number   1
_chemical_formula_structural   Ce2CoSi3
_chemical_formula_sum   'Ce2 Co1 Si3'
_cell_volume   115.56786291
_cell_formula_units_Z   1
loop_
 _symmetry_equiv_pos_site_id
 _symmetry_equiv_pos_as_xyz
  1  'x, y, z'
loop_
 _atom_site_type_symbol
 _atom_site_label
 _atom_site_symmetry_multiplicity
 _atom_site_fract_x
 _atom_site_fract_y
 _atom_site_fract_z
 _atom_site_occupancy
  Ce  Ce0  1  0.99996967  -0.00001157  0.01234943  1
  Ce  Ce1  1  0.99996967  -0.00001157  0.48765057  1
  Co  Co2  1  0.33333192  0.66680084  0.25000000  1
  Si  Si3  1  0.33388230  0.66734793  0.75000000  1
  Si  Si4  1  0.66658832  0.33324568  0.25000000  1
  Si  Si5  1  0.66605812  0.33262870  0.75000000  1
