# generated using pymatgen
data_FeCoBi2(AsO6)2
_symmetry_space_group_name_H-M   'P 1'
_cell_length_a   6.18864030
_cell_length_b   9.09961275
_cell_length_c   9.26505104
_cell_angle_alpha   71.35123996
_cell_angle_beta   82.36262539
_cell_angle_gamma   87.29428066
_symmetry_Int_Tables_number   1
_chemical_formula_structural   FeCoBi2(AsO6)2
_chemical_formula_sum   'Fe2 Co2 Bi4 As4 O24'
_cell_volume   489.96875848
_cell_formula_units_Z   2
loop_
 _symmetry_equiv_pos_site_id
 _symmetry_equiv_pos_as_xyz
  1  'x, y, z'
loop_
 _atom_site_type_symbol
 _atom_site_label
 _atom_site_symmetry_multiplicity
 _atom_site_fract_x
 _atom_site_fract_y
 _atom_site_fract_z
 _atom_site_occupancy
  Fe  Fe0  1  -0.00000000  0.00000000  0.00000000  1
  Fe  Fe1  1  -0.00000000  0.50000000  0.00000000  1
  Co  Co2  1  0.50000000  0.50000000  0.00000000  1
  Co  Co3  1  0.50000000  0.00000000  0.00000000  1
  Bi  Bi4  1  0.31998422  0.09243128  0.60858161  1
  Bi  Bi5  1  0.68001578  0.90756872  0.39141839  1
  Bi  Bi6  1  0.31630238  0.59299129  0.60697609  1
  Bi  Bi7  1  0.68369762  0.40700871  0.39302391  1
  As  As8  1  0.20404624  0.15897332  0.22039405  1
  As  As9  1  0.79595376  0.84102668  0.77960595  1
  As  As10  1  0.20765116  0.65751017  0.21731809  1
  As  As11  1  0.79234884  0.34248983  0.78268191  1
  O  O12  1  0.23525556  0.34141276  0.08599621  1
  O  O13  1  0.76474444  0.65858724  0.91400379  1
  O  O14  1  0.62051955  0.13312678  0.45069470  1
  O  O15  1  0.37948045  0.86687322  0.54930530  1
  O  O16  1  0.14018118  0.67368889  0.39550330  1
  O  O17  1  0.85981882  0.32631111  0.60449670  1
  O  O18  1  0.44543481  0.55509539  0.18832728  1
  O  O19  1  0.55456519  0.44490461  0.81167272  1
  O  O20  1  0.61849100  0.63282676  0.45102312  1
  O  O21  1  0.38150900  0.36717324  0.54897688  1
  O  O22  1  0.25821545  0.61195658  0.91329281  1
  O  O23  1  0.74178455  0.38804342  0.08670719  1
  O  O24  1  0.44344929  0.05874341  0.19337428  1
  O  O25  1  0.55655071  0.94125659  0.80662572  1
  O  O26  1  0.23196980  0.84083486  0.08644471  1
  O  O27  1  0.76803020  0.15916514  0.91355529  1
  O  O28  1  0.13998899  0.17853881  0.39737479  1
  O  O29  1  0.86001101  0.82146119  0.60262521  1
  O  O30  1  0.98396401  0.06996985  0.18638164  1
  O  O31  1  0.01603599  0.93003015  0.81361836  1
  O  O32  1  0.28725146  0.11314501  0.90998418  1
  O  O33  1  0.71274854  0.88685499  0.09001582  1
  O  O34  1  0.98547635  0.56803379  0.18543429  1
  O  O35  1  0.01452365  0.43196621  0.81456571  1
