# generated using pymatgen
data_DyGePd
_symmetry_space_group_name_H-M   'P 1'
_cell_length_a   4.39471938
_cell_length_b   5.68382163
_cell_length_c   5.66062276
_cell_angle_alpha   93.89829558
_cell_angle_beta   112.84151679
_cell_angle_gamma   67.25695123
_symmetry_Int_Tables_number   1
_chemical_formula_structural   DyGePd
_chemical_formula_sum   'Dy2 Ge2 Pd2'
_cell_volume   119.61414136
_cell_formula_units_Z   2
loop_
 _symmetry_equiv_pos_site_id
 _symmetry_equiv_pos_as_xyz
  1  'x, y, z'
loop_
 _atom_site_type_symbol
 _atom_site_label
 _atom_site_symmetry_multiplicity
 _atom_site_fract_x
 _atom_site_fract_y
 _atom_site_fract_z
 _atom_site_occupancy
  Dy  Dy0  1  0.75935206  0.69832864  0.21703275  1
  Dy  Dy1  1  0.24064794  0.30167136  0.78296725  1
  Ge  Ge2  1  0.05224839  0.10816930  0.21266608  1
  Ge  Ge3  1  0.94775161  0.89183070  0.78733392  1
  Pd  Pd4  1  0.54885791  0.27312011  0.37083593  1
  Pd  Pd5  1  0.45114209  0.72687989  0.62916407  1
