# generated using pymatgen
data_Cr2CuAgS4
_symmetry_space_group_name_H-M   'P 1'
_cell_length_a   3.53899501
_cell_length_b   6.77075022
_cell_length_c   6.14109979
_cell_angle_alpha   72.34339831
_cell_angle_beta   90.00000734
_cell_angle_gamma   90.00000027
_symmetry_Int_Tables_number   1
_chemical_formula_structural   Cr2CuAgS4
_chemical_formula_sum   'Cr2 Cu1 Ag1 S4'
_cell_volume   140.21883303
_cell_formula_units_Z   1
loop_
 _symmetry_equiv_pos_site_id
 _symmetry_equiv_pos_as_xyz
  1  'x, y, z'
loop_
 _atom_site_type_symbol
 _atom_site_label
 _atom_site_symmetry_multiplicity
 _atom_site_fract_x
 _atom_site_fract_y
 _atom_site_fract_z
 _atom_site_occupancy
  Cr  Cr0  1  -0.00000000  0.99367077  0.00346373  1
  Cr  Cr1  1  0.50000000  0.99828211  0.49830470  1
  Cu  Cu2  1  0.50000000  0.44134232  0.35323271  1
  Ag  Ag3  1  0.00000000  0.45047001  0.84925581  1
  S  S4  1  0.50000000  0.79390558  0.23576240  1
  S  S5  1  1.00000000  0.81794148  0.72667829  1
  S  S6  1  0.50000000  0.20354971  0.75757323  1
  S  S7  1  0.00000000  0.21883802  0.26972914  1
