# generated using pymatgen
data_ErAlNi
_symmetry_space_group_name_H-M   'P 1'
_cell_length_a   5.31913960
_cell_length_b   5.31949615
_cell_length_c   8.46371157
_cell_angle_alpha   90.00000000
_cell_angle_beta   90.00000000
_cell_angle_gamma   60.61740498
_symmetry_Int_Tables_number   1
_chemical_formula_structural   ErAlNi
_chemical_formula_sum   'Er4 Al4 Ni4'
_cell_volume   208.67566432
_cell_formula_units_Z   4
loop_
 _symmetry_equiv_pos_site_id
 _symmetry_equiv_pos_as_xyz
  1  'x, y, z'
loop_
 _atom_site_type_symbol
 _atom_site_label
 _atom_site_symmetry_multiplicity
 _atom_site_fract_x
 _atom_site_fract_y
 _atom_site_fract_z
 _atom_site_occupancy
  Er  Er0  1  0.33271394  0.33273138  0.54584113  1
  Er  Er1  1  0.66985443  0.66985845  0.42596907  1
  Er  Er2  1  0.66985443  0.66985845  0.07403093  1
  Er  Er3  1  0.33271394  0.33273138  0.95415887  1
  Al  Al4  1  0.99562122  0.99561396  0.48760268  1
  Al  Al5  1  0.99562122  0.99561396  0.01239732  1
  Al  Al6  1  0.83152741  0.34122010  0.75000000  1
  Al  Al7  1  0.34122887  0.83150430  0.75000000  1
  Ni  Ni8  1  0.83219849  0.83218425  0.75000000  1
  Ni  Ni9  1  0.16854778  0.66321662  0.25000000  1
  Ni  Ni10  1  0.66325347  0.16852438  0.25000000  1
  Ni  Ni11  1  0.16686480  0.16694280  0.25000000  1
