# generated using pymatgen
data_CaNd2(CuO2)4
_symmetry_space_group_name_H-M   'P 1'
_cell_length_a   6.28992123
_cell_length_b   6.28992123
_cell_length_c   11.42109567
_cell_angle_alpha   90.00000000
_cell_angle_beta   90.00000000
_cell_angle_gamma   117.84183968
_symmetry_Int_Tables_number   1
_chemical_formula_structural   CaNd2(CuO2)4
_chemical_formula_sum   'Ca2 Nd4 Cu8 O16'
_cell_volume   399.54750268
_cell_formula_units_Z   2
loop_
 _symmetry_equiv_pos_site_id
 _symmetry_equiv_pos_as_xyz
  1  'x, y, z'
loop_
 _atom_site_type_symbol
 _atom_site_label
 _atom_site_symmetry_multiplicity
 _atom_site_fract_x
 _atom_site_fract_y
 _atom_site_fract_z
 _atom_site_occupancy
  Ca  Ca0  1  0.75000000  0.75000000  0.75000000  1
  Ca  Ca1  1  0.25000000  0.25000000  0.25000000  1
  Nd  Nd2  1  0.75000000  0.75000000  0.08526659  1
  Nd  Nd3  1  0.25000000  0.25000000  0.58526659  1
  Nd  Nd4  1  0.25000000  0.25000000  0.91473341  1
  Nd  Nd5  1  0.75000000  0.75000000  0.41473341  1
  Cu  Cu6  1  0.75000000  0.25000000  0.06799827  1
  Cu  Cu7  1  0.75000000  0.25000000  0.56799827  1
  Cu  Cu8  1  0.25000000  0.75000000  0.93200173  1
  Cu  Cu9  1  0.25000000  0.75000000  0.43200173  1
  Cu  Cu10  1  0.75000000  0.25000000  0.31805337  1
  Cu  Cu11  1  0.75000000  0.25000000  0.81805337  1
  Cu  Cu12  1  0.25000000  0.75000000  0.68194663  1
  Cu  Cu13  1  0.25000000  0.75000000  0.18194663  1
  O  O14  1  0.65069083  0.39799813  0.19412693  1
  O  O15  1  0.89799813  0.15069083  0.69412693  1
  O  O16  1  0.60200187  0.34930917  0.69412693  1
  O  O17  1  0.84930917  0.10200187  0.19412693  1
  O  O18  1  0.34930917  0.60200187  0.80587307  1
  O  O19  1  0.10200187  0.84930917  0.30587307  1
  O  O20  1  0.39799813  0.65069083  0.30587307  1
  O  O21  1  0.15069083  0.89799813  0.80587307  1
  O  O22  1  0.17891888  0.92861530  0.05762652  1
  O  O23  1  0.42861530  0.67891888  0.55762652  1
  O  O24  1  0.07138470  0.82108112  0.55762652  1
  O  O25  1  0.32108112  0.57138470  0.05762652  1
  O  O26  1  0.82108112  0.07138470  0.94237348  1
  O  O27  1  0.57138470  0.32108112  0.44237348  1
  O  O28  1  0.92861530  0.17891888  0.44237348  1
  O  O29  1  0.67891888  0.42861530  0.94237348  1
