# generated using pymatgen
data_Cr23Ga26Fe3
_symmetry_space_group_name_H-M   'P 1'
_cell_length_a   7.78815231
_cell_length_b   7.75968043
_cell_length_c   12.73249711
_cell_angle_alpha   90.07704590
_cell_angle_beta   89.55146728
_cell_angle_gamma   109.38974215
_symmetry_Int_Tables_number   1
_chemical_formula_structural   Cr23Ga26Fe3
_chemical_formula_sum   'Cr23 Ga26 Fe3'
_cell_volume   725.80468155
_cell_formula_units_Z   1
loop_
 _symmetry_equiv_pos_site_id
 _symmetry_equiv_pos_as_xyz
  1  'x, y, z'
loop_
 _atom_site_type_symbol
 _atom_site_label
 _atom_site_symmetry_multiplicity
 _atom_site_fract_x
 _atom_site_fract_y
 _atom_site_fract_z
 _atom_site_occupancy
  Cr  Cr0  1  0.40348030  0.75013361  0.40379143  1
  Cr  Cr1  1  0.90569935  0.24929770  0.90078284  1
  Cr  Cr2  1  0.73895904  0.39800222  0.40367204  1
  Cr  Cr3  1  0.23486014  0.90091103  0.90080892  1
  Cr  Cr4  1  0.73496556  0.72855535  0.07143808  1
  Cr  Cr5  1  0.23254989  0.22814737  0.57452376  1
  Cr  Cr6  1  0.10041288  0.75933835  0.10022453  1
  Cr  Cr7  1  0.60175010  0.26079891  0.59979217  1
  Cr  Cr8  1  0.75579269  0.09578090  0.09714556  1
  Cr  Cr9  1  0.25880056  0.59846470  0.59657512  1
  Cr  Cr10  1  0.76710885  0.76701942  0.42795443  1
  Cr  Cr11  1  0.27059189  0.26938082  0.92984425  1
  Cr  Cr12  1  0.24427543  0.24348696  0.24431722  1
  Cr  Cr13  1  0.74914898  0.74610833  0.74601944  1
  Cr  Cr14  1  0.01684391  0.01900910  0.80327429  1
  Cr  Cr15  1  0.41101889  0.19564048  0.41070453  1
  Cr  Cr16  1  0.90829079  0.69418287  0.91148368  1
  Cr  Cr17  1  0.30595313  0.08772705  0.08844410  1
  Cr  Cr18  1  0.80388611  0.58695659  0.58814204  1
  Cr  Cr19  1  0.98127357  0.97951204  0.19776323  1
  Cr  Cr20  1  0.48223396  0.48177974  0.69599640  1
  Cr  Cr21  1  0.09142348  0.30587840  0.08980486  1
  Cr  Cr22  1  0.58946458  0.80329760  0.58966265  1
  Ga  Ga23  1  0.27281646  0.91864201  0.27272392  1
  Ga  Ga24  1  0.77081948  0.41915561  0.77247322  1
  Ga  Ga25  1  0.92103403  0.27425089  0.27334779  1
  Ga  Ga26  1  0.42181242  0.77380233  0.77404325  1
  Ga  Ga27  1  0.44998499  0.45059531  0.09793775  1
  Ga  Ga28  1  0.94724451  0.94844287  0.59511767  1
  Ga  Ga29  1  0.23117291  0.57671785  0.23187432  1
  Ga  Ga30  1  0.72464610  0.07616372  0.73060555  1
  Ga  Ga31  1  0.57922459  0.23353009  0.22715736  1
  Ga  Ga32  1  0.07920395  0.72685022  0.72645033  1
  Ga  Ga33  1  0.05141234  0.05816523  0.40315608  1
  Ga  Ga34  1  0.55105438  0.55800074  0.90329500  1
  Ga  Ga35  1  0.05782133  0.66640695  0.44195701  1
  Ga  Ga36  1  0.55830109  0.16584129  0.94249849  1
  Ga  Ga37  1  0.85511255  0.63345495  0.25139112  1
  Ga  Ga38  1  0.36322593  0.13685937  0.75071088  1
  Ga  Ga39  1  0.83092659  0.44260645  0.05772614  1
  Ga  Ga40  1  0.33106391  0.94373274  0.55727525  1
  Ga  Ga41  1  0.44719469  0.83089360  0.05391598  1
  Ga  Ga42  1  0.94954429  0.33144144  0.55360779  1
  Ga  Ga43  1  0.63451100  0.85876619  0.25040241  1
  Ga  Ga44  1  0.13776187  0.36496065  0.74983262  1
  Ga  Ga45  1  0.67020517  0.05645017  0.44405146  1
  Ga  Ga46  1  0.17001375  0.55796854  0.94373167  1
  Ga  Ga47  1  0.99663888  0.00130937  0.00012755  1
  Ga  Ga48  1  0.49678691  0.50077121  0.49759169  1
  Fe  Fe49  1  0.19865426  0.41314334  0.40987946  1
  Fe  Fe50  1  0.69717281  0.91198944  0.91127402  1
  Fe  Fe51  1  0.51585474  0.51967789  0.30367866  1
