# generated using pymatgen
data_Ca5(SiO3)6
_symmetry_space_group_name_H-M   'P 1'
_cell_length_a   6.72159414
_cell_length_b   6.72030673
_cell_length_c   9.61895078
_cell_angle_alpha   98.50274474
_cell_angle_beta   92.97452996
_cell_angle_gamma   113.30042673
_symmetry_Int_Tables_number   1
_chemical_formula_structural   Ca5(SiO3)6
_chemical_formula_sum   'Ca5 Si6 O18'
_cell_volume   391.75217413
_cell_formula_units_Z   1
loop_
 _symmetry_equiv_pos_site_id
 _symmetry_equiv_pos_as_xyz
  1  'x, y, z'
loop_
 _atom_site_type_symbol
 _atom_site_label
 _atom_site_symmetry_multiplicity
 _atom_site_fract_x
 _atom_site_fract_y
 _atom_site_fract_z
 _atom_site_occupancy
  Ca  Ca0  1  0.72458015  0.46873593  0.88977782  1
  Ca  Ca1  1  0.27494713  0.53065556  0.10909836  1
  Ca  Ca2  1  0.95571860  0.95478668  0.50091493  1
  Ca  Ca3  1  0.23383432  0.96304994  0.88527359  1
  Ca  Ca4  1  0.76625286  0.03742208  0.11603794  1
  Si  Si5  1  0.65877958  0.30007754  0.43514872  1
  Si  Si6  1  0.34096216  0.69968265  0.56463085  1
  Si  Si7  1  0.25451067  0.03166841  0.21672571  1
  Si  Si8  1  0.74466721  0.97024405  0.78539472  1
  Si  Si9  1  0.82940099  0.60170270  0.22140147  1
  Si  Si10  1  0.17154364  0.39645684  0.77654972  1
  O  O11  1  0.78733049  0.14597180  0.38950385  1
  O  O12  1  0.21168910  0.85280907  0.61103679  1
  O  O13  1  0.89539317  0.42549803  0.12663012  1
  O  O14  1  0.10303545  0.57133509  0.87241911  1
  O  O15  1  0.65057435  0.65235157  0.13099282  1
  O  O16  1  0.34953664  0.34719229  0.86905276  1
  O  O17  1  0.15625873  0.16040314  0.12292108  1
  O  O18  1  0.84235575  0.83862426  0.87662084  1
  O  O19  1  0.32578769  0.64706551  0.39132868  1
  O  O20  1  0.67634791  0.35444257  0.60940906  1
  O  O21  1  0.76221983  0.54228010  0.37931434  1
  O  O22  1  0.24293525  0.46364404  0.62270573  1
  O  O23  1  0.40061009  0.18512696  0.36666195  1
  O  O24  1  0.60543929  0.82009210  0.63082181  1
  O  O25  1  0.04090421  0.84664428  0.27702268  1
  O  O26  1  0.95808203  0.15228773  0.72339389  1
  O  O27  1  0.38053422  0.91380207  0.11983997  1
  O  O28  1  0.61676846  0.08494699  0.88137071  1
