# generated using pymatgen
data_BaBi5
_symmetry_space_group_name_H-M   'P 1'
_cell_length_a   4.90710680
_cell_length_b   9.10275655
_cell_length_c   5.11255933
_cell_angle_alpha   68.11063541
_cell_angle_beta   89.99999221
_cell_angle_gamma   89.99999819
_symmetry_Int_Tables_number   1
_chemical_formula_structural   BaBi5
_chemical_formula_sum   'Ba1 Bi5'
_cell_volume   211.90467326
_cell_formula_units_Z   1
loop_
 _symmetry_equiv_pos_site_id
 _symmetry_equiv_pos_as_xyz
  1  'x, y, z'
loop_
 _atom_site_type_symbol
 _atom_site_label
 _atom_site_symmetry_multiplicity
 _atom_site_fract_x
 _atom_site_fract_y
 _atom_site_fract_z
 _atom_site_occupancy
  Ba  Ba0  1  -0.00000000  -0.00000000  0.00000000  1
  Bi  Bi1  1  0.50000000  0.32691978  0.71091849  1
  Bi  Bi2  1  1.00000000  0.32162005  0.28094342  1
  Bi  Bi3  1  0.50000000  0.67308022  0.28908151  1
  Bi  Bi4  1  0.00000000  0.67837995  0.71905658  1
  Bi  Bi5  1  0.50000000  -0.00000000  0.50000000  1
