# generated using pymatgen
data_Bi4PPd15
_symmetry_space_group_name_H-M   'P 1'
_cell_length_a   4.59942441
_cell_length_b   4.59942441
_cell_length_c   19.11175004
_cell_angle_alpha   90.00000000
_cell_angle_beta   96.91113197
_cell_angle_gamma   120.00000000
_symmetry_Int_Tables_number   1
_chemical_formula_structural   Bi4PPd15
_chemical_formula_sum   'Bi4 P1 Pd15'
_cell_volume   346.74075900
_cell_formula_units_Z   1
loop_
 _symmetry_equiv_pos_site_id
 _symmetry_equiv_pos_as_xyz
  1  'x, y, z'
loop_
 _atom_site_type_symbol
 _atom_site_label
 _atom_site_symmetry_multiplicity
 _atom_site_fract_x
 _atom_site_fract_y
 _atom_site_fract_z
 _atom_site_occupancy
  Bi  Bi0  1  0.79694993  0.39847497  0.19542490  1
  Bi  Bi1  1  0.59946880  0.79973440  0.39920319  1
  Bi  Bi2  1  0.40053120  0.20026560  0.60079681  1
  Bi  Bi3  1  0.20305007  0.60152503  0.80457510  1
  P  P4  1  0.00000000  0.00000000  -0.00000000  1
  Pd  Pd5  1  0.91620344  0.95810172  0.87430516  1
  Pd  Pd6  1  0.10125781  0.55062890  0.65188671  1
  Pd  Pd7  1  0.29886019  0.14943010  0.44829029  1
  Pd  Pd8  1  0.69249491  0.34624746  0.03874237  1
  Pd  Pd9  1  0.49996971  0.74998485  0.24995456  1
  Pd  Pd10  1  0.30750509  0.65375254  0.96125763  1
  Pd  Pd11  1  0.50003029  0.25001515  0.75004544  1
  Pd  Pd12  1  0.70113981  0.85056990  0.55170971  1
  Pd  Pd13  1  0.08379656  0.04189828  0.12569484  1
  Pd  Pd14  1  0.89874219  0.44937110  0.34811329  1
  Pd  Pd15  1  0.59867141  0.29933570  0.89800711  1
  Pd  Pd16  1  0.80474022  0.90237011  0.70711033  1
  Pd  Pd17  1  0.00000000  0.50000000  0.50000000  1
  Pd  Pd18  1  0.40132859  0.70066430  0.10199289  1
  Pd  Pd19  1  0.19525978  0.09762989  0.29288967  1
