# generated using pymatgen
data_AlSiPt6
_symmetry_space_group_name_H-M   'P 1'
_cell_length_a   3.91671362
_cell_length_b   5.54260479
_cell_length_c   5.54260479
_cell_angle_alpha   89.27134942
_cell_angle_beta   90.00000000
_cell_angle_gamma   90.00000000
_symmetry_Int_Tables_number   1
_chemical_formula_structural   AlSiPt6
_chemical_formula_sum   'Al1 Si1 Pt6'
_cell_volume   120.31354504
_cell_formula_units_Z   1
loop_
 _symmetry_equiv_pos_site_id
 _symmetry_equiv_pos_as_xyz
  1  'x, y, z'
loop_
 _atom_site_type_symbol
 _atom_site_label
 _atom_site_symmetry_multiplicity
 _atom_site_fract_x
 _atom_site_fract_y
 _atom_site_fract_z
 _atom_site_occupancy
  Al  Al0  1  0.50000000  0.50000000  0.00000000  1
  Si  Si1  1  0.50000000  -0.00000000  0.50000000  1
  Pt  Pt2  1  0.00000000  0.26462375  0.76462375  1
  Pt  Pt3  1  0.00000000  0.73537625  0.23537625  1
  Pt  Pt4  1  -0.00000000  0.23423082  0.26576918  1
  Pt  Pt5  1  -0.00000000  0.76576918  0.73423082  1
  Pt  Pt6  1  0.50000000  0.50000000  0.50000000  1
  Pt  Pt7  1  0.50000000  -0.00000000  0.00000000  1
