# generated using pymatgen
data_CrO
_symmetry_space_group_name_H-M   'P 1'
_cell_length_a   5.75702204
_cell_length_b   5.75693888
_cell_length_c   5.81641701
_cell_angle_alpha   90.00024852
_cell_angle_beta   89.99972675
_cell_angle_gamma   90.00115826
_symmetry_Int_Tables_number   1
_chemical_formula_structural   CrO
_chemical_formula_sum   'Cr8 O8'
_cell_volume   192.77248534
_cell_formula_units_Z   8
loop_
 _symmetry_equiv_pos_site_id
 _symmetry_equiv_pos_as_xyz
  1  'x, y, z'
loop_
 _atom_site_type_symbol
 _atom_site_label
 _atom_site_symmetry_multiplicity
 _atom_site_fract_x
 _atom_site_fract_y
 _atom_site_fract_z
 _atom_site_occupancy
  Cr  Cr0  1  0.00000525  0.99996023  0.24998619  1
  Cr  Cr1  1  -0.00001842  -0.00004291  0.75002108  1
  Cr  Cr2  1  0.00003326  0.49999028  0.50004508  1
  Cr  Cr3  1  0.24740474  0.45870883  0.00010428  1
  Cr  Cr4  1  0.45866179  0.75258467  0.49990013  1
  Cr  Cr5  1  0.50001127  -0.00000626  0.99995246  1
  Cr  Cr6  1  0.54135425  0.24740403  0.49989200  1
  Cr  Cr7  1  0.75259499  0.54138308  0.00010240  1
  O  O8  1  0.19061137  0.69339775  0.26413584  1
  O  O9  1  0.19066743  0.69349999  0.73601917  1
  O  O10  1  0.30657236  0.19065696  0.23588768  1
  O  O11  1  0.30649709  0.19072259  0.76395670  1
  O  O12  1  0.69341944  0.80939695  0.23584462  1
  O  O13  1  0.69349297  0.80934418  0.76399394  1
  O  O14  1  0.80938829  0.30653515  0.26411445  1
  O  O15  1  0.80930393  0.30646448  0.73604398  1
