# generated using pymatgen
data_La2AuO4
_symmetry_space_group_name_H-M   'P 1'
_cell_length_a   5.94687025
_cell_length_b   5.94573338
_cell_length_c   6.88714338
_cell_angle_alpha   90.00000000
_cell_angle_beta   115.57783834
_cell_angle_gamma   90.00000000
_symmetry_Int_Tables_number   1
_chemical_formula_structural   La2AuO4
_chemical_formula_sum   'La4 Au2 O8'
_cell_volume   219.65412151
_cell_formula_units_Z   2
loop_
 _symmetry_equiv_pos_site_id
 _symmetry_equiv_pos_as_xyz
  1  'x, y, z'
loop_
 _atom_site_type_symbol
 _atom_site_label
 _atom_site_symmetry_multiplicity
 _atom_site_fract_x
 _atom_site_fract_y
 _atom_site_fract_z
 _atom_site_occupancy
  La  La0  1  0.34671171  0.50000000  0.69342341  1
  La  La1  1  0.84687543  -0.00000000  0.69374985  1
  La  La2  1  0.15312457  0.00000000  0.30625015  1
  La  La3  1  0.65328829  0.50000000  0.30657659  1
  Au  Au4  1  0.50000000  0.00000000  0.00000000  1
  Au  Au5  1  0.00000000  0.50000000  0.00000000  1
  O  O6  1  0.50000000  0.75001843  0.50000000  1
  O  O7  1  0.00000000  0.24998157  0.50000000  1
  O  O8  1  0.50000000  0.24998157  0.50000000  1
  O  O9  1  0.24800009  0.25176384  0.00000000  1
  O  O10  1  0.00000000  0.75001843  0.50000000  1
  O  O11  1  0.24800009  0.74823616  0.00000000  1
  O  O12  1  0.75199991  0.74823616  1.00000000  1
  O  O13  1  0.75199991  0.25176384  1.00000000  1
