# generated using pymatgen
data_Fe3S4
_symmetry_space_group_name_H-M   'P 1'
_cell_length_a   6.80811674
_cell_length_b   6.80811667
_cell_length_c   6.65589385
_cell_angle_alpha   119.26308701
_cell_angle_beta   90.00000151
_cell_angle_gamma   58.52617085
_symmetry_Int_Tables_number   1
_chemical_formula_structural   Fe3S4
_chemical_formula_sum   'Fe6 S8'
_cell_volume   215.61222697
_cell_formula_units_Z   2
loop_
 _symmetry_equiv_pos_site_id
 _symmetry_equiv_pos_as_xyz
  1  'x, y, z'
loop_
 _atom_site_type_symbol
 _atom_site_label
 _atom_site_symmetry_multiplicity
 _atom_site_fract_x
 _atom_site_fract_y
 _atom_site_fract_z
 _atom_site_occupancy
  Fe  Fe0  1  0.50000000  0.50000000  0.00000000  1
  Fe  Fe1  1  0.00000000  0.00000000  0.50000000  1
  Fe  Fe2  1  0.50000000  0.50000000  0.50000000  1
  Fe  Fe3  1  0.50000000  0.00000000  0.50000000  1
  Fe  Fe4  1  0.12684516  0.25369032  0.12684516  1
  Fe  Fe5  1  0.87315484  0.74630968  0.87315484  1
  S  S6  1  0.25979376  0.98880652  0.25979376  1
  S  S7  1  0.74020624  0.01119348  0.27098724  1
  S  S8  1  0.25407667  0.50815334  0.25407667  1
  S  S9  1  0.74592333  0.49184666  0.74592333  1
  S  S10  1  0.72901276  0.51958752  0.25979376  1
  S  S11  1  0.74020624  0.01119348  0.74020624  1
  S  S12  1  0.25979376  0.98880652  0.72901276  1
  S  S13  1  0.27098724  0.48041248  0.74020624  1
