# generated using pymatgen
data_Ba2Nd2Fe3CoO12
_symmetry_space_group_name_H-M   'P 1'
_cell_length_a   5.56698748
_cell_length_b   7.93854182
_cell_length_c   5.56698748
_cell_angle_alpha   90.00000000
_cell_angle_beta   90.00000000
_cell_angle_gamma   90.00000000
_symmetry_Int_Tables_number   1
_chemical_formula_structural   Ba2Nd2Fe3CoO12
_chemical_formula_sum   'Ba2 Nd2 Fe3 Co1 O12'
_cell_volume   246.02612514
_cell_formula_units_Z   1
loop_
 _symmetry_equiv_pos_site_id
 _symmetry_equiv_pos_as_xyz
  1  'x, y, z'
loop_
 _atom_site_type_symbol
 _atom_site_label
 _atom_site_symmetry_multiplicity
 _atom_site_fract_x
 _atom_site_fract_y
 _atom_site_fract_z
 _atom_site_occupancy
  Ba  Ba0  1  -0.00000000  0.00086910  -0.00000000  1
  Ba  Ba1  1  0.50000000  0.49913090  0.50000000  1
  Nd  Nd2  1  0.50000000  0.00418693  0.50000000  1
  Nd  Nd3  1  -0.00000000  0.49581307  -0.00000000  1
  Fe  Fe4  1  -0.00000000  0.25000000  0.50000000  1
  Fe  Fe5  1  0.50000000  0.75000000  -0.00000000  1
  Fe  Fe6  1  -0.00000000  0.75000000  0.50000000  1
  Co  Co7  1  0.50000000  0.25000000  -0.00000000  1
  O  O8  1  0.25547965  0.25000000  0.24452035  1
  O  O9  1  0.74452035  0.25000000  0.75547965  1
  O  O10  1  0.25021076  0.75000000  0.24978924  1
  O  O11  1  0.74978924  0.75000000  0.75021076  1
  O  O12  1  0.25547965  0.25000000  0.75547965  1
  O  O13  1  0.74452035  0.25000000  0.24452035  1
  O  O14  1  0.25021076  0.75000000  0.75021076  1
  O  O15  1  0.74978924  0.75000000  0.24978924  1
  O  O16  1  0.50000000  0.00272161  -0.00000000  1
  O  O17  1  0.00000000  0.00155698  0.50000000  1
  O  O18  1  0.50000000  0.49727839  0.00000000  1
  O  O19  1  0.00000000  0.49844302  0.50000000  1
