# generated using pymatgen
data_Lu2C3
_symmetry_space_group_name_H-M   'P 1'
_cell_length_a   6.93811564
_cell_length_b   6.93811564
_cell_length_c   6.93811564
_cell_angle_alpha   109.47122060
_cell_angle_beta   109.47122060
_cell_angle_gamma   109.47122067
_symmetry_Int_Tables_number   1
_chemical_formula_structural   Lu2C3
_chemical_formula_sum   'Lu8 C12'
_cell_volume   257.10037607
_cell_formula_units_Z   4
loop_
 _symmetry_equiv_pos_site_id
 _symmetry_equiv_pos_as_xyz
  1  'x, y, z'
loop_
 _atom_site_type_symbol
 _atom_site_label
 _atom_site_symmetry_multiplicity
 _atom_site_fract_x
 _atom_site_fract_y
 _atom_site_fract_z
 _atom_site_occupancy
  C  C0  1  0.75000000  0.79101980  0.04101980  1
  C  C1  1  0.75000000  0.95898020  0.20898020  1
  C  C2  1  0.29101980  0.25000000  0.54101980  1
  C  C3  1  0.54101980  0.29101980  0.25000000  1
  C  C4  1  0.20898020  0.75000000  0.95898020  1
  C  C5  1  0.95898020  0.20898020  0.75000000  1
  C  C6  1  0.25000000  0.70898020  0.45898020  1
  C  C7  1  0.70898020  0.45898020  0.25000000  1
  C  C8  1  0.25000000  0.54101980  0.29101980  1
  C  C9  1  0.45898020  0.25000000  0.70898020  1
  C  C10  1  0.04101980  0.75000000  0.79101980  1
  C  C11  1  0.79101980  0.04101980  0.75000000  1
  Lu  Lu12  1  0.60028500  0.60028500  0.60028500  1
  Lu  Lu13  1  0.39971500  0.50000000  0.00000000  1
  Lu  Lu14  1  0.50000000  0.00000000  0.39971500  1
  Lu  Lu15  1  0.00000000  0.39971500  0.50000000  1
  Lu  Lu16  1  0.50000000  0.00000000  0.89971500  1
  Lu  Lu17  1  0.00000000  0.89971500  0.50000000  1
  Lu  Lu18  1  0.89971500  0.50000000  0.00000000  1
  Lu  Lu19  1  0.10028500  0.10028500  0.10028500  1
