# generated using pymatgen
data_Tb6O11
_symmetry_space_group_name_H-M   'P 1'
_cell_length_a   6.71152737
_cell_length_b   12.01736772
_cell_length_c   12.77619182
_cell_angle_alpha   74.23822621
_cell_angle_beta   81.46342890
_cell_angle_gamma   79.98354562
_symmetry_Int_Tables_number   1
_chemical_formula_structural   Tb6O11
_chemical_formula_sum   'Tb24 O44'
_cell_volume   971.01744438
_cell_formula_units_Z   4
loop_
 _symmetry_equiv_pos_site_id
 _symmetry_equiv_pos_as_xyz
  1  'x, y, z'
loop_
 _atom_site_type_symbol
 _atom_site_label
 _atom_site_symmetry_multiplicity
 _atom_site_fract_x
 _atom_site_fract_y
 _atom_site_fract_z
 _atom_site_occupancy
  O  O0  1  0.56939265  0.06387103  0.06169672  1
  O  O1  1  0.43060735  0.93612897  0.93830328  1
  O  O2  1  0.01881424  0.09353117  0.54001410  1
  O  O3  1  0.98118576  0.90646883  0.45998590  1
  O  O4  1  0.74233893  0.42214147  0.21081287  1
  O  O5  1  0.25766107  0.57785853  0.78918713  1
  O  O6  1  0.40994761  0.74700539  0.84761490  1
  O  O7  1  0.59005239  0.25299461  0.15238510  1
  O  O8  1  0.08784512  0.75490798  0.62334744  1
  O  O9  1  0.91215488  0.24509202  0.37665256  1
  O  O10  1  0.81489802  0.40418521  0.83930906  1
  O  O11  1  0.18510198  0.59581479  0.16069094  1
  O  O12  1  0.82041483  0.90934441  0.81348404  1
  O  O13  1  0.17958517  0.09065559  0.18651596  1
  O  O14  1  0.59611568  0.90316542  0.58471913  1
  O  O15  1  0.40388432  0.09683458  0.41528087  1
  O  O16  1  0.62096560  0.09895401  0.67238603  1
  O  O17  1  0.91252520  0.59151856  0.89601041  1
  O  O18  1  0.74198560  0.25541283  0.77199100  1
  O  O19  1  0.25801440  0.74458717  0.22800900  1
  O  O20  1  0.41764609  0.57776909  0.40987270  1
  O  O21  1  0.58235391  0.42223091  0.59012730  1
  O  O22  1  0.95900589  0.07708740  0.90549322  1
  O  O23  1  0.04099411  0.92291260  0.09450678  1
  O  O24  1  0.35123337  0.23184146  0.88473817  1
  O  O25  1  0.64876663  0.76815854  0.11526183  1
  O  O26  1  0.13174469  0.24732467  0.64805381  1
  O  O27  1  0.86825531  0.75267533  0.35194619  1
  O  O28  1  0.03272353  0.57881416  0.53340587  1
  O  O29  1  0.96727647  0.42118584  0.46659413  1
  O  O30  1  0.80014820  0.56720638  0.27878108  1
  O  O31  1  0.19985180  0.43279362  0.72121892  1
  O  O32  1  0.56649443  0.58834185  0.03341535  1
  O  O33  1  0.43350557  0.41165815  0.96658465  1
  O  O34  1  0.20252673  0.94421912  0.70268579  1
  O  O35  1  0.79747327  0.05578088  0.29731421  1
  O  O36  1  0.52325884  0.24602856  0.51553224  1
  O  O37  1  0.47674116  0.75397144  0.48446776  1
  O  O38  1  0.97111536  0.24025812  0.01614444  1
  O  O39  1  0.02888464  0.75974188  0.98385556  1
  O  O40  1  0.64697083  0.60030548  0.66661430  1
  O  O41  1  0.35302917  0.39969452  0.33338570  1
  O  O42  1  0.37903440  0.90104599  0.32761397  1
  O  O43  1  0.08747480  0.40848144  0.10398959  1
  Tb  Tb44  1  0.72660735  0.07058858  0.47891484  1
  Tb  Tb45  1  0.27339265  0.92941142  0.52108516  1
  Tb  Tb46  1  0.19412471  0.25156460  0.46611189  1
  Tb  Tb47  1  0.80587529  0.74843540  0.53388811  1
  Tb  Tb48  1  0.65988162  0.41137173  0.40451207  1
  Tb  Tb49  1  0.34011838  0.58862827  0.59548793  1
  Tb  Tb50  1  0.10472010  0.57927004  0.34643747  1
  Tb  Tb51  1  0.89527990  0.42072996  0.65356253  1
  Tb  Tb52  1  0.56984565  0.72918903  0.29998199  1
  Tb  Tb53  1  0.43015435  0.27081097  0.70001801  1
  Tb  Tb54  1  0.05611159  0.90859277  0.27698664  1
  Tb  Tb55  1  0.94388841  0.09140723  0.72301336  1
  Tb  Tb56  1  0.22673463  0.08052378  0.00601770  1
  Tb  Tb57  1  0.77326537  0.91947622  0.99398230  1
  Tb  Tb58  1  0.65748157  0.24287040  0.95970483  1
  Tb  Tb59  1  0.34251843  0.75712960  0.04029517  1
  Tb  Tb60  1  0.12875959  0.39718130  0.91114280  1
  Tb  Tb61  1  0.87124041  0.60281870  0.08885720  1
  Tb  Tb62  1  0.58174321  0.56489286  0.85872158  1
  Tb  Tb63  1  0.41825679  0.43510714  0.14127842  1
  Tb  Tb64  1  0.08735620  0.76451159  0.80311781  1
  Tb  Tb65  1  0.91264380  0.23548841  0.19688219  1
  Tb  Tb66  1  0.51031457  0.92060031  0.76165043  1
  Tb  Tb67  1  0.48968543  0.07939969  0.23834957  1
