# generated using pymatgen
data_Ba2TaH13C8O23
_symmetry_space_group_name_H-M   'P 1'
_cell_length_a   10.74562078
_cell_length_b   11.83226048
_cell_length_c   17.12018076
_cell_angle_alpha   90.00000000
_cell_angle_beta   90.00000000
_cell_angle_gamma   90.00000000
_symmetry_Int_Tables_number   1
_chemical_formula_structural   Ba2TaH13C8O23
_chemical_formula_sum   'Ba8 Ta4 H52 C32 O92'
_cell_volume   2176.74511032
_cell_formula_units_Z   4
loop_
 _symmetry_equiv_pos_site_id
 _symmetry_equiv_pos_as_xyz
  1  'x, y, z'
loop_
 _atom_site_type_symbol
 _atom_site_label
 _atom_site_symmetry_multiplicity
 _atom_site_fract_x
 _atom_site_fract_y
 _atom_site_fract_z
 _atom_site_occupancy
  Ba  Ba0  1  0.55150007  0.76969372  0.27005715  1
  Ba  Ba1  1  0.94849993  0.76969372  0.77005715  1
  Ba  Ba2  1  0.44849993  0.26969372  0.72994285  1
  Ba  Ba3  1  0.05150007  0.26969372  0.22994285  1
  Ba  Ba4  1  0.80690151  0.74177882  0.03638075  1
  Ba  Ba5  1  0.69309849  0.74177882  0.53638075  1
  Ba  Ba6  1  0.19309849  0.24177882  0.96361925  1
  Ba  Ba7  1  0.30690151  0.24177882  0.46361925  1
  Ta  Ta8  1  0.13852819  0.74969321  0.37341946  1
  Ta  Ta9  1  0.36147181  0.74969321  0.87341946  1
  Ta  Ta10  1  0.86147181  0.24969321  0.62658054  1
  Ta  Ta11  1  0.63852819  0.24969321  0.12658054  1
  H  H12  1  0.48496452  0.01898659  0.23727533  1
  H  H13  1  0.00741351  0.49414753  0.73952083  1
  H  H14  1  0.51503548  0.51898659  0.76272467  1
  H  H15  1  0.99258649  0.99414753  0.26047917  1
  H  H16  1  0.50741351  0.99414753  0.76047917  1
  H  H17  1  0.98496452  0.51898659  0.26272467  1
  H  H18  1  0.49258649  0.49414753  0.23952083  1
  H  H19  1  0.01503548  0.01898659  0.73727533  1
  H  H20  1  0.14567681  0.75043342  0.05863409  1
  H  H21  1  0.35432319  0.75043342  0.55863409  1
  H  H22  1  0.85432319  0.25043342  0.94136591  1
  H  H23  1  0.64567681  0.25043342  0.44136591  1
  H  H24  1  0.41578354  0.99689421  0.31737935  1
  H  H25  1  0.11353093  0.53663939  0.79880545  1
  H  H26  1  0.58421646  0.49689421  0.68262065  1
  H  H27  1  0.88646907  0.03663939  0.20119455  1
  H  H28  1  0.61353093  0.03663939  0.70119455  1
  H  H29  1  0.91578354  0.49689421  0.18262065  1
  H  H30  1  0.38646907  0.53663939  0.29880545  1
  H  H31  1  0.08421646  0.99689421  0.81737935  1
  H  H32  1  0.08468818  0.73460344  0.14145052  1
  H  H33  1  0.41531182  0.73460344  0.64145052  1
  H  H34  1  0.91531182  0.23460344  0.85854948  1
  H  H35  1  0.58468818  0.23460344  0.35854948  1
  H  H36  1  0.38042999  0.75037867  0.08863092  1
  H  H37  1  0.11957001  0.75037867  0.58863092  1
  H  H38  1  0.61957001  0.25037867  0.91136908  1
  H  H39  1  0.88042999  0.25037867  0.41136908  1
  H  H40  1  0.26437535  0.97226517  0.21205230  1
  H  H41  1  0.22738885  0.53595273  0.70247792  1
  H  H42  1  0.73562465  0.47226517  0.78794770  1
  H  H43  1  0.77261115  0.03595273  0.29752208  1
  H  H44  1  0.72738885  0.03595273  0.79752208  1
  H  H45  1  0.76437535  0.47226517  0.28794770  1
  H  H46  1  0.27261115  0.53595273  0.20247792  1
  H  H47  1  0.23562465  0.97226517  0.71205230  1
  H  H48  1  0.29972225  0.75860267  0.16409018  1
  H  H49  1  0.20027775  0.75860267  0.66409018  1
  H  H50  1  0.70027775  0.25860267  0.83590982  1
  H  H51  1  0.79972225  0.25860267  0.33590982  1
  H  H52  1  0.23238816  0.99319056  0.12543525  1
  H  H53  1  0.27542920  0.49785641  0.62269483  1
  H  H54  1  0.76761184  0.49319056  0.87456475  1
  H  H55  1  0.72457080  0.99785641  0.37730517  1
  H  H56  1  0.77542920  0.99785641  0.87730517  1
  H  H57  1  0.73238816  0.49319056  0.37456475  1
  H  H58  1  0.22457080  0.49785641  0.12269483  1
  H  H59  1  0.26761184  0.99319056  0.62543525  1
  H  H60  1  0.97000469  0.95166946  0.13351573  1
  H  H61  1  0.02999531  0.45166946  0.86648427  1
  H  H62  1  0.47000469  0.45166946  0.36648427  1
  H  H63  1  0.52999531  0.95166946  0.63351573  1
  C  C64  1  0.85800469  0.74787522  0.36077954  1
  C  C65  1  0.64199531  0.74787522  0.86077954  1
  C  C66  1  0.14199531  0.24787522  0.63922046  1
  C  C67  1  0.35800469  0.24787522  0.13922046  1
  C  C68  1  0.01471908  0.97285378  0.95098832  1
  C  C69  1  0.49330584  0.52029019  0.46540998  1
  C  C70  1  0.98528092  0.47285378  0.04901168  1
  C  C71  1  0.50669416  0.02029019  0.53459002  1
  C  C72  1  0.99330584  0.02029019  0.03459002  1
  C  C73  1  0.51471908  0.47285378  0.54901168  1
  C  C74  1  0.00669416  0.52029019  0.96540998  1
  C  C75  1  0.48528092  0.97285378  0.45098832  1
  C  C76  1  0.90639964  0.75361088  0.27534771  1
  C  C77  1  0.59360036  0.75361088  0.77534771  1
  C  C78  1  0.09360036  0.25361088  0.72465229  1
  C  C79  1  0.40639964  0.25361088  0.22465229  1
  C  C80  1  0.17313686  0.96184300  0.46858744  1
  C  C81  1  0.32834592  0.53678570  0.96939203  1
  C  C82  1  0.82686314  0.46184300  0.53141256  1
  C  C83  1  0.67165408  0.03678570  0.03060797  1
  C  C84  1  0.82834592  0.03678570  0.53060797  1
  C  C85  1  0.67313686  0.46184300  0.03141256  1
  C  C86  1  0.17165408  0.53678570  0.46939203  1
  C  C87  1  0.32686314  0.96184300  0.96858744  1
  C  C88  1  0.63130764  0.99347852  0.11145950  1
  C  C89  1  0.86651423  0.50571681  0.61231868  1
  C  C90  1  0.36869236  0.49347852  0.88854050  1
  C  C91  1  0.13348577  0.00571681  0.38768132  1
  C  C92  1  0.36651423  0.00571681  0.88768132  1
  C  C93  1  0.13130764  0.49347852  0.38854050  1
  C  C94  1  0.63348577  0.50571681  0.11231868  1
  C  C95  1  0.86869236  0.99347852  0.61145950  1
  O  O96  1  0.94314639  0.74764025  0.41340989  1
  O  O97  1  0.55685361  0.74764025  0.91340989  1
  O  O98  1  0.05685361  0.24764025  0.58659011  1
  O  O99  1  0.44314639  0.24764025  0.08659011  1
  O  O100  1  0.69798622  0.97036868  0.97739582  1
  O  O101  1  0.80463551  0.52734803  0.47695090  1
  O  O102  1  0.30201378  0.47036868  0.02260418  1
  O  O103  1  0.19536449  0.02734803  0.52304910  1
  O  O104  1  0.30463551  0.02734803  0.02304910  1
  O  O105  1  0.19798622  0.47036868  0.52260418  1
  O  O106  1  0.69536449  0.52734803  0.97695090  1
  O  O107  1  0.80201378  0.97036868  0.47739582  1
  O  O108  1  0.02713321  0.75031420  0.26932025  1
  O  O109  1  0.47286679  0.75031420  0.76932025  1
  O  O110  1  0.97286679  0.25031420  0.73067975  1
  O  O111  1  0.52713321  0.25031420  0.23067975  1
  O  O112  1  0.42115172  0.97102691  0.26153860  1
  O  O113  1  0.06788989  0.55458008  0.75139455  1
  O  O114  1  0.57884828  0.47102691  0.73846140  1
  O  O115  1  0.93211011  0.05458008  0.24860545  1
  O  O116  1  0.56788989  0.05458008  0.74860545  1
  O  O117  1  0.92115172  0.47102691  0.23846140  1
  O  O118  1  0.43211011  0.55458008  0.25139455  1
  O  O119  1  0.07884828  0.97102691  0.76153860  1
  O  O120  1  0.38519051  0.75533199  0.14543186  1
  O  O121  1  0.11480949  0.75533199  0.64543186  1
  O  O122  1  0.61480949  0.25533199  0.85456814  1
  O  O123  1  0.88519051  0.25533199  0.35456814  1
  O  O124  1  0.63393765  0.89122095  0.12815280  1
  O  O125  1  0.86676923  0.60785824  0.62832751  1
  O  O126  1  0.36606235  0.39122095  0.87184720  1
  O  O127  1  0.13323077  0.10785824  0.37167249  1
  O  O128  1  0.36676923  0.10785824  0.87167249  1
  O  O129  1  0.13393765  0.39122095  0.37184720  1
  O  O130  1  0.63323077  0.60785824  0.12832751  1
  O  O131  1  0.86606235  0.89122095  0.62815280  1
  O  O132  1  0.06659283  0.74972200  0.08646908  1
  O  O133  1  0.43340717  0.74972200  0.58646908  1
  O  O134  1  0.93340717  0.24972200  0.91353092  1
  O  O135  1  0.56659283  0.24972200  0.41353092  1
  O  O136  1  0.28618104  0.74354027  0.32725623  1
  O  O137  1  0.21381896  0.74354027  0.82725623  1
  O  O138  1  0.71381896  0.24354027  0.67274377  1
  O  O139  1  0.78618104  0.24354027  0.17274377  1
  O  O140  1  0.96426840  0.88058724  0.93366833  1
  O  O141  1  0.53465807  0.60966822  0.44147711  1
  O  O142  1  0.03573160  0.38058724  0.06633167  1
  O  O143  1  0.46534193  0.10966822  0.55852289  1
  O  O144  1  0.03465807  0.10966822  0.05852289  1
  O  O145  1  0.46426840  0.38058724  0.56633167  1
  O  O146  1  0.96534193  0.60966822  0.94147711  1
  O  O147  1  0.53573160  0.88058724  0.43366833  1
  O  O148  1  0.83248602  0.76186649  0.21986073  1
  O  O149  1  0.66751398  0.76186649  0.71986073  1
  O  O150  1  0.16751398  0.26186649  0.78013927  1
  O  O151  1  0.33248602  0.26186649  0.28013927  1
  O  O152  1  0.74412366  0.74434380  0.37403601  1
  O  O153  1  0.75587634  0.74434380  0.87403601  1
  O  O154  1  0.25587634  0.24434380  0.62596399  1
  O  O155  1  0.24412366  0.24434380  0.12596399  1
  O  O156  1  0.17982228  0.85205698  0.47158728  1
  O  O157  1  0.32346402  0.64661564  0.97295781  1
  O  O158  1  0.82017772  0.35205698  0.52841272  1
  O  O159  1  0.67653598  0.14661564  0.02704219  1
  O  O160  1  0.82346402  0.14661564  0.52704219  1
  O  O161  1  0.67982228  0.35205698  0.02841272  1
  O  O162  1  0.17653598  0.64661564  0.47295781  1
  O  O163  1  0.32017772  0.85205698  0.97158728  1
  O  O164  1  0.10217055  0.92385051  0.34098475  1
  O  O165  1  0.40126696  0.57476657  0.84218394  1
  O  O166  1  0.89782945  0.42385051  0.65901525  1
  O  O167  1  0.59873304  0.07476657  0.15781606  1
  O  O168  1  0.90126696  0.07476657  0.65781606  1
  O  O169  1  0.60217055  0.42385051  0.15901525  1
  O  O170  1  0.09873304  0.57476657  0.34218394  1
  O  O171  1  0.39782945  0.92385051  0.84098475  1
  O  O172  1  0.92935069  0.94857691  0.08212521  1
  O  O173  1  0.58794057  0.53306166  0.58947837  1
  O  O174  1  0.07064931  0.44857691  0.91787479  1
  O  O175  1  0.41205943  0.03306166  0.41052163  1
  O  O176  1  0.08794057  0.03306166  0.91052163  1
  O  O177  1  0.42935069  0.44857691  0.41787479  1
  O  O178  1  0.91205943  0.53306166  0.08947837  1
  O  O179  1  0.57064931  0.94857691  0.58212521  1
  O  O180  1  0.19262478  0.97905623  0.17614144  1
  O  O181  1  0.30387102  0.51035804  0.67661303  1
  O  O182  1  0.80737522  0.47905623  0.82385856  1
  O  O183  1  0.69612898  0.01035804  0.32338697  1
  O  O184  1  0.80387102  0.01035804  0.82338697  1
  O  O185  1  0.69262478  0.47905623  0.32385856  1
  O  O186  1  0.19612898  0.51035804  0.17661303  1
  O  O187  1  0.30737522  0.97905623  0.67614144  1
