# generated using pymatgen
data_Gd3Au
_symmetry_space_group_name_H-M   'P 1'
_cell_length_a   4.79518269
_cell_length_b   4.80804887
_cell_length_c   4.80411138
_cell_angle_alpha   90.02159712
_cell_angle_beta   90.02618921
_cell_angle_gamma   89.98246970
_symmetry_Int_Tables_number   1
_chemical_formula_structural   Gd3Au
_chemical_formula_sum   'Gd3 Au1'
_cell_volume   110.76103430
_cell_formula_units_Z   1
loop_
 _symmetry_equiv_pos_site_id
 _symmetry_equiv_pos_as_xyz
  1  'x, y, z'
loop_
 _atom_site_type_symbol
 _atom_site_label
 _atom_site_symmetry_multiplicity
 _atom_site_fract_x
 _atom_site_fract_y
 _atom_site_fract_z
 _atom_site_occupancy
  Gd  Gd0  1  0.00000306  0.49999946  0.49999799  1
  Gd  Gd1  1  0.49999884  -0.00000019  0.49999998  1
  Gd  Gd2  1  0.50000015  0.50000278  0.00000175  1
  Au  Au3  1  -0.00000206  0.99999795  0.00000028  1
