# generated using pymatgen
data_YbMnSi
_symmetry_space_group_name_H-M   'P 1'
_cell_length_a   4.24373940
_cell_length_b   7.19798507
_cell_length_c   7.14071984
_cell_angle_alpha   90.00000000
_cell_angle_beta   90.00000000
_cell_angle_gamma   90.00000000
_symmetry_Int_Tables_number   1
_chemical_formula_structural   YbMnSi
_chemical_formula_sum   'Yb4 Mn4 Si4'
_cell_volume   218.12309059
_cell_formula_units_Z   4
loop_
 _symmetry_equiv_pos_site_id
 _symmetry_equiv_pos_as_xyz
  1  'x, y, z'
loop_
 _atom_site_type_symbol
 _atom_site_label
 _atom_site_symmetry_multiplicity
 _atom_site_fract_x
 _atom_site_fract_y
 _atom_site_fract_z
 _atom_site_occupancy
  Si  Si0  1  0.25000000  0.80149436  0.11098630  1
  Si  Si1  1  0.75000000  0.19850564  0.88901370  1
  Si  Si2  1  0.25000000  0.30149436  0.38901370  1
  Si  Si3  1  0.75000000  0.69850564  0.61098630  1
  Mn  Mn4  1  0.75000000  0.86765422  0.93843754  1
  Mn  Mn5  1  0.25000000  0.13234578  0.06156246  1
  Mn  Mn6  1  0.75000000  0.36765422  0.56156246  1
  Mn  Mn7  1  0.25000000  0.63234578  0.43843754  1
  Yb  Yb8  1  0.25000000  0.50012938  0.82256983  1
  Yb  Yb9  1  0.75000000  0.49987062  0.17743017  1
  Yb  Yb10  1  0.25000000  0.00012938  0.67743017  1
  Yb  Yb11  1  0.75000000  0.99987062  0.32256983  1
