# generated using pymatgen
data_CrSbO4
_symmetry_space_group_name_H-M   'P 1'
_cell_length_a   6.25837245
_cell_length_b   6.13951408
_cell_length_c   6.13951416
_cell_angle_alpha   59.23245878
_cell_angle_beta   59.35749754
_cell_angle_gamma   59.35749712
_symmetry_Int_Tables_number   1
_chemical_formula_structural   CrSbO4
_chemical_formula_sum   'Cr2 Sb2 O8'
_cell_volume   164.20809971
_cell_formula_units_Z   2
loop_
 _symmetry_equiv_pos_site_id
 _symmetry_equiv_pos_as_xyz
  1  'x, y, z'
loop_
 _atom_site_type_symbol
 _atom_site_label
 _atom_site_symmetry_multiplicity
 _atom_site_fract_x
 _atom_site_fract_y
 _atom_site_fract_z
 _atom_site_occupancy
  Cr  Cr0  1  0.50000000  0.00000000  0.50000000  1
  Cr  Cr1  1  0.50000000  0.50000000  0.00000000  1
  Sb  Sb2  1  0.00000000  0.50000000  0.50000000  1
  Sb  Sb3  1  0.50000000  0.50000000  0.50000000  1
  O  O4  1  0.26443372  0.27057982  0.27057982  1
  O  O5  1  0.26084649  0.26576125  0.71254578  1
  O  O6  1  0.26084649  0.71254578  0.26576125  1
  O  O7  1  0.69440664  0.27057982  0.27057982  1
  O  O8  1  0.30559336  0.72942018  0.72942018  1
  O  O9  1  0.73915351  0.73423875  0.28745422  1
  O  O10  1  0.73915351  0.28745422  0.73423875  1
  O  O11  1  0.73556628  0.72942018  0.72942018  1
