# generated using pymatgen
data_DyMnGe
_symmetry_space_group_name_H-M   'P 1'
_cell_length_a   4.11336217
_cell_length_b   7.08034395
_cell_length_c   7.93059844
_cell_angle_alpha   90.00000000
_cell_angle_beta   90.00000000
_cell_angle_gamma   90.00000000
_symmetry_Int_Tables_number   1
_chemical_formula_structural   DyMnGe
_chemical_formula_sum   'Dy4 Mn4 Ge4'
_cell_volume   230.97089929
_cell_formula_units_Z   4
loop_
 _symmetry_equiv_pos_site_id
 _symmetry_equiv_pos_as_xyz
  1  'x, y, z'
loop_
 _atom_site_type_symbol
 _atom_site_label
 _atom_site_symmetry_multiplicity
 _atom_site_fract_x
 _atom_site_fract_y
 _atom_site_fract_z
 _atom_site_occupancy
  Mn  Mn0  1  0.75000000  0.36768041  0.55379357  1
  Mn  Mn1  1  0.25000000  0.13231959  0.05379357  1
  Mn  Mn2  1  0.75000000  0.86768041  0.94620643  1
  Mn  Mn3  1  0.25000000  0.63231959  0.44620643  1
  Ge  Ge4  1  0.25000000  0.27589312  0.38082661  1
  Ge  Ge5  1  0.75000000  0.22410688  0.88082661  1
  Ge  Ge6  1  0.25000000  0.77589312  0.11917339  1
  Ge  Ge7  1  0.75000000  0.72410688  0.61917339  1
  Dy  Dy8  1  0.25000000  0.52266801  0.81863623  1
  Dy  Dy9  1  0.75000000  0.47733199  0.18136377  1
  Dy  Dy10  1  0.25000000  0.02266801  0.68136377  1
  Dy  Dy11  1  0.75000000  0.97733199  0.31863623  1
