# generated using pymatgen
data_Fe2(PO4)3
_symmetry_space_group_name_H-M   'P 1'
_cell_length_a   8.96561017
_cell_length_b   8.96561017
_cell_length_c   8.96561017
_cell_angle_alpha   56.52068511
_cell_angle_beta   56.52068514
_cell_angle_gamma   56.52068515
_symmetry_Int_Tables_number   1
_chemical_formula_structural   Fe2(PO4)3
_chemical_formula_sum   'Fe4 P6 O24'
_cell_volume   468.61705286
_cell_formula_units_Z   2
loop_
 _symmetry_equiv_pos_site_id
 _symmetry_equiv_pos_as_xyz
  1  'x, y, z'
loop_
 _atom_site_type_symbol
 _atom_site_label
 _atom_site_symmetry_multiplicity
 _atom_site_fract_x
 _atom_site_fract_y
 _atom_site_fract_z
 _atom_site_occupancy
  O  O0  1  0.84354031  0.76985147  0.48414902  1
  O  O1  1  0.99337766  0.20574845  0.37611079  1
  O  O2  1  0.88920995  0.11293967  0.73164344  1
  O  O3  1  0.88706060  0.26835629  0.11079053  1
  O  O4  1  0.00662255  0.79425188  0.62388869  1
  O  O5  1  0.11079027  0.88706066  0.26835604  1
  O  O6  1  0.11293962  0.73164403  0.88920895  1
  O  O7  1  0.37611169  0.99337780  0.20574760  1
  O  O8  1  0.48414985  0.84354010  0.76985073  1
  O  O9  1  0.17960601  0.53854880  0.48959498  1
  O  O10  1  0.23014867  0.51585002  0.15646061  1
  O  O11  1  0.51040438  0.82039448  0.46145132  1
  O  O12  1  0.20574727  0.37611185  0.99337735  1
  O  O13  1  0.73164419  0.88920950  0.11294007  1
  O  O14  1  0.51585037  0.15646023  0.23014876  1
  O  O15  1  0.46145048  0.51040529  0.82039480  1
  O  O16  1  0.53854974  0.48959504  0.17960583  1
  O  O17  1  0.62388853  0.00662253  0.79425188  1
  O  O18  1  0.26835603  0.11079084  0.88706056  1
  O  O19  1  0.79425156  0.62388847  0.00662291  1
  O  O20  1  0.48959445  0.17960585  0.53855009  1
  O  O21  1  0.76985016  0.48415031  0.84354080  1
  O  O22  1  0.82039474  0.46145005  0.51040503  1
  O  O23  1  0.15645991  0.23014886  0.51585046  1
  P  P24  1  0.53245340  0.96293618  0.25500596  1
  P  P25  1  0.25500658  0.53245329  0.96293600  1
  P  P26  1  0.74499364  0.46754705  0.03706463  1
  P  P27  1  0.46754681  0.03706414  0.74499352  1
  P  P28  1  0.03706409  0.74499453  0.46754645  1
  P  P29  1  0.96293613  0.25500580  0.53245303  1
  Fe  Fe30  1  0.64583554  0.64583587  0.64583513  1
  Fe  Fe31  1  0.35416468  0.35416445  0.35416435  1
  Fe  Fe32  1  0.85944575  0.85944565  0.85944597  1
  Fe  Fe33  1  0.14055447  0.14055468  0.14055465  1
