# generated using pymatgen
data_Te7As2F12
_symmetry_space_group_name_H-M   'P 1'
_cell_length_a   9.95648225
_cell_length_b   11.41946870
_cell_length_c   16.71577338
_cell_angle_alpha   90.00000000
_cell_angle_beta   90.00000000
_cell_angle_gamma   90.00000000
_symmetry_Int_Tables_number   1
_chemical_formula_structural   Te7As2F12
_chemical_formula_sum   'Te28 As8 F48'
_cell_volume   1900.54561246
_cell_formula_units_Z   4
loop_
 _symmetry_equiv_pos_site_id
 _symmetry_equiv_pos_as_xyz
  1  'x, y, z'
loop_
 _atom_site_type_symbol
 _atom_site_label
 _atom_site_symmetry_multiplicity
 _atom_site_fract_x
 _atom_site_fract_y
 _atom_site_fract_z
 _atom_site_occupancy
  F  F0  1  0.58170645  0.14015078  0.75210309  1
  F  F1  1  0.08170645  0.85984922  0.74789691  1
  F  F2  1  0.41829355  0.64015078  0.24789691  1
  F  F3  1  0.91829355  0.35984922  0.25210309  1
  F  F4  1  0.41829355  0.85984922  0.24789691  1
  F  F5  1  0.91829355  0.14015078  0.25210309  1
  F  F6  1  0.58170645  0.35984922  0.75210309  1
  F  F7  1  0.08170645  0.64015078  0.74789691  1
  F  F8  1  0.46111336  0.35991893  0.62021443  1
  F  F9  1  0.96111336  0.64008107  0.87978557  1
  F  F10  1  0.53888664  0.85991893  0.37978557  1
  F  F11  1  0.03888664  0.14008107  0.12021443  1
  F  F12  1  0.53888664  0.64008107  0.37978557  1
  F  F13  1  0.03888664  0.35991893  0.12021443  1
  F  F14  1  0.46111336  0.14008107  0.62021443  1
  F  F15  1  0.96111336  0.85991893  0.87978557  1
  F  F16  1  0.32130210  0.75000000  0.36568087  1
  F  F17  1  0.82130210  0.25000000  0.13431913  1
  F  F18  1  0.67869790  0.25000000  0.63431913  1
  F  F19  1  0.17869790  0.75000000  0.86568087  1
  F  F20  1  0.13833717  0.63979399  0.16498687  1
  F  F21  1  0.63557111  0.75000000  0.26272793  1
  F  F22  1  0.36442889  0.25000000  0.73727207  1
  F  F23  1  0.86442889  0.75000000  0.76272793  1
  F  F24  1  0.11278969  0.13979941  0.82176405  1
  F  F25  1  0.61278969  0.86020059  0.67823595  1
  F  F26  1  0.88721031  0.63979941  0.17823595  1
  F  F27  1  0.38721031  0.36020059  0.32176405  1
  F  F28  1  0.88721031  0.86020059  0.17823595  1
  F  F29  1  0.38721031  0.13979941  0.32176405  1
  F  F30  1  0.11278969  0.36020059  0.82176405  1
  F  F31  1  0.61278969  0.63979941  0.67823595  1
  F  F32  1  0.86166283  0.36020601  0.83501313  1
  F  F33  1  0.36166283  0.63979399  0.66498687  1
  F  F34  1  0.13833717  0.86020601  0.16498687  1
  F  F35  1  0.63833717  0.13979399  0.33501313  1
  F  F36  1  0.47292499  0.75000000  0.77750698  1
  F  F37  1  0.97292499  0.25000000  0.72249302  1
  F  F38  1  0.52707501  0.25000000  0.22249302  1
  F  F39  1  0.02707501  0.75000000  0.27750698  1
  F  F40  1  0.50145190  0.75000000  0.56506513  1
  F  F41  1  0.00145190  0.25000000  0.93493487  1
  F  F42  1  0.49854810  0.25000000  0.43493487  1
  F  F43  1  0.99854810  0.75000000  0.06506513  1
  F  F44  1  0.36166283  0.86020601  0.66498687  1
  F  F45  1  0.86166283  0.13979399  0.83501313  1
  F  F46  1  0.63833717  0.36020601  0.33501313  1
  F  F47  1  0.13557111  0.25000000  0.23727207  1
  As  As48  1  0.47869654  0.75000000  0.31405445  1
  As  As49  1  0.97869654  0.25000000  0.18594555  1
  As  As50  1  0.52130346  0.25000000  0.68594555  1
  As  As51  1  0.02130346  0.75000000  0.81405445  1
  As  As52  1  0.01260493  0.75000000  0.17055625  1
  As  As53  1  0.51260493  0.25000000  0.32944375  1
  As  As54  1  0.98739507  0.25000000  0.82944375  1
  As  As55  1  0.48739507  0.75000000  0.67055625  1
  Te  Te56  1  0.90014627  0.75000000  0.51174401  1
  Te  Te57  1  0.40014627  0.25000000  0.98825599  1
  Te  Te58  1  0.09985373  0.25000000  0.48825599  1
  Te  Te59  1  0.59985373  0.75000000  0.01174401  1
  Te  Te60  1  0.11960467  0.47179531  0.37296954  1
  Te  Te61  1  0.61960467  0.52820469  0.12703046  1
  Te  Te62  1  0.88039533  0.97179531  0.62703046  1
  Te  Te63  1  0.38039533  0.02820469  0.87296954  1
  Te  Te64  1  0.88039533  0.52820469  0.62703046  1
  Te  Te65  1  0.38039533  0.47179531  0.87296954  1
  Te  Te66  1  0.11960467  0.02820469  0.37296954  1
  Te  Te67  1  0.61960467  0.97179531  0.12703046  1
  Te  Te68  1  0.25232635  0.57017870  0.49848337  1
  Te  Te69  1  0.75232635  0.42982130  0.00151663  1
  Te  Te70  1  0.74767365  0.07017870  0.50151663  1
  Te  Te71  1  0.24767365  0.92982130  0.99848337  1
  Te  Te72  1  0.74767365  0.42982130  0.50151663  1
  Te  Te73  1  0.24767365  0.57017870  0.99848337  1
  Te  Te74  1  0.25232635  0.92982130  0.49848337  1
  Te  Te75  1  0.75232635  0.07017870  0.00151663  1
  Te  Te76  1  0.14255685  0.42195150  0.61466550  1
  Te  Te77  1  0.64255685  0.57804850  0.88533450  1
  Te  Te78  1  0.85744315  0.92195150  0.38533450  1
  Te  Te79  1  0.35744315  0.07804850  0.11466550  1
  Te  Te80  1  0.85744315  0.57804850  0.38533450  1
  Te  Te81  1  0.35744315  0.42195150  0.11466550  1
  Te  Te82  1  0.14255685  0.07804850  0.61466550  1
  Te  Te83  1  0.64255685  0.92195150  0.88533450  1
