# generated using pymatgen
data_Bi2(PO4)3
_symmetry_space_group_name_H-M   'P 1'
_cell_length_a   9.14101799
_cell_length_b   12.59667337
_cell_length_c   9.12076589
_cell_angle_alpha   90.00000000
_cell_angle_beta   90.00000000
_cell_angle_gamma   90.69513406
_symmetry_Int_Tables_number   1
_chemical_formula_structural   Bi2(PO4)3
_chemical_formula_sum   'Bi8 P12 O48'
_cell_volume   1050.14622774
_cell_formula_units_Z   4
loop_
 _symmetry_equiv_pos_site_id
 _symmetry_equiv_pos_as_xyz
  1  'x, y, z'
loop_
 _atom_site_type_symbol
 _atom_site_label
 _atom_site_symmetry_multiplicity
 _atom_site_fract_x
 _atom_site_fract_y
 _atom_site_fract_z
 _atom_site_occupancy
  Bi  Bi0  1  0.74985974  0.88129726  0.53780553  1
  Bi  Bi1  1  0.75014026  0.61870274  0.03780553  1
  Bi  Bi2  1  0.24922321  0.87844911  0.04206828  1
  Bi  Bi3  1  0.24985974  0.38129726  0.96219447  1
  Bi  Bi4  1  0.25014026  0.11870274  0.46219447  1
  Bi  Bi5  1  0.74922321  0.37844911  0.45793172  1
  Bi  Bi6  1  0.75077679  0.12155089  0.95793172  1
  Bi  Bi7  1  0.25077679  0.62155089  0.54206828  1
  P  P8  1  0.09902632  0.14824558  0.10659439  1
  P  P9  1  0.46095808  0.00153460  0.74758558  1
  P  P10  1  0.40217034  0.65285779  0.88829234  1
  P  P11  1  0.90217034  0.15285779  0.61170766  1
  P  P12  1  0.53904192  0.99846540  0.25241442  1
  P  P13  1  0.96095808  0.50153460  0.75241442  1
  P  P14  1  0.59902632  0.64824558  0.39340561  1
  P  P15  1  0.40097368  0.35175442  0.60659439  1
  P  P16  1  0.90097368  0.85175442  0.89340561  1
  P  P17  1  0.59782966  0.34714221  0.11170766  1
  P  P18  1  0.09782966  0.84714221  0.38829234  1
  P  P19  1  0.03904192  0.49846540  0.24758558  1
  O  O20  1  0.42815087  0.65934073  0.38492701  1
  O  O21  1  0.07184913  0.84065927  0.88492701  1
  O  O22  1  0.66311744  0.71784567  0.51867571  1
  O  O23  1  0.09588319  0.57620998  0.36721392  1
  O  O24  1  0.14108137  0.03361276  0.07168420  1
  O  O25  1  0.66744207  0.93710705  0.32024372  1
  O  O26  1  0.36571052  0.53498766  0.90900892  1
  O  O27  1  0.64108137  0.53361276  0.42831580  1
  O  O28  1  0.33255793  0.06289295  0.67975628  1
  O  O29  1  0.13868950  0.80579767  0.23273504  1
  O  O30  1  0.33688256  0.28215433  0.48132429  1
  O  O31  1  0.57184913  0.34065927  0.61507299  1
  O  O32  1  0.96461946  0.57118741  0.13391346  1
  O  O33  1  0.03538054  0.42881259  0.86608654  1
  O  O34  1  0.40411681  0.92379002  0.86721392  1
  O  O35  1  0.83688256  0.78215433  0.01867571  1
  O  O36  1  0.43407192  0.91073884  0.19189307  1
  O  O37  1  0.35891863  0.46638724  0.57168420  1
  O  O38  1  0.17990743  0.78528738  0.51085394  1
  O  O39  1  0.06592808  0.58926116  0.69189307  1
  O  O40  1  0.93407192  0.41073884  0.30810693  1
  O  O41  1  0.56592808  0.08926116  0.80810693  1
  O  O42  1  0.34773082  0.31172312  0.75790184  1
  O  O43  1  0.59588319  0.07620998  0.13278608  1
  O  O44  1  0.36131050  0.69420233  0.73273504  1
  O  O45  1  0.15226918  0.18827688  0.25790184  1
  O  O46  1  0.63428948  0.46501234  0.09099108  1
  O  O47  1  0.46461946  0.07118741  0.36608654  1
  O  O48  1  0.16311744  0.21784567  0.98132429  1
  O  O49  1  0.13428948  0.96501234  0.40900892  1
  O  O50  1  0.67990743  0.28528738  0.98914606  1
  O  O51  1  0.90411681  0.42379002  0.63278608  1
  O  O52  1  0.56974934  0.67349919  0.89647008  1
  O  O53  1  0.16744207  0.43710705  0.17975628  1
  O  O54  1  0.93025066  0.82650081  0.39647008  1
  O  O55  1  0.85891863  0.96638724  0.92831580  1
  O  O56  1  0.86131050  0.19420233  0.76726496  1
  O  O57  1  0.65226918  0.68827688  0.24209816  1
  O  O58  1  0.83255793  0.56289295  0.82024372  1
  O  O59  1  0.86571052  0.03498766  0.59099108  1
  O  O60  1  0.84773082  0.81172312  0.74209816  1
  O  O61  1  0.92815087  0.15934073  0.11507299  1
  O  O62  1  0.06974934  0.17349919  0.60352992  1
  O  O63  1  0.82009257  0.21471262  0.48914606  1
  O  O64  1  0.32009257  0.71471262  0.01085394  1
  O  O65  1  0.53538054  0.92881259  0.63391346  1
  O  O66  1  0.43025066  0.32650081  0.10352992  1
  O  O67  1  0.63868950  0.30579767  0.26726496  1
