# generated using pymatgen
data_K2USO7F2
_symmetry_space_group_name_H-M   'P 1'
_cell_length_a   9.35892044
_cell_length_b   8.74827393
_cell_length_c   11.15198062
_cell_angle_alpha   90.00000000
_cell_angle_beta   101.32481390
_cell_angle_gamma   90.00000000
_symmetry_Int_Tables_number   1
_chemical_formula_structural   K2USO7F2
_chemical_formula_sum   'K8 U4 S4 O28 F8'
_cell_volume   895.28413787
_cell_formula_units_Z   4
loop_
 _symmetry_equiv_pos_site_id
 _symmetry_equiv_pos_as_xyz
  1  'x, y, z'
loop_
 _atom_site_type_symbol
 _atom_site_label
 _atom_site_symmetry_multiplicity
 _atom_site_fract_x
 _atom_site_fract_y
 _atom_site_fract_z
 _atom_site_occupancy
  K  K0  1  0.41647863  0.02409156  0.69689897  1
  K  K1  1  0.58352137  0.52409156  0.80310103  1
  K  K2  1  0.58352137  0.97590844  0.30310103  1
  K  K3  1  0.41647863  0.47590844  0.19689897  1
  K  K4  1  0.92142796  0.04674715  0.64813096  1
  K  K5  1  0.07857204  0.54674715  0.85186904  1
  K  K6  1  0.07857204  0.95325285  0.35186904  1
  K  K7  1  0.92142796  0.45325285  0.14813096  1
  U  U8  1  0.19020843  0.39451043  0.51133840  1
  U  U9  1  0.80979157  0.89451043  0.98866160  1
  U  U10  1  0.80979157  0.60548957  0.48866160  1
  U  U11  1  0.19020843  0.10548957  0.01133840  1
  S  S12  1  0.42827032  0.72555680  0.49387263  1
  S  S13  1  0.57172968  0.22555680  0.00612737  1
  S  S14  1  0.57172968  0.27444320  0.50612737  1
  S  S15  1  0.42827032  0.77444320  0.99387263  1
  O  O16  1  0.23305375  0.45243556  0.67063029  1
  O  O17  1  0.76694625  0.95243556  0.82936971  1
  O  O18  1  0.76694625  0.54756444  0.32936971  1
  O  O19  1  0.23305375  0.04756444  0.17063029  1
  O  O20  1  0.14570179  0.34200251  0.34964781  1
  O  O21  1  0.85429821  0.84200251  0.15035219  1
  O  O22  1  0.85429821  0.65799749  0.65035219  1
  O  O23  1  0.14570179  0.15799749  0.84964781  1
  O  O24  1  0.34141198  0.58645520  0.44119279  1
  O  O25  1  0.65858802  0.08645520  0.05880721  1
  O  O26  1  0.65858802  0.41354480  0.55880721  1
  O  O27  1  0.34141198  0.91354480  0.94119279  1
  O  O28  1  0.35489433  0.86618926  0.44309396  1
  O  O29  1  0.64510567  0.36618926  0.05690604  1
  O  O30  1  0.64510567  0.13381074  0.55690604  1
  O  O31  1  0.35489433  0.63381074  0.94309396  1
  O  O32  1  0.57197197  0.71442458  0.45156409  1
  O  O33  1  0.42802803  0.21442458  0.04843591  1
  O  O34  1  0.42802803  0.28557542  0.54843591  1
  O  O35  1  0.57197197  0.78557542  0.95156409  1
  O  O36  1  0.45348432  0.72335579  0.62834916  1
  O  O37  1  0.54651568  0.22335579  0.87165084  1
  O  O38  1  0.54651568  0.27664421  0.37165084  1
  O  O39  1  0.45348432  0.77664421  0.12834916  1
  O  O40  1  0.83924375  0.31151782  0.78831901  1
  O  O41  1  0.16075625  0.81151782  0.71168099  1
  O  O42  1  0.16075625  0.68848218  0.21168099  1
  O  O43  1  0.83924375  0.18848218  0.28831901  1
  F  F44  1  0.94702002  0.37510237  0.52986968  1
  F  F45  1  0.05297998  0.87510237  0.97013032  1
  F  F46  1  0.05297998  0.62489763  0.47013032  1
  F  F47  1  0.94702002  0.12489763  0.02986968  1
  F  F48  1  0.15474764  0.15144723  0.55457600  1
  F  F49  1  0.84525236  0.65144723  0.94542400  1
  F  F50  1  0.84525236  0.84855277  0.44542400  1
  F  F51  1  0.15474764  0.34855277  0.05457600  1
