# generated using pymatgen
data_Ni17S18
_symmetry_space_group_name_H-M   'P 1'
_cell_length_a   10.30153225
_cell_length_b   10.30153190
_cell_length_c   15.47470631
_cell_angle_alpha   90.00000000
_cell_angle_beta   90.00000000
_cell_angle_gamma   120.00000111
_symmetry_Int_Tables_number   1
_chemical_formula_structural   Ni17S18
_chemical_formula_sum   'Ni51 S54'
_cell_volume   1422.18692069
_cell_formula_units_Z   3
loop_
 _symmetry_equiv_pos_site_id
 _symmetry_equiv_pos_as_xyz
  1  'x, y, z'
loop_
 _atom_site_type_symbol
 _atom_site_label
 _atom_site_symmetry_multiplicity
 _atom_site_fract_x
 _atom_site_fract_y
 _atom_site_fract_z
 _atom_site_occupancy
  S  S0  1  0.10891146  0.22507614  0.07880162  1
  S  S1  1  0.77492386  0.88383532  0.41213496  1
  S  S2  1  0.11616468  0.89108854  0.74546829  1
  S  S3  1  0.88383532  0.77492386  0.58786504  1
  S  S4  1  0.89108854  0.11616468  0.25453171  1
  S  S5  1  0.22507614  0.10891146  0.92119838  1
  S  S6  1  0.44474324  0.22301397  0.08706397  1
  S  S7  1  0.77698603  0.22172927  0.42039730  1
  S  S8  1  0.77827073  0.55525676  0.75373063  1
  S  S9  1  0.22172927  0.77698603  0.57960270  1
  S  S10  1  0.55525676  0.77827073  0.24626937  1
  S  S11  1  0.22301397  0.44474324  0.91293603  1
  S  S12  1  0.78296877  0.22532726  0.07928770  1
  S  S13  1  0.77467274  0.55764150  0.41262103  1
  S  S14  1  0.44235850  0.21703123  0.74595436  1
  S  S15  1  0.55764150  0.77467274  0.58737897  1
  S  S16  1  0.21703123  0.44235850  0.25404564  1
  S  S17  1  0.22532726  0.78296877  0.92071230  1
  S  S18  1  0.10875699  0.55102566  0.07841505  1
  S  S19  1  0.44897434  0.55773134  0.41174838  1
  S  S20  1  0.44226866  0.89124301  0.74508172  1
  S  S21  1  0.55773134  0.44897434  0.58825162  1
  S  S22  1  0.89124301  0.44226866  0.25491828  1
  S  S23  1  0.55102566  0.10875699  0.92158495  1
  S  S24  1  0.44021965  0.55384517  0.08674224  1
  S  S25  1  0.44615483  0.88637448  0.42007557  1
  S  S26  1  0.11362552  0.55978035  0.75340890  1
  S  S27  1  0.88637448  0.44615483  0.57992443  1
  S  S28  1  0.55978035  0.11362552  0.24659110  1
  S  S29  1  0.55384517  0.44021965  0.91325776  1
  S  S30  1  0.78018522  0.55381716  0.08708828  1
  S  S31  1  0.44618284  0.22636806  0.42042161  1
  S  S32  1  0.77363194  0.21981478  0.75375495  1
  S  S33  1  0.22636806  0.44618284  0.57957839  1
  S  S34  1  0.21981478  0.77363194  0.24624505  1
  S  S35  1  0.55381716  0.78018522  0.91291172  1
  S  S36  1  0.11082803  0.88895558  0.08694372  1
  S  S37  1  0.11104442  0.22187245  0.42027706  1
  S  S38  1  0.77812755  0.88917197  0.75361039  1
  S  S39  1  0.22187245  0.11104442  0.57972294  1
  S  S40  1  0.88917197  0.77812755  0.24638961  1
  S  S41  1  0.88895558  0.11082803  0.91305628  1
  S  S42  1  0.44473546  0.88893249  0.08689065  1
  S  S43  1  0.11106751  0.55580298  0.42022398  1
  S  S44  1  0.44419702  0.55526454  0.75355731  1
  S  S45  1  0.55580298  0.11106751  0.57977602  1
  S  S46  1  0.55526454  0.44419702  0.24644269  1
  S  S47  1  0.88893249  0.44473546  0.91310935  1
  S  S48  1  0.78021362  0.89394032  0.08675416  1
  S  S49  1  0.10605968  0.88627330  0.42008750  1
  S  S50  1  0.11372670  0.21978638  0.75342083  1
  S  S51  1  0.88627330  0.10605968  0.57991250  1
  S  S52  1  0.21978638  0.11372670  0.24657917  1
  S  S53  1  0.89394032  0.78021362  0.91324584  1
  Ni  Ni54  1  0.33327225  0.00006118  0.00749725  1
  Ni  Ni55  1  0.99993882  0.33321107  0.34083058  1
  Ni  Ni56  1  0.66678893  0.66672775  0.67416391  1
  Ni  Ni57  1  0.33321107  0.99993882  0.65916942  1
  Ni  Ni58  1  0.66672775  0.66678893  0.32583609  1
  Ni  Ni59  1  0.00006118  0.33327225  0.99250275  1
  Ni  Ni60  1  0.66671492  0.98907760  0.99997009  1
  Ni  Ni61  1  0.01092240  0.67763731  0.33330342  1
  Ni  Ni62  1  0.32236269  0.33328508  0.66663676  1
  Ni  Ni63  1  0.67763731  0.01092240  0.66669658  1
  Ni  Ni64  1  0.33328508  0.32236269  0.33336324  1
  Ni  Ni65  1  0.98907760  0.66671492  0.00002991  1
  Ni  Ni66  1  0.66748916  0.34522017  0.00030927  1
  Ni  Ni67  1  0.65477983  0.32226899  0.33364261  1
  Ni  Ni68  1  0.67773101  0.33251084  0.66697594  1
  Ni  Ni69  1  0.32226899  0.65477983  0.66635739  1
  Ni  Ni70  1  0.33251084  0.67773101  0.33302406  1
  Ni  Ni71  1  0.34522017  0.66748916  0.99969073  1
  Ni  Ni72  1  0.33317198  0.00062683  0.17985396  1
  Ni  Ni73  1  0.99937317  0.33254515  0.51318729  1
  Ni  Ni74  1  0.66745485  0.66682802  0.84652063  1
  Ni  Ni75  1  0.33254515  0.99937317  0.48681271  1
  Ni  Ni76  1  0.66682802  0.66745485  0.15347937  1
  Ni  Ni77  1  0.00062683  0.33317198  0.82014604  1
  Ni  Ni78  1  0.67503959  0.00883382  0.16665786  1
  Ni  Ni79  1  0.99116618  0.66620577  0.49999119  1
  Ni  Ni80  1  0.33379423  0.32496041  0.83332452  1
  Ni  Ni81  1  0.66620577  0.99116618  0.50000881  1
  Ni  Ni82  1  0.32496041  0.33379423  0.16667548  1
  Ni  Ni83  1  0.00883382  0.67503959  0.83334214  1
  Ni  Ni84  1  0.67525560  0.33395254  0.16698217  1
  Ni  Ni85  1  0.66604746  0.34130306  0.50031550  1
  Ni  Ni86  1  0.65869694  0.32474440  0.83364884  1
  Ni  Ni87  1  0.34130306  0.66604746  0.49968450  1
  Ni  Ni88  1  0.32474440  0.65869694  0.16635116  1
  Ni  Ni89  1  0.33395254  0.67525560  0.83301783  1
  Ni  Ni90  1  0.01060316  0.00000000  0.33333333  1
  Ni  Ni91  1  0.00000000  0.01060316  0.66666667  1
  Ni  Ni92  1  0.98939684  0.98939684  0.00000000  1
  Ni  Ni93  1  0.65519048  0.00000000  0.33333333  1
  Ni  Ni94  1  1.00000000  0.65519048  0.66666667  1
  Ni  Ni95  1  0.34480952  0.34480952  0.00000000  1
  Ni  Ni96  1  0.00923618  0.00000000  0.83333333  1
  Ni  Ni97  1  0.00000000  0.00923618  0.16666667  1
  Ni  Ni98  1  0.99076382  0.99076382  0.50000000  1
  Ni  Ni99  1  0.33404036  0.00000000  0.83333333  1
  Ni  Ni100  1  0.00000000  0.33404036  0.16666667  1
  Ni  Ni101  1  0.66595964  0.66595964  0.50000000  1
  Ni  Ni102  1  0.65787001  0.00000000  0.83333333  1
  Ni  Ni103  1  1.00000000  0.65787001  0.16666667  1
  Ni  Ni104  1  0.34212999  0.34212999  0.50000000  1
