# generated using pymatgen
data_Pr(WO4)2
_symmetry_space_group_name_H-M   'P 1'
_cell_length_a   7.60349168
_cell_length_b   8.28791814
_cell_length_c   7.42951191
_cell_angle_alpha   115.30234451
_cell_angle_beta   116.10330096
_cell_angle_gamma   56.10726780
_symmetry_Int_Tables_number   1
_chemical_formula_structural   Pr(WO4)2
_chemical_formula_sum   'Pr2 W4 O16'
_cell_volume   338.42710069
_cell_formula_units_Z   2
loop_
 _symmetry_equiv_pos_site_id
 _symmetry_equiv_pos_as_xyz
  1  'x, y, z'
loop_
 _atom_site_type_symbol
 _atom_site_label
 _atom_site_symmetry_multiplicity
 _atom_site_fract_x
 _atom_site_fract_y
 _atom_site_fract_z
 _atom_site_occupancy
  O  O0  1  0.18812698  0.00394361  0.85463619  1
  O  O1  1  0.09686169  0.35281987  0.83135800  1
  O  O2  1  0.09473093  0.17907276  0.39953667  1
  O  O3  1  0.47897296  0.99747033  0.71024263  1
  O  O4  1  0.21201674  0.67595586  0.92409481  1
  O  O5  1  0.27241839  0.47497847  0.52022210  1
  O  O6  1  0.16339139  0.83828163  0.48386727  1
  O  O7  1  0.44664254  0.35849910  0.19722868  1
  O  O8  1  0.55335746  0.64150090  0.80277132  1
  O  O9  1  0.83660861  0.16171837  0.51613273  1
  O  O10  1  0.72758161  0.52502153  0.47977790  1
  O  O11  1  0.78798326  0.32404414  0.07590519  1
  O  O12  1  0.52102704  0.00252967  0.28975737  1
  O  O13  1  0.90526907  0.82092724  0.60046333  1
  O  O14  1  0.90313831  0.64718013  0.16864200  1
  O  O15  1  0.81187302  0.99605639  0.14536381  1
  Pr  Pr16  1  0.16367593  0.28740470  0.17263569  1
  Pr  Pr17  1  0.83632407  0.71259530  0.82736431  1
  W  W18  1  0.18605403  0.10496040  0.64860583  1
  W  W19  1  0.26211291  0.70641016  0.72687827  1
  W  W20  1  0.73788709  0.29358984  0.27312173  1
  W  W21  1  0.81394597  0.89503960  0.35139417  1
