# generated using pymatgen
data_BaTbO3
_symmetry_space_group_name_H-M   'P 1'
_cell_length_a   6.22920774
_cell_length_b   6.22920774
_cell_length_c   6.28436234
_cell_angle_alpha   119.71009844
_cell_angle_beta   119.71009850
_cell_angle_gamma   90.00000000
_symmetry_Int_Tables_number   1
_chemical_formula_structural   BaTbO3
_chemical_formula_sum   'Ba2 Tb2 O6'
_cell_volume   173.92976989
_cell_formula_units_Z   2
loop_
 _symmetry_equiv_pos_site_id
 _symmetry_equiv_pos_as_xyz
  1  'x, y, z'
loop_
 _atom_site_type_symbol
 _atom_site_label
 _atom_site_symmetry_multiplicity
 _atom_site_fract_x
 _atom_site_fract_y
 _atom_site_fract_z
 _atom_site_occupancy
  O  O0  1  0.69127247  0.19127247  1.00000000  1
  O  O1  1  0.80872753  0.69127247  0.00000000  1
  O  O2  1  0.19127247  0.30872753  0.00000000  1
  O  O3  1  0.30872753  0.80872753  0.00000000  1
  O  O4  1  0.25000000  0.25000000  0.50000000  1
  O  O5  1  0.75000000  0.75000000  0.50000000  1
  Ba  Ba6  1  0.75000000  0.25000000  0.50000000  1
  Ba  Ba7  1  0.25000000  0.75000000  0.50000000  1
  Tb  Tb8  1  0.00000000  0.00000000  0.00000000  1
  Tb  Tb9  1  0.50000000  0.50000000  0.00000000  1
