# generated using pymatgen
data_LiAlO2
_symmetry_space_group_name_H-M   'P 1'
_cell_length_a   3.90236686
_cell_length_b   3.90236686
_cell_length_c   30.21636978
_cell_angle_alpha   112.78690060
_cell_angle_beta   112.78690060
_cell_angle_gamma   90.00084179
_symmetry_Int_Tables_number   1
_chemical_formula_structural   LiAlO2
_chemical_formula_sum   'Li12 Al12 O24'
_cell_volume   384.98429766
_cell_formula_units_Z   12
loop_
 _symmetry_equiv_pos_site_id
 _symmetry_equiv_pos_as_xyz
  1  'x, y, z'
loop_
 _atom_site_type_symbol
 _atom_site_label
 _atom_site_symmetry_multiplicity
 _atom_site_fract_x
 _atom_site_fract_y
 _atom_site_fract_z
 _atom_site_occupancy
  Al  Al0  1  0.12349863  0.87311289  0.87442751  1
  Al  Al1  1  0.12522538  0.87496205  0.70836257  1
  Al  Al2  1  0.87526575  0.12542967  0.95843138  1
  Al  Al3  1  0.12503795  0.87477462  0.54163743  1
  Al  Al4  1  0.87559644  0.12544239  0.79183170  1
  Al  Al5  1  0.12688711  0.87650137  0.37557249  1
  Al  Al6  1  0.87499668  0.12500332  0.62500000  1
  Al  Al7  1  0.87455761  0.12440356  0.45816830  1
  Al  Al8  1  0.62269709  0.37293994  0.20762869  1
  Al  Al9  1  0.87457033  0.12473425  0.29156862  1
  Al  Al10  1  0.62706006  0.37730291  0.04237131  1
  Al  Al11  1  0.87465890  0.12534110  0.12500000  1
  Li  Li12  1  0.37560690  0.62571540  0.95854885  1
  Li  Li13  1  0.37619127  0.62590156  0.79200791  1
  Li  Li14  1  0.64137857  0.39114383  0.88039899  1
  Li  Li15  1  0.37505864  0.62494136  0.62500000  1
  Li  Li16  1  0.62401096  0.37388749  0.70798504  1
  Li  Li17  1  0.37409844  0.62380873  0.45799209  1
  Li  Li18  1  0.62611251  0.37598904  0.54201496  1
  Li  Li19  1  0.14055082  0.89085393  0.21356639  1
  Li  Li20  1  0.37428460  0.62439310  0.29145115  1
  Li  Li21  1  0.60885617  0.35862143  0.36960101  1
  Li  Li22  1  0.10914607  0.85944918  0.03643361  1
  Li  Li23  1  0.37466340  0.62533660  0.12500000  1
  O  O24  1  0.10239816  0.35210577  0.86740702  1
  O  O25  1  0.37534479  0.12545321  0.95845594  1
  O  O26  1  0.09982493  0.34962914  0.69991066  1
  O  O27  1  0.34938714  0.09918714  0.78309295  1
  O  O28  1  0.65031368  0.90010428  0.88338647  1
  O  O29  1  0.87529344  0.62542825  0.95844778  1
  O  O30  1  0.09961859  0.34939314  0.53317529  1
  O  O31  1  0.34998695  0.09991675  0.61665174  1
  O  O32  1  0.65060686  0.90038141  0.71682471  1
  O  O33  1  0.90139008  0.65118411  0.80041909  1
  O  O34  1  0.09989572  0.34968632  0.36661353  1
  O  O35  1  0.34881589  0.09860992  0.44958091  1
  O  O36  1  0.65037086  0.90017507  0.55008934  1
  O  O37  1  0.90008325  0.65001305  0.63334826  1
  O  O38  1  0.10139544  0.35174503  0.20053816  1
  O  O39  1  0.37457175  0.12470656  0.29155222  1
  O  O40  1  0.64789423  0.89760184  0.38259298  1
  O  O41  1  0.90081286  0.65061286  0.46690705  1
  O  O42  1  0.10025128  0.35049222  0.03345372  1
  O  O43  1  0.40123216  0.15180790  0.13383294  1
  O  O44  1  0.64950778  0.89974872  0.21654628  1
  O  O45  1  0.87454679  0.62465521  0.29154406  1
  O  O46  1  0.64825497  0.89860456  0.04946184  1
  O  O47  1  0.84819210  0.59876784  0.11616706  1
