# generated using pymatgen
data_LiCr2(PO4)3
_symmetry_space_group_name_H-M   'P 1'
_cell_length_a   8.60407159
_cell_length_b   8.60407150
_cell_length_c   6.34393872
_cell_angle_alpha   74.45892234
_cell_angle_beta   105.54107746
_cell_angle_gamma   87.89623444
_symmetry_Int_Tables_number   1
_chemical_formula_structural   LiCr2(PO4)3
_chemical_formula_sum   'Li2 Cr4 P6 O24'
_cell_volume   432.94018396
_cell_formula_units_Z   2
loop_
 _symmetry_equiv_pos_site_id
 _symmetry_equiv_pos_as_xyz
  1  'x, y, z'
loop_
 _atom_site_type_symbol
 _atom_site_label
 _atom_site_symmetry_multiplicity
 _atom_site_fract_x
 _atom_site_fract_y
 _atom_site_fract_z
 _atom_site_occupancy
  Li  Li0  1  0.50000000  0.50000000  -0.00000000  1
  Li  Li1  1  0.50000000  0.50000000  0.50000000  1
  Cr  Cr2  1  0.94249488  0.37884833  0.86127899  1
  Cr  Cr3  1  0.62115167  0.05750512  0.36127899  1
  Cr  Cr4  1  0.05750512  0.62115167  0.13872101  1
  Cr  Cr5  1  0.37884833  0.94249488  0.63872101  1
  P  P6  1  0.84689341  0.35053524  0.35489642  1
  P  P7  1  0.64946476  0.15310659  0.85489642  1
  P  P8  1  0.27795489  0.27795489  0.25000000  1
  P  P9  1  0.35053524  0.84689341  0.14510358  1
  P  P10  1  0.15310659  0.64946476  0.64510358  1
  P  P11  1  0.72204511  0.72204511  0.75000000  1
  O  O12  1  0.74415616  0.54738288  0.72446524  1
  O  O13  1  0.31423293  0.54523859  0.70486959  1
  O  O14  1  0.25584384  0.45261712  0.27553476  1
  O  O15  1  0.17355575  0.81352900  0.13068030  1
  O  O16  1  0.45261712  0.25584384  0.22446524  1
  O  O17  1  0.58574043  0.06242315  0.66594801  1
  O  O18  1  0.45476141  0.68576607  0.20486959  1
  O  O19  1  0.97160141  0.35592910  0.57939164  1
  O  O20  1  0.84618749  0.74409807  0.96431061  1
  O  O21  1  0.18647100  0.82644425  0.63068030  1
  O  O22  1  0.25590193  0.15381251  0.46431061  1
  O  O23  1  0.41425957  0.93757685  0.33405199  1
  O  O24  1  0.68576607  0.45476141  0.29513041  1
  O  O25  1  0.93757685  0.41425957  0.16594801  1
  O  O26  1  0.64407090  0.02839859  0.07939164  1
  O  O27  1  0.81352900  0.17355575  0.36931970  1
  O  O28  1  0.06242315  0.58574043  0.83405199  1
  O  O29  1  0.54523859  0.31423293  0.79513041  1
  O  O30  1  0.74409807  0.84618749  0.53568939  1
  O  O31  1  0.15381251  0.25590193  0.03568939  1
  O  O32  1  0.02839859  0.64407090  0.42060836  1
  O  O33  1  0.82644425  0.18647100  0.86931970  1
  O  O34  1  0.54738288  0.74415616  0.77553476  1
  O  O35  1  0.35592910  0.97160141  0.92060836  1
