# generated using pymatgen
data_Fe2CuO4
_symmetry_space_group_name_H-M   'P 1'
_cell_length_a   6.11858319
_cell_length_b   6.11858274
_cell_length_c   5.83785304
_cell_angle_alpha   61.50649035
_cell_angle_beta   61.50648970
_cell_angle_gamma   57.78688589
_symmetry_Int_Tables_number   1
_chemical_formula_structural   Fe2CuO4
_chemical_formula_sum   'Fe4 Cu2 O8'
_cell_volume   155.04929880
_cell_formula_units_Z   2
loop_
 _symmetry_equiv_pos_site_id
 _symmetry_equiv_pos_as_xyz
  1  'x, y, z'
loop_
 _atom_site_type_symbol
 _atom_site_label
 _atom_site_symmetry_multiplicity
 _atom_site_fract_x
 _atom_site_fract_y
 _atom_site_fract_z
 _atom_site_occupancy
  Cu  Cu0  1  0.62500000  0.62500000  0.12500000  1
  Cu  Cu1  1  0.62500000  0.62500000  0.62500000  1
  Fe  Fe2  1  0.01671639  0.01671639  0.98328361  1
  Fe  Fe3  1  0.23328361  0.23328361  0.26671639  1
  Fe  Fe4  1  0.12500000  0.62500000  0.62500000  1
  Fe  Fe5  1  0.62500000  0.12500000  0.62500000  1
  O  O6  1  0.36011972  0.36011972  0.40457262  1
  O  O7  1  0.37959543  0.83897376  0.39071541  1
  O  O8  1  0.36011972  0.36011972  0.87518795  1
  O  O9  1  0.83897376  0.37959543  0.39071541  1
  O  O10  1  0.41102624  0.87040457  0.85928459  1
  O  O11  1  0.87040457  0.41102624  0.85928459  1
  O  O12  1  0.88988028  0.88988028  0.37481205  1
  O  O13  1  0.88988028  0.88988028  0.84542738  1
