# generated using pymatgen
data_Sn(SO2)2
_symmetry_space_group_name_H-M   'P 1'
_cell_length_a   7.41964915
_cell_length_b   7.74238899
_cell_length_c   9.88844728
_cell_angle_alpha   90.00000000
_cell_angle_beta   100.47076467
_cell_angle_gamma   90.00000000
_symmetry_Int_Tables_number   1
_chemical_formula_structural   Sn(SO2)2
_chemical_formula_sum   'Sn4 S8 O16'
_cell_volume   558.59056311
_cell_formula_units_Z   4
loop_
 _symmetry_equiv_pos_site_id
 _symmetry_equiv_pos_as_xyz
  1  'x, y, z'
loop_
 _atom_site_type_symbol
 _atom_site_label
 _atom_site_symmetry_multiplicity
 _atom_site_fract_x
 _atom_site_fract_y
 _atom_site_fract_z
 _atom_site_occupancy
  O  O0  1  0.16707775  0.34226084  0.35936626  1
  O  O1  1  0.33292225  0.84226084  0.14063374  1
  O  O2  1  0.83292225  0.65773916  0.64063374  1
  O  O3  1  0.66707775  0.15773916  0.85936626  1
  O  O4  1  0.31875900  0.52767557  0.58999052  1
  O  O5  1  0.18124100  0.02767557  0.91000948  1
  O  O6  1  0.68124100  0.47232443  0.41000948  1
  O  O7  1  0.81875900  0.97232443  0.08999052  1
  O  O8  1  0.97613353  0.60110357  0.26995864  1
  O  O9  1  0.52386647  0.10110357  0.23004136  1
  O  O10  1  0.02386647  0.39889643  0.73004136  1
  O  O11  1  0.47613353  0.89889643  0.76995864  1
  O  O12  1  0.62755879  0.71366294  -0.00103554  1
  O  O13  1  0.87244121  0.21366294  0.50103554  1
  O  O14  1  0.37244121  0.28633706  1.00103554  1
  O  O15  1  0.12755879  0.78633706  0.49896446  1
  S  S16  1  0.16558260  0.51727375  0.28726571  1
  S  S17  1  0.33441740  0.01727375  0.21273429  1
  S  S18  1  0.83441740  0.48272625  0.71273429  1
  S  S19  1  0.66558260  0.98272625  0.78726571  1
  S  S20  1  0.29937843  0.68063125  0.49079574  1
  S  S21  1  0.20062157  0.18063125  0.00920426  1
  S  S22  1  0.70062157  0.31936875  0.50920426  1
  S  S23  1  0.79937843  0.81936875  0.99079574  1
  Sn  Sn24  1  0.82089443  0.74184894  0.41609055  1
  Sn  Sn25  1  0.67910557  0.24184894  0.08390945  1
  Sn  Sn26  1  0.17910557  0.25815106  0.58390945  1
  Sn  Sn27  1  0.32089443  0.75815106  0.91609055  1
