# generated using pymatgen
data_Fe2(PO4)3
_symmetry_space_group_name_H-M   'P 1'
_cell_length_a   8.94535670
_cell_length_b   8.75717223
_cell_length_c   8.75717198
_cell_angle_alpha   59.99999660
_cell_angle_beta   60.69349257
_cell_angle_gamma   60.69349421
_symmetry_Int_Tables_number   1
_chemical_formula_structural   Fe2(PO4)3
_chemical_formula_sum   'Fe4 P6 O24'
_cell_volume   490.09932685
_cell_formula_units_Z   2
loop_
 _symmetry_equiv_pos_site_id
 _symmetry_equiv_pos_as_xyz
  1  'x, y, z'
loop_
 _atom_site_type_symbol
 _atom_site_label
 _atom_site_symmetry_multiplicity
 _atom_site_fract_x
 _atom_site_fract_y
 _atom_site_fract_z
 _atom_site_occupancy
  O  O0  1  0.27076072  0.71003532  0.94109029  1
  O  O1  1  0.91944187  0.86344630  0.72361090  1
  O  O2  1  0.91944287  0.49350094  0.86344630  1
  O  O3  1  0.91944287  0.72360990  0.49350094  1
  O  O4  1  0.08055813  0.13655370  0.27639010  1
  O  O5  1  0.08055813  0.50650006  0.13655270  1
  O  O6  1  0.08055713  0.27639010  0.50650006  1
  O  O7  1  0.27076072  0.07811468  0.71003432  1
  O  O8  1  0.41944287  0.22361090  0.36344630  1
  O  O9  1  0.22923828  0.42188632  0.55890971  1
  O  O10  1  0.27076072  0.94109029  0.07811468  1
  O  O11  1  0.22923828  0.78996568  0.42188632  1
  O  O12  1  0.58055813  0.63655270  0.00650006  1
  O  O13  1  0.22923928  0.55890971  0.78996568  1
  O  O14  1  0.58055813  0.77639010  0.63655270  1
  O  O15  1  0.58055713  0.00650006  0.77639010  1
  O  O16  1  0.41944287  0.99350094  0.22360990  1
  O  O17  1  0.72924028  0.92188532  0.28996468  1
  O  O18  1  0.77076072  0.44109029  0.21003532  1
  O  O19  1  0.41944187  0.36344730  0.99350094  1
  O  O20  1  0.77076072  0.21003532  0.57811468  1
  O  O21  1  0.72923928  0.05890971  0.92188532  1
  O  O22  1  0.77076072  0.57811368  0.44109029  1
  O  O23  1  0.72923828  0.28996568  0.05890971  1
  P  P24  1  0.24999900  0.96610353  0.25000000  1
  P  P25  1  0.25000000  0.53389747  0.96610353  1
  P  P26  1  0.75000000  0.46610353  0.03389747  1
  P  P27  1  0.75000000  0.03389747  0.74999900  1
  P  P28  1  0.25000000  0.25000000  0.53389747  1
  P  P29  1  0.75000000  0.74999900  0.46610353  1
  Fe  Fe30  1  0.92629615  0.35790095  0.35790095  1
  Fe  Fe31  1  0.42629615  0.85790095  0.85790195  1
  Fe  Fe32  1  0.57370385  0.14209905  0.14209805  1
  Fe  Fe33  1  0.07370385  0.64209905  0.64209805  1
