# generated using pymatgen
data_Mg2Ta3N5
_symmetry_space_group_name_H-M   'P 1'
_cell_length_a   6.19016450
_cell_length_b   15.47781314
_cell_length_c   5.35923202
_cell_angle_alpha   30.04512616
_cell_angle_beta   54.26684349
_cell_angle_gamma   59.63290938
_symmetry_Int_Tables_number   1
_chemical_formula_structural   Mg2Ta3N5
_chemical_formula_sum   'Mg4 Ta6 N10'
_cell_volume   208.68741580
_cell_formula_units_Z   2
loop_
 _symmetry_equiv_pos_site_id
 _symmetry_equiv_pos_as_xyz
  1  'x, y, z'
loop_
 _atom_site_type_symbol
 _atom_site_label
 _atom_site_symmetry_multiplicity
 _atom_site_fract_x
 _atom_site_fract_y
 _atom_site_fract_z
 _atom_site_occupancy
  Mg  Mg0  1  -0.00000000  0.19782446  0.00543885  1
  Mg  Mg1  1  0.50000000  0.40217554  0.99456115  1
  Mg  Mg2  1  0.00000000  0.80302843  0.99242893  1
  Mg  Mg3  1  0.50000000  0.79697157  0.00757107  1
  Ta  Ta4  1  0.00000000  0.00133559  0.99666101  1
  Ta  Ta5  1  0.50000000  0.00530512  0.98673719  1
  Ta  Ta6  1  -0.00000000  0.39251766  0.01870584  1
  Ta  Ta7  1  0.50000000  0.20748234  0.98129416  1
  Ta  Ta8  1  -0.00000000  0.59469488  0.01326281  1
  Ta  Ta9  1  0.50000000  0.59866441  0.00333899  1
  N  N10  1  0.25031912  0.99956723  0.50560207  1
  N  N11  1  0.24819858  0.20147916  0.50855538  1
  N  N12  1  0.74968088  0.99956723  0.49656177  1
  N  N13  1  0.25180142  0.39852084  0.49144462  1
  N  N14  1  0.75180142  0.20147916  0.48404880  1
  N  N15  1  0.24968088  0.60043277  0.49439793  1
  N  N16  1  0.74819858  0.39852084  0.51595120  1
  N  N17  1  0.25000000  0.80000000  0.50000000  1
  N  N18  1  0.75031912  0.60043277  0.50343823  1
  N  N19  1  0.75000000  0.80000000  0.50000000  1
