# generated using pymatgen
data_La2CdS4
_symmetry_space_group_name_H-M   'P 1'
_cell_length_a   7.56303939
_cell_length_b   7.56303865
_cell_length_c   7.56303870
_cell_angle_alpha   110.77568886
_cell_angle_beta   110.77568758
_cell_angle_gamma   106.89265037
_symmetry_Int_Tables_number   1
_chemical_formula_structural   La2CdS4
_chemical_formula_sum   'La4 Cd2 S8'
_cell_volume   332.51453954
_cell_formula_units_Z   2
loop_
 _symmetry_equiv_pos_site_id
 _symmetry_equiv_pos_as_xyz
  1  'x, y, z'
loop_
 _atom_site_type_symbol
 _atom_site_label
 _atom_site_symmetry_multiplicity
 _atom_site_fract_x
 _atom_site_fract_y
 _atom_site_fract_z
 _atom_site_occupancy
  Cd  Cd0  1  0.62500000  0.37500000  0.25000000  1
  Cd  Cd1  1  0.87500000  0.12500000  0.75000000  1
  La  La2  1  0.10754576  0.75000000  0.85754576  1
  La  La3  1  0.25000000  0.60754576  0.35754576  1
  La  La4  1  0.39245424  0.25000000  0.64245424  1
  La  La5  1  0.75000000  0.89245424  0.14245424  1
  S  S6  1  0.00645122  0.88477948  0.51583358  1
  S  S7  1  0.99061764  0.36894589  0.48416642  1
  S  S8  1  0.11522052  0.13105411  0.12167175  1
  S  S9  1  0.38477948  0.50645122  0.01583358  1
  S  S10  1  0.49354878  0.00938236  0.87832825  1
  S  S11  1  0.63105411  0.61522052  0.62167175  1
  S  S12  1  0.50938236  0.99354878  0.37832825  1
  S  S13  1  0.86894589  0.49061764  0.98416642  1
