# generated using pymatgen
data_Bi2O3
_symmetry_space_group_name_H-M   'P 1'
_cell_length_a   4.31918962
_cell_length_b   8.21751898
_cell_length_c   7.32295353
_cell_angle_alpha   26.97720870
_cell_angle_beta   51.24266673
_cell_angle_gamma   56.09049560
_symmetry_Int_Tables_number   1
_chemical_formula_structural   Bi2O3
_chemical_formula_sum   'Bi2 O3'
_cell_volume   91.94380520
_cell_formula_units_Z   1
loop_
 _symmetry_equiv_pos_site_id
 _symmetry_equiv_pos_as_xyz
  1  'x, y, z'
loop_
 _atom_site_type_symbol
 _atom_site_label
 _atom_site_symmetry_multiplicity
 _atom_site_fract_x
 _atom_site_fract_y
 _atom_site_fract_z
 _atom_site_occupancy
  Bi  Bi0  1  0.92070908  0.99999264  0.03578085  1
  Bi  Bi1  1  0.03877022  0.50009247  0.97997515  1
  O  O2  1  0.28411898  0.99998538  0.21221044  1
  O  O3  1  0.02352021  0.99993382  0.68625234  1
  O  O4  1  0.69588150  0.49999568  0.76478121  1
