# generated using pymatgen
data_B8Ru11
_symmetry_space_group_name_H-M   'P 1'
_cell_length_a   2.87569101
_cell_length_b   11.96586269
_cell_length_c   11.67620160
_cell_angle_alpha   90.00000000
_cell_angle_beta   90.00000000
_cell_angle_gamma   90.00000000
_symmetry_Int_Tables_number   1
_chemical_formula_structural   B8Ru11
_chemical_formula_sum   'B16 Ru22'
_cell_volume   401.77954216
_cell_formula_units_Z   2
loop_
 _symmetry_equiv_pos_site_id
 _symmetry_equiv_pos_as_xyz
  1  'x, y, z'
loop_
 _atom_site_type_symbol
 _atom_site_label
 _atom_site_symmetry_multiplicity
 _atom_site_fract_x
 _atom_site_fract_y
 _atom_site_fract_z
 _atom_site_occupancy
  Ru  Ru0  1  0.00000000  0.00000000  0.00000000  1
  Ru  Ru1  1  0.00000000  0.50000000  0.50000000  1
  Ru  Ru2  1  0.00000000  0.61556701  0.71514914  1
  Ru  Ru3  1  0.00000000  0.38443299  0.28485086  1
  Ru  Ru4  1  0.00000000  0.11556701  0.78485086  1
  Ru  Ru5  1  0.00000000  0.88443299  0.21514914  1
  Ru  Ru6  1  0.00000000  0.60282865  0.95571745  1
  Ru  Ru7  1  0.00000000  0.39717135  0.04428255  1
  Ru  Ru8  1  0.00000000  0.10282865  0.54428255  1
  Ru  Ru9  1  0.00000000  0.89717135  0.45571745  1
  Ru  Ru10  1  0.00000000  0.82870922  0.83153889  1
  Ru  Ru11  1  0.00000000  0.17129078  0.16846111  1
  Ru  Ru12  1  0.00000000  0.32870922  0.66846111  1
  Ru  Ru13  1  0.00000000  0.67129078  0.33153889  1
  Ru  Ru14  1  0.50000000  0.70035964  0.53184086  1
  Ru  Ru15  1  0.50000000  0.29964036  0.46815914  1
  Ru  Ru16  1  0.50000000  0.20035964  0.96815914  1
  Ru  Ru17  1  0.50000000  0.79964036  0.03184086  1
  Ru  Ru18  1  0.50000000  0.95287986  0.66412581  1
  Ru  Ru19  1  0.50000000  0.04712014  0.33587419  1
  Ru  Ru20  1  0.50000000  0.45287986  0.83587419  1
  Ru  Ru21  1  0.50000000  0.54712014  0.16412581  1
  B  B22  1  0.50000000  0.97921489  0.85331302  1
  B  B23  1  0.50000000  0.02078511  0.14668698  1
  B  B24  1  0.50000000  0.47921489  0.64668698  1
  B  B25  1  0.50000000  0.52078511  0.35331302  1
  B  B26  1  0.00000000  0.81262964  0.62191356  1
  B  B27  1  0.00000000  0.18737036  0.37808644  1
  B  B28  1  0.00000000  0.31262964  0.87808644  1
  B  B29  1  0.00000000  0.68737036  0.12191356  1
  B  B30  1  0.50000000  0.68278634  0.85104393  1
  B  B31  1  0.50000000  0.31721366  0.14895607  1
  B  B32  1  0.50000000  0.18278634  0.64895607  1
  B  B33  1  0.50000000  0.81721366  0.35104393  1
  B  B34  1  0.50000000  0.76713251  0.70260097  1
  B  B35  1  0.50000000  0.23286749  0.29739903  1
  B  B36  1  0.50000000  0.26713251  0.79739903  1
  B  B37  1  0.50000000  0.73286749  0.20260097  1
