# generated using pymatgen
data_CrP2O7
_symmetry_space_group_name_H-M   'P 1'
_cell_length_a   6.41389389
_cell_length_b   6.34089858
_cell_length_c   6.90520280
_cell_angle_alpha   113.81686615
_cell_angle_beta   90.84245875
_cell_angle_gamma   85.44798146
_symmetry_Int_Tables_number   1
_chemical_formula_structural   CrP2O7
_chemical_formula_sum   'Cr2 P4 O14'
_cell_volume   256.06128784
_cell_formula_units_Z   2
loop_
 _symmetry_equiv_pos_site_id
 _symmetry_equiv_pos_as_xyz
  1  'x, y, z'
loop_
 _atom_site_type_symbol
 _atom_site_label
 _atom_site_symmetry_multiplicity
 _atom_site_fract_x
 _atom_site_fract_y
 _atom_site_fract_z
 _atom_site_occupancy
  O  O0  1  0.61176389  0.40610056  0.20562565  1
  O  O1  1  0.89994522  0.57111350  0.81431889  1
  O  O2  1  0.10008943  0.42891264  0.18567415  1
  O  O3  1  0.05498715  0.90677921  0.77594648  1
  O  O4  1  0.19532519  0.30643266  0.49224235  1
  O  O5  1  0.35057878  0.20728349  0.78766564  1
  O  O6  1  0.33210099  0.06159422  0.12303087  1
  O  O7  1  0.38822260  0.59392470  0.79437878  1
  O  O8  1  0.80470278  0.69356231  0.50775526  1
  O  O9  1  0.58714434  0.24010982  0.51215333  1
  O  O10  1  0.94500493  0.09320761  0.22404853  1
  O  O11  1  0.66788637  0.93837946  0.87697507  1
  O  O12  1  0.64941255  0.79271155  0.21231088  1
  O  O13  1  0.41289102  0.75990592  0.48787071  1
  P  P14  1  0.38824343  0.33706926  0.65052712  1
  P  P15  1  0.61170097  0.66292486  0.34942071  1
  P  P16  1  0.13755983  0.22783015  0.24856478  1
  P  P17  1  0.86242184  0.77214843  0.75143225  1
  Cr  Cr18  1  0.64301390  0.09763738  0.20681249  1
  Cr  Cr19  1  0.35700478  0.90237329  0.79324205  1
