# generated using pymatgen
data_Ni4P7O24
_symmetry_space_group_name_H-M   'P 1'
_cell_length_a   10.40372629
_cell_length_b   10.34801876
_cell_length_c   11.18887126
_cell_angle_alpha   112.80420978
_cell_angle_beta   110.41840657
_cell_angle_gamma   104.50225467
_symmetry_Int_Tables_number   1
_chemical_formula_structural   Ni4P7O24
_chemical_formula_sum   'Ni8 P14 O48'
_cell_volume   931.21651806
_cell_formula_units_Z   2
loop_
 _symmetry_equiv_pos_site_id
 _symmetry_equiv_pos_as_xyz
  1  'x, y, z'
loop_
 _atom_site_type_symbol
 _atom_site_label
 _atom_site_symmetry_multiplicity
 _atom_site_fract_x
 _atom_site_fract_y
 _atom_site_fract_z
 _atom_site_occupancy
  O  O0  1  0.99196731  0.13295305  0.86998985  1
  O  O1  1  0.99262916  0.33052916  0.12662423  1
  O  O2  1  0.96539446  0.32517375  0.33806488  1
  O  O3  1  0.69208649  0.11790180  0.04884348  1
  O  O4  1  0.81941516  0.18158173  0.46206083  1
  O  O5  1  0.72388123  0.63882145  0.07685969  1
  O  O6  1  0.87830589  0.29675554  0.73109062  1
  O  O7  1  0.82982366  0.97646311  0.19505804  1
  O  O8  1  0.00736984  0.66947084  0.87337577  1
  O  O9  1  0.03460554  0.67482625  0.66193612  1
  O  O10  1  0.30791351  0.88209820  0.95115752  1
  O  O11  1  0.00803269  0.86704595  0.13001015  1
  O  O12  1  0.18058484  0.81841827  0.53793917  1
  O  O13  1  0.27611977  0.36117955  0.92314131  1
  O  O14  1  0.12169511  0.70324546  0.26891038  1
  O  O15  1  0.17017634  0.02353689  0.80494196  1
  O  O16  1  0.30936599  0.99033900  0.46132673  1
  O  O17  1  0.32659331  0.69275744  0.70229188  1
  O  O18  1  0.08881223  0.06377595  0.40079955  1
  O  O19  1  0.06319544  0.14536303  0.20714074  1
  O  O20  1  0.27848960  0.17507519  0.66922879  1
  O  O21  1  0.22661513  0.43927430  0.36218006  1
  O  O22  1  0.13432183  0.50538818  0.01119763  1
  O  O23  1  0.37524192  0.77145625  0.45910869  1
  O  O24  1  0.54938144  0.71593357  0.89666575  1
  O  O25  1  0.29791347  0.84165213  0.15717271  1
  O  O26  1  0.59617095  0.88796657  0.78906006  1
  O  O27  1  0.35691549  0.26216250  0.51016551  1
  O  O28  1  0.50739383  0.60504200  0.62817599  1
  O  O29  1  0.44489134  0.04116843  0.82882155  1
  O  O30  1  0.59565673  0.36341481  0.95323265  1
  O  O31  1  0.35868615  0.52553434  0.20317560  1
  O  O32  1  0.64131285  0.47446466  0.79682440  1
  O  O33  1  0.40434227  0.63658419  0.04676835  1
  O  O34  1  0.55510866  0.95883057  0.17117845  1
  O  O35  1  0.49260717  0.39495900  0.37182401  1
  O  O36  1  0.64308451  0.73783650  0.48983449  1
  O  O37  1  0.40383005  0.11203443  0.21093994  1
  O  O38  1  0.70208653  0.15834687  0.84282729  1
  O  O39  1  0.45061856  0.28406543  0.10333325  1
  O  O40  1  0.62475808  0.22854275  0.54089131  1
  O  O41  1  0.86567917  0.49461182  0.98880337  1
  O  O42  1  0.77338387  0.56072570  0.63781894  1
  O  O43  1  0.72151040  0.82492481  0.33077121  1
  O  O44  1  0.93680456  0.85463697  0.79285926  1
  O  O45  1  0.69063301  0.00966100  0.53867327  1
  O  O46  1  0.67340669  0.30724356  0.29770812  1
  O  O47  1  0.91118777  0.93622305  0.59919945  1
  P  P48  1  0.29405266  0.50826685  0.05026784  1
  P  P49  1  0.70594534  0.49173215  0.94973116  1
  P  P50  1  0.61156616  0.06126983  0.88368431  1
  P  P51  1  0.73264340  0.86678115  0.47895182  1
  P  P52  1  0.38843384  0.93873017  0.11631569  1
  P  P53  1  0.50662277  0.28094933  0.24644479  1
  P  P54  1  0.93829076  0.68387828  0.73719162  1
  P  P55  1  0.75737495  0.18433883  0.56537318  1
  P  P56  1  0.00849095  0.99798725  0.77488555  1
  P  P57  1  0.24262505  0.81566217  0.43462782  1
  P  P58  1  0.06170824  0.31612072  0.26280838  1
  P  P59  1  0.49337723  0.71904967  0.75355521  1
  P  P60  1  0.26735660  0.13321885  0.52104818  1
  P  P61  1  0.99151005  0.00201375  0.22511645  1
  Ni  Ni62  1  0.76251373  0.15319981  0.25862390  1
  Ni  Ni63  1  0.92384501  0.30565088  0.92410837  1
  Ni  Ni64  1  0.62761503  0.78373465  0.11940680  1
  Ni  Ni65  1  0.56581182  0.41447792  0.58232490  1
  Ni  Ni66  1  0.43418818  0.58552208  0.41767510  1
  Ni  Ni67  1  0.37238497  0.21626535  0.88059320  1
  Ni  Ni68  1  0.07615499  0.69434912  0.07589163  1
  Ni  Ni69  1  0.23748627  0.84679919  0.74137610  1
