# generated using pymatgen
data_Cs2NaFe(CN)6
_symmetry_space_group_name_H-M   'P 1'
_cell_length_a   7.62823720
_cell_length_b   7.78050933
_cell_length_c   10.95818653
_cell_angle_alpha   90.00000000
_cell_angle_beta   90.06546532
_cell_angle_gamma   90.00000000
_symmetry_Int_Tables_number   1
_chemical_formula_structural   Cs2NaFe(CN)6
_chemical_formula_sum   'Cs4 Na2 Fe2 C12 N12'
_cell_volume   650.38515789
_cell_formula_units_Z   2
loop_
 _symmetry_equiv_pos_site_id
 _symmetry_equiv_pos_as_xyz
  1  'x, y, z'
loop_
 _atom_site_type_symbol
 _atom_site_label
 _atom_site_symmetry_multiplicity
 _atom_site_fract_x
 _atom_site_fract_y
 _atom_site_fract_z
 _atom_site_occupancy
  Cs  Cs0  1  0.99143662  0.54155385  0.75004114  1
  Cs  Cs1  1  0.50856338  0.04155385  0.74995886  1
  Cs  Cs2  1  0.00856338  0.45844615  0.24995886  1
  Cs  Cs3  1  0.49143662  0.95844615  0.25004114  1
  Fe  Fe4  1  0.50000000  0.50000000  0.50000000  1
  Fe  Fe5  1  0.00000000  0.00000000  0.00000000  1
  Na  Na6  1  0.50000000  0.50000000  0.00000000  1
  Na  Na7  1  0.00000000  0.00000000  0.50000000  1
  N  N8  1  0.43117685  0.48550592  0.77739840  1
  N  N9  1  0.06882315  0.98550592  0.72260160  1
  N  N10  1  0.56882315  0.51449408  0.22260160  1
  N  N11  1  0.93117685  0.01449408  0.27739840  1
  N  N12  1  0.67067258  0.77363440  0.96740661  1
  N  N13  1  0.82932742  0.27363440  0.53259339  1
  N  N14  1  0.32932742  0.22636560  0.03259339  1
  N  N15  1  0.17067258  0.72636560  0.46740661  1
  N  N16  1  0.22679412  0.67553200  0.03844954  1
  N  N17  1  0.27320588  0.17553200  0.46155046  1
  N  N18  1  0.77320588  0.32446800  0.96155046  1
  N  N19  1  0.72679412  0.82446800  0.53844954  1
  C  C20  1  0.45798571  0.49199569  0.67167572  1
  C  C21  1  0.04201429  0.99199569  0.82832428  1
  C  C22  1  0.54201429  0.50800431  0.32832428  1
  C  C23  1  0.95798571  0.00800431  0.17167572  1
  C  C24  1  0.79661027  0.85937891  0.98022759  1
  C  C25  1  0.70338973  0.35937891  0.51977241  1
  C  C26  1  0.20338973  0.14062109  0.01977241  1
  C  C27  1  0.29661027  0.64062109  0.48022759  1
  C  C28  1  0.14054863  0.79921035  0.02307528  1
  C  C29  1  0.35945137  0.29921035  0.47692472  1
  C  C30  1  0.85945137  0.20078965  0.97692472  1
  C  C31  1  0.64054863  0.70078965  0.52307528  1
