# generated using pymatgen
data_CuH8C2Br3NO
_symmetry_space_group_name_H-M   'P 1'
_cell_length_a   6.49513598
_cell_length_b   8.42661758
_cell_length_c   8.97404061
_cell_angle_alpha   68.47096951
_cell_angle_beta   79.87585480
_cell_angle_gamma   76.94177530
_symmetry_Int_Tables_number   1
_chemical_formula_structural   CuH8C2Br3NO
_chemical_formula_sum   'Cu2 H16 C4 Br6 N2 O2'
_cell_volume   442.74109731
_cell_formula_units_Z   2
loop_
 _symmetry_equiv_pos_site_id
 _symmetry_equiv_pos_as_xyz
  1  'x, y, z'
loop_
 _atom_site_type_symbol
 _atom_site_label
 _atom_site_symmetry_multiplicity
 _atom_site_fract_x
 _atom_site_fract_y
 _atom_site_fract_z
 _atom_site_occupancy
  Cu  Cu0  1  0.26088549  0.06754932  0.39204482  1
  Cu  Cu1  1  0.73911451  0.93245068  0.60795518  1
  H  H2  1  0.85275386  0.19805588  0.05953908  1
  H  H3  1  0.35477419  0.62929208  0.72435047  1
  H  H4  1  0.69131280  0.53481808  0.60296888  1
  H  H5  1  0.87384813  0.46752089  0.84813508  1
  H  H6  1  0.12615187  0.53247911  0.15186492  1
  H  H7  1  0.45627556  0.63594644  0.29001127  1
  H  H8  1  0.54372444  0.36405356  0.70998873  1
  H  H9  1  0.30868720  0.46518192  0.39703112  1
  H  H10  1  0.92294062  0.29321218  0.77126243  1
  H  H11  1  0.07705938  0.70678782  0.22873757  1
  H  H12  1  0.66681082  0.15503853  0.97956604  1
  H  H13  1  0.60910325  0.32168119  0.05199358  1
  H  H14  1  0.33318918  0.84496147  0.02043396  1
  H  H15  1  0.14724614  0.80194412  0.94046092  1
  H  H16  1  0.64522581  0.37070792  0.27564953  1
  H  H17  1  0.39089675  0.67831881  0.94800642  1
  C  C18  1  0.62230434  0.46084753  0.72308964  1
  C  C19  1  0.19893482  0.62780316  0.17149557  1
  C  C20  1  0.37769566  0.53915247  0.27691036  1
  C  C21  1  0.80106518  0.37219684  0.82850443  1
  Br  Br22  1  0.62596656  0.90971355  0.36656119  1
  Br  Br23  1  0.91931363  0.24494396  0.43720608  1
  Br  Br24  1  0.08068637  0.75505604  0.56279392  1
  Br  Br25  1  0.37403344  0.09028645  0.63343881  1
  Br  Br26  1  0.78154508  0.88570617  0.88696611  1
  Br  Br27  1  0.21845492  0.11429383  0.11303389  1
  N  N28  1  0.27475944  0.74523447  0.00997605  1
  N  N29  1  0.72524056  0.25476553  0.99002395  1
  O  O30  1  0.52772865  0.42605954  0.20656122  1
  O  O31  1  0.47227135  0.57394046  0.79343878  1
