# generated using pymatgen
data_Sr2MnCu2(SO)2
_symmetry_space_group_name_H-M   'P 1'
_cell_length_a   4.10932170
_cell_length_b   4.10942515
_cell_length_c   9.24770441
_cell_angle_alpha   102.83526154
_cell_angle_beta   102.83466552
_cell_angle_gamma   90.00068460
_symmetry_Int_Tables_number   1
_chemical_formula_structural   Sr2MnCu2(SO)2
_chemical_formula_sum   'Sr2 Mn1 Cu2 S2 O2'
_cell_volume   148.25885591
_cell_formula_units_Z   1
loop_
 _symmetry_equiv_pos_site_id
 _symmetry_equiv_pos_as_xyz
  1  'x, y, z'
loop_
 _atom_site_type_symbol
 _atom_site_label
 _atom_site_symmetry_multiplicity
 _atom_site_fract_x
 _atom_site_fract_y
 _atom_site_fract_z
 _atom_site_occupancy
  Sr  Sr0  1  0.59334015  0.59332765  0.18674406  1
  Sr  Sr1  1  0.40660151  0.40659817  0.81323460  1
  Mn  Mn2  1  0.00017980  0.00024140  0.00011025  1
  Cu  Cu3  1  0.25002660  0.74997034  0.50001774  1
  Cu  Cu4  1  0.74997542  0.25001135  0.49997057  1
  S  S5  1  0.82558133  0.82558417  0.65112154  1
  S  S6  1  0.17442585  0.17441401  0.34882496  1
  O  O7  1  -0.00003839  0.49989836  0.99998835  1
  O  O8  1  0.49990873  -0.00004745  0.99998794  1
