# generated using pymatgen
data_Li3Al(BO3)2
_symmetry_space_group_name_H-M   'P 1'
_cell_length_a   5.25446072
_cell_length_b   6.81932393
_cell_length_c   8.13977244
_cell_angle_alpha   108.32224188
_cell_angle_beta   92.43821031
_cell_angle_gamma   89.36284616
_symmetry_Int_Tables_number   1
_chemical_formula_structural   Li3Al(BO3)2
_chemical_formula_sum   'Li6 Al2 B4 O12'
_cell_volume   276.62552110
_cell_formula_units_Z   2
loop_
 _symmetry_equiv_pos_site_id
 _symmetry_equiv_pos_as_xyz
  1  'x, y, z'
loop_
 _atom_site_type_symbol
 _atom_site_label
 _atom_site_symmetry_multiplicity
 _atom_site_fract_x
 _atom_site_fract_y
 _atom_site_fract_z
 _atom_site_occupancy
  Li  Li0  1  0.96934294  0.71260959  0.21825462  1
  Li  Li1  1  0.24751972  0.38726542  0.25443501  1
  Li  Li2  1  0.30846261  0.59288150  0.61475370  1
  Li  Li3  1  0.03065706  0.28739041  0.78174538  1
  Li  Li4  1  0.69153739  0.40711850  0.38524630  1
  Li  Li5  1  0.75248028  0.61273458  0.74556499  1
  Al  Al6  1  0.42303787  0.00385290  0.22933579  1
  Al  Al7  1  0.57696213  0.99614710  0.77066421  1
  B  B8  1  0.58604973  0.77370873  0.43113074  1
  B  B9  1  0.41395027  0.22629127  0.56886926  1
  B  B10  1  0.76082262  0.26306891  0.08246242  1
  B  B11  1  0.23917738  0.73693109  0.91753758  1
  O  O12  1  0.27036132  0.17493091  0.41075271  1
  O  O13  1  0.60535851  0.36735280  0.60196172  1
  O  O14  1  0.39464149  0.63264720  0.39803828  1
  O  O15  1  0.72963868  0.82506909  0.58924729  1
  O  O16  1  0.80605370  0.16546887  0.90908877  1
  O  O17  1  0.54646464  0.19821524  0.15174959  1
  O  O18  1  0.90634589  0.41854651  0.18898103  1
  O  O19  1  0.09365411  0.58145349  0.81101897  1
  O  O20  1  0.65818167  0.86662772  0.30842038  1
  O  O21  1  0.34181833  0.13337228  0.69157962  1
  O  O22  1  0.19394630  0.83453113  0.09091123  1
  O  O23  1  0.45353536  0.80178476  0.84825041  1
