# generated using pymatgen
data_AlS2(NCl2)2
_symmetry_space_group_name_H-M   'P 1'
_cell_length_a   7.03229782
_cell_length_b   8.14926985
_cell_length_c   16.68894189
_cell_angle_alpha   90.00000000
_cell_angle_beta   90.00000000
_cell_angle_gamma   104.26155886
_symmetry_Int_Tables_number   1
_chemical_formula_structural   AlS2(NCl2)2
_chemical_formula_sum   'Al4 S8 N8 Cl16'
_cell_volume   926.93600405
_cell_formula_units_Z   4
loop_
 _symmetry_equiv_pos_site_id
 _symmetry_equiv_pos_as_xyz
  1  'x, y, z'
loop_
 _atom_site_type_symbol
 _atom_site_label
 _atom_site_symmetry_multiplicity
 _atom_site_fract_x
 _atom_site_fract_y
 _atom_site_fract_z
 _atom_site_occupancy
  Al  Al0  1  0.39943052  0.35500857  0.35002114  1
  Al  Al1  1  0.60056948  0.14499143  0.85002114  1
  Al  Al2  1  0.60056948  0.64499143  0.64997886  1
  Al  Al3  1  0.39943052  0.85500857  0.14997886  1
  S  S4  1  0.85385688  0.07795541  0.39791775  1
  S  S5  1  0.96998442  0.75716939  0.44611201  1
  S  S6  1  0.03001558  0.74283061  0.94611201  1
  S  S7  1  0.14614312  0.42204459  0.89791775  1
  S  S8  1  0.96998442  0.25716939  0.05388799  1
  S  S9  1  0.03001558  0.24283061  0.55388799  1
  S  S10  1  0.14614312  0.92204459  0.60208225  1
  S  S11  1  0.85385688  0.57795541  0.10208225  1
  N  N12  1  0.11185346  0.60519481  0.90187629  1
  N  N13  1  0.07394602  0.80199888  0.52896731  1
  N  N14  1  0.11185346  0.10519481  0.59812371  1
  N  N15  1  0.88814654  0.89480519  0.40187629  1
  N  N16  1  0.92605398  0.19800112  0.47103269  1
  N  N17  1  0.88814654  0.39480519  0.09812371  1
  N  N18  1  0.07394602  0.30199888  0.97103269  1
  N  N19  1  0.92605398  0.69800112  0.02896731  1
  Cl  Cl20  1  0.60667779  0.37169959  0.92115029  1
  Cl  Cl21  1  0.39332221  0.12830041  0.42115029  1
  Cl  Cl22  1  0.17121482  0.27872013  0.26183154  1
  Cl  Cl23  1  0.68925659  0.94465037  0.19787363  1
  Cl  Cl24  1  0.32545601  0.54350112  0.42696112  1
  Cl  Cl25  1  0.31074341  0.05534963  0.80212637  1
  Cl  Cl26  1  0.39332221  0.62830041  0.07884971  1
  Cl  Cl27  1  0.67454399  0.45649888  0.57303888  1
  Cl  Cl28  1  0.82878518  0.72127987  0.73816846  1
  Cl  Cl29  1  0.60667779  0.87169959  0.57884971  1
  Cl  Cl30  1  0.67454399  0.95649888  0.92696112  1
  Cl  Cl31  1  0.17121482  0.77872013  0.23816846  1
  Cl  Cl32  1  0.32545601  0.04350112  0.07303888  1
  Cl  Cl33  1  0.31074341  0.55534963  0.69787363  1
  Cl  Cl34  1  0.68925659  0.44465037  0.30212637  1
  Cl  Cl35  1  0.82878518  0.22127987  0.76183154  1
