# generated using pymatgen
data_Co(PO3)4
_symmetry_space_group_name_H-M   'P 1'
_cell_length_a   7.06335921
_cell_length_b   9.47421946
_cell_length_c   7.06335838
_cell_angle_alpha   88.09354912
_cell_angle_beta   70.90546716
_cell_angle_gamma   91.90646129
_symmetry_Int_Tables_number   1
_chemical_formula_structural   Co(PO3)4
_chemical_formula_sum   'Co2 P8 O24'
_cell_volume   445.93662581
_cell_formula_units_Z   2
loop_
 _symmetry_equiv_pos_site_id
 _symmetry_equiv_pos_as_xyz
  1  'x, y, z'
loop_
 _atom_site_type_symbol
 _atom_site_label
 _atom_site_symmetry_multiplicity
 _atom_site_fract_x
 _atom_site_fract_y
 _atom_site_fract_z
 _atom_site_occupancy
  Co  Co0  1  0.88782554  0.25000000  0.38782554  1
  Co  Co1  1  0.11217446  0.75000000  0.61217446  1
  O  O2  1  0.93289708  0.59269317  0.77834929  1
  O  O3  1  0.87352294  0.35249094  0.63780336  1
  O  O4  1  0.77594175  0.03617479  0.89199548  1
  O  O5  1  0.86219664  0.85249094  0.62647706  1
  O  O6  1  0.69420197  0.40005938  0.99706627  1
  O  O7  1  0.86541978  0.14640942  0.16129697  1
  O  O8  1  0.72165071  0.09269317  0.56710292  1
  O  O9  1  0.60800452  0.53617479  0.72405825  1
  O  O10  1  0.72893827  0.60509610  0.22090891  1
  O  O11  1  0.72090891  0.89490390  0.22893827  1
  O  O12  1  0.66129697  0.35359058  0.36541978  1
  O  O13  1  0.50293373  0.90005938  0.80579803  1
  O  O14  1  0.49706627  0.09994062  0.19420197  1
  O  O15  1  0.33870303  0.64640942  0.63458022  1
  O  O16  1  0.27909109  0.10509610  0.77106173  1
  O  O17  1  0.27106173  0.39490390  0.77909109  1
  O  O18  1  0.39199548  0.46382521  0.27594175  1
  O  O19  1  0.27834929  0.90730683  0.43289708  1
  O  O20  1  0.13458022  0.85359058  0.83870303  1
  O  O21  1  0.30579803  0.59994062  0.00293373  1
  O  O22  1  0.13780336  0.14750906  0.37352294  1
  O  O23  1  0.22405825  0.96382521  0.10800452  1
  O  O24  1  0.12647706  0.64750906  0.36219664  1
  O  O25  1  0.06710292  0.40730683  0.22165071  1
  P  P26  1  0.79396483  0.47016633  0.77351879  1
  P  P27  1  0.72648121  0.97016633  0.70603517  1
  P  P28  1  0.71824710  0.03567042  0.12972380  1
  P  P29  1  0.62972380  0.46432958  0.21824710  1
  P  P30  1  0.37027620  0.53567042  0.78175290  1
  P  P31  1  0.28175290  0.96432958  0.87027620  1
  P  P32  1  0.27351879  0.02983367  0.29396483  1
  P  P33  1  0.20603517  0.52983367  0.22648121  1
