# generated using pymatgen
data_Sn4(PO4)3
_symmetry_space_group_name_H-M   'P 1'
_cell_length_a   9.71226967
_cell_length_b   9.71215350
_cell_length_c   6.95696795
_cell_angle_alpha   89.99993640
_cell_angle_beta   89.99900582
_cell_angle_gamma   59.99991896
_symmetry_Int_Tables_number   1
_chemical_formula_structural   Sn4(PO4)3
_chemical_formula_sum   'Sn8 P6 O24'
_cell_volume   568.31163870
_cell_formula_units_Z   2
loop_
 _symmetry_equiv_pos_site_id
 _symmetry_equiv_pos_as_xyz
  1  'x, y, z'
loop_
 _atom_site_type_symbol
 _atom_site_label
 _atom_site_symmetry_multiplicity
 _atom_site_fract_x
 _atom_site_fract_y
 _atom_site_fract_z
 _atom_site_occupancy
  Sn  Sn0  1  0.74177119  0.02018417  0.24498112  1
  Sn  Sn1  1  0.33333467  0.33332957  0.93662853  1
  Sn  Sn2  1  0.97979827  0.76195697  0.74500069  1
  Sn  Sn3  1  0.25823364  0.97980219  0.74499679  1
  Sn  Sn4  1  0.66666968  0.66666066  0.43663475  1
  Sn  Sn5  1  0.23803885  0.74177197  0.24498955  1
  Sn  Sn6  1  0.76195901  0.25823593  0.74498836  1
  Sn  Sn7  1  0.02019153  0.23803537  0.24498667  1
  P  P8  1  0.97789933  0.40827054  0.75611193  1
  P  P9  1  0.38619601  0.02205318  0.25611578  1
  P  P10  1  0.40826892  0.61382549  0.75608916  1
  P  P11  1  0.02205303  0.59174412  0.25610053  1
  P  P12  1  0.59175449  0.38619084  0.25612622  1
  P  P13  1  0.61381568  0.97791340  0.75609315  1
  O  O14  1  0.72367684  0.91595414  0.57392321  1
  O  O15  1  0.59185704  0.50738416  0.75237947  1
  O  O16  1  0.67338651  0.48964896  0.25308441  1
  O  O17  1  0.91596634  0.36036923  0.57393432  1
  O  O18  1  0.63959312  0.27635236  0.07391931  1
  O  O19  1  0.51031857  0.16302676  0.75307904  1
  O  O20  1  0.09918973  0.40816464  0.25242767  1
  O  O21  1  0.16302108  0.32666492  0.75310013  1
  O  O22  1  0.83695745  0.67338682  0.25306019  1
  O  O23  1  0.92325221  0.34589259  0.92852208  1
  O  O24  1  0.49264289  0.09920321  0.25241132  1
  O  O25  1  0.50738600  0.90076321  0.75240369  1
  O  O26  1  0.36036305  0.72367559  0.57393356  1
  O  O27  1  0.08406016  0.63960541  0.07392494  1
  O  O28  1  0.73083483  0.92327225  0.92851697  1
  O  O29  1  0.32666407  0.51030592  0.75308797  1
  O  O30  1  0.90074782  0.59186004  0.75242854  1
  O  O31  1  0.65410216  0.26915944  0.42852489  1
  O  O32  1  0.40815150  0.49265331  0.25247412  1
  O  O33  1  0.48967495  0.83696233  0.25308703  1
  O  O34  1  0.27634153  0.08403990  0.07394788  1
  O  O35  1  0.26917550  0.07672629  0.42854811  1
  O  O36  1  0.07671729  0.65411036  0.42853496  1
  O  O37  1  0.34589905  0.73084275  0.92852495  1
