# generated using pymatgen
data_SiO2
_symmetry_space_group_name_H-M   'P 1'
_cell_length_a   5.42427144
_cell_length_b   5.42427227
_cell_length_c   5.48010288
_cell_angle_alpha   96.10621579
_cell_angle_beta   96.10621668
_cell_angle_gamma   99.55451666
_symmetry_Int_Tables_number   1
_chemical_formula_structural   SiO2
_chemical_formula_sum   'Si4 O8'
_cell_volume   156.83085125
_cell_formula_units_Z   4
loop_
 _symmetry_equiv_pos_site_id
 _symmetry_equiv_pos_as_xyz
  1  'x, y, z'
loop_
 _atom_site_type_symbol
 _atom_site_label
 _atom_site_symmetry_multiplicity
 _atom_site_fract_x
 _atom_site_fract_y
 _atom_site_fract_z
 _atom_site_occupancy
  Si  Si0  1  0.95945804  0.05593281  0.50585620  1
  Si  Si1  1  0.36716575  0.52416830  0.07995070  1
  Si  Si2  1  0.52416830  0.36716575  0.57995070  1
  Si  Si3  1  0.05593281  0.95945804  0.00585620  1
  O  O4  1  0.55754356  0.48438089  0.87158227  1
  O  O5  1  0.87974209  0.90536554  0.22584252  1
  O  O6  1  0.27193951  0.78606229  0.03297023  1
  O  O7  1  0.15139015  0.26657107  0.03426808  1
  O  O8  1  0.90536554  0.87974209  0.72584252  1
  O  O9  1  0.78606229  0.27193951  0.53297023  1
  O  O10  1  0.48438089  0.55754356  0.37158227  1
  O  O11  1  0.26657107  0.15139015  0.53426808  1
