# generated using pymatgen
data_SiB11H10C4F11
_symmetry_space_group_name_H-M   'P 1'
_cell_length_a   7.86210979
_cell_length_b   12.37430923
_cell_length_c   18.49124965
_cell_angle_alpha   103.81371069
_cell_angle_beta   90.00000000
_cell_angle_gamma   90.00000000
_symmetry_Int_Tables_number   1
_chemical_formula_structural   SiB11H10C4F11
_chemical_formula_sum   'Si4 B44 H40 C16 F44'
_cell_volume   1746.94839334
_cell_formula_units_Z   4
loop_
 _symmetry_equiv_pos_site_id
 _symmetry_equiv_pos_as_xyz
  1  'x, y, z'
loop_
 _atom_site_type_symbol
 _atom_site_label
 _atom_site_symmetry_multiplicity
 _atom_site_fract_x
 _atom_site_fract_y
 _atom_site_fract_z
 _atom_site_occupancy
  Si  Si0  1  0.70405781  0.72647555  0.43607048  1
  Si  Si1  1  0.20405781  0.27352445  0.06392952  1
  Si  Si2  1  0.29594219  0.27352445  0.56392952  1
  Si  Si3  1  0.79594219  0.72647555  0.93607048  1
  B  B4  1  0.20186851  0.73429497  0.12901210  1
  B  B5  1  0.52446684  0.22251333  0.76193564  1
  B  B6  1  0.70186851  0.26570503  0.37098790  1
  B  B7  1  0.47553316  0.77748667  0.23806436  1
  B  B8  1  0.83178308  0.32736817  0.30985550  1
  B  B9  1  0.73910498  0.18631183  0.78056552  1
  B  B10  1  0.51525793  0.12116553  0.88908510  1
  B  B11  1  0.26759566  0.87577859  0.14097754  1
  B  B12  1  0.34170880  0.77470336  0.06125123  1
  B  B13  1  0.26089502  0.81368817  0.21943448  1
  B  B14  1  0.44689924  0.32571040  0.83974033  1
  B  B15  1  0.73240434  0.12422141  0.85902246  1
  B  B16  1  0.02446684  0.77748667  0.73806436  1
  B  B17  1  0.84170880  0.22529664  0.43874877  1
  B  B18  1  0.38467671  0.18244163  0.82820194  1
  B  B19  1  0.48474207  0.87883447  0.11091490  1
  B  B20  1  0.76759566  0.12422141  0.35902246  1
  B  B21  1  0.66821692  0.32736817  0.80985550  1
  B  B22  1  0.98474207  0.12116553  0.38908510  1
  B  B23  1  0.94426619  0.73818773  0.58190943  1
  B  B24  1  0.38216055  0.64871637  0.09222242  1
  B  B25  1  0.97553316  0.22251333  0.26193564  1
  B  B26  1  0.23240434  0.87577859  0.64097754  1
  B  B27  1  0.79813149  0.26570503  0.87098790  1
  B  B28  1  0.76089502  0.18631183  0.28056552  1
  B  B29  1  0.11532329  0.18244163  0.32820194  1
  B  B30  1  0.33178308  0.67263183  0.19014450  1
  B  B31  1  0.61783945  0.35128363  0.90777758  1
  B  B32  1  0.16821692  0.67263183  0.69014450  1
  B  B33  1  0.55573381  0.73818773  0.08190943  1
  B  B34  1  0.94689924  0.67428960  0.66025967  1
  B  B35  1  0.05310076  0.32571040  0.33974033  1
  B  B36  1  0.65829120  0.22529664  0.93874877  1
  B  B37  1  0.11783945  0.64871637  0.59222242  1
  B  B38  1  0.88467671  0.81755837  0.67179806  1
  B  B39  1  0.01525793  0.87883447  0.61091490  1
  B  B40  1  0.23910498  0.81368817  0.71943448  1
  B  B41  1  0.44426619  0.26181227  0.91809057  1
  B  B42  1  0.88216055  0.35128363  0.40777758  1
  B  B43  1  0.29813149  0.73429497  0.62901210  1
  B  B44  1  0.61532329  0.81755837  0.17179806  1
  B  B45  1  0.15829120  0.77470336  0.56125123  1
  B  B46  1  0.05573381  0.26181227  0.41809057  1
  B  B47  1  0.55310076  0.67428960  0.16025967  1
  H  H48  1  0.97939173  0.86481168  0.01713829  1
  H  H49  1  0.84047745  0.70087406  0.31526130  1
  H  H50  1  0.02569294  0.21833137  0.61465686  1
  H  H51  1  0.41426876  0.09154316  0.56355603  1
  H  H52  1  0.44998121  0.97347074  0.24036114  1
  H  H53  1  0.46028451  0.36599708  0.12703148  1
  H  H54  1  0.52569294  0.78166863  0.88534314  1
  H  H55  1  0.97430706  0.78166863  0.38534314  1
  H  H56  1  0.55751974  0.36943843  0.53971195  1
  H  H57  1  0.96028451  0.63400292  0.37296852  1
  H  H58  1  0.34047745  0.29912594  0.18473870  1
  H  H59  1  0.50645145  0.39812383  0.63600060  1
  H  H60  1  0.15952255  0.29912594  0.68473870  1
  H  H61  1  0.49354855  0.60187617  0.36399940  1
  H  H62  1  0.22932377  0.08009807  0.98833468  1
  H  H63  1  0.08573124  0.09154316  0.06355603  1
  H  H64  1  0.94248026  0.36943843  0.03971195  1
  H  H65  1  0.52060827  0.86481168  0.51713829  1
  H  H66  1  0.03971549  0.36599708  0.62703148  1
  H  H67  1  0.00645145  0.60187617  0.86399940  1
  H  H68  1  0.47430706  0.21833137  0.11465686  1
  H  H69  1  0.60645182  0.53314960  0.42292320  1
  H  H70  1  0.44248026  0.63056157  0.46028805  1
  H  H71  1  0.39354818  0.46685040  0.57707680  1
  H  H72  1  0.27067623  0.08009807  0.48833468  1
  H  H73  1  0.89354818  0.53314960  0.92292320  1
  H  H74  1  0.05751974  0.63056157  0.96028805  1
  H  H75  1  0.55001879  0.02652926  0.75963886  1
  H  H76  1  0.94998121  0.02652926  0.25963886  1
  H  H77  1  0.02060827  0.13518832  0.98286171  1
  H  H78  1  0.99354855  0.39812383  0.13600060  1
  H  H79  1  0.53971549  0.63400292  0.87296852  1
  H  H80  1  0.05001879  0.97347074  0.74036114  1
  H  H81  1  0.91426876  0.90845684  0.93644397  1
  H  H82  1  0.10645182  0.46685040  0.07707680  1
  H  H83  1  0.58573124  0.90845684  0.43644397  1
  H  H84  1  0.77067623  0.91990193  0.01166532  1
  H  H85  1  0.47939173  0.13518832  0.48286171  1
  H  H86  1  0.72932377  0.91990193  0.51166532  1
  H  H87  1  0.65952255  0.70087406  0.81526130  1
  C  C88  1  0.12834372  0.13192626  0.01992305  1
  C  C89  1  0.61178087  0.70984673  0.87234031  1
  C  C90  1  0.62834372  0.86807374  0.48007695  1
  C  C91  1  0.93352653  0.10881627  0.29706658  1
  C  C92  1  0.06647347  0.89118373  0.70293342  1
  C  C93  1  0.45268811  0.38775009  0.57977525  1
  C  C94  1  0.43352653  0.89118373  0.20293342  1
  C  C95  1  0.37165628  0.13192626  0.51992305  1
  C  C96  1  0.87165628  0.86807374  0.98007695  1
  C  C97  1  0.88821913  0.70984673  0.37234031  1
  C  C98  1  0.95268811  0.61224991  0.92022475  1
  C  C99  1  0.11178087  0.29015327  0.62765969  1
  C  C100  1  0.54731189  0.61224991  0.42022475  1
  C  C101  1  0.38821913  0.29015327  0.12765969  1
  C  C102  1  0.04731189  0.38775009  0.07977525  1
  C  C103  1  0.56647347  0.10881627  0.79706658  1
  F  F104  1  0.72881238  0.86246245  0.69357571  1
  F  F105  1  0.83474108  0.59267457  0.66736489  1
  F  F106  1  0.77118762  0.86246245  0.19357571  1
  F  F107  1  0.18113020  0.30115598  0.47588430  1
  F  F108  1  0.33752526  0.96387502  0.64034782  1
  F  F109  1  0.46194720  0.69969108  0.60996599  1
  F  F110  1  0.68113020  0.69884402  0.02411570  1
  F  F111  1  0.47220011  0.20900147  0.68952300  1
  F  F112  1  0.16247474  0.96387502  0.14034782  1
  F  F113  1  0.64103210  0.45413635  0.95532611  1
  F  F114  1  0.04127383  0.03131149  0.41303369  1
  F  F115  1  0.77255463  0.41073832  0.27905528  1
  F  F116  1  0.72744537  0.41073832  0.77905528  1
  F  F117  1  0.28821987  0.77298802  0.99010012  1
  F  F118  1  0.22744537  0.58926168  0.72094472  1
  F  F119  1  0.52779989  0.79099853  0.31047700  1
  F  F120  1  0.84671919  0.14287089  0.72299565  1
  F  F121  1  0.65328081  0.14287089  0.22299565  1
  F  F122  1  0.71178013  0.22701198  0.00989988  1
  F  F123  1  0.14103210  0.54586365  0.54467389  1
  F  F124  1  0.81886980  0.69884402  0.52411570  1
  F  F125  1  0.97220011  0.79099853  0.81047700  1
  F  F126  1  0.21178013  0.77298802  0.49010012  1
  F  F127  1  0.66525892  0.59267457  0.16736489  1
  F  F128  1  0.83752526  0.03612498  0.85965218  1
  F  F129  1  0.31886980  0.30115598  0.97588430  1
  F  F130  1  0.53805280  0.30030892  0.39003401  1
  F  F131  1  0.27255463  0.58926168  0.22094472  1
  F  F132  1  0.27118762  0.13753755  0.30642429  1
  F  F133  1  0.85896790  0.45413635  0.45532611  1
  F  F134  1  0.35896790  0.54586365  0.04467389  1
  F  F135  1  0.54127383  0.96868851  0.08696631  1
  F  F136  1  0.33474108  0.40732543  0.83263511  1
  F  F137  1  0.22881238  0.13753755  0.80642429  1
  F  F138  1  0.16525892  0.40732543  0.33263511  1
  F  F139  1  0.45872617  0.03131149  0.91303369  1
  F  F140  1  0.96194720  0.30030892  0.89003401  1
  F  F141  1  0.02779989  0.20900147  0.18952300  1
  F  F142  1  0.78821987  0.22701198  0.50989988  1
  F  F143  1  0.15328081  0.85712911  0.27700435  1
  F  F144  1  0.34671919  0.85712911  0.77700435  1
  F  F145  1  0.95872617  0.96868851  0.58696631  1
  F  F146  1  0.03805280  0.69969108  0.10996599  1
  F  F147  1  0.66247474  0.03612498  0.35965218  1
