# generated using pymatgen
data_SbIrC2(OF3)2
_symmetry_space_group_name_H-M   'P 1'
_cell_length_a   9.73898328
_cell_length_b   13.23311255
_cell_length_c   13.23311255
_cell_angle_alpha   90.00000000
_cell_angle_beta   90.00000000
_cell_angle_gamma   90.00000000
_symmetry_Int_Tables_number   1
_chemical_formula_structural   SbIrC2(OF3)2
_chemical_formula_sum   'Sb8 Ir8 C16 O16 F48'
_cell_volume   1705.44466480
_cell_formula_units_Z   8
loop_
 _symmetry_equiv_pos_site_id
 _symmetry_equiv_pos_as_xyz
  1  'x, y, z'
loop_
 _atom_site_type_symbol
 _atom_site_label
 _atom_site_symmetry_multiplicity
 _atom_site_fract_x
 _atom_site_fract_y
 _atom_site_fract_z
 _atom_site_occupancy
  Sb  Sb0  1  0.39779281  0.94732225  0.29943338  1
  Sb  Sb1  1  0.89779281  0.55267775  0.79943338  1
  Sb  Sb2  1  0.60220719  0.70056662  0.94732225  1
  Sb  Sb3  1  0.10220719  0.20056662  0.55267775  1
  Sb  Sb4  1  0.89779281  0.44732225  0.20056662  1
  Sb  Sb5  1  0.60220719  0.29943338  0.05267775  1
  Sb  Sb6  1  0.39779281  0.05267775  0.70056662  1
  Sb  Sb7  1  0.10220719  0.79943338  0.44732225  1
  Ir  Ir8  1  0.07365405  0.08507073  0.91456919  1
  Ir  Ir9  1  0.07365405  0.91492927  0.08543081  1
  Ir  Ir10  1  0.42634595  0.58543081  0.41492927  1
  Ir  Ir11  1  0.57365405  0.58507073  0.58543081  1
  Ir  Ir12  1  0.57365405  0.41492927  0.41456919  1
  Ir  Ir13  1  0.42634595  0.41456919  0.58507073  1
  Ir  Ir14  1  0.92634595  0.91456919  0.91492927  1
  Ir  Ir15  1  0.92634595  0.08543081  0.08507073  1
  C  C16  1  0.83537061  0.06676519  0.21072354  1
  C  C17  1  0.33537061  0.43323481  0.71072354  1
  C  C18  1  0.56326343  0.65702348  0.35019701  1
  C  C19  1  0.16462939  0.21072354  0.93323481  1
  C  C20  1  0.33537061  0.56676519  0.28927646  1
  C  C21  1  0.83537061  0.93323481  0.78927646  1
  C  C22  1  0.43673657  0.35019701  0.34297652  1
  C  C23  1  0.06326343  0.15702348  0.14980299  1
  C  C24  1  0.06326343  0.84297652  0.85019701  1
  C  C25  1  0.43673657  0.64980299  0.65702348  1
  C  C26  1  0.16462939  0.78927646  0.06676519  1
  C  C27  1  0.66462939  0.28927646  0.43323481  1
  C  C28  1  0.93673657  0.14980299  0.84297652  1
  C  C29  1  0.93673657  0.85019701  0.15702348  1
  C  C30  1  0.66462939  0.71072354  0.56676519  1
  C  C31  1  0.56326343  0.34297652  0.64980299  1
  O  O32  1  0.65150649  0.70067219  0.31186491  1
  O  O33  1  0.28837419  0.55534780  0.21033936  1
  O  O34  1  0.34849351  0.31186491  0.29932781  1
  O  O35  1  0.71162581  0.78966064  0.55534780  1
  O  O36  1  0.78837419  0.94465220  0.71033936  1
  O  O37  1  0.65150649  0.29932781  0.68813509  1
  O  O38  1  0.21162581  0.28966064  0.94465220  1
  O  O39  1  0.84849351  0.18813509  0.79932781  1
  O  O40  1  0.28837419  0.44465220  0.78966064  1
  O  O41  1  0.21162581  0.71033936  0.05534780  1
  O  O42  1  0.34849351  0.68813509  0.70067219  1
  O  O43  1  0.71162581  0.21033936  0.44465220  1
  O  O44  1  0.78837419  0.05534780  0.28966064  1
  O  O45  1  0.84849351  0.81186491  0.20067219  1
  O  O46  1  0.15150649  0.20067219  0.18813509  1
  O  O47  1  0.15150649  0.79932781  0.81186491  1
  F  F48  1  0.75000000  0.40581684  0.09418316  1
  F  F49  1  0.02847435  0.40063412  0.10525823  1
  F  F50  1  0.52374642  0.98706796  0.19820477  1
  F  F51  1  0.78697644  0.00000000  0.00000000  1
  F  F52  1  0.23773346  0.01778549  0.78090004  1
  F  F53  1  0.26226654  0.28090004  0.51778549  1
  F  F54  1  0.28697644  0.50000000  0.50000000  1
  F  F55  1  0.23773346  0.98221451  0.21909996  1
  F  F56  1  0.39163999  0.07628931  0.36082141  1
  F  F57  1  0.47152565  0.39474177  0.09936588  1
  F  F58  1  0.61835367  0.75289049  0.81362481  1
  F  F59  1  0.60836001  0.63917859  0.07628931  1
  F  F60  1  0.61835367  0.24710951  0.18637519  1
  F  F61  1  0.75000000  0.59418316  0.90581684  1
  F  F62  1  0.38164633  0.81362481  0.24710951  1
  F  F63  1  0.10836001  0.86082141  0.57628931  1
  F  F64  1  0.76226654  0.78090004  0.98221451  1
  F  F65  1  0.25000000  0.90581684  0.40581684  1
  F  F66  1  0.25000000  0.09418316  0.59418316  1
  F  F67  1  0.47625358  0.19820477  0.01293204  1
  F  F68  1  0.02374642  0.48706796  0.30179523  1
  F  F69  1  0.47152565  0.60525823  0.90063412  1
  F  F70  1  0.38164633  0.18637519  0.75289049  1
  F  F71  1  0.60836001  0.36082141  0.92371069  1
  F  F72  1  0.21302356  0.00000000  0.00000000  1
  F  F73  1  0.76226654  0.21909996  0.01778549  1
  F  F74  1  0.10836001  0.13917859  0.42371069  1
  F  F75  1  0.97625358  0.69820477  0.48706796  1
  F  F76  1  0.97625358  0.30179523  0.51293204  1
  F  F77  1  0.11835367  0.25289049  0.68637519  1
  F  F78  1  0.97152565  0.89474177  0.40063412  1
  F  F79  1  0.97152565  0.10525823  0.59936588  1
  F  F80  1  0.52847435  0.09936588  0.60525823  1
  F  F81  1  0.47625358  0.80179523  0.98706796  1
  F  F82  1  0.89163999  0.42371069  0.86082141  1
  F  F83  1  0.02847435  0.59936588  0.89474177  1
  F  F84  1  0.02374642  0.51293204  0.69820477  1
  F  F85  1  0.89163999  0.57628931  0.13917859  1
  F  F86  1  0.88164633  0.68637519  0.74710951  1
  F  F87  1  0.88164633  0.31362481  0.25289049  1
  F  F88  1  0.73773346  0.48221451  0.28090004  1
  F  F89  1  0.26226654  0.71909996  0.48221451  1
  F  F90  1  0.52374642  0.01293204  0.80179523  1
  F  F91  1  0.73773346  0.51778549  0.71909996  1
  F  F92  1  0.11835367  0.74710951  0.31362481  1
  F  F93  1  0.71302356  0.50000000  0.50000000  1
  F  F94  1  0.52847435  0.90063412  0.39474177  1
  F  F95  1  0.39163999  0.92371069  0.63917859  1
