# generated using pymatgen
data_Li6Tb2O7
_symmetry_space_group_name_H-M   'P 1'
_cell_length_a   5.61590389
_cell_length_b   6.27073091
_cell_length_c   10.42028090
_cell_angle_alpha   90.00000000
_cell_angle_beta   101.02720226
_cell_angle_gamma   90.00000000
_symmetry_Int_Tables_number   1
_chemical_formula_structural   Li6Tb2O7
_chemical_formula_sum   'Li12 Tb4 O14'
_cell_volume   360.18340879
_cell_formula_units_Z   2
loop_
 _symmetry_equiv_pos_site_id
 _symmetry_equiv_pos_as_xyz
  1  'x, y, z'
loop_
 _atom_site_type_symbol
 _atom_site_label
 _atom_site_symmetry_multiplicity
 _atom_site_fract_x
 _atom_site_fract_y
 _atom_site_fract_z
 _atom_site_occupancy
  Tb  Tb0  1  0.14216972  0.98780858  0.86659148  1
  Tb  Tb1  1  0.35783028  0.48780858  0.63340852  1
  Tb  Tb2  1  0.64216972  0.51219142  0.36659148  1
  Tb  Tb3  1  0.85783028  0.01219142  0.13340852  1
  Li  Li4  1  0.45926725  0.00915422  0.61478989  1
  Li  Li5  1  0.14455654  0.74363775  0.36577932  1
  Li  Li6  1  0.04073275  0.50915422  0.88521011  1
  Li  Li7  1  0.65250317  0.21018274  0.85044986  1
  Li  Li8  1  0.64455654  0.75636225  0.86577932  1
  Li  Li9  1  0.85544346  0.25636225  0.63422068  1
  Li  Li10  1  0.84749683  0.71018274  0.64955014  1
  Li  Li11  1  0.15250317  0.28981726  0.35044986  1
  Li  Li12  1  0.34749683  0.78981726  0.14955014  1
  Li  Li13  1  0.54073275  0.99084578  0.38521011  1
  Li  Li14  1  0.35544346  0.24363775  0.13422068  1
  Li  Li15  1  0.95926725  0.49084578  0.11478989  1
  O  O16  1  0.01796057  0.24725586  0.99487213  1
  O  O17  1  0.48203943  0.74725586  0.50512787  1
  O  O18  1  0.75935473  0.31842551  0.21390933  1
  O  O19  1  0.74064527  0.81842551  0.28609067  1
  O  O20  1  0.27073971  0.51894666  0.24154491  1
  O  O21  1  0.98203943  0.75274414  0.00512787  1
  O  O22  1  0.77073971  0.98105334  0.74154491  1
  O  O23  1  0.24064527  0.68157449  0.78609067  1
  O  O24  1  0.72926029  0.48105334  0.75845509  1
  O  O25  1  0.50000000  0.00000000  0.00000000  1
  O  O26  1  0.51796057  0.25274414  0.49487213  1
  O  O27  1  0.25935473  0.18157449  0.71390933  1
  O  O28  1  0.22926029  0.01894666  0.25845509  1
  O  O29  1  0.00000000  0.50000000  0.50000000  1
