# generated using pymatgen
data_LaP5Cl18O17
_symmetry_space_group_name_H-M   'P 1'
_cell_length_a   10.41995690
_cell_length_b   10.60773103
_cell_length_c   18.00634417
_cell_angle_alpha   90.00000000
_cell_angle_beta   90.00000000
_cell_angle_gamma   89.92186890
_symmetry_Int_Tables_number   1
_chemical_formula_structural   LaP5Cl18O17
_chemical_formula_sum   'La2 P10 Cl36 O34'
_cell_volume   1990.27718707
_cell_formula_units_Z   2
loop_
 _symmetry_equiv_pos_site_id
 _symmetry_equiv_pos_as_xyz
  1  'x, y, z'
loop_
 _atom_site_type_symbol
 _atom_site_label
 _atom_site_symmetry_multiplicity
 _atom_site_fract_x
 _atom_site_fract_y
 _atom_site_fract_z
 _atom_site_occupancy
  La  La0  1  0.78063410  0.71027860  0.75178107  1
  La  La1  1  0.21936590  0.28972140  0.25178107  1
  P  P2  1  0.11599374  0.54410855  0.79839680  1
  P  P3  1  0.39500793  0.09042709  0.09697667  1
  P  P4  1  0.00088305  0.01668327  0.77087492  1
  P  P5  1  0.60499207  0.90957291  0.59697667  1
  P  P6  1  0.16987681  0.26922071  0.47856441  1
  P  P7  1  0.99911695  0.98331673  0.27087492  1
  P  P8  1  0.37069156  0.59147097  0.35948059  1
  P  P9  1  0.83012319  0.73077929  0.97856441  1
  P  P10  1  0.88400626  0.45589145  0.29839680  1
  P  P11  1  0.62930844  0.40852903  0.85948059  1
  Cl  Cl12  1  0.83628059  0.90989872  0.01076853  1
  Cl  Cl13  1  0.24325767  0.66671578  0.42935370  1
  Cl  Cl14  1  0.90349987  0.14735992  0.71497742  1
  Cl  Cl15  1  0.68116678  0.65823442  0.03381920  1
  Cl  Cl16  1  0.12459785  0.42918727  0.88555296  1
  Cl  Cl17  1  0.75674233  0.33328422  0.92935370  1
  Cl  Cl18  1  0.87540215  0.57081273  0.38555296  1
  Cl  Cl19  1  0.55204517  0.88209838  0.82768349  1
  Cl  Cl20  1  0.31883322  0.34176558  0.53381920  1
  Cl  Cl21  1  0.59065612  0.09668145  0.59323529  1
  Cl  Cl22  1  0.56153977  0.26382299  0.80111792  1
  Cl  Cl23  1  0.67236741  0.85875783  0.49775310  1
  Cl  Cl24  1  0.18019292  0.02470418  0.73301422  1
  Cl  Cl25  1  0.51761975  0.53773064  0.42310894  1
  Cl  Cl26  1  0.42557322  0.84515421  0.59986476  1
  Cl  Cl27  1  0.40934388  0.90331855  0.09323529  1
  Cl  Cl28  1  0.98736257  0.23021750  0.08903154  1
  Cl  Cl29  1  0.43846023  0.73617701  0.30111792  1
  Cl  Cl30  1  0.48238025  0.46226936  0.92310894  1
  Cl  Cl31  1  0.81980708  0.97529582  0.23301422  1
  Cl  Cl32  1  0.01521627  0.34864488  0.52422632  1
  Cl  Cl33  1  0.01263743  0.76978250  0.58903154  1
  Cl  Cl34  1  0.57442678  0.15484579  0.09986476  1
  Cl  Cl35  1  0.76409526  0.31549685  0.32116244  1
  Cl  Cl36  1  0.98667139  0.91526057  0.37409708  1
  Cl  Cl37  1  0.09650013  0.85264008  0.21497742  1
  Cl  Cl38  1  0.68739354  0.47126115  0.62253249  1
  Cl  Cl39  1  0.44795483  0.11790162  0.32768349  1
  Cl  Cl40  1  0.31260646  0.52873885  0.12253249  1
  Cl  Cl41  1  0.80128568  0.55052588  0.21547739  1
  Cl  Cl42  1  0.16371941  0.09010128  0.51076853  1
  Cl  Cl43  1  0.23590474  0.68450315  0.82116244  1
  Cl  Cl44  1  0.19871432  0.44947412  0.71547739  1
  Cl  Cl45  1  0.01332861  0.08473943  0.87409708  1
  Cl  Cl46  1  0.32763259  0.14124217  0.99775310  1
  Cl  Cl47  1  0.98478373  0.65135512  0.02422632  1
  O  O48  1  0.68570952  0.86634951  0.65967824  1
  O  O49  1  0.01658818  0.41421837  0.28199807  1
  O  O50  1  0.47039372  0.96507081  0.78507348  1
  O  O51  1  0.14143246  0.73983665  0.61432047  1
  O  O52  1  0.57878397  0.38680266  0.63029562  1
  O  O53  1  0.31429048  0.13365049  0.15967824  1
  O  O54  1  0.17662397  0.28750552  0.39721235  1
  O  O55  1  0.82337603  0.71249448  0.89721235  1
  O  O56  1  0.35114731  0.40218477  0.15339651  1
  O  O57  1  0.45360739  0.24851439  0.29623679  1
  O  O58  1  0.31545670  0.48879513  0.31408770  1
  O  O59  1  0.98341182  0.58578163  0.78199807  1
  O  O60  1  0.48484901  0.12015617  0.40477487  1
  O  O61  1  0.64885269  0.59781523  0.65339651  1
  O  O62  1  0.42121603  0.61319734  0.13029562  1
  O  O63  1  0.27854762  0.51334074  0.04507729  1
  O  O64  1  0.52960628  0.03492919  0.28507348  1
  O  O65  1  0.01186804  0.09555792  0.09333459  1
  O  O66  1  0.20285882  0.57265609  0.16572578  1
  O  O67  1  0.85856754  0.26016335  0.11432047  1
  O  O68  1  0.54639261  0.75148561  0.79623679  1
  O  O69  1  0.79714118  0.42734391  0.66572578  1
  O  O70  1  0.31134083  0.08045406  0.31972682  1
  O  O71  1  0.72145238  0.48665926  0.54507729  1
  O  O72  1  0.08086015  0.29725809  0.13799145  1
  O  O73  1  0.94535145  0.88827774  0.76814930  1
  O  O74  1  0.51515099  0.87984383  0.90477487  1
  O  O75  1  0.98813196  0.90444208  0.59333459  1
  O  O76  1  0.91913985  0.70274191  0.63799145  1
  O  O77  1  0.68865917  0.91954594  0.81972682  1
  O  O78  1  0.05464855  0.11172226  0.26814930  1
  O  O79  1  0.00684891  0.27515247  0.01356943  1
  O  O80  1  0.99315109  0.72484753  0.51356943  1
  O  O81  1  0.68454330  0.51120487  0.81408770  1
