# generated using pymatgen
data_LiS2N(O2F)2
_symmetry_space_group_name_H-M   'P 1'
_cell_length_a   8.73812706
_cell_length_b   8.73812702
_cell_length_c   12.96651498
_cell_angle_alpha   90.00000000
_cell_angle_beta   90.00000000
_cell_angle_gamma   120.00000019
_symmetry_Int_Tables_number   1
_chemical_formula_structural   LiS2N(O2F)2
_chemical_formula_sum   'Li6 S12 N6 O24 F12'
_cell_volume   857.41406975
_cell_formula_units_Z   6
loop_
 _symmetry_equiv_pos_site_id
 _symmetry_equiv_pos_as_xyz
  1  'x, y, z'
loop_
 _atom_site_type_symbol
 _atom_site_label
 _atom_site_symmetry_multiplicity
 _atom_site_fract_x
 _atom_site_fract_y
 _atom_site_fract_z
 _atom_site_occupancy
  Li  Li0  1  0.66666700  0.33333300  0.01819550  1
  Li  Li1  1  0.33333300  0.66666700  0.98180450  1
  Li  Li2  1  0.66666700  0.33333300  0.48183503  1
  Li  Li3  1  0.33333300  0.66666700  0.51816497  1
  Li  Li4  1  0.33333300  0.66666700  0.75000086  1
  Li  Li5  1  0.66666700  0.33333300  0.24999914  1
  S  S6  1  0.97317197  0.63693360  0.85701827  1
  S  S7  1  0.66377286  0.02684053  0.64298328  1
  S  S8  1  0.36306640  0.33623836  0.85701827  1
  S  S9  1  0.33623836  0.97317197  0.14298173  1
  S  S10  1  0.97315947  0.63693234  0.64298328  1
  S  S11  1  0.02684053  0.36306766  0.35701672  1
  S  S12  1  0.63693234  0.66377286  0.35701672  1
  S  S13  1  0.33622714  0.97315947  0.35701672  1
  S  S14  1  0.63693360  0.66376164  0.14298173  1
  S  S15  1  0.02682803  0.36306640  0.14298173  1
  S  S16  1  0.36306766  0.33622714  0.64298328  1
  S  S17  1  0.66376164  0.02682803  0.85701827  1
  N  N18  1  0.27791618  0.87611865  0.25000241  1
  N  N19  1  0.59820247  0.72208382  0.25000241  1
  N  N20  1  0.72208382  0.12388135  0.74999759  1
  N  N21  1  0.40179753  0.27791618  0.74999759  1
  N  N22  1  0.12388135  0.40179753  0.25000241  1
  N  N23  1  0.87611865  0.59820247  0.74999759  1
  O  O24  1  0.15612359  0.44291866  0.06305823  1
  O  O25  1  0.15615910  0.44292283  0.43692811  1
  O  O26  1  0.87285948  0.38487726  0.36043961  1
  O  O27  1  0.71323627  0.15615910  0.56307189  1
  O  O28  1  0.38487726  0.51201778  0.63956039  1
  O  O29  1  0.51201778  0.12714052  0.36043961  1
  O  O30  1  0.84384090  0.55707717  0.56307189  1
  O  O31  1  0.84387641  0.55708134  0.93694177  1
  O  O32  1  0.55708134  0.71320493  0.06305823  1
  O  O33  1  0.61514038  0.48796728  0.13956819  1
  O  O34  1  0.44291866  0.28679507  0.93694177  1
  O  O35  1  0.55707717  0.71323627  0.43692811  1
  O  O36  1  0.12717310  0.61514038  0.86043181  1
  O  O37  1  0.12714052  0.61512274  0.63956039  1
  O  O38  1  0.51203272  0.12717310  0.13956819  1
  O  O39  1  0.48798222  0.87285948  0.63956039  1
  O  O40  1  0.61512274  0.48798222  0.36043961  1
  O  O41  1  0.71320493  0.15612359  0.93694177  1
  O  O42  1  0.48796728  0.87282690  0.86043181  1
  O  O43  1  0.28679507  0.84387641  0.06305823  1
  O  O44  1  0.87282690  0.38485962  0.13956819  1
  O  O45  1  0.44292283  0.28676373  0.56307189  1
  O  O46  1  0.28676373  0.84384090  0.43692811  1
  O  O47  1  0.38485962  0.51203272  0.86043181  1
  F  F48  1  0.20908461  0.05347280  0.37245208  1
  F  F49  1  0.79091539  0.94652720  0.62754792  1
  F  F50  1  0.05347280  0.84438819  0.62754792  1
  F  F51  1  0.05348526  0.84439115  0.87245617  1
  F  F52  1  0.94651474  0.15560885  0.12754383  1
  F  F53  1  0.15561181  0.20908461  0.62754792  1
  F  F54  1  0.94652720  0.15561181  0.37245208  1
  F  F55  1  0.79090589  0.94651474  0.87245617  1
  F  F56  1  0.15560885  0.20909411  0.87245617  1
  F  F57  1  0.20909411  0.05348526  0.12754383  1
  F  F58  1  0.84439115  0.79090589  0.12754383  1
  F  F59  1  0.84438819  0.79091539  0.37245208  1
