# generated using pymatgen
data_NaAg(NO2)2
_symmetry_space_group_name_H-M   'P 1'
_cell_length_a   6.72292091
_cell_length_b   6.72292060
_cell_length_c   6.92571389
_cell_angle_alpha   110.83275159
_cell_angle_beta   110.83275062
_cell_angle_gamma   105.50141226
_symmetry_Int_Tables_number   1
_chemical_formula_structural   NaAg(NO2)2
_chemical_formula_sum   'Na2 Ag2 N4 O8'
_cell_volume   244.08057848
_cell_formula_units_Z   2
loop_
 _symmetry_equiv_pos_site_id
 _symmetry_equiv_pos_as_xyz
  1  'x, y, z'
loop_
 _atom_site_type_symbol
 _atom_site_label
 _atom_site_symmetry_multiplicity
 _atom_site_fract_x
 _atom_site_fract_y
 _atom_site_fract_z
 _atom_site_occupancy
  Na  Na0  1  0.76159320  0.23840680  0.50000000  1
  Na  Na1  1  0.51159320  0.48840680  1.00000000  1
  Ag  Ag2  1  0.24964972  0.75035028  0.50000000  1
  Ag  Ag3  1  -0.00035028  1.00035028  1.00000000  1
  N  N4  1  0.51750197  0.48249803  0.50000000  1
  N  N5  1  0.26750197  0.73249803  0.00000000  1
  N  N6  1  0.79493695  0.20506305  0.00000000  1
  N  N7  1  0.04493695  0.95506305  0.50000000  1
  O  O8  1  0.78193033  0.31642765  0.18191031  1
  O  O9  1  0.68357235  0.21806967  0.81808969  1
  O  O10  1  0.85002002  0.88451734  0.31808969  1
  O  O11  1  0.40531698  0.49960151  0.32034395  1
  O  O12  1  0.11548266  0.14997998  0.68191031  1
  O  O13  1  0.07074244  0.66502697  0.82034395  1
  O  O14  1  0.50039849  0.59468302  0.67965605  1
  O  O15  1  0.33497303  0.92925756  0.17965605  1
