# generated using pymatgen
data_SbC(Cl2O)2
_symmetry_space_group_name_H-M   'P 1'
_cell_length_a   7.12469566
_cell_length_b   7.43325170
_cell_length_c   16.68277013
_cell_angle_alpha   80.04875870
_cell_angle_beta   84.21983744
_cell_angle_gamma   82.95640150
_symmetry_Int_Tables_number   1
_chemical_formula_structural   SbC(Cl2O)2
_chemical_formula_sum   'Sb4 C4 Cl16 O8'
_cell_volume   860.79153202
_cell_formula_units_Z   4
loop_
 _symmetry_equiv_pos_site_id
 _symmetry_equiv_pos_as_xyz
  1  'x, y, z'
loop_
 _atom_site_type_symbol
 _atom_site_label
 _atom_site_symmetry_multiplicity
 _atom_site_fract_x
 _atom_site_fract_y
 _atom_site_fract_z
 _atom_site_occupancy
  Sb  Sb0  1  0.66323725  0.72940227  0.62495807  1
  Sb  Sb1  1  0.78235303  0.75633970  0.11365349  1
  Sb  Sb2  1  0.33676275  0.27059773  0.37504193  1
  Sb  Sb3  1  0.21764697  0.24366030  0.88634651  1
  C  C4  1  0.91493883  0.07551052  -0.00068140  1
  C  C5  1  0.44278798  0.05009277  0.53310368  1
  C  C6  1  0.08506117  0.92448948  1.00068140  1
  C  C7  1  0.55721202  0.94990723  0.46689632  1
  Cl  Cl8  1  0.87594527  0.46986840  0.61069763  1
  Cl  Cl9  1  0.52935167  0.19579095  0.82944843  1
  Cl  Cl10  1  0.31047459  0.32602653  0.00554147  1
  Cl  Cl11  1  0.12405473  0.53013160  0.38930237  1
  Cl  Cl12  1  0.90430326  0.92615755  0.61386681  1
  Cl  Cl13  1  0.38958236  0.28541508  0.23413712  1
  Cl  Cl14  1  0.68952541  0.67397347  0.99445853  1
  Cl  Cl15  1  0.09106426  0.11330429  0.78686837  1
  Cl  Cl16  1  0.12009706  0.54540501  0.82916456  1
  Cl  Cl17  1  0.60433964  0.41822118  0.38732327  1
  Cl  Cl18  1  0.87990294  0.45459499  0.17083544  1
  Cl  Cl19  1  0.61041764  0.71458492  0.76586288  1
  Cl  Cl20  1  0.47064833  0.80420905  0.17055157  1
  Cl  Cl21  1  0.09569674  0.07384245  0.38613319  1
  Cl  Cl22  1  0.90893574  0.88669571  0.21313163  1
  Cl  Cl23  1  0.39566036  0.58177882  0.61267673  1
  O  O24  1  0.23422504  0.96223574  0.95607198  1
  O  O25  1  0.53344551  0.01584295  0.39297575  1
  O  O26  1  0.76577496  0.03776426  0.04392802  1
  O  O27  1  0.06442808  0.77238829  0.04641737  1
  O  O28  1  0.93557192  0.22761171  0.95358263  1
  O  O29  1  0.46655449  0.98415705  0.60702425  1
  O  O30  1  0.33222492  0.19183445  0.50926991  1
  O  O31  1  0.66777508  0.80816555  0.49073009  1
