# generated using pymatgen
data_AsCSF11
_symmetry_space_group_name_H-M   'P 1'
_cell_length_a   6.37801930
_cell_length_b   11.37275797
_cell_length_c   11.91783075
_cell_angle_alpha   90.00000000
_cell_angle_beta   100.59311300
_cell_angle_gamma   90.00000000
_symmetry_Int_Tables_number   1
_chemical_formula_structural   AsCSF11
_chemical_formula_sum   'As4 C4 S4 F44'
_cell_volume   849.73510279
_cell_formula_units_Z   4
loop_
 _symmetry_equiv_pos_site_id
 _symmetry_equiv_pos_as_xyz
  1  'x, y, z'
loop_
 _atom_site_type_symbol
 _atom_site_label
 _atom_site_symmetry_multiplicity
 _atom_site_fract_x
 _atom_site_fract_y
 _atom_site_fract_z
 _atom_site_occupancy
  As  As0  1  0.83685266  0.98388199  0.21844051  1
  As  As1  1  0.16314734  0.01611801  0.78155949  1
  As  As2  1  0.83685266  0.51611801  0.71844051  1
  As  As3  1  0.16314734  0.48388199  0.28155949  1
  C  C4  1  0.51165519  0.20943997  0.51573593  1
  C  C5  1  0.48834481  0.79056003  0.48426407  1
  C  C6  1  0.51165519  0.29056003  0.01573593  1
  C  C7  1  0.48834481  0.70943997  0.98426407  1
  S  S8  1  0.30770651  0.67318696  0.54717047  1
  S  S9  1  0.69229349  0.32681304  0.45282953  1
  S  S10  1  0.69229349  0.17318696  0.95282953  1
  S  S11  1  0.30770651  0.82681304  0.04717047  1
  F  F12  1  0.33872414  0.42440338  0.40663836  1
  F  F13  1  0.63307127  0.21745282  0.82615075  1
  F  F14  1  0.90618422  0.24354802  0.98432830  1
  F  F15  1  0.21915930  0.62806635  0.34746811  1
  F  F16  1  0.61370015  0.49930262  0.78420797  1
  F  F17  1  0.21915930  0.87193365  0.84746811  1
  F  F18  1  0.36692873  0.78254718  0.17384925  1
  F  F19  1  0.66127586  0.92440338  0.09336164  1
  F  F20  1  0.95010775  0.47287212  0.35836433  1
  F  F21  1  0.78084070  0.12806635  0.15253189  1
  F  F22  1  0.61370015  1.00069738  0.28420797  1
  F  F23  1  0.33872414  0.07559662  0.90663836  1
  F  F24  1  0.04989225  0.52712788  0.64163567  1
  F  F25  1  0.95010775  0.02712788  0.85836433  1
  F  F26  1  0.99691677  0.54983469  0.16592599  1
  F  F27  1  0.11310352  0.34159709  0.22752792  1
  F  F28  1  0.40054617  0.26618310  0.58259597  1
  F  F29  1  0.59945383  0.76618310  0.91740403  1
  F  F30  1  0.36692873  0.71745282  0.67384925  1
  F  F31  1  0.04989225  0.97287212  0.14163567  1
  F  F32  1  0.64286480  0.36931333  0.07384112  1
  F  F33  1  0.09381578  0.74354802  0.51567170  1
  F  F34  1  0.66127586  0.57559662  0.59336164  1
  F  F35  1  0.38415620  0.34014489  0.92785041  1
  F  F36  1  0.61584380  0.84014489  0.57214959  1
  F  F37  1  0.38415620  0.15985511  0.42785041  1
  F  F38  1  0.90618422  0.25645198  0.48432830  1
  F  F39  1  0.11310352  0.15840291  0.72752792  1
  F  F40  1  0.64286480  0.13068667  0.57384112  1
  F  F41  1  0.00308323  0.45016531  0.83407401  1
  F  F42  1  0.38629985  -0.00069738  0.71579203  1
  F  F43  1  0.35713520  0.86931333  0.42615888  1
  F  F44  1  0.88689648  0.65840291  0.77247208  1
  F  F45  1  0.38629985  0.50069738  0.21579203  1
  F  F46  1  0.88689648  0.84159709  0.27247208  1
  F  F47  1  0.00308323  0.04983469  0.33407401  1
  F  F48  1  0.63307127  0.28254718  0.32615075  1
  F  F49  1  0.09381578  0.75645198  0.01567170  1
  F  F50  1  0.99691677  0.95016531  0.66592599  1
  F  F51  1  0.59945383  0.73381690  0.41740403  1
  F  F52  1  0.40054617  0.23381690  0.08259597  1
  F  F53  1  0.35713520  0.63068667  0.92615888  1
  F  F54  1  0.61584380  0.65985511  0.07214959  1
  F  F55  1  0.78084070  0.37193365  0.65253189  1
