# generated using pymatgen
data_Yb2MoO6
_symmetry_space_group_name_H-M   'P 1'
_cell_length_a   5.46551941
_cell_length_b   9.75011980
_cell_length_c   9.75011958
_cell_angle_alpha   72.20492909
_cell_angle_beta   76.06702708
_cell_angle_gamma   76.06701947
_symmetry_Int_Tables_number   1
_chemical_formula_structural   Yb2MoO6
_chemical_formula_sum   'Yb8 Mo4 O24'
_cell_volume   472.24010917
_cell_formula_units_Z   4
loop_
 _symmetry_equiv_pos_site_id
 _symmetry_equiv_pos_as_xyz
  1  'x, y, z'
loop_
 _atom_site_type_symbol
 _atom_site_label
 _atom_site_symmetry_multiplicity
 _atom_site_fract_x
 _atom_site_fract_y
 _atom_site_fract_z
 _atom_site_occupancy
  Yb  Yb0  1  0.75000000  0.87409142  0.12590858  1
  Yb  Yb1  1  0.39721552  0.21212239  0.44337004  1
  Yb  Yb2  1  0.75000000  0.36468417  0.63531583  1
  Yb  Yb3  1  0.60278448  0.78787761  0.55662996  1
  Yb  Yb4  1  0.10278448  0.55662996  0.78787761  1
  Yb  Yb5  1  0.25000000  0.63531583  0.36468417  1
  Yb  Yb6  1  0.25000000  0.12590858  0.87409142  1
  Yb  Yb7  1  0.89721552  0.44337004  0.21212239  1
  Mo  Mo8  1  0.57877537  0.29501147  0.01164974  1
  Mo  Mo9  1  0.92122463  0.98835026  0.70498853  1
  Mo  Mo10  1  0.07877537  0.01164974  0.29501147  1
  Mo  Mo11  1  0.42122463  0.70498853  0.98835026  1
  O  O12  1  0.90126410  0.83037075  0.34381152  1
  O  O13  1  0.02688624  0.04746196  0.11285750  1
  O  O14  1  0.12484277  0.67955935  0.12236813  1
  O  O15  1  0.87515723  0.32044065  0.87763187  1
  O  O16  1  0.55901540  0.42003041  0.43188391  1
  O  O17  1  0.52688624  0.11285750  0.04746196  1
  O  O18  1  0.05901540  0.43188391  0.42003041  1
  O  O19  1  0.76231216  0.02053297  0.43298295  1
  O  O20  1  0.73768784  0.56701705  0.97946703  1
  O  O21  1  0.37386274  0.69883988  0.81166434  1
  O  O22  1  0.62613726  0.30116012  0.18833566  1
  O  O23  1  0.47311376  0.88714250  0.95253804  1
  O  O24  1  0.44098460  0.57996959  0.56811609  1
  O  O25  1  0.40126410  0.34381152  0.83037075  1
  O  O26  1  0.09873590  0.16962925  0.65618848  1
  O  O27  1  0.59873590  0.65618848  0.16962925  1
  O  O28  1  0.26231216  0.43298295  0.02053297  1
  O  O29  1  0.62484277  0.12236813  0.67955935  1
  O  O30  1  0.87386274  0.81166434  0.69883988  1
  O  O31  1  0.12613726  0.18833566  0.30116012  1
  O  O32  1  0.23768784  0.97946703  0.56701705  1
  O  O33  1  0.37515723  0.87763187  0.32044065  1
  O  O34  1  0.94098460  0.56811609  0.57996959  1
  O  O35  1  0.97311376  0.95253804  0.88714250  1
