# generated using pymatgen
data_CrI2
_symmetry_space_group_name_H-M   'P 1'
_cell_length_a   3.95116242
_cell_length_b   4.48004742
_cell_length_c   14.65747173
_cell_angle_alpha   90.00000000
_cell_angle_beta   90.00000000
_cell_angle_gamma   116.16599677
_symmetry_Int_Tables_number   1
_chemical_formula_structural   CrI2
_chemical_formula_sum   'Cr2 I4'
_cell_volume   232.86853231
_cell_formula_units_Z   2
loop_
 _symmetry_equiv_pos_site_id
 _symmetry_equiv_pos_as_xyz
  1  'x, y, z'
loop_
 _atom_site_type_symbol
 _atom_site_label
 _atom_site_symmetry_multiplicity
 _atom_site_fract_x
 _atom_site_fract_y
 _atom_site_fract_z
 _atom_site_occupancy
  Cr  Cr0  1  0.20465286  0.40930572  0.87641418  1
  Cr  Cr1  1  0.79534714  0.59069428  0.37641418  1
  I  I2  1  0.79109939  0.58219878  0.75659181  1
  I  I3  1  0.20890061  0.41780122  0.25659181  1
  I  I4  1  0.41319469  0.82638938  0.48799402  1
  I  I5  1  0.58680531  0.17361062  0.98799402  1
