# generated using pymatgen
data_CdH12C4Br3N
_symmetry_space_group_name_H-M   'P 1'
_cell_length_a   9.55045460
_cell_length_b   9.55045440
_cell_length_c   21.56541422
_cell_angle_alpha   90.00000000
_cell_angle_beta   90.00000000
_cell_angle_gamma   120.00000062
_symmetry_Int_Tables_number   1
_chemical_formula_structural   CdH12C4Br3N
_chemical_formula_sum   'Cd6 H72 C24 Br18 N6'
_cell_volume   1703.47793763
_cell_formula_units_Z   6
loop_
 _symmetry_equiv_pos_site_id
 _symmetry_equiv_pos_as_xyz
  1  'x, y, z'
loop_
 _atom_site_type_symbol
 _atom_site_label
 _atom_site_symmetry_multiplicity
 _atom_site_fract_x
 _atom_site_fract_y
 _atom_site_fract_z
 _atom_site_occupancy
  Cd  Cd0  1  0.97795180  0.98213459  0.50011168  1
  Cd  Cd1  1  1.00418279  0.02204820  0.16677868  1
  Cd  Cd2  1  -0.00418279  0.97795180  0.66677868  1
  Cd  Cd3  1  0.01786541  -0.00418279  0.83344468  1
  Cd  Cd4  1  0.98213459  1.00418279  0.33344468  1
  Cd  Cd5  1  0.02204820  0.01786541  1.00011168  1
  H  H6  1  0.26685058  0.78368395  0.69262767  1
  H  H7  1  0.32923185  0.66407553  0.31857145  1
  H  H8  1  0.66515632  0.32923185  0.48523845  1
  H  H9  1  0.48469686  0.86881565  0.80107532  1
  H  H10  1  0.36958063  0.51996795  0.35574504  1
  H  H11  1  0.69277823  0.33289475  0.68030368  1
  H  H12  1  0.73314942  0.21631605  0.19262767  1
  H  H13  1  0.54679514  0.08843027  0.91803556  1
  H  H14  1  0.73066526  0.21021919  0.30467616  1
  H  H15  1  0.47048301  0.92251713  0.12386679  1
  H  H16  1  0.45836487  0.54679514  0.08470256  1
  H  H17  1  0.66407553  0.33484368  0.15190545  1
  H  H18  1  0.33592447  0.66515632  0.65190545  1
  H  H19  1  0.42706358  0.26071109  0.54614112  1
  H  H20  1  0.87356797  0.59140356  0.92003151  1
  H  H21  1  0.33289475  0.64011652  0.51363668  1
  H  H22  1  0.91156973  0.45836487  0.25136956  1
  H  H23  1  0.84961267  0.36958063  0.52241204  1
  H  H24  1  0.30722177  0.66710525  0.18030368  1
  H  H25  1  0.33484368  0.67076815  0.98523845  1
  H  H26  1  0.28216441  0.87356797  0.08669851  1
  H  H27  1  0.78978081  0.52044607  0.63800916  1
  H  H28  1  0.64011652  0.30722177  0.34697068  1
  H  H29  1  0.53656167  0.45840625  0.20776899  1
  H  H30  1  0.54163513  0.45320486  0.58470256  1
  H  H31  1  0.66710525  0.35988348  0.01363668  1
  H  H32  1  0.45320486  0.91156973  0.41803556  1
  H  H33  1  0.45840625  0.92184459  0.04110199  1
  H  H34  1  0.43928529  0.26848989  0.62901651  1
  H  H35  1  0.16635248  0.42706358  0.71280812  1
  H  H36  1  0.86881565  0.38411879  0.63440832  1
  H  H37  1  0.48316663  0.26685058  0.85929367  1
  H  H38  1  0.35988348  0.69277823  0.84697068  1
  H  H39  1  0.52951699  0.07748287  0.62386679  1
  H  H40  1  0.21631605  0.48316663  0.02596067  1
  H  H41  1  0.21021919  0.47955393  0.13800916  1
  H  H42  1  0.56071471  0.73151011  0.12901651  1
  H  H43  1  0.40859644  0.28216441  0.25336551  1
  H  H44  1  0.47955393  0.26933474  0.97134216  1
  H  H45  1  0.45203412  0.52951699  0.79053379  1
  H  H46  1  0.38411879  0.51530314  0.46774132  1
  H  H47  1  0.57293642  0.73928891  0.04614112  1
  H  H48  1  0.54159375  0.07815541  0.54110199  1
  H  H49  1  0.73151011  0.17079540  0.96234951  1
  H  H50  1  0.73928891  0.16635248  0.87947412  1
  H  H51  1  0.26933474  0.78978081  0.80467616  1
  H  H52  1  0.51683337  0.73314942  0.35929367  1
  H  H53  1  0.51530314  0.13118435  0.30107532  1
  H  H54  1  0.26071109  0.83364752  0.37947412  1
  H  H55  1  0.67076815  0.33592447  0.81857145  1
  H  H56  1  0.17079540  0.43928529  0.79568351  1
  H  H57  1  0.51996795  0.15038733  0.18907904  1
  H  H58  1  0.15038733  0.63041937  0.02241204  1
  H  H59  1  0.59140356  0.71783559  0.75336551  1
  H  H60  1  0.52044607  0.73066526  0.47134216  1
  H  H61  1  0.78368395  0.51683337  0.52596067  1
  H  H62  1  0.07748287  0.54796588  0.45719979  1
  H  H63  1  0.48003205  0.84961267  0.68907904  1
  H  H64  1  0.63041937  0.48003205  0.85574504  1
  H  H65  1  0.46343833  0.54159375  0.70776899  1
  H  H66  1  0.82920460  0.56071471  0.29568351  1
  H  H67  1  0.08843027  0.54163513  0.75136956  1
  H  H68  1  0.92251713  0.45203412  0.95719979  1
  H  H69  1  0.07815541  0.53656167  0.37443499  1
  H  H70  1  0.92184459  0.46343833  0.87443499  1
  H  H71  1  0.71783559  0.12643203  0.58669851  1
  H  H72  1  0.12643203  0.40859644  0.42003151  1
  H  H73  1  0.26848989  0.82920460  0.46234951  1
  H  H74  1  0.54796588  0.47048301  0.29053379  1
  H  H75  1  0.13118435  0.61588121  0.13440832  1
  H  H76  1  0.83364752  0.57293642  0.21280812  1
  H  H77  1  0.61588121  0.48469686  0.96774132  1
  C  C78  1  0.25471232  0.61211795  0.02483248  1
  C  C79  1  0.24066250  0.60638635  0.13813525  1
  C  C80  1  0.67567936  0.17989209  0.91925307  1
  C  C81  1  0.32432064  0.82010791  0.41925307  1
  C  C82  1  0.86499771  0.47282061  0.91710250  1
  C  C83  1  0.36572384  0.75933750  0.80480225  1
  C  C84  1  0.82010791  0.49578727  0.25258707  1
  C  C85  1  0.13500229  0.52717939  0.41710250  1
  C  C86  1  0.64259437  0.25471232  0.19149948  1
  C  C87  1  0.60638635  0.36572384  0.97146825  1
  C  C88  1  0.17989209  0.50421273  0.75258707  1
  C  C89  1  0.50421273  0.32432064  0.58592007  1
  C  C90  1  0.60782289  0.13500229  0.58376950  1
  C  C91  1  0.39361365  0.63427616  0.47146825  1
  C  C92  1  0.35740563  0.74528768  0.69149948  1
  C  C93  1  0.74528768  0.38788205  0.52483248  1
  C  C94  1  0.52717939  0.39217711  0.25043650  1
  C  C95  1  0.47282061  0.60782289  0.75043650  1
  C  C96  1  0.75933750  0.39361365  0.63813525  1
  C  C97  1  0.39217711  0.86499771  0.08376950  1
  C  C98  1  0.63427616  0.24066250  0.30480225  1
  C  C99  1  0.61211795  0.35740563  0.85816548  1
  C  C100  1  0.38788205  0.64259437  0.35816548  1
  C  C101  1  0.49578727  0.67567936  0.08592007  1
  Br  Br102  1  0.75737666  0.83650479  0.91886577  1
  Br  Br103  1  0.08212050  0.27545130  0.25528381  1
  Br  Br104  1  0.86012337  0.13027554  0.07656296  1
  Br  Br105  1  0.72454870  0.80666920  0.58861681  1
  Br  Br106  1  0.72984783  0.86012337  0.24322996  1
  Br  Br107  1  0.91787950  0.72454870  0.75528381  1
  Br  Br108  1  0.83650479  0.07912812  0.75219977  1
  Br  Br109  1  0.07912812  0.24262334  0.58553277  1
  Br  Br110  1  0.24262334  0.16349521  0.41886577  1
  Br  Br111  1  0.86972446  0.72984783  0.40989596  1
  Br  Br112  1  0.16349521  0.92087188  0.25219977  1
  Br  Br113  1  0.27015217  0.13987663  0.74322996  1
  Br  Br114  1  0.92087188  0.75737666  0.08553277  1
  Br  Br115  1  0.13027554  0.27015217  0.90989596  1
  Br  Br116  1  0.13987663  0.86972446  0.57656296  1
  Br  Br117  1  0.27545130  0.19333080  0.08861681  1
  Br  Br118  1  0.19333080  0.91787950  0.92194981  1
  Br  Br119  1  0.80666920  0.08212050  0.42194981  1
  N  N120  1  0.65619765  0.34627190  0.24982568  1
  N  N121  1  0.34627190  0.69007425  0.08315868  1
  N  N122  1  0.65372810  0.30992575  0.58315868  1
  N  N123  1  0.69007425  0.34380235  0.91649168  1
  N  N124  1  0.30992575  0.65619765  0.41649168  1
  N  N125  1  0.34380235  0.65372810  0.74982568  1
