# generated using pymatgen
data_H10C3IN
_symmetry_space_group_name_H-M   'P 1'
_cell_length_a   5.61962309
_cell_length_b   7.24876906
_cell_length_c   8.44286970
_cell_angle_alpha   90.00000000
_cell_angle_beta   90.00000000
_cell_angle_gamma   104.11623200
_symmetry_Int_Tables_number   1
_chemical_formula_structural   H10C3IN
_chemical_formula_sum   'H20 C6 I2 N2'
_cell_volume   333.53778787
_cell_formula_units_Z   2
loop_
 _symmetry_equiv_pos_site_id
 _symmetry_equiv_pos_as_xyz
  1  'x, y, z'
loop_
 _atom_site_type_symbol
 _atom_site_label
 _atom_site_symmetry_multiplicity
 _atom_site_fract_x
 _atom_site_fract_y
 _atom_site_fract_z
 _atom_site_occupancy
  H  H0  1  0.30635373  0.87279258  0.10739041  1
  H  H1  1  0.17384526  0.34800898  0.64327894  1
  H  H2  1  0.46870110  0.21794910  -0.00007051  1
  H  H3  1  0.41300131  0.51064649  0.75000000  1
  H  H4  1  0.82615474  0.65199102  0.14327894  1
  H  H5  1  0.68903112  0.91102125  0.25000000  1
  H  H6  1  0.53129890  0.78205090  1.00007051  1
  H  H7  1  0.82615474  0.65199102  0.35672106  1
  H  H8  1  0.71725056  0.37884195  0.89918898  1
  H  H9  1  0.71725056  0.37884195  0.60081102  1
  H  H10  1  0.69364627  0.12720742  0.89260959  1
  H  H11  1  0.69364627  0.12720742  0.60739041  1
  H  H12  1  0.58699869  0.48935351  0.25000000  1
  H  H13  1  0.53129890  0.78205090  0.49992949  1
  H  H14  1  0.31096888  0.08897875  0.75000000  1
  H  H15  1  0.28274944  0.62115805  0.10081102  1
  H  H16  1  0.46870110  0.21794910  0.50007051  1
  H  H17  1  0.17384526  0.34800898  0.85672106  1
  H  H18  1  0.30635373  0.87279258  0.39260959  1
  H  H19  1  0.28274944  0.62115805  0.39918898  1
  C  C20  1  0.59032892  0.23739836  0.60362707  1
  C  C21  1  0.28835378  0.36833607  0.75000000  1
  C  C22  1  0.40967108  0.76260164  0.10362707  1
  C  C23  1  0.40967108  0.76260164  0.39637293  1
  C  C24  1  0.71164622  0.63166393  0.25000000  1
  C  C25  1  0.59032892  0.23739836  0.89637293  1
  I  I26  1  0.96485570  0.80254944  0.75000000  1
  I  I27  1  0.03514430  0.19745056  0.25000000  1
  N  N28  1  0.43741943  0.22358113  0.75000000  1
  N  N29  1  0.56258057  0.77641887  0.25000000  1
