# generated using pymatgen
data_Na2Li5Sn4
_symmetry_space_group_name_H-M   'P 1'
_cell_length_a   24.39388526
_cell_length_b   24.39388520
_cell_length_c   24.39388552
_cell_angle_alpha   11.70688208
_cell_angle_beta   11.70688281
_cell_angle_gamma   11.70688253
_symmetry_Int_Tables_number   1
_chemical_formula_structural   Na2Li5Sn4
_chemical_formula_sum   'Na4 Li10 Sn8'
_cell_volume   519.35816856
_cell_formula_units_Z   2
loop_
 _symmetry_equiv_pos_site_id
 _symmetry_equiv_pos_as_xyz
  1  'x, y, z'
loop_
 _atom_site_type_symbol
 _atom_site_label
 _atom_site_symmetry_multiplicity
 _atom_site_fract_x
 _atom_site_fract_y
 _atom_site_fract_z
 _atom_site_occupancy
  Na  Na0  1  0.24229535  0.24229535  0.24229535  1
  Na  Na1  1  0.04723527  0.04723527  0.04723527  1
  Na  Na2  1  0.95276473  0.95276473  0.95276473  1
  Na  Na3  1  0.75770465  0.75770465  0.75770465  1
  Li  Li4  1  0.52079772  0.52079772  0.52079772  1
  Li  Li5  1  0.32250242  0.32250242  0.32250242  1
  Li  Li6  1  0.20018836  0.20018836  0.20018836  1
  Li  Li7  1  0.28371059  0.28371059  0.28371059  1
  Li  Li8  1  0.67749758  0.67749758  0.67749758  1
  Li  Li9  1  0.55872413  0.55872413  0.55872413  1
  Li  Li10  1  0.79981164  0.79981164  0.79981164  1
  Li  Li11  1  0.47920228  0.47920228  0.47920228  1
  Li  Li12  1  0.44127587  0.44127587  0.44127587  1
  Li  Li13  1  0.71628941  0.71628941  0.71628941  1
  Sn  Sn14  1  0.36191718  0.36191718  0.36191718  1
  Sn  Sn15  1  0.83998446  0.83998446  0.83998446  1
  Sn  Sn16  1  0.63808282  0.63808282  0.63808282  1
  Sn  Sn17  1  0.88010212  0.88010212  0.88010212  1
  Sn  Sn18  1  0.40083451  0.40083451  0.40083451  1
  Sn  Sn19  1  0.11989788  0.11989788  0.11989788  1
  Sn  Sn20  1  0.16001554  0.16001554  0.16001554  1
  Sn  Sn21  1  0.59916549  0.59916549  0.59916549  1
