# generated using pymatgen
data_CrP3H17N3O13
_symmetry_space_group_name_H-M   'P 1'
_cell_length_a   9.59869906
_cell_length_b   10.84072436
_cell_length_c   13.08518686
_cell_angle_alpha   90.00000000
_cell_angle_beta   92.52025670
_cell_angle_gamma   90.00000000
_symmetry_Int_Tables_number   1
_chemical_formula_structural   CrP3H17N3O13
_chemical_formula_sum   'Cr4 P12 H68 N12 O52'
_cell_volume   1360.28630800
_cell_formula_units_Z   4
loop_
 _symmetry_equiv_pos_site_id
 _symmetry_equiv_pos_as_xyz
  1  'x, y, z'
loop_
 _atom_site_type_symbol
 _atom_site_label
 _atom_site_symmetry_multiplicity
 _atom_site_fract_x
 _atom_site_fract_y
 _atom_site_fract_z
 _atom_site_occupancy
  Cr  Cr0  1  0.00000000  0.00000000  0.00000000  1
  Cr  Cr1  1  0.00000000  0.00000000  0.50000000  1
  Cr  Cr2  1  0.50000000  0.50000000  0.00000000  1
  Cr  Cr3  1  0.50000000  0.50000000  0.50000000  1
  P  P4  1  0.89871930  0.36771425  0.25666722  1
  P  P5  1  0.50889537  0.08476388  0.36028562  1
  P  P6  1  0.39871930  0.13228575  0.75666722  1
  P  P7  1  0.60128070  0.86771425  0.24333278  1
  P  P8  1  0.10128070  0.63228575  0.74333278  1
  P  P9  1  0.02510155  0.40052404  0.63218930  1
  P  P10  1  0.99110463  0.58476388  0.13971438  1
  P  P11  1  0.97489845  0.59947596  0.36781070  1
  P  P12  1  0.00889537  0.41523612  0.86028562  1
  P  P13  1  0.47489845  0.90052404  0.86781070  1
  P  P14  1  0.52510155  0.09947596  0.13218930  1
  P  P15  1  0.49110463  0.91523612  0.63971438  1
  H  H16  1  0.67363270  0.56286118  0.66003363  1
  H  H17  1  0.12930963  0.78100175  0.44883035  1
  H  H18  1  0.32636730  0.43713882  0.33996637  1
  H  H19  1  0.44829774  0.39879049  0.82027852  1
  H  H20  1  0.64413163  0.21210559  0.25849757  1
  H  H21  1  0.83866851  0.88677060  0.13714923  1
  H  H22  1  0.86827059  0.96773567  0.31568435  1
  H  H23  1  0.80132659  0.25050946  0.78763045  1
  H  H24  1  0.70090327  0.65213889  0.80267295  1
  H  H25  1  0.56759018  0.66176830  0.35622662  1
  H  H26  1  0.79585543  0.13466481  0.06955112  1
  H  H27  1  0.85586837  0.71210559  0.24150243  1
  H  H28  1  0.35586837  0.78789441  0.74150243  1
  H  H29  1  0.25907738  0.37656687  0.99573323  1
  H  H30  1  0.87069037  0.21899825  0.55116965  1
  H  H31  1  0.26515844  0.56032753  0.39716760  1
  H  H32  1  0.95427683  0.60182525  0.59823729  1
  H  H33  1  0.14245436  0.21264926  0.51407571  1
  H  H34  1  0.73484156  0.43967247  0.60283240  1
  H  H35  1  0.36827059  0.53226433  0.81568435  1
  H  H36  1  0.29909673  0.34786111  0.19732705  1
  H  H37  1  0.23484156  0.06032753  0.10283240  1
  H  H38  1  0.37069037  0.28100175  0.05116965  1
  H  H39  1  0.54572317  0.10182525  0.90176271  1
  H  H40  1  0.40379789  0.71703349  0.55943546  1
  H  H41  1  0.85754564  0.78735074  0.48592429  1
  H  H42  1  0.45427683  0.89817475  0.09823729  1
  H  H43  1  0.26973279  0.61798539  0.06130065  1
  H  H44  1  0.93240982  0.16176830  0.14377338  1
  H  H45  1  0.20414457  0.86533519  0.93044888  1
  H  H46  1  0.62930963  0.71899825  0.94883035  1
  H  H47  1  0.14413163  0.28789441  0.75849757  1
  H  H48  1  0.74092262  0.62343313  0.00426677  1
  H  H49  1  0.99896825  0.62206765  0.90241299  1
  H  H50  1  0.09620211  0.21703349  0.94056454  1
  H  H51  1  0.04572317  0.39817475  0.40176271  1
  H  H52  1  0.20090327  0.84786111  0.30267295  1
  H  H53  1  0.76973279  0.88201461  0.56130065  1
  H  H54  1  0.69867341  0.75050946  0.71236955  1
  H  H55  1  0.55170226  0.60120951  0.17972148  1
  H  H56  1  0.17363270  0.93713882  0.16003363  1
  H  H57  1  0.94829774  0.10120951  0.32027852  1
  H  H58  1  0.79909673  0.15213889  0.69732705  1
  H  H59  1  0.75907738  0.12343313  0.49573323  1
  H  H60  1  0.19867341  0.74949054  0.21236955  1
  H  H61  1  0.66133149  0.38677060  0.36285077  1
  H  H62  1  0.59620211  0.28296651  0.44056454  1
  H  H63  1  0.33866851  0.61322940  0.63714923  1
  H  H64  1  0.16133149  0.11322940  0.86285077  1
  H  H65  1  0.76515844  0.93967247  0.89716760  1
  H  H66  1  0.43240982  0.33823170  0.64377338  1
  H  H67  1  0.30132659  0.24949054  0.28763045  1
  H  H68  1  0.64245436  0.28735074  0.01407571  1
  H  H69  1  0.00103175  0.37793235  0.09758701  1
  H  H70  1  0.73026721  0.38201461  0.93869935  1
  H  H71  1  0.06759018  0.83823170  0.85622662  1
  H  H72  1  0.24092262  0.87656687  0.50426677  1
  H  H73  1  0.90379789  0.78296651  0.05943546  1
  H  H74  1  0.29585543  0.36533519  0.56955112  1
  H  H75  1  0.63172941  0.46773567  0.18431565  1
  H  H76  1  0.70414457  0.63466481  0.43044888  1
  H  H77  1  0.49896825  0.87793235  0.40241299  1
  H  H78  1  0.13172941  0.03226433  0.68431565  1
  H  H79  1  0.23026721  0.11798539  0.43869935  1
  H  H80  1  0.50103175  0.12206765  0.59758701  1
  H  H81  1  0.05170226  0.89879049  0.67972148  1
  H  H82  1  0.35754564  0.71264926  0.98592429  1
  H  H83  1  0.82636730  0.06286118  0.83996637  1
  N  N84  1  0.92473983  0.63979403  0.24813305  1
  N  N85  1  0.57526017  0.13979403  0.25186695  1
  N  N86  1  0.97557494  0.44590600  0.35590280  1
  N  N87  1  0.07526017  0.36020597  0.75186695  1
  N  N88  1  0.52442506  0.94590600  0.14409720  1
  N  N89  1  0.45848143  0.06614526  0.65111092  1
  N  N90  1  0.04151857  0.56614526  0.84888908  1
  N  N91  1  0.54151857  0.93385474  0.34888908  1
  N  N92  1  0.02442506  0.55409400  0.64409720  1
  N  N93  1  0.42473983  0.86020597  0.74813305  1
  N  N94  1  0.95848143  0.43385474  0.15111092  1
  N  N95  1  0.47557494  0.05409400  0.85590280  1
  O  O96  1  0.94531271  0.23457827  0.25957818  1
  O  O97  1  0.35071501  0.50883712  0.38865916  1
  O  O98  1  0.85255118  0.12837824  0.53423341  1
  O  O99  1  0.14744882  0.87162176  0.46576659  1
  O  O100  1  0.13535955  0.35100191  0.56180278  1
  O  O101  1  0.75919271  0.88808214  0.24120735  1
  O  O102  1  0.14770883  0.12720119  0.48432594  1
  O  O103  1  0.05223825  0.98448453  0.65033447  1
  O  O104  1  0.60504335  0.37414487  0.42546947  1
  O  O105  1  0.24080729  0.11191786  0.75879265  1
  O  O106  1  0.77363991  0.16550204  0.76786402  1
  O  O107  1  0.61999888  0.85663671  0.90234452  1
  O  O108  1  0.59800692  0.63591431  0.42722000  1
  O  O109  1  0.55468729  0.73457827  0.24042182  1
  O  O110  1  0.44776175  0.48448453  0.84966553  1
  O  O111  1  0.40199308  0.36408569  0.57278000  1
  O  O112  1  0.27363991  0.33449796  0.26786402  1
  O  O113  1  0.63535955  0.14899809  0.06180278  1
  O  O114  1  0.35406026  0.11061947  0.36198822  1
  O  O115  1  0.09668684  0.36150101  0.95029203  1
  O  O116  1  0.40331316  0.86150101  0.54970797  1
  O  O117  1  0.64928499  0.49116288  0.61134084  1
  O  O118  1  0.10504335  0.12585513  0.92546947  1
  O  O119  1  0.89495665  0.87414487  0.07453053  1
  O  O120  1  0.85406026  0.38938053  0.86198822  1
  O  O121  1  0.88000112  0.35663671  0.59765548  1
  O  O122  1  0.39495665  0.62585513  0.57453053  1
  O  O123  1  0.36464045  0.85100191  0.93819722  1
  O  O124  1  0.09800692  0.86408569  0.92722000  1
  O  O125  1  0.94776175  0.01551547  0.34966553  1
  O  O126  1  0.14928499  0.00883712  0.11134084  1
  O  O127  1  0.64744882  0.62837824  0.96576659  1
  O  O128  1  0.72636009  0.66550204  0.73213598  1
  O  O129  1  0.59668684  0.13849899  0.45029203  1
  O  O130  1  0.38000112  0.14336329  0.09765548  1
  O  O131  1  0.25919271  0.61191786  0.74120735  1
  O  O132  1  0.64770883  0.37279881  0.98432594  1
  O  O133  1  0.22636009  0.83449796  0.23213598  1
  O  O134  1  0.90199308  0.13591431  0.07278000  1
  O  O135  1  0.64593974  0.88938053  0.63801178  1
  O  O136  1  0.85071501  0.99116288  0.88865916  1
  O  O137  1  0.85229117  0.87279881  0.51567406  1
  O  O138  1  0.74080729  0.38808214  0.25879265  1
  O  O139  1  0.14593974  0.61061947  0.13801178  1
  O  O140  1  0.35229117  0.62720119  0.01567406  1
  O  O141  1  0.55223825  0.51551547  0.15033447  1
  O  O142  1  0.05468729  0.76542173  0.74042182  1
  O  O143  1  0.90331316  0.63849899  0.04970797  1
  O  O144  1  0.35255118  0.37162176  0.03423341  1
  O  O145  1  0.44531271  0.26542173  0.75957818  1
  O  O146  1  0.11999888  0.64336329  0.40234452  1
  O  O147  1  0.86464045  0.64899809  0.43819722  1
