# generated using pymatgen
data_Mo2HO6
_symmetry_space_group_name_H-M   'P 1'
_cell_length_a   8.19975296
_cell_length_b   8.15327194
_cell_length_c   3.81155776
_cell_angle_alpha   91.09510112
_cell_angle_beta   90.86331331
_cell_angle_gamma   27.23482240
_symmetry_Int_Tables_number   1
_chemical_formula_structural   Mo2HO6
_chemical_formula_sum   'Mo2 H1 O6'
_cell_volume   116.59353756
_cell_formula_units_Z   1
loop_
 _symmetry_equiv_pos_site_id
 _symmetry_equiv_pos_as_xyz
  1  'x, y, z'
loop_
 _atom_site_type_symbol
 _atom_site_label
 _atom_site_symmetry_multiplicity
 _atom_site_fract_x
 _atom_site_fract_y
 _atom_site_fract_z
 _atom_site_occupancy
  Mo  Mo0  1  0.08553118  0.09176371  0.25710215  1
  Mo  Mo1  1  0.90693810  0.90687062  0.74920257  1
  H  H2  1  0.02440079  0.44449074  0.38798193  1
  O  O3  1  0.94552170  0.93786270  0.25198739  1
  O  O4  1  0.06006488  0.05694510  0.75568018  1
  O  O5  1  0.58840804  0.58676611  0.25342251  1
  O  O6  1  0.42506725  0.41470858  0.75353393  1
  O  O7  1  0.21250173  0.20288299  0.29395126  1
  O  O8  1  0.81451034  0.78381946  0.72872108  1
