# generated using pymatgen
data_LiB3H18N5
_symmetry_space_group_name_H-M   'P 1'
_cell_length_a   7.63062719
_cell_length_b   10.83696169
_cell_length_c   12.13557199
_cell_angle_alpha   90.00000000
_cell_angle_beta   90.00000000
_cell_angle_gamma   95.57877792
_symmetry_Int_Tables_number   1
_chemical_formula_structural   LiB3H18N5
_chemical_formula_sum   'Li4 B12 H72 N20'
_cell_volume   998.77138548
_cell_formula_units_Z   4
loop_
 _symmetry_equiv_pos_site_id
 _symmetry_equiv_pos_as_xyz
  1  'x, y, z'
loop_
 _atom_site_type_symbol
 _atom_site_label
 _atom_site_symmetry_multiplicity
 _atom_site_fract_x
 _atom_site_fract_y
 _atom_site_fract_z
 _atom_site_occupancy
  Li  Li0  1  0.51882787  0.80211042  0.25126954  1
  Li  Li1  1  0.48117213  0.19788958  0.74873046  1
  Li  Li2  1  0.48117213  0.69788958  0.75126954  1
  Li  Li3  1  0.51882787  0.30211042  0.24873046  1
  B  B4  1  0.98854123  0.48725822  0.39969047  1
  B  B5  1  0.09300908  0.91367600  0.99554152  1
  B  B6  1  0.90699092  0.08632400  0.00445848  1
  B  B7  1  0.13153571  0.57303425  0.48788376  1
  B  B8  1  0.90699092  0.58632400  0.49554152  1
  B  B9  1  0.86846429  0.92696575  0.98788376  1
  B  B10  1  0.09300908  0.41367600  0.50445848  1
  B  B11  1  0.98854123  0.98725822  0.10030953  1
  B  B12  1  0.86846429  0.42696575  0.51211624  1
  B  B13  1  0.13153571  0.07303425  0.01211624  1
  B  B14  1  0.01145877  0.51274178  0.60030953  1
  B  B15  1  0.01145877  0.01274178  0.89969047  1
  H  H16  1  0.97445834  0.47541008  0.30050184  1
  H  H17  1  0.35406382  0.58823853  0.94566933  1
  H  H18  1  0.95776885  0.03977539  0.53085469  1
  H  H19  1  0.02554166  0.52458992  0.69949816  1
  H  H20  1  0.61504579  0.97467320  0.11122190  1
  H  H21  1  0.43101480  0.37577997  0.04981867  1
  H  H22  1  0.20018877  0.26233402  0.32071032  1
  H  H23  1  0.72557371  0.37206044  0.84017212  1
  H  H24  1  0.27442629  0.12793956  0.34017212  1
  H  H25  1  0.19042843  0.32152712  0.72468430  1
  H  H26  1  0.79981123  0.23766598  0.82071032  1
  H  H27  1  0.80957157  0.17847288  0.22468430  1
  H  H28  1  0.27442629  0.62793956  0.15982788  1
  H  H29  1  0.79316308  0.33664212  0.71730949  1
  H  H30  1  0.56707290  0.76665970  0.45982018  1
  H  H31  1  0.20018877  0.76233402  0.17928968  1
  H  H32  1  0.60252635  0.53624072  0.61458058  1
  H  H33  1  0.35406382  0.08823853  0.55433067  1
  H  H34  1  0.73993408  0.64256939  0.15083506  1
  H  H35  1  0.79981123  0.73766598  0.67928968  1
  H  H36  1  0.51202374  0.54520014  0.29262612  1
  H  H37  1  0.81639557  0.17204591  0.00986166  1
  H  H38  1  0.82457792  0.28357663  0.32417321  1
  H  H39  1  0.43292710  0.73334030  0.95982018  1
  H  H40  1  0.38495421  0.02532680  0.88877810  1
  H  H41  1  0.17542208  0.71642337  0.67582679  1
  H  H42  1  0.39747365  0.96375928  0.11458058  1
  H  H43  1  0.97445834  0.97541008  0.19949816  1
  H  H44  1  0.95776885  0.53977539  0.96914531  1
  H  H45  1  0.39747365  0.46375928  0.38541942  1
  H  H46  1  0.04223115  0.46022461  0.03085469  1
  H  H47  1  0.48797626  0.95479986  0.79262612  1
  H  H48  1  0.73929499  0.35433414  0.52328087  1
  H  H49  1  0.90536900  0.67854532  0.95246280  1
  H  H50  1  0.72557371  0.87206044  0.65982788  1
  H  H51  1  0.90536900  0.17854532  0.54753720  1
  H  H52  1  0.09463100  0.82145468  0.45246280  1
  H  H53  1  0.90339946  0.58028239  0.84894838  1
  H  H54  1  0.20683692  0.66335788  0.28269051  1
  H  H55  1  0.43292710  0.23334030  0.54017982  1
  H  H56  1  0.02554166  0.02458992  0.80050184  1
  H  H57  1  0.79316308  0.83664212  0.78269051  1
  H  H58  1  0.19042843  0.82152712  0.77531570  1
  H  H59  1  0.26006592  0.85743061  0.65083506  1
  H  H60  1  0.61504579  0.47467320  0.38877810  1
  H  H61  1  0.26006592  0.35743061  0.84916494  1
  H  H62  1  0.60252635  0.03624072  0.88541942  1
  H  H63  1  0.26070501  0.14566586  0.02328087  1
  H  H64  1  0.09660054  0.41971761  0.15105162  1
  H  H65  1  0.26070501  0.64566586  0.47671913  1
  H  H66  1  0.56898520  0.12422003  0.54981867  1
  H  H67  1  0.20683692  0.16335788  0.21730949  1
  H  H68  1  0.90339946  0.08028239  0.65105162  1
  H  H69  1  0.18360443  0.82795409  0.99013834  1
  H  H70  1  0.80957157  0.67847288  0.27531570  1
  H  H71  1  0.18360443  0.32795409  0.50986166  1
  H  H72  1  0.51202374  0.04520014  0.20737388  1
  H  H73  1  0.09660054  0.91971761  0.34894838  1
  H  H74  1  0.81639557  0.67204591  0.49013834  1
  H  H75  1  0.04223115  0.96022461  0.46914531  1
  H  H76  1  0.73993408  0.14256939  0.34916494  1
  H  H77  1  0.82457792  0.78357663  0.17582679  1
  H  H78  1  0.38495421  0.52532680  0.61122190  1
  H  H79  1  0.09463100  0.32145468  0.04753720  1
  H  H80  1  0.64593618  0.91176147  0.44566933  1
  H  H81  1  0.56707290  0.26665970  0.04017982  1
  H  H82  1  0.17542208  0.21642337  0.82417321  1
  H  H83  1  0.48797626  0.45479986  0.70737388  1
  H  H84  1  0.56898520  0.62422003  0.95018133  1
  H  H85  1  0.64593618  0.41176147  0.05433067  1
  H  H86  1  0.43101480  0.87577997  0.45018133  1
  H  H87  1  0.73929499  0.85433414  0.97671913  1
  N  N88  1  0.50791730  0.46472462  0.33706594  1
  N  N89  1  0.13128464  0.91178341  0.43041090  1
  N  N90  1  0.54668113  0.84775760  0.42049403  1
  N  N91  1  0.86871536  0.58821659  0.93041090  1
  N  N92  1  0.45331887  0.15224240  0.57950597  1
  N  N93  1  0.13128464  0.41178341  0.06958910  1
  N  N94  1  0.72528458  0.30063765  0.78499457  1
  N  N95  1  0.50791730  0.96472462  0.16293406  1
  N  N96  1  0.49208270  0.03527538  0.83706594  1
  N  N97  1  0.49208270  0.53527538  0.66293406  1
  N  N98  1  0.72528458  0.80063765  0.71500543  1
  N  N99  1  0.27471542  0.19936235  0.28499457  1
  N  N100  1  0.27471542  0.69936235  0.21500543  1
  N  N101  1  0.25540224  0.78893959  0.70899248  1
  N  N102  1  0.74459776  0.71106041  0.20899248  1
  N  N103  1  0.86871536  0.08821659  0.56958910  1
  N  N104  1  0.54668113  0.34775760  0.07950597  1
  N  N105  1  0.25540224  0.28893959  0.79100752  1
  N  N106  1  0.45331887  0.65224240  0.92049403  1
  N  N107  1  0.74459776  0.21106041  0.29100752  1
