# generated using pymatgen
data_Ti3H2O7
_symmetry_space_group_name_H-M   'P 1'
_cell_length_a   16.94106694
_cell_length_b   16.97364085
_cell_length_c   9.47234579
_cell_angle_alpha   81.71760293
_cell_angle_beta   98.25636049
_cell_angle_gamma   167.21521334
_symmetry_Int_Tables_number   1
_chemical_formula_structural   Ti3H2O7
_chemical_formula_sum   'Ti6 H4 O14'
_cell_volume   596.39868483
_cell_formula_units_Z   2
loop_
 _symmetry_equiv_pos_site_id
 _symmetry_equiv_pos_as_xyz
  1  'x, y, z'
loop_
 _atom_site_type_symbol
 _atom_site_label
 _atom_site_symmetry_multiplicity
 _atom_site_fract_x
 _atom_site_fract_y
 _atom_site_fract_z
 _atom_site_occupancy
  Ti  Ti0  1  0.77072133  0.23008472  0.79048267  1
  Ti  Ti1  1  0.22927867  0.76991528  0.20951733  1
  Ti  Ti2  1  0.78749127  0.21453259  0.47982042  1
  Ti  Ti3  1  0.21250873  0.78546741  0.52017958  1
  Ti  Ti4  1  0.80958482  0.21008406  0.17220793  1
  Ti  Ti5  1  0.19041518  0.78991594  0.82779207  1
  H  H6  1  0.77537905  0.01275599  0.19515288  1
  H  H7  1  0.82286542  0.09775455  0.03419751  1
  H  H8  1  0.22462095  0.98724401  0.80484712  1
  H  H9  1  0.17713458  0.90224545  0.96580249  1
  O  O10  1  0.79702500  0.20037193  0.96136124  1
  O  O11  1  0.20297500  0.79962807  0.03863876  1
  O  O12  1  0.81008141  0.19257972  0.66472560  1
  O  O13  1  0.18991859  0.80742028  0.33527440  1
  O  O14  1  0.82419850  0.17352388  0.35869845  1
  O  O15  1  0.17580150  0.82647612  0.64130155  1
  O  O16  1  0.91934136  0.18975091  0.13097921  1
  O  O17  1  0.08065864  0.81024909  0.86902079  1
  O  O18  1  0.70854299  0.28397847  0.84055817  1
  O  O19  1  0.29145701  0.71602153  0.15944183  1
  O  O20  1  0.72922364  0.26896016  0.54704096  1
  O  O21  1  0.27077636  0.73103984  0.45295904  1
  O  O22  1  0.74775362  0.25370358  0.24000331  1
  O  O23  1  0.25224638  0.74629642  0.75999669  1
