# generated using pymatgen
data_Hg2Pb(SBr)2
_symmetry_space_group_name_H-M   'P 1'
_cell_length_a   9.25281717
_cell_length_b   10.97416159
_cell_length_c   13.92951030
_cell_angle_alpha   111.68572951
_cell_angle_beta   90.00000000
_cell_angle_gamma   90.00000000
_symmetry_Int_Tables_number   1
_chemical_formula_structural   Hg2Pb(SBr)2
_chemical_formula_sum   'Hg8 Pb4 S8 Br8'
_cell_volume   1314.32235608
_cell_formula_units_Z   4
loop_
 _symmetry_equiv_pos_site_id
 _symmetry_equiv_pos_as_xyz
  1  'x, y, z'
loop_
 _atom_site_type_symbol
 _atom_site_label
 _atom_site_symmetry_multiplicity
 _atom_site_fract_x
 _atom_site_fract_y
 _atom_site_fract_z
 _atom_site_occupancy
  Hg  Hg0  1  0.17774391  0.93001350  0.38807054  1
  Hg  Hg1  1  0.93345202  0.64954446  0.32582461  1
  Hg  Hg2  1  0.06654798  0.35045554  0.67417539  1
  Hg  Hg3  1  0.32225609  0.43001350  0.88807054  1
  Hg  Hg4  1  0.67774391  0.56998650  0.11192946  1
  Hg  Hg5  1  0.56654798  0.14954446  0.82582461  1
  Hg  Hg6  1  0.82225609  0.06998650  0.61192946  1
  Hg  Hg7  1  0.43345202  0.85045554  0.17417539  1
  Pb  Pb8  1  0.08944345  0.81176833  0.94973248  1
  Pb  Pb9  1  0.58944345  0.68823167  0.55026752  1
  Pb  Pb10  1  0.91055655  0.18823167  0.05026752  1
  Pb  Pb11  1  0.41055655  0.31176833  0.44973248  1
  S  S12  1  0.03220430  0.81929645  0.47017318  1
  S  S13  1  0.17331316  0.53587885  0.80353861  1
  S  S14  1  0.96779570  0.18070355  0.52982682  1
  S  S15  1  0.53220430  0.68070355  0.02982682  1
  S  S16  1  0.67331316  0.96412115  0.69646139  1
  S  S17  1  0.82668684  0.46412115  0.19646139  1
  S  S18  1  0.46779570  0.31929645  0.97017318  1
  S  S19  1  0.32668684  0.03587885  0.30353861  1
  Br  Br20  1  0.30423666  0.59000292  0.54482904  1
  Br  Br21  1  0.07189347  0.73791247  0.11745570  1
  Br  Br22  1  0.42810653  0.23791247  0.61745570  1
  Br  Br23  1  0.69576334  0.40999708  0.45517096  1
  Br  Br24  1  0.80423666  0.90999708  0.95517096  1
  Br  Br25  1  0.19576334  0.09000292  0.04482904  1
  Br  Br26  1  0.92810653  0.26208753  0.88254430  1
  Br  Br27  1  0.57189347  0.76208753  0.38254430  1
