# generated using pymatgen
data_Te(HO)6
_symmetry_space_group_name_H-M   'P 1'
_cell_length_a   5.91528004
_cell_length_b   5.79077961
_cell_length_c   5.37207892
_cell_angle_alpha   63.86912402
_cell_angle_beta   61.50927482
_cell_angle_gamma   54.62160116
_symmetry_Int_Tables_number   1
_chemical_formula_structural   Te(HO)6
_chemical_formula_sum   'Te1 H6 O6'
_cell_volume   128.35591996
_cell_formula_units_Z   1
loop_
 _symmetry_equiv_pos_site_id
 _symmetry_equiv_pos_as_xyz
  1  'x, y, z'
loop_
 _atom_site_type_symbol
 _atom_site_label
 _atom_site_symmetry_multiplicity
 _atom_site_fract_x
 _atom_site_fract_y
 _atom_site_fract_z
 _atom_site_occupancy
  Te  Te0  1  0.02410572  0.97589428  0.97589428  1
  H  H1  1  0.14134265  0.37223027  0.85865735  1
  H  H2  1  0.21278867  0.78721133  0.42019404  1
  H  H3  1  0.54850565  0.45149435  0.23297691  1
  H  H4  1  0.76702309  0.23297691  0.45149435  1
  H  H5  1  0.62776973  0.85865735  0.37223027  1
  H  H6  1  0.57980596  0.42019404  0.78721133  1
  O  O7  1  0.27309568  0.72690432  0.72690432  1
  O  O8  1  0.22626476  0.20843957  0.77373524  1
  O  O9  1  0.26597571  0.73402429  0.23825053  1
  O  O10  1  0.73816747  0.26183253  0.26183253  1
  O  O11  1  0.79156043  0.77373524  0.20843957  1
  O  O12  1  0.76174947  0.23825053  0.73402429  1
