# generated using pymatgen
data_CrWO4
_symmetry_space_group_name_H-M   'P 1'
_cell_length_a   4.73474933
_cell_length_b   5.58817339
_cell_length_c   5.58817339
_cell_angle_alpha   64.48482191
_cell_angle_beta   88.22630482
_cell_angle_gamma   88.22630478
_symmetry_Int_Tables_number   1
_chemical_formula_structural   CrWO4
_chemical_formula_sum   'Cr2 W2 O8'
_cell_volume   133.34572504
_cell_formula_units_Z   2
loop_
 _symmetry_equiv_pos_site_id
 _symmetry_equiv_pos_as_xyz
  1  'x, y, z'
loop_
 _atom_site_type_symbol
 _atom_site_label
 _atom_site_symmetry_multiplicity
 _atom_site_fract_x
 _atom_site_fract_y
 _atom_site_fract_z
 _atom_site_occupancy
  O  O0  1  0.18969611  0.59191712  0.59191712  1
  O  O1  1  0.81030389  0.40808288  0.40808288  1
  O  O2  1  0.78502980  0.88842453  0.88842453  1
  O  O3  1  0.21497020  0.11157547  0.11157547  1
  O  O4  1  0.70331100  0.39126198  0.90457006  1
  O  O5  1  0.29668900  0.09542994  0.60873802  1
  O  O6  1  0.29668900  0.60873802  0.09542994  1
  O  O7  1  0.70331100  0.90457006  0.39126198  1
  Cr  Cr8  1  0.50933106  0.25976492  0.25976492  1
  Cr  Cr9  1  0.49066894  0.74023508  0.74023508  1
  W  W10  1  0.00000000  0.77106335  0.22893665  1
  W  W11  1  0.00000000  0.22893665  0.77106335  1
