# generated using pymatgen
data_H5C2NO4
_symmetry_space_group_name_H-M   'P 1'
_cell_length_a   4.39621583
_cell_length_b   7.82547585
_cell_length_c   13.68956828
_cell_angle_alpha   90.00000000
_cell_angle_beta   90.00000000
_cell_angle_gamma   101.75694046
_symmetry_Int_Tables_number   1
_chemical_formula_structural   H5C2NO4
_chemical_formula_sum   'H20 C8 N4 O16'
_cell_volume   461.07484724
_cell_formula_units_Z   4
loop_
 _symmetry_equiv_pos_site_id
 _symmetry_equiv_pos_as_xyz
  1  'x, y, z'
loop_
 _atom_site_type_symbol
 _atom_site_label
 _atom_site_symmetry_multiplicity
 _atom_site_fract_x
 _atom_site_fract_y
 _atom_site_fract_z
 _atom_site_occupancy
  H  H0  1  0.70043227  0.83477125  0.41519715  1
  H  H1  1  0.14221252  0.48619176  0.26916182  1
  H  H2  1  0.70043227  0.33477125  0.08480285  1
  H  H3  1  0.85778748  0.51380824  0.73083818  1
  H  H4  1  0.22036176  0.85057953  0.87383750  1
  H  H5  1  0.01059982  0.26889799  0.04158183  1
  H  H6  1  0.22036176  0.35057953  0.62616250  1
  H  H7  1  0.01059982  0.76889799  0.45841817  1
  H  H8  1  0.64804588  0.66438372  0.48978090  1
  H  H9  1  0.98940018  0.23110201  0.54158183  1
  H  H10  1  0.29956773  0.16522875  0.58480285  1
  H  H11  1  0.14221252  0.98619176  0.23083818  1
  H  H12  1  0.85778748  0.01380824  0.76916182  1
  H  H13  1  0.35195412  0.83561628  0.98978090  1
  H  H14  1  0.64804588  0.16438372  0.01021910  1
  H  H15  1  0.77963824  0.14942047  0.12616250  1
  H  H16  1  0.29956773  0.66522875  0.91519715  1
  H  H17  1  0.77963824  0.64942047  0.37383750  1
  H  H18  1  0.98940018  0.73110201  0.95841817  1
  H  H19  1  0.35195412  0.33561628  0.51021910  1
  C  C20  1  0.30857485  0.71667378  0.65650127  1
  C  C21  1  0.69142515  0.28332622  0.34349873  1
  C  C22  1  0.41197075  0.62496345  0.17225055  1
  C  C23  1  0.30857485  0.21667378  0.84349873  1
  C  C24  1  0.69142515  0.78332622  0.15650127  1
  C  C25  1  0.58802925  0.87503655  0.67225055  1
  C  C26  1  0.41197075  0.12496345  0.32774945  1
  C  C27  1  0.58802925  0.37503655  0.82774945  1
  N  N28  1  0.21348736  0.27254048  0.56577827  1
  N  N29  1  0.21348736  0.77254048  0.93422173  1
  N  N30  1  0.78651264  0.72745952  0.43422173  1
  N  N31  1  0.78651264  0.22745952  0.06577827  1
  O  O32  1  0.66110632  0.91214250  0.76507614  1
  O  O33  1  0.85767610  0.33512341  0.26890835  1
  O  O34  1  0.27546333  0.15338470  0.92822428  1
  O  O35  1  0.14232390  0.16487659  0.76890835  1
  O  O36  1  0.33889368  0.08785750  0.23492386  1
  O  O37  1  0.33889368  0.58785750  0.26507614  1
  O  O38  1  0.72734278  0.45236412  0.89796454  1
  O  O39  1  0.72734278  0.95236412  0.60203546  1
  O  O40  1  0.66110632  0.41214250  0.73492386  1
  O  O41  1  0.72453667  0.34661530  0.42822428  1
  O  O42  1  0.85767610  0.83512341  0.23109165  1
  O  O43  1  0.27265722  0.54763588  0.10203546  1
  O  O44  1  0.27546333  0.65338470  0.57177572  1
  O  O45  1  0.72453667  0.84661530  0.07177572  1
  O  O46  1  0.27265722  0.04763588  0.39796454  1
  O  O47  1  0.14232390  0.66487659  0.73109165  1
