# generated using pymatgen
data_NbSNCl6
_symmetry_space_group_name_H-M   'P 1'
_cell_length_a   6.52529224
_cell_length_b   12.42937599
_cell_length_c   13.00250967
_cell_angle_alpha   83.40854789
_cell_angle_beta   78.48060752
_cell_angle_gamma   82.40952932
_symmetry_Int_Tables_number   1
_chemical_formula_structural   NbSNCl6
_chemical_formula_sum   'Nb4 S4 N4 Cl24'
_cell_volume   1020.02376904
_cell_formula_units_Z   4
loop_
 _symmetry_equiv_pos_site_id
 _symmetry_equiv_pos_as_xyz
  1  'x, y, z'
loop_
 _atom_site_type_symbol
 _atom_site_label
 _atom_site_symmetry_multiplicity
 _atom_site_fract_x
 _atom_site_fract_y
 _atom_site_fract_z
 _atom_site_occupancy
  Nb  Nb0  1  0.07632727  0.02733536  0.22053497  1
  Nb  Nb1  1  0.12108557  0.45983177  0.73452218  1
  Nb  Nb2  1  0.87891443  0.54016823  0.26547782  1
  Nb  Nb3  1  0.92367273  0.97266464  0.77946503  1
  S  S4  1  0.07963573  0.28580828  0.52830731  1
  S  S5  1  0.46376917  0.22565776  0.17179267  1
  S  S6  1  0.92036427  0.71419172  0.47169269  1
  S  S7  1  0.53623083  0.77434224  0.82820733  1
  N  N8  1  0.94106840  0.64093837  0.38961176  1
  N  N9  1  0.05893160  0.35906163  0.61038824  1
  N  N10  1  0.66282736  0.86427799  0.79057659  1
  N  N11  1  0.33717264  0.13572201  0.20942341  1
  Cl  Cl12  1  0.62236402  0.80985751  0.50960573  1
  Cl  Cl13  1  0.19854854  0.07567886  0.76764820  1
  Cl  Cl14  1  0.17024153  0.56287980  0.86302078  1
  Cl  Cl15  1  0.29323373  0.56015577  0.58481221  1
  Cl  Cl16  1  0.40682240  0.31873184  0.03042037  1
  Cl  Cl17  1  0.42874906  0.33890623  0.73717560  1
  Cl  Cl18  1  0.20134786  0.43122850  0.29846350  1
  Cl  Cl19  1  0.34448591  0.92582614  0.11190802  1
  Cl  Cl20  1  0.91356406  0.33807009  0.84643594  1
  Cl  Cl21  1  0.65551409  0.07417386  0.88809198  1
  Cl  Cl22  1  0.08643594  0.66192991  0.15356406  1
  Cl  Cl23  1  0.19063049  0.93365268  0.37257714  1
  Cl  Cl24  1  0.89594392  0.16673906  0.32624496  1
  Cl  Cl25  1  0.82975847  0.43712020  0.13697922  1
  Cl  Cl26  1  0.57125094  0.66109377  0.26282440  1
  Cl  Cl27  1  0.98630192  0.13734474  0.07041825  1
  Cl  Cl28  1  0.80145146  0.92432114  0.23235180  1
  Cl  Cl29  1  0.70676627  0.43984423  0.41518779  1
  Cl  Cl30  1  0.37763598  0.19014249  0.49039427  1
  Cl  Cl31  1  0.80936951  0.06634732  0.62742286  1
  Cl  Cl32  1  0.10405608  0.83326094  0.67375504  1
  Cl  Cl33  1  0.01369808  0.86265526  0.92958175  1
  Cl  Cl34  1  0.59317760  0.68126816  0.96957963  1
  Cl  Cl35  1  0.79865214  0.56877150  0.70153650  1
