# generated using pymatgen
data_PbN6
_symmetry_space_group_name_H-M   'P 1'
_cell_length_a   6.71394784
_cell_length_b   11.86657304
_cell_length_c   16.36776974
_cell_angle_alpha   90.00000000
_cell_angle_beta   90.00000000
_cell_angle_gamma   90.00000000
_symmetry_Int_Tables_number   1
_chemical_formula_structural   PbN6
_chemical_formula_sum   'Pb12 N72'
_cell_volume   1304.04562500
_cell_formula_units_Z   12
loop_
 _symmetry_equiv_pos_site_id
 _symmetry_equiv_pos_as_xyz
  1  'x, y, z'
loop_
 _atom_site_type_symbol
 _atom_site_label
 _atom_site_symmetry_multiplicity
 _atom_site_fract_x
 _atom_site_fract_y
 _atom_site_fract_z
 _atom_site_occupancy
  Pb  Pb0  1  0.94167016  0.12945272  0.75000000  1
  Pb  Pb1  1  0.44167016  0.37054728  0.75000000  1
  Pb  Pb2  1  0.05832984  0.87054728  0.25000000  1
  Pb  Pb3  1  0.55832984  0.62945272  0.25000000  1
  Pb  Pb4  1  0.16278591  0.62755439  0.91266593  1
  Pb  Pb5  1  0.66278591  0.87244561  0.58733407  1
  Pb  Pb6  1  0.83721409  0.37244561  0.41266593  1
  Pb  Pb7  1  0.33721409  0.12755439  0.08733407  1
  Pb  Pb8  1  0.83721409  0.37244561  0.08733407  1
  Pb  Pb9  1  0.33721409  0.12755439  0.41266593  1
  Pb  Pb10  1  0.16278591  0.62755439  0.58733407  1
  Pb  Pb11  1  0.66278591  0.87244561  0.91266593  1
  N  N12  1  0.34883273  0.77755303  0.82238495  1
  N  N13  1  0.84883273  0.72244697  0.67761505  1
  N  N14  1  0.65116727  0.22244697  0.32238495  1
  N  N15  1  0.15116727  0.27755303  0.17761505  1
  N  N16  1  0.65116727  0.22244697  0.17761505  1
  N  N17  1  0.15116727  0.27755303  0.32238495  1
  N  N18  1  0.34883273  0.77755303  0.67761505  1
  N  N19  1  0.84883273  0.72244697  0.82238495  1
  N  N20  1  0.34744030  0.77633611  0.75000000  1
  N  N21  1  0.84744030  0.72366389  0.75000000  1
  N  N22  1  0.65255970  0.22366389  0.25000000  1
  N  N23  1  0.15255970  0.27633611  0.25000000  1
  N  N24  1  0.06932408  0.24004549  0.00274064  1
  N  N25  1  0.56932408  0.25995451  0.49725936  1
  N  N26  1  0.93067592  0.75995451  0.50274064  1
  N  N27  1  0.43067592  0.74004549  0.99725936  1
  N  N28  1  0.93067592  0.75995451  0.99725936  1
  N  N29  1  0.43067592  0.74004549  0.50274064  1
  N  N30  1  0.06932408  0.24004549  0.49725936  1
  N  N31  1  0.56932408  0.25995451  0.00274064  1
  N  N32  1  0.10957498  0.26350012  0.93348278  1
  N  N33  1  0.60957498  0.23649988  0.56651722  1
  N  N34  1  0.89042502  0.73649988  0.43348278  1
  N  N35  1  0.39042502  0.76350012  0.06651722  1
  N  N36  1  0.89042502  0.73649988  0.06651722  1
  N  N37  1  0.39042502  0.76350012  0.43348278  1
  N  N38  1  0.10957498  0.26350012  0.56651722  1
  N  N39  1  0.60957498  0.23649988  0.93348278  1
  N  N40  1  0.14772825  0.28519430  0.86525704  1
  N  N41  1  0.64772825  0.21480570  0.63474296  1
  N  N42  1  0.85227175  0.71480570  0.36525704  1
  N  N43  1  0.35227175  0.78519430  0.13474296  1
  N  N44  1  0.85227175  0.71480570  0.13474296  1
  N  N45  1  0.35227175  0.78519430  0.36525704  1
  N  N46  1  0.14772825  0.28519430  0.63474296  1
  N  N47  1  0.64772825  0.21480570  0.86525704  1
  N  N48  1  0.50594840  0.50427768  0.87145707  1
  N  N49  1  0.00594840  0.99572232  0.62854293  1
  N  N50  1  0.49405160  0.49572232  0.37145707  1
  N  N51  1  0.99405160  0.00427768  0.12854293  1
  N  N52  1  0.49405160  0.49572232  0.12854293  1
  N  N53  1  0.99405160  0.00427768  0.37145707  1
  N  N54  1  0.50594840  0.50427768  0.62854293  1
  N  N55  1  0.00594840  0.99572232  0.87145707  1
  N  N56  1  0.65697889  0.50027448  0.90939608  1
  N  N57  1  0.15697889  0.99972552  0.59060392  1
  N  N58  1  0.34302111  0.49972552  0.40939608  1
  N  N59  1  0.84302111  0.00027448  0.09060392  1
  N  N60  1  0.34302111  0.49972552  0.09060392  1
  N  N61  1  0.84302111  0.00027448  0.40939608  1
  N  N62  1  0.65697889  0.50027448  0.59060392  1
  N  N63  1  0.15697889  0.99972552  0.90939608  1
  N  N64  1  0.80696740  0.49673113  0.94698437  1
  N  N65  1  0.30696740  0.00326887  0.55301563  1
  N  N66  1  0.19303260  0.50326887  0.44698437  1
  N  N67  1  0.69303260  0.99673113  0.05301563  1
  N  N68  1  0.19303260  0.50326887  0.05301563  1
  N  N69  1  0.69303260  0.99673113  0.44698437  1
  N  N70  1  0.80696740  0.49673113  0.55301563  1
  N  N71  1  0.30696740  0.00326887  0.94698437  1
  N  N72  1  0.13921390  0.51043619  0.75000000  1
  N  N73  1  0.63921390  0.98956381  0.75000000  1
  N  N74  1  0.86078610  0.48956381  0.25000000  1
  N  N75  1  0.36078610  0.01043619  0.25000000  1
  N  N76  1  0.98450283  0.45937066  0.75000000  1
  N  N77  1  0.48450283  0.04062934  0.75000000  1
  N  N78  1  0.01549717  0.54062934  0.25000000  1
  N  N79  1  0.51549717  0.95937066  0.25000000  1
  N  N80  1  0.83607689  0.40795624  0.75000000  1
  N  N81  1  0.33607689  0.09204376  0.75000000  1
  N  N82  1  0.16392311  0.59204376  0.25000000  1
  N  N83  1  0.66392311  0.90795624  0.25000000  1
