# generated using pymatgen
data_V2Cu3Pb(ClO4)2
_symmetry_space_group_name_H-M   'P 1'
_cell_length_a   8.83687664
_cell_length_b   8.83687713
_cell_length_c   8.83687651
_cell_angle_alpha   105.44798664
_cell_angle_beta   113.35014564
_cell_angle_gamma   109.71169478
_symmetry_Int_Tables_number   1
_chemical_formula_structural   V2Cu3Pb(ClO4)2
_chemical_formula_sum   'V4 Cu6 Pb2 Cl4 O16'
_cell_volume   528.69763727
_cell_formula_units_Z   2
loop_
 _symmetry_equiv_pos_site_id
 _symmetry_equiv_pos_as_xyz
  1  'x, y, z'
loop_
 _atom_site_type_symbol
 _atom_site_label
 _atom_site_symmetry_multiplicity
 _atom_site_fract_x
 _atom_site_fract_y
 _atom_site_fract_z
 _atom_site_occupancy
  V  V0  1  0.25000000  0.81243220  0.06243220  1
  V  V1  1  0.75000000  0.81243220  0.56243220  1
  V  V2  1  0.75000000  0.18756780  0.93756780  1
  V  V3  1  0.25000000  0.18756780  0.43756780  1
  Cu  Cu4  1  -0.00000000  -0.00000000  -0.00000000  1
  Cu  Cu5  1  0.70037870  0.44372882  0.74335012  1
  Cu  Cu6  1  0.29962130  0.55627118  0.25664988  1
  Cu  Cu7  1  0.20037870  0.95702758  0.75664988  1
  Cu  Cu8  1  0.50000000  -0.00000000  0.50000000  1
  Cu  Cu9  1  0.79962130  0.04297242  0.24335012  1
  Pb  Pb10  1  0.25000000  0.50000000  0.75000000  1
  Pb  Pb11  1  0.75000000  0.50000000  0.25000000  1
  Cl  Cl12  1  0.66125082  0.74294003  0.08168921  1
  Cl  Cl13  1  0.83874918  0.42043739  0.58168921  1
  Cl  Cl14  1  0.33874918  0.25705997  0.91831079  1
  Cl  Cl15  1  0.16125082  0.57956261  0.41831079  1
  O  O16  1  0.44498430  0.39596093  0.62452026  1
  O  O17  1  0.04571130  0.81809059  0.03786923  1
  O  O18  1  0.78022236  0.81809059  0.77238028  1
  O  O19  1  0.55501570  0.60403907  0.37547974  1
  O  O20  1  0.05501570  0.17953596  0.45097663  1
  O  O21  1  0.95428870  0.18190941  0.96213077  1
  O  O22  1  0.22855933  0.60403907  0.04902337  1
  O  O23  1  0.71977764  0.99215792  0.53786923  1
  O  O24  1  0.72855933  0.17953596  0.12452026  1
  O  O25  1  0.54571130  0.00784208  0.72761972  1
  O  O26  1  0.94498430  0.82046404  0.54902337  1
  O  O27  1  0.27144067  0.82046404  0.87547974  1
  O  O28  1  0.45428870  0.99215792  0.27238028  1
  O  O29  1  0.77144067  0.39596093  0.95097663  1
  O  O30  1  0.21977764  0.18190941  0.22761972  1
  O  O31  1  0.28022236  0.00784208  0.46213077  1
