# generated using pymatgen
data_Ag9(SI)4
_symmetry_space_group_name_H-M   'P 1'
_cell_length_a   4.12861405
_cell_length_b   4.12861448
_cell_length_c   32.98493439
_cell_angle_alpha   117.84810872
_cell_angle_beta   94.27216307
_cell_angle_gamma   117.32890812
_symmetry_Int_Tables_number   1
_chemical_formula_structural   Ag9(SI)4
_chemical_formula_sum   'Ag9 S4 I4'
_cell_volume   410.67560224
_cell_formula_units_Z   1
loop_
 _symmetry_equiv_pos_site_id
 _symmetry_equiv_pos_as_xyz
  1  'x, y, z'
loop_
 _atom_site_type_symbol
 _atom_site_label
 _atom_site_symmetry_multiplicity
 _atom_site_fract_x
 _atom_site_fract_y
 _atom_site_fract_z
 _atom_site_occupancy
  Ag  Ag0  1  0.62873847  0.15280197  0.97269255  1
  Ag  Ag1  1  0.56595540  0.05430668  0.82753276  1
  Ag  Ag2  1  0.50517209  0.00666632  0.68897980  1
  Ag  Ag3  1  0.44441061  0.96186237  0.55078412  1
  Ag  Ag4  1  0.37996861  0.87712979  0.40713730  1
  Ag  Ag5  1  0.47098601  0.07256487  0.31794386  1
  Ag  Ag6  1  0.35436664  0.38358681  0.21724418  1
  Ag  Ag7  1  0.57158936  0.70815138  0.15996759  1
  Ag  Ag8  1  0.53818207  0.95610246  0.06178557  1
  S  S9  1  0.92080066  0.01900940  0.36747626  1
  S  S10  1  0.08683269  0.00871245  0.01194314  1
  S  S11  1  0.02375972  0.06825581  0.26150194  1
  S  S12  1  0.98867384  0.95450029  0.11789677  1
  I  I13  1  0.09056056  0.03968741  0.89128100  1
  I  I14  1  0.03458492  0.01608453  0.75633368  1
  I  I15  1  0.97557319  0.99509096  0.62133302  1
  I  I16  1  0.91984517  0.97548652  0.48691646  1
