# generated using pymatgen
data_CuPO4
_symmetry_space_group_name_H-M   'P 1'
_cell_length_a   8.75627172
_cell_length_b   8.75446850
_cell_length_c   8.75306485
_cell_angle_alpha   108.60774441
_cell_angle_beta   108.59616183
_cell_angle_gamma   108.65850056
_symmetry_Int_Tables_number   1
_chemical_formula_structural   CuPO4
_chemical_formula_sum   'Cu6 P6 O24'
_cell_volume   532.16183661
_cell_formula_units_Z   6
loop_
 _symmetry_equiv_pos_site_id
 _symmetry_equiv_pos_as_xyz
  1  'x, y, z'
loop_
 _atom_site_type_symbol
 _atom_site_label
 _atom_site_symmetry_multiplicity
 _atom_site_fract_x
 _atom_site_fract_y
 _atom_site_fract_z
 _atom_site_occupancy
  Cu  Cu0  1  0.52731238  0.75802710  0.94374285  1
  Cu  Cu1  1  0.75800933  0.94366974  0.52723547  1
  Cu  Cu2  1  0.94381585  0.52727938  0.75810297  1
  Cu  Cu3  1  0.23242911  0.03597239  0.45291240  1
  Cu  Cu4  1  0.45288969  0.23243566  0.03595621  1
  Cu  Cu5  1  0.03595955  0.45286516  0.23238474  1
  P  P6  1  0.28360089  0.87993486  0.09383597  1
  P  P7  1  0.79193003  0.56993609  0.39012411  1
  P  P8  1  0.56983324  0.39007891  0.79188120  1
  P  P9  1  0.39008533  0.79195911  0.56990741  1
  P  P10  1  0.87991917  0.09371975  0.28352436  1
  P  P11  1  0.09383868  0.28354805  0.87993657  1
  O  O12  1  0.70270777  0.38124780  0.71313389  1
  O  O13  1  0.29974470  0.91875423  0.59189323  1
  O  O14  1  0.59188536  0.29974502  0.91876254  1
  O  O15  1  0.58884207  0.90797176  0.61798069  1
  O  O16  1  0.34047920  0.99472049  0.29533197  1
  O  O17  1  0.99763681  0.08153747  0.73227168  1
  O  O18  1  0.38123839  0.71314343  0.70273429  1
  O  O19  1  0.63354372  0.37298236  0.28846883  1
  O  O20  1  0.99468463  0.29527311  0.34048641  1
  O  O21  1  0.37294582  0.28845999  0.63354670  1
  O  O22  1  0.78421445  0.08563999  0.40517741  1
  O  O23  1  0.08154630  0.73227573  0.99766083  1
  O  O24  1  0.99873139  0.99776584  0.30737616  1
  O  O25  1  0.08566106  0.40518940  0.78422800  1
  O  O26  1  0.29526808  0.34045981  0.99467413  1
  O  O27  1  0.99774999  0.30737341  0.99872256  1
  O  O28  1  0.90795916  0.61799200  0.58882769  1
  O  O29  1  0.40516792  0.78424050  0.08563311  1
  O  O30  1  0.71315477  0.70270253  0.38122404  1
  O  O31  1  0.91875003  0.59192521  0.29974400  1
  O  O32  1  0.73229609  0.99766844  0.08155336  1
  O  O33  1  0.30739641  0.99875456  0.99774382  1
  O  O34  1  0.61798418  0.58886619  0.90797196  1
  O  O35  1  0.28849944  0.63359549  0.37301943  1
