# generated using pymatgen
data_Mn3SiNi2
_symmetry_space_group_name_H-M   'P 1'
_cell_length_a   7.54786191
_cell_length_b   7.55068854
_cell_length_c   7.54917387
_cell_angle_alpha   59.99522987
_cell_angle_beta   59.98824709
_cell_angle_gamma   59.99986093
_symmetry_Int_Tables_number   1
_chemical_formula_structural   Mn3SiNi2
_chemical_formula_sum   'Mn12 Si4 Ni8'
_cell_volume   304.18670601
_cell_formula_units_Z   4
loop_
 _symmetry_equiv_pos_site_id
 _symmetry_equiv_pos_as_xyz
  1  'x, y, z'
loop_
 _atom_site_type_symbol
 _atom_site_label
 _atom_site_symmetry_multiplicity
 _atom_site_fract_x
 _atom_site_fract_y
 _atom_site_fract_z
 _atom_site_occupancy
  Mn  Mn0  1  0.68477939  0.68479228  0.06520950  1
  Mn  Mn1  1  0.93486914  0.93481206  0.31515920  1
  Mn  Mn2  1  0.93480433  0.31521465  0.31521958  1
  Mn  Mn3  1  0.93484889  0.31514892  0.93485069  1
  Mn  Mn4  1  0.06523217  0.68477786  0.06521924  1
  Mn  Mn5  1  0.06522980  0.06521295  0.68477544  1
  Mn  Mn6  1  0.31518558  0.93480144  0.31520416  1
  Mn  Mn7  1  0.31512834  0.31514956  0.93488261  1
  Mn  Mn8  1  0.68472809  0.06524735  0.06528484  1
  Mn  Mn9  1  0.68477479  0.06522863  0.68476352  1
  Mn  Mn10  1  0.06527474  0.68476389  0.68472661  1
  Mn  Mn11  1  0.31522903  0.93474413  0.93480535  1
  Si  Si12  1  0.50005812  -0.00020652  0.49995750  1
  Si  Si13  1  0.50016312  0.49999978  -0.00025432  1
  Si  Si14  1  0.49996727  0.50018951  0.50005130  1
  Si  Si15  1  -0.00025330  0.50009867  0.50015151  1
  Ni  Ni16  1  0.28882998  0.28882461  0.28886442  1
  Ni  Ni17  1  0.28880522  0.28888014  0.63343001  1
  Ni  Ni18  1  0.71117337  0.71093368  0.71103899  1
  Ni  Ni19  1  0.71104002  0.71113372  0.36679711  1
  Ni  Ni20  1  0.63343177  0.28889184  0.28881730  1
  Ni  Ni21  1  0.71104260  0.36686252  0.71115366  1
  Ni  Ni22  1  0.36680104  0.71102094  0.71103257  1
  Ni  Ni23  1  0.28885651  0.63347738  0.28885922  1
