# generated using pymatgen
data_Tb14Ti10O41
_symmetry_space_group_name_H-M   'P 1'
_cell_length_a   7.29426345
_cell_length_b   7.31734919
_cell_length_c   21.82428687
_cell_angle_alpha   59.80615352
_cell_angle_beta   59.25020295
_cell_angle_gamma   59.89524729
_symmetry_Int_Tables_number   1
_chemical_formula_structural   Tb14Ti10O41
_chemical_formula_sum   'Tb14 Ti10 O41'
_cell_volume   817.08166604
_cell_formula_units_Z   1
loop_
 _symmetry_equiv_pos_site_id
 _symmetry_equiv_pos_as_xyz
  1  'x, y, z'
loop_
 _atom_site_type_symbol
 _atom_site_label
 _atom_site_symmetry_multiplicity
 _atom_site_fract_x
 _atom_site_fract_y
 _atom_site_fract_z
 _atom_site_occupancy
  Tb  Tb0  1  0.99738521  0.49568646  0.17041429  1
  Tb  Tb1  1  0.50029228  0.49731118  0.00169512  1
  Tb  Tb2  1  0.50177562  0.99772277  0.16724006  1
  Tb  Tb3  1  0.50177562  0.49878245  0.16724006  1
  Tb  Tb4  1  0.99630866  0.50120288  0.50042853  1
  Tb  Tb5  1  0.49190968  0.50654201  0.33166843  1
  Tb  Tb6  1  0.52771291  0.00650971  0.49121891  1
  Tb  Tb7  1  0.52771291  0.49212065  0.49121891  1
  Tb  Tb8  1  0.46478681  0.53064880  0.65797220  1
  Tb  Tb9  1  0.51171076  0.98863819  0.83403178  1
  Tb  Tb10  1  0.53446738  0.98479988  0.66531129  1
  Tb  Tb11  1  0.51171076  0.49755470  0.83403178  1
  Tb  Tb12  1  0.00092665  0.96822381  0.85420824  1
  Tb  Tb13  1  0.99795564  0.51192404  0.82606510  1
  Ti  Ti14  1  0.00419940  0.00220540  0.00393634  1
  Ti  Ti15  1  0.00419940  0.48178618  0.00393634  1
  Ti  Ti16  1  0.49279885  0.00120293  0.00159843  1
  Ti  Ti17  1  0.00583085  0.49906684  0.33215300  1
  Ti  Ti18  1  0.99394364  0.99981744  0.50214049  1
  Ti  Ti19  1  0.00209199  0.99514382  0.16920712  1
  Ti  Ti20  1  0.50131209  0.99913319  0.33347351  1
  Ti  Ti21  1  0.00583085  0.99864230  0.33215300  1
  Ti  Ti22  1  0.00551589  0.47761012  0.66945685  1
  Ti  Ti23  1  0.00551589  0.00850444  0.66945685  1
  O  O24  1  0.07432130  0.69772604  0.01007587  1
  O  O25  1  0.07873552  0.07847026  0.22270783  1
  O  O26  1  0.69626358  0.06730423  0.01482279  1
  O  O27  1  0.37504495  0.37254726  0.12662018  1
  O  O28  1  0.07873552  0.67466972  0.22270783  1
  O  O29  1  0.08808354  0.67897694  0.35132086  1
  O  O30  1  0.33700695  0.91268447  0.11254137  1
  O  O31  1  0.00374468  0.08215389  0.56805132  1
  O  O32  1  0.33087891  0.33131000  0.30367860  1
  O  O33  1  0.67542862  0.07574786  0.22435822  1
  O  O34  1  0.69626358  0.69196483  0.01482279  1
  O  O35  1  0.91413007  0.33703404  0.11374154  1
  O  O36  1  0.66839979  0.08362643  0.35775993  1
  O  O37  1  0.62374268  0.62673640  0.20759451  1
  O  O38  1  0.33087891  0.92677629  0.30367860  1
  O  O39  1  0.36603774  0.38287541  0.45607015  1
  O  O40  1  0.00374468  0.70994847  0.56805132  1
  O  O41  1  0.06136624  0.67714677  0.69477974  1
  O  O42  1  0.31788905  0.92775570  0.44219952  1
  O  O43  1  0.32716858  0.36155461  0.62997993  1
  O  O44  1  0.12726638  0.13584659  0.88492654  1
  O  O45  1  0.65992938  0.11544248  0.53639556  1
  O  O46  1  0.92247399  0.33162330  0.30476014  1
  O  O47  1  0.91413007  0.90761126  0.11374154  1
  O  O48  1  0.66839979  0.67469398  0.35775993  1
  O  O49  1  0.92626790  0.34850492  0.43968003  1
  O  O50  1  0.63080140  0.15082659  0.70711949  1
  O  O51  1  0.62239220  0.63243754  0.53757791  1
  O  O52  1  0.32716858  0.92133703  0.62997993  1
  O  O53  1  0.12726638  0.58210740  0.88492654  1
  O  O54  1  0.36828739  0.87966346  0.79079557  1
  O  O55  1  0.32545734  0.32046635  0.98902463  1
  O  O56  1  0.92626790  0.90618610  0.43968003  1
  O  O57  1  0.97977597  0.31742942  0.62845506  1
  O  O58  1  0.61149895  0.11338141  0.88724607  1
  O  O59  1  0.63080140  0.59701253  0.70711949  1
  O  O60  1  0.93515020  0.33111367  0.77563715  1
  O  O61  1  0.64040278  0.61510542  0.87646212  1
  O  O62  1  0.32545734  0.88700141  0.98902463  1
  O  O63  1  0.93515020  0.90682567  0.77563715  1
  O  O64  1  0.88511981  0.31259363  0.99656398  1
