# generated using pymatgen
data_V3(HO4)2
_symmetry_space_group_name_H-M   'P 1'
_cell_length_a   17.14094933
_cell_length_b   9.63115065
_cell_length_c   3.68967393
_cell_angle_alpha   90.00000000
_cell_angle_beta   90.00000000
_cell_angle_gamma   90.00000000
_symmetry_Int_Tables_number   1
_chemical_formula_structural   V3(HO4)2
_chemical_formula_sum   'V12 H8 O32'
_cell_volume   609.11744095
_cell_formula_units_Z   4
loop_
 _symmetry_equiv_pos_site_id
 _symmetry_equiv_pos_as_xyz
  1  'x, y, z'
loop_
 _atom_site_type_symbol
 _atom_site_label
 _atom_site_symmetry_multiplicity
 _atom_site_fract_x
 _atom_site_fract_y
 _atom_site_fract_z
 _atom_site_occupancy
  V  V0  1  0.54935910  0.37459238  0.25328373  1
  V  V1  1  0.04935910  0.12540762  0.25328373  1
  V  V2  1  0.45064090  0.62540762  0.75328373  1
  V  V3  1  0.95064090  0.87459238  0.75328373  1
  V  V4  1  0.34656437  0.44198226  0.26010043  1
  V  V5  1  0.84656437  0.05801774  0.26010043  1
  V  V6  1  0.65343563  0.55801774  0.76010043  1
  V  V7  1  0.15343563  0.94198226  0.76010043  1
  V  V8  1  0.95059354  0.40524784  0.23742912  1
  V  V9  1  0.45059354  0.09475216  0.23742912  1
  V  V10  1  0.04940646  0.59475216  0.73742912  1
  V  V11  1  0.54940646  0.90524784  0.73742912  1
  H  H12  1  0.23394894  0.25874228  0.31891320  1
  H  H13  1  0.73394894  0.24125772  0.31891320  1
  H  H14  1  0.76605106  0.74125772  0.81891320  1
  H  H15  1  0.26605106  0.75874228  0.81891320  1
  H  H16  1  0.23329878  0.57986550  0.40127028  1
  H  H17  1  0.73329878  0.92013450  0.40127028  1
  H  H18  1  0.76670122  0.42013450  0.90127028  1
  H  H19  1  0.26670122  0.07986550  0.90127028  1
  O  O20  1  0.45571283  0.57286570  0.25035590  1
  O  O21  1  0.95571283  0.92713430  0.25035590  1
  O  O22  1  0.54428717  0.42713430  0.75035590  1
  O  O23  1  0.04428717  0.07286570  0.75035590  1
  O  O24  1  0.60307159  0.23559282  0.25325127  1
  O  O25  1  0.10307159  0.26440718  0.25325127  1
  O  O26  1  0.39692841  0.76440718  0.75325127  1
  O  O27  1  0.89692841  0.73559282  0.75325127  1
  O  O28  1  0.62379048  0.52584174  0.24856737  1
  O  O29  1  0.12379048  0.97415826  0.24856737  1
  O  O30  1  0.37620952  0.47415826  0.74856737  1
  O  O31  1  0.87620952  0.02584174  0.74856737  1
  O  O32  1  0.44878562  0.28527305  0.24521829  1
  O  O33  1  0.94878562  0.21472695  0.24521829  1
  O  O34  1  0.55121438  0.71472695  0.74521829  1
  O  O35  1  0.05121438  0.78527305  0.74521829  1
  O  O36  1  0.28472318  0.29588712  0.24769185  1
  O  O37  1  0.78472318  0.20411288  0.24769185  1
  O  O38  1  0.71527682  0.70411288  0.74769185  1
  O  O39  1  0.21527682  0.79588712  0.74769185  1
  O  O40  1  0.27727586  0.58535255  0.22990773  1
  O  O41  1  0.77727586  0.91464745  0.22990773  1
  O  O42  1  0.72272414  0.41464745  0.72990773  1
  O  O43  1  0.22272414  0.08535255  0.72990773  1
  O  O44  1  0.01871185  0.57357445  0.23876018  1
  O  O45  1  0.51871185  0.92642555  0.23876018  1
  O  O46  1  0.98128815  0.42642555  0.73876018  1
  O  O47  1  0.48128815  0.07357445  0.73876018  1
  O  O48  1  0.86103803  0.45506509  0.22864464  1
  O  O49  1  0.36103803  0.04493491  0.22864464  1
  O  O50  1  0.13896197  0.54493491  0.72864464  1
  O  O51  1  0.63896197  0.95506509  0.72864464  1
