# generated using pymatgen
data_Nb2Ni4O9
_symmetry_space_group_name_H-M   'P 1'
_cell_length_a   5.12253278
_cell_length_b   8.81251517
_cell_length_c   14.49088224
_cell_angle_alpha   90.00000000
_cell_angle_beta   90.00000000
_cell_angle_gamma   90.00000000
_symmetry_Int_Tables_number   1
_chemical_formula_structural   Nb2Ni4O9
_chemical_formula_sum   'Nb8 Ni16 O36'
_cell_volume   654.15317102
_cell_formula_units_Z   4
loop_
 _symmetry_equiv_pos_site_id
 _symmetry_equiv_pos_as_xyz
  1  'x, y, z'
loop_
 _atom_site_type_symbol
 _atom_site_label
 _atom_site_symmetry_multiplicity
 _atom_site_fract_x
 _atom_site_fract_y
 _atom_site_fract_z
 _atom_site_occupancy
  Nb  Nb0  1  0.00168953  0.03084915  0.35531508  1
  Nb  Nb1  1  0.50168953  0.46915085  0.35531508  1
  Nb  Nb2  1  0.49831047  0.46915085  0.85531508  1
  Nb  Nb3  1  0.99831047  0.03084915  0.85531508  1
  Nb  Nb4  1  0.00168953  0.96915085  0.14468492  1
  Nb  Nb5  1  0.50168953  0.53084915  0.14468492  1
  Nb  Nb6  1  0.99831047  0.96915085  0.64468492  1
  Nb  Nb7  1  0.49831047  0.53084915  0.64468492  1
  Ni  Ni8  1  0.50546976  0.16471697  0.00293307  1
  Ni  Ni9  1  0.99897174  0.33724252  0.18674817  1
  Ni  Ni10  1  0.99453024  0.66471697  0.99706693  1
  Ni  Ni11  1  0.50102826  0.83724252  0.81325183  1
  Ni  Ni12  1  0.00546976  0.33528303  0.00293307  1
  Ni  Ni13  1  0.00102826  0.66275748  0.81325183  1
  Ni  Ni14  1  0.99453024  0.33528303  0.50293307  1
  Ni  Ni15  1  0.99897174  0.66275748  0.31325183  1
  Ni  Ni16  1  0.49897174  0.83724252  0.31325183  1
  Ni  Ni17  1  0.49897174  0.16275748  0.18674817  1
  Ni  Ni18  1  0.00546976  0.66471697  0.49706693  1
  Ni  Ni19  1  0.49453024  0.83528303  0.99706693  1
  Ni  Ni20  1  0.50546976  0.83528303  0.49706693  1
  Ni  Ni21  1  0.50102826  0.16275748  0.68674817  1
  Ni  Ni22  1  0.00102826  0.33724252  0.68674817  1
  Ni  Ni23  1  0.49453024  0.16471697  0.50293307  1
  O  O24  1  0.85300003  0.85045412  0.74917798  1
  O  O25  1  0.67268753  0.33500504  0.59705802  1
  O  O26  1  0.82731247  0.83500504  0.40294198  1
  O  O27  1  0.17268753  0.16499496  0.59705802  1
  O  O28  1  0.29030465  0.00000000  0.75000000  1
  O  O29  1  0.32954685  0.67097132  0.07105198  1
  O  O30  1  0.17045315  0.82902868  0.57105198  1
  O  O31  1  0.66553372  0.00380320  0.58517787  1
  O  O32  1  0.67045315  0.67097132  0.57105198  1
  O  O33  1  0.82954685  0.82902868  0.07105198  1
  O  O34  1  0.17268753  0.83500504  0.90294198  1
  O  O35  1  0.32731247  0.66499496  0.40294198  1
  O  O36  1  0.83446628  0.49619680  0.08517787  1
  O  O37  1  0.14699997  0.85045412  0.24917798  1
  O  O38  1  0.16553372  0.49619680  0.58517787  1
  O  O39  1  0.35300003  0.35045412  0.75082202  1
  O  O40  1  0.82731247  0.16499496  0.09705802  1
  O  O41  1  0.33446628  0.99619680  0.41482213  1
  O  O42  1  0.17045315  0.17097132  0.92894802  1
  O  O43  1  0.70969535  0.00000000  0.25000000  1
  O  O44  1  0.64699997  0.64954588  0.24917798  1
  O  O45  1  0.64699997  0.35045412  0.25082202  1
  O  O46  1  0.85300003  0.14954588  0.75082202  1
  O  O47  1  0.66553372  0.99619680  0.91482213  1
  O  O48  1  0.20969535  0.50000000  0.25000000  1
  O  O49  1  0.33446628  0.00380320  0.08517787  1
  O  O50  1  0.32731247  0.33500504  0.09705802  1
  O  O51  1  0.83446628  0.50380320  0.41482213  1
  O  O52  1  0.79030465  0.50000000  0.75000000  1
  O  O53  1  0.32954685  0.32902868  0.42894802  1
  O  O54  1  0.82954685  0.17097132  0.42894802  1
  O  O55  1  0.16553372  0.50380320  0.91482213  1
  O  O56  1  0.35300003  0.64954588  0.74917798  1
  O  O57  1  0.67045315  0.32902868  0.92894802  1
  O  O58  1  0.14699997  0.14954588  0.25082202  1
  O  O59  1  0.67268753  0.66499496  0.90294198  1
