# generated using pymatgen
data_BaH2CSNClO
_symmetry_space_group_name_H-M   'P 1'
_cell_length_a   5.91767792
_cell_length_b   4.82010837
_cell_length_c   20.41847487
_cell_angle_alpha   90.00000000
_cell_angle_beta   90.00000000
_cell_angle_gamma   90.00000000
_symmetry_Int_Tables_number   1
_chemical_formula_structural   BaH2CSNClO
_chemical_formula_sum   'Ba4 H8 C4 S4 N4 Cl4 O4'
_cell_volume   582.41349141
_cell_formula_units_Z   4
loop_
 _symmetry_equiv_pos_site_id
 _symmetry_equiv_pos_as_xyz
  1  'x, y, z'
loop_
 _atom_site_type_symbol
 _atom_site_label
 _atom_site_symmetry_multiplicity
 _atom_site_fract_x
 _atom_site_fract_y
 _atom_site_fract_z
 _atom_site_occupancy
  Ba  Ba0  1  0.76182617  0.25000000  0.08259205  1
  Ba  Ba1  1  0.26182617  0.25000000  0.41740795  1
  Ba  Ba2  1  0.23817383  0.75000000  0.91740795  1
  Ba  Ba3  1  0.73817383  0.75000000  0.58259205  1
  H  H4  1  0.88844886  0.08765422  0.24325532  1
  H  H5  1  0.38844886  0.41234578  0.25674468  1
  H  H6  1  0.11155114  0.58765422  0.75674468  1
  H  H7  1  0.61155114  0.91234578  0.74325532  1
  H  H8  1  0.11155114  0.91234578  0.75674468  1
  H  H9  1  0.61155114  0.58765422  0.74325532  1
  H  H10  1  0.88844886  0.41234578  0.24325532  1
  H  H11  1  0.38844886  0.08765422  0.25674468  1
  C  C12  1  0.19464285  0.75000000  0.14438789  1
  C  C13  1  0.69464285  0.75000000  0.35561211  1
  C  C14  1  0.80535715  0.25000000  0.85561211  1
  C  C15  1  0.30535715  0.25000000  0.64438789  1
  S  S16  1  0.45838696  0.75000000  0.16883753  1
  S  S17  1  0.95838696  0.75000000  0.33116247  1
  S  S18  1  0.54161304  0.25000000  0.83116247  1
  S  S19  1  0.04161304  0.25000000  0.66883753  1
  N  N20  1  0.00331774  0.75000000  0.12751295  1
  N  N21  1  0.50331774  0.75000000  0.37248705  1
  N  N22  1  0.99668226  0.25000000  0.87248705  1
  N  N23  1  0.49668226  0.25000000  0.62751295  1
  Cl  Cl24  1  0.26208682  0.25000000  0.02108440  1
  Cl  Cl25  1  0.76208682  0.25000000  0.47891560  1
  Cl  Cl26  1  0.73791318  0.75000000  0.97891560  1
  Cl  Cl27  1  0.23791318  0.75000000  0.52108440  1
  O  O28  1  0.85360997  0.25000000  0.21595969  1
  O  O29  1  0.35360997  0.25000000  0.28404031  1
  O  O30  1  0.14639003  0.75000000  0.78404031  1
  O  O31  1  0.64639003  0.75000000  0.71595969  1
