# generated using pymatgen
data_BiP2O7
_symmetry_space_group_name_H-M   'P 1'
_cell_length_a   5.23969505
_cell_length_b   8.67233284
_cell_length_c   12.41762334
_cell_angle_alpha   90.00000000
_cell_angle_beta   89.40940675
_cell_angle_gamma   90.00000000
_symmetry_Int_Tables_number   1
_chemical_formula_structural   BiP2O7
_chemical_formula_sum   'Bi4 P8 O28'
_cell_volume   564.23154062
_cell_formula_units_Z   4
loop_
 _symmetry_equiv_pos_site_id
 _symmetry_equiv_pos_as_xyz
  1  'x, y, z'
loop_
 _atom_site_type_symbol
 _atom_site_label
 _atom_site_symmetry_multiplicity
 _atom_site_fract_x
 _atom_site_fract_y
 _atom_site_fract_z
 _atom_site_occupancy
  Bi  Bi0  1  0.69109530  0.79983306  0.72827359  1
  Bi  Bi1  1  0.19109530  0.70016694  0.22827359  1
  Bi  Bi2  1  0.80890470  0.29983306  0.77172641  1
  Bi  Bi3  1  0.30890470  0.20016694  0.27172641  1
  P  P4  1  0.27025922  0.03826300  0.83522030  1
  P  P5  1  0.81432756  0.21278749  0.47922123  1
  P  P6  1  0.18567244  0.78721251  0.52077877  1
  P  P7  1  0.31432756  0.28721251  0.97922123  1
  P  P8  1  0.22974078  0.53826300  0.66477970  1
  P  P9  1  0.77025922  0.46173700  0.33522030  1
  P  P10  1  0.68567244  0.71278749  0.02077877  1
  P  P11  1  0.72974078  0.96173700  0.16477970  1
  O  O12  1  0.97247340  0.37517631  0.27067214  1
  O  O13  1  0.02752660  0.62482369  0.72932786  1
  O  O14  1  0.75536908  0.18796211  0.59757203  1
  O  O15  1  0.63219022  0.12748279  0.40358180  1
  O  O16  1  0.59043950  0.33059618  0.94885581  1
  O  O17  1  0.49293159  0.43352245  0.29485004  1
  O  O18  1  0.27388312  0.10266930  0.95795449  1
  O  O19  1  0.13219022  0.37251721  0.90358180  1
  O  O20  1  0.50706841  0.56647755  0.70514996  1
  O  O21  1  0.67376287  0.13404087  0.16151508  1
  O  O22  1  0.72611688  0.89733070  0.04204551  1
  O  O23  1  0.77388312  0.39733070  0.45795449  1
  O  O24  1  0.17376187  0.36595913  0.66151508  1
  O  O25  1  0.86780978  0.62748279  0.09641820  1
  O  O26  1  0.22611688  0.60266930  0.54204551  1
  O  O27  1  0.09043950  0.16940382  0.44885581  1
  O  O28  1  0.90956050  0.83059618  0.55114419  1
  O  O29  1  0.36780978  0.87251721  0.59641820  1
  O  O30  1  0.99293159  0.06647755  0.79485004  1
  O  O31  1  0.32623713  0.86595913  0.83848492  1
  O  O32  1  0.40956050  0.66940382  0.05114419  1
  O  O33  1  0.74463092  0.68796211  0.90242797  1
  O  O34  1  0.25536908  0.31203789  0.09757203  1
  O  O35  1  0.82623713  0.63404087  0.33848492  1
  O  O36  1  0.24463092  0.81203789  0.40242797  1
  O  O37  1  0.47247340  0.12482369  0.77067214  1
  O  O38  1  0.00706841  0.93352245  0.20514996  1
  O  O39  1  0.52752660  0.87517631  0.22932786  1
