# generated using pymatgen
data_MnPO4
_symmetry_space_group_name_H-M   'P 1'
_cell_length_a   9.70897095
_cell_length_b   5.62352899
_cell_length_c   6.33029747
_cell_angle_alpha   103.31237277
_cell_angle_beta   103.38363434
_cell_angle_gamma   79.73838388
_symmetry_Int_Tables_number   1
_chemical_formula_structural   MnPO4
_chemical_formula_sum   'Mn4 P4 O16'
_cell_volume   324.34673434
_cell_formula_units_Z   4
loop_
 _symmetry_equiv_pos_site_id
 _symmetry_equiv_pos_as_xyz
  1  'x, y, z'
loop_
 _atom_site_type_symbol
 _atom_site_label
 _atom_site_symmetry_multiplicity
 _atom_site_fract_x
 _atom_site_fract_y
 _atom_site_fract_z
 _atom_site_occupancy
  Mn  Mn0  1  0.67383983  0.12896938  0.39481716  1
  Mn  Mn1  1  0.07847464  0.27447605  0.32442583  1
  Mn  Mn2  1  0.32616017  0.87103062  0.60518284  1
  Mn  Mn3  1  0.92152536  0.72552395  0.67557417  1
  P  P4  1  0.95093769  0.81534233  0.19922036  1
  P  P5  1  0.41487826  0.31560410  0.66766891  1
  P  P6  1  0.04906231  0.18465767  0.80077964  1
  P  P7  1  0.58512174  0.68439590  0.33233109  1
  O  O8  1  0.09885411  0.89930120  0.23178625  1
  O  O9  1  0.96033196  0.62103128  0.35075470  1
  O  O10  1  0.35494481  0.58744845  0.74241481  1
  O  O11  1  0.03966804  0.37896872  0.64924530  1
  O  O12  1  0.42577032  0.15293016  0.83653646  1
  O  O13  1  0.64505519  0.41255155  0.25758519  1
  O  O14  1  0.85601632  0.04985519  0.29031010  1
  O  O15  1  0.69810803  0.81710544  0.53044838  1
  O  O16  1  0.89113808  0.69422896  0.96007186  1
  O  O17  1  0.57422968  0.84706984  0.16346354  1
  O  O18  1  0.10886192  0.30577104  0.03992814  1
  O  O19  1  0.30189197  0.18289456  0.46955162  1
  O  O20  1  0.14398368  0.95014481  0.70968990  1
  O  O21  1  0.55950716  0.30211873  0.60120069  1
  O  O22  1  0.44049284  0.69788127  0.39879931  1
  O  O23  1  0.90114589  0.10069880  0.76821375  1
