# generated using pymatgen
data_Cu9Se5
_symmetry_space_group_name_H-M   'P 1'
_cell_length_a   20.46696971
_cell_length_b   10.87271578
_cell_length_c   7.13057318
_cell_angle_alpha   29.19911376
_cell_angle_beta   30.33607277
_cell_angle_gamma   19.10029326
_symmetry_Int_Tables_number   1
_chemical_formula_structural   Cu9Se5
_chemical_formula_sum   'Cu9 Se5'
_cell_volume   245.94273702
_cell_formula_units_Z   1
loop_
 _symmetry_equiv_pos_site_id
 _symmetry_equiv_pos_as_xyz
  1  'x, y, z'
loop_
 _atom_site_type_symbol
 _atom_site_label
 _atom_site_symmetry_multiplicity
 _atom_site_fract_x
 _atom_site_fract_y
 _atom_site_fract_z
 _atom_site_occupancy
  Cu  Cu0  1  0.10648802  0.25728152  0.22400123  1
  Cu  Cu1  1  0.28908097  0.27522560  0.25555044  1
  Cu  Cu2  1  0.49671545  0.27047039  0.21800867  1
  Cu  Cu3  1  0.20486755  0.65716042  0.66265289  1
  Cu  Cu4  1  0.20739289  0.97054554  0.68984778  1
  Cu  Cu5  1  0.69902253  0.23953570  0.26350601  1
  Cu  Cu6  1  0.90272155  0.24344574  0.26307955  1
  Cu  Cu7  1  0.59828000  0.66822006  0.66715580  1
  Cu  Cu8  1  0.80950144  0.97346538  0.67922789  1
  Se  Se9  1  0.99398586  0.00702692  -0.00417478  1
  Se  Se10  1  0.19682207  0.01608609  0.99061772  1
  Se  Se11  1  0.40366393  0.98243329  0.01754004  1
  Se  Se12  1  0.59775219  0.99495501  0.99804808  1
  Se  Se13  1  0.79907855  0.98348436  0.02814569  1
