# generated using pymatgen
data_Sb2RuC6(OF2)6
_symmetry_space_group_name_H-M   'P 1'
_cell_length_a   8.44958844
_cell_length_b   8.44958844
_cell_length_c   12.67142273
_cell_angle_alpha   90.00000000
_cell_angle_beta   90.00000000
_cell_angle_gamma   90.00000000
_symmetry_Int_Tables_number   1
_chemical_formula_structural   Sb2RuC6(OF2)6
_chemical_formula_sum   'Sb4 Ru2 C12 O12 F24'
_cell_volume   904.68312927
_cell_formula_units_Z   2
loop_
 _symmetry_equiv_pos_site_id
 _symmetry_equiv_pos_as_xyz
  1  'x, y, z'
loop_
 _atom_site_type_symbol
 _atom_site_label
 _atom_site_symmetry_multiplicity
 _atom_site_fract_x
 _atom_site_fract_y
 _atom_site_fract_z
 _atom_site_occupancy
  C  C0  1  0.62895755  0.70078251  0.50000000  1
  C  C1  1  0.37104245  0.29921749  0.50000000  1
  C  C2  1  0.00000000  0.00000000  0.15868365  1
  C  C3  1  0.50000000  0.50000000  0.34131635  1
  C  C4  1  0.00000000  0.00000000  0.84131635  1
  C  C5  1  0.50000000  0.50000000  0.65868365  1
  C  C6  1  0.20078251  0.12895755  0.00000000  1
  C  C7  1  0.87104245  0.20078251  0.00000000  1
  C  C8  1  0.12895755  0.79921749  0.00000000  1
  C  C9  1  0.70078251  0.37104245  0.50000000  1
  C  C10  1  0.29921749  0.62895755  0.50000000  1
  C  C11  1  0.79921749  0.87104245  0.00000000  1
  O  O12  1  0.70024805  0.81470814  0.50000000  1
  O  O13  1  0.29975195  0.18529186  0.50000000  1
  O  O14  1  0.00000000  0.00000000  0.24835968  1
  O  O15  1  0.50000000  0.50000000  0.25164032  1
  O  O16  1  0.00000000  0.00000000  0.75164032  1
  O  O17  1  0.50000000  0.50000000  0.74835968  1
  O  O18  1  0.31470814  0.20024805  0.00000000  1
  O  O19  1  0.79975195  0.31470814  0.00000000  1
  O  O20  1  0.20024805  0.68529186  0.00000000  1
  O  O21  1  0.81470814  0.29975195  0.50000000  1
  O  O22  1  0.18529186  0.70024805  0.50000000  1
  O  O23  1  0.68529186  0.79975195  0.00000000  1
  F  F24  1  0.33967481  0.16032519  0.75000000  1
  F  F25  1  0.16032519  0.66032519  0.25000000  1
  F  F26  1  0.83967481  0.33967481  0.75000000  1
  F  F27  1  0.39304779  0.88098258  0.35811631  1
  F  F28  1  0.16032519  0.66032519  0.75000000  1
  F  F29  1  0.66032519  0.83967481  0.75000000  1
  F  F30  1  0.61901742  0.10695221  0.14188369  1
  F  F31  1  0.89304779  0.61901742  0.14188369  1
  F  F32  1  0.10695221  0.38098258  0.14188369  1
  F  F33  1  0.11901742  0.39304779  0.35811631  1
  F  F34  1  0.88098258  0.60695221  0.35811631  1
  F  F35  1  0.38098258  0.89304779  0.14188369  1
  F  F36  1  0.60695221  0.11901742  0.35811631  1
  F  F37  1  0.83967481  0.33967481  0.25000000  1
  F  F38  1  0.38098258  0.89304779  0.85811631  1
  F  F39  1  0.10695221  0.38098258  0.85811631  1
  F  F40  1  0.89304779  0.61901742  0.85811631  1
  F  F41  1  0.88098258  0.60695221  0.64188369  1
  F  F42  1  0.11901742  0.39304779  0.64188369  1
  F  F43  1  0.61901742  0.10695221  0.85811631  1
  F  F44  1  0.39304779  0.88098258  0.64188369  1
  F  F45  1  0.60695221  0.11901742  0.64188369  1
  F  F46  1  0.33967481  0.16032519  0.25000000  1
  F  F47  1  0.66032519  0.83967481  0.25000000  1
  Ru  Ru48  1  0.50000000  0.50000000  0.50000000  1
  Ru  Ru49  1  0.00000000  0.00000000  0.00000000  1
  Sb  Sb50  1  0.50000000  0.00000000  0.75000000  1
  Sb  Sb51  1  0.00000000  0.50000000  0.75000000  1
  Sb  Sb52  1  0.50000000  0.00000000  0.25000000  1
  Sb  Sb53  1  0.00000000  0.50000000  0.25000000  1
