# generated using pymatgen
data_Zn4B2O7
_symmetry_space_group_name_H-M   'P 1'
_cell_length_a   10.11324934
_cell_length_b   10.11324885
_cell_length_c   9.99078641
_cell_angle_alpha   48.69051222
_cell_angle_beta   48.69051455
_cell_angle_gamma   48.50310432
_symmetry_Int_Tables_number   1
_chemical_formula_structural   Zn4B2O7
_chemical_formula_sum   'Zn12 B6 O21'
_cell_volume   527.91972526
_cell_formula_units_Z   3
loop_
 _symmetry_equiv_pos_site_id
 _symmetry_equiv_pos_as_xyz
  1  'x, y, z'
loop_
 _atom_site_type_symbol
 _atom_site_label
 _atom_site_symmetry_multiplicity
 _atom_site_fract_x
 _atom_site_fract_y
 _atom_site_fract_z
 _atom_site_occupancy
  Zn  Zn0  1  0.14035802  0.57082122  0.20078372  1
  Zn  Zn1  1  0.18942254  0.15033992  0.55129254  1
  Zn  Zn2  1  0.57209107  0.18829231  0.15422976  1
  Zn  Zn3  1  0.06297126  0.69794873  0.68548895  1
  Zn  Zn4  1  0.64365153  0.69239378  0.07650350  1
  Zn  Zn5  1  0.31170769  0.92790893  0.34577024  1
  Zn  Zn6  1  0.71801074  0.07004200  0.63335234  1
  Zn  Zn7  1  0.34966008  0.31057746  0.94870746  1
  Zn  Zn8  1  0.92917878  0.35964198  0.29921628  1
  Zn  Zn9  1  0.42995800  0.78198926  0.86664766  1
  Zn  Zn10  1  0.80760622  0.85634847  0.42349650  1
  Zn  Zn11  1  0.80205128  0.43702874  0.81451105  1
  B  B12  1  0.23006514  0.74749115  0.27177142  1
  B  B13  1  0.33324534  0.16675466  0.75000000  1
  B  B14  1  0.75250885  0.26993486  0.22822858  1
  B  B15  1  0.24989615  0.72918580  0.77168806  1
  B  B16  1  0.72990075  0.77009925  0.25000000  1
  B  B17  1  0.77081420  0.25010385  0.72831194  1
  O  O18  1  0.18936963  0.18954075  0.19484220  1
  O  O19  1  0.31045925  0.31063037  0.30515780  1
  O  O20  1  0.09149965  0.72453373  0.30108843  1
  O  O21  1  0.27264141  0.09713055  0.74113010  1
  O  O22  1  0.39376403  0.75755596  0.09974942  1
  O  O23  1  0.73869580  0.28705895  0.08779584  1
  O  O24  1  0.21294105  0.76130420  0.41220416  1
  O  O25  1  0.40286945  0.22735859  0.75886990  1
  O  O26  1  0.74244404  0.10623597  0.40025058  1
  O  O27  1  0.22877032  0.58827917  0.80067144  1
  O  O28  1  0.77546627  0.40850035  0.19891157  1
  O  O29  1  0.24420037  0.89552465  0.60484293  1
  O  O30  1  0.59195350  0.79711789  0.22651650  1
  O  O31  1  0.80019244  0.22788183  0.58737251  1
  O  O32  1  0.27211817  0.69980756  0.91262749  1
  O  O33  1  0.60447535  0.25579963  0.89515707  1
  O  O34  1  0.89685723  0.60314277  0.25000000  1
  O  O35  1  0.70288211  0.90804650  0.27348350  1
  O  O36  1  0.91172083  0.27122968  0.69932856  1
  O  O37  1  0.69101485  0.70143337  0.69062150  1
  O  O38  1  0.79856663  0.80898515  0.80937850  1
