# generated using pymatgen
data_Ba2PPd2
_symmetry_space_group_name_H-M   'P 1'
_cell_length_a   12.54580331
_cell_length_b   7.84614277
_cell_length_c   6.88352405
_cell_angle_alpha   90.00000000
_cell_angle_beta   90.00000000
_cell_angle_gamma   51.28846138
_symmetry_Int_Tables_number   1
_chemical_formula_structural   Ba2PPd2
_chemical_formula_sum   'Ba8 P4 Pd8'
_cell_volume   528.72471667
_cell_formula_units_Z   4
loop_
 _symmetry_equiv_pos_site_id
 _symmetry_equiv_pos_as_xyz
  1  'x, y, z'
loop_
 _atom_site_type_symbol
 _atom_site_label
 _atom_site_symmetry_multiplicity
 _atom_site_fract_x
 _atom_site_fract_y
 _atom_site_fract_z
 _atom_site_occupancy
  Ba  Ba0  1  0.19115583  0.29847869  -0.00501871  1
  Ba  Ba1  1  0.30884417  0.20152131  0.49498129  1
  Ba  Ba2  1  0.19115583  0.79847869  0.50501871  1
  Ba  Ba3  1  0.30884417  0.70152131  0.00501871  1
  Ba  Ba4  1  0.69115583  0.31920966  0.00501871  1
  Ba  Ba5  1  0.80884417  0.18079034  0.50501871  1
  Ba  Ba6  1  0.69115583  0.81920966  0.49498129  1
  Ba  Ba7  1  0.80884417  0.68079034  -0.00501871  1
  P  P8  1  1.00000000  0.16144545  0.84235008  1
  P  P9  1  1.00000000  0.66144545  0.65764992  1
  P  P10  1  0.50000000  0.33855455  0.34235008  1
  P  P11  1  0.50000000  0.83855455  0.15764992  1
  Pd  Pd12  1  0.00000000  0.20414955  0.19517220  1
  Pd  Pd13  1  0.00000000  0.70414955  0.30482780  1
  Pd  Pd14  1  0.50000000  0.14471804  0.06237997  1
  Pd  Pd15  1  0.50000000  0.29585045  0.69517220  1
  Pd  Pd16  1  0.50000000  0.64471804  0.43762003  1
  Pd  Pd17  1  0.50000000  0.79585045  0.80482780  1
  Pd  Pd18  1  1.00000000  0.35528196  0.56237997  1
  Pd  Pd19  1  1.00000000  0.85528196  0.93762003  1
