# generated using pymatgen
data_Cr3(PO4)4
_symmetry_space_group_name_H-M   'P 1'
_cell_length_a   6.36875575
_cell_length_b   10.07904828
_cell_length_c   10.76224838
_cell_angle_alpha   91.71211603
_cell_angle_beta   89.99146097
_cell_angle_gamma   71.55900996
_symmetry_Int_Tables_number   1
_chemical_formula_structural   Cr3(PO4)4
_chemical_formula_sum   'Cr6 P8 O32'
_cell_volume   655.03865783
_cell_formula_units_Z   2
loop_
 _symmetry_equiv_pos_site_id
 _symmetry_equiv_pos_as_xyz
  1  'x, y, z'
loop_
 _atom_site_type_symbol
 _atom_site_label
 _atom_site_symmetry_multiplicity
 _atom_site_fract_x
 _atom_site_fract_y
 _atom_site_fract_z
 _atom_site_occupancy
  Cr  Cr0  1  0.36375337  0.30821979  0.25127999  1
  Cr  Cr1  1  0.67197617  0.69179801  0.24874945  1
  Cr  Cr2  1  0.63624663  0.69178021  0.74872001  1
  Cr  Cr3  1  0.32802383  0.30820199  0.75125055  1
  Cr  Cr4  1  0.50000000  0.50000000  0.00000000  1
  Cr  Cr5  1  0.00000000  0.50000000  0.50000000  1
  P  P6  1  0.24694369  0.17083695  0.49161513  1
  P  P7  1  0.78259613  0.40221462  0.74535461  1
  P  P8  1  0.75305631  0.82916305  0.50838487  1
  P  P9  1  0.18480689  0.59786734  0.75463327  1
  P  P10  1  0.41762829  0.82921806  0.00838069  1
  P  P11  1  0.81519311  0.40213266  0.24536673  1
  P  P12  1  0.58237171  0.17078194  0.99161931  1
  P  P13  1  0.21740387  0.59778538  0.25464539  1
  O  O14  1  0.33687778  0.69889636  0.00630625  1
  O  O15  1  0.36717267  0.17247811  0.61654685  1
  O  O16  1  0.76478736  0.51307630  0.63784224  1
  O  O17  1  0.76652913  0.03230521  0.96791135  1
  O  O18  1  0.01684708  0.31286674  0.77222754  1
  O  O19  1  0.59325342  0.81581674  0.61389734  1
  O  O20  1  0.63324871  0.31379952  0.72066174  1
  O  O21  1  0.36675129  0.68620048  0.27933826  1
  O  O22  1  0.46060158  0.17243449  0.11659671  1
  O  O23  1  0.67045091  0.31290662  0.27221643  1
  O  O24  1  0.94677664  0.68636221  0.77941184  1
  O  O25  1  0.72220674  0.51301807  0.13781861  1
  O  O26  1  0.20120585  0.03225614  0.46805300  1
  O  O27  1  0.23521264  0.48692370  0.36215776  1
  O  O28  1  0.03579262  0.30099242  0.49360101  1
  O  O29  1  0.40896453  0.18445087  0.88616724  1
  O  O30  1  0.30950972  0.48155633  0.14472547  1
  O  O31  1  0.69049028  0.51844367  0.85527453  1
  O  O32  1  0.32954909  0.68709338  0.72778357  1
  O  O33  1  0.20888771  0.48160231  0.64476641  1
  O  O34  1  0.59103547  0.81554913  0.11383276  1
  O  O35  1  0.23347087  0.96769479  0.03208865  1
  O  O36  1  0.63282733  0.82752189  0.38345315  1
  O  O37  1  0.79111229  0.51839769  0.35523359  1
  O  O38  1  0.40674658  0.18418326  0.38610266  1
  O  O39  1  0.96420738  0.69900758  0.50639899  1
  O  O40  1  0.98315292  0.68713326  0.22777246  1
  O  O41  1  0.05322336  0.31363779  0.22058816  1
  O  O42  1  0.79879415  0.96774386  0.53194700  1
  O  O43  1  0.27779326  0.48698193  0.86218139  1
  O  O44  1  0.66312222  0.30110364  0.99369375  1
  O  O45  1  0.53939842  0.82756551  0.88340329  1
