# generated using pymatgen
data_LiMn(PO3)4
_symmetry_space_group_name_H-M   'P 1'
_cell_length_a   7.10908130
_cell_length_b   7.53099485
_cell_length_c   4.93995041
_cell_angle_alpha   83.00021126
_cell_angle_beta   110.09696356
_cell_angle_gamma   113.53771606
_symmetry_Int_Tables_number   1
_chemical_formula_structural   LiMn(PO3)4
_chemical_formula_sum   'Li1 Mn1 P4 O12'
_cell_volume   227.67235910
_cell_formula_units_Z   1
loop_
 _symmetry_equiv_pos_site_id
 _symmetry_equiv_pos_as_xyz
  1  'x, y, z'
loop_
 _atom_site_type_symbol
 _atom_site_label
 _atom_site_symmetry_multiplicity
 _atom_site_fract_x
 _atom_site_fract_y
 _atom_site_fract_z
 _atom_site_occupancy
  Li  Li0  1  0.72484607  0.54820560  0.04036018  1
  Mn  Mn1  1  0.00464935  0.00443249  0.99855492  1
  P  P2  1  0.19892890  0.79172925  0.56190501  1
  P  P3  1  0.80082205  0.20636279  0.43892157  1
  P  P4  1  0.39837985  0.21437825  0.56464754  1
  P  P5  1  0.60332553  0.78502774  0.43454867  1
  O  O6  1  0.56393141  0.62823814  0.24623574  1
  O  O7  1  0.61076450  0.20595203  0.53594796  1
  O  O8  1  0.45726950  0.37511534  0.75875755  1
  O  O9  1  0.76506382  0.80157612  0.74409491  1
  O  O10  1  0.30565456  0.00659662  0.71784233  1
  O  O11  1  0.85876092  0.35667773  0.22786009  1
  O  O12  1  0.69566005  0.99278375  0.28118014  1
  O  O13  1  0.02505764  0.80471928  0.27473218  1
  O  O14  1  0.12711765  0.64455322  0.76730147  1
  O  O15  1  0.38843498  0.78731551  0.46238955  1
  O  O16  1  0.97850432  0.19626728  0.71598285  1
  O  O17  1  0.23382789  0.19936184  0.26320335  1
