# generated using pymatgen
data_MnP2O7
_symmetry_space_group_name_H-M   'P 1'
_cell_length_a   6.88009223
_cell_length_b   6.26059992
_cell_length_c   6.85566704
_cell_angle_alpha   114.11929297
_cell_angle_beta   90.39717283
_cell_angle_gamma   85.03818968
_symmetry_Int_Tables_number   1
_chemical_formula_structural   MnP2O7
_chemical_formula_sum   'Mn2 P4 O14'
_cell_volume   268.37602316
_cell_formula_units_Z   2
loop_
 _symmetry_equiv_pos_site_id
 _symmetry_equiv_pos_as_xyz
  1  'x, y, z'
loop_
 _atom_site_type_symbol
 _atom_site_label
 _atom_site_symmetry_multiplicity
 _atom_site_fract_x
 _atom_site_fract_y
 _atom_site_fract_z
 _atom_site_occupancy
  Mn  Mn0  1  0.35007897  0.90206342  0.78233119  1
  Mn  Mn1  1  0.64992103  0.09793658  0.21766881  1
  P  P2  1  0.85764969  0.79096293  0.75459543  1
  P  P3  1  0.38540316  0.33780511  0.64953810  1
  P  P4  1  0.61459684  0.66219489  0.35046190  1
  P  P5  1  0.14235031  0.20903707  0.24540457  1
  O  O6  1  0.21050914  0.30760608  0.48709703  1
  O  O7  1  0.57740442  0.23635347  0.51783615  1
  O  O8  1  0.78949086  0.69239392  0.51290297  1
  O  O9  1  0.34091083  0.21373853  0.79213653  1
  O  O10  1  0.42259558  0.76364653  0.48216385  1
  O  O11  1  0.32125282  0.05167239  0.11042368  1
  O  O12  1  0.96127740  0.08366231  0.23930258  1
  O  O13  1  0.61870816  0.40039369  0.20580359  1
  O  O14  1  0.38129184  0.59960631  0.79419641  1
  O  O15  1  0.92046371  0.58719811  0.81601602  1
  O  O16  1  0.65908917  0.78626147  0.20786347  1
  O  O17  1  0.07953629  0.41280189  0.18398398  1
  O  O18  1  0.03872260  0.91633769  0.76069742  1
  O  O19  1  0.67874718  0.94832761  0.88957632  1
