# generated using pymatgen
data_K2H2C2S2N2O
_symmetry_space_group_name_H-M   'P 1'
_cell_length_a   10.36120535
_cell_length_b   8.11829493
_cell_length_c   9.88007459
_cell_angle_alpha   90.00000000
_cell_angle_beta   90.00000000
_cell_angle_gamma   90.00000000
_symmetry_Int_Tables_number   1
_chemical_formula_structural   K2H2C2S2N2O
_chemical_formula_sum   'K8 H8 C8 S8 N8 O4'
_cell_volume   831.06564427
_cell_formula_units_Z   4
loop_
 _symmetry_equiv_pos_site_id
 _symmetry_equiv_pos_as_xyz
  1  'x, y, z'
loop_
 _atom_site_type_symbol
 _atom_site_label
 _atom_site_symmetry_multiplicity
 _atom_site_fract_x
 _atom_site_fract_y
 _atom_site_fract_z
 _atom_site_occupancy
  K  K0  1  0.66587200  0.49891649  0.76653654  1
  K  K1  1  0.16587200  0.00108351  0.73346346  1
  K  K2  1  0.33412800  0.99891649  0.23346346  1
  K  K3  1  0.83412800  0.50108351  0.26653654  1
  K  K4  1  0.33412800  0.50108351  0.23346346  1
  K  K5  1  0.83412800  0.99891649  0.26653654  1
  K  K6  1  0.66587200  0.00108351  0.76653654  1
  K  K7  1  0.16587200  0.49891649  0.73346346  1
  H  H8  1  0.99479835  0.25000000  0.49069380  1
  H  H9  1  0.49479835  0.25000000  0.00930620  1
  H  H10  1  0.00520165  0.75000000  0.50930620  1
  H  H11  1  0.50520165  0.75000000  0.99069380  1
  H  H12  1  0.04499630  0.25000000  0.33857337  1
  H  H13  1  0.54499630  0.25000000  0.16142663  1
  H  H14  1  0.95500370  0.75000000  0.66142663  1
  H  H15  1  0.45500370  0.75000000  0.83857337  1
  C  C16  1  0.43298601  0.25000000  0.61308858  1
  C  C17  1  0.93298601  0.25000000  0.88691142  1
  C  C18  1  0.56701399  0.75000000  0.38691142  1
  C  C19  1  0.06701399  0.75000000  0.11308858  1
  C  C20  1  0.58994460  0.25000000  0.44379486  1
  C  C21  1  0.08994460  0.25000000  0.05620514  1
  C  C22  1  0.41005540  0.75000000  0.55620514  1
  C  C23  1  0.91005540  0.75000000  0.94379486  1
  S  S24  1  0.30417104  0.25000000  0.50290872  1
  S  S25  1  0.80417104  0.25000000  0.99709128  1
  S  S26  1  0.69582896  0.75000000  0.49709128  1
  S  S27  1  0.19582896  0.75000000  0.00290872  1
  S  S28  1  0.40667691  0.25000000  0.78545719  1
  S  S29  1  0.90667691  0.25000000  0.71454281  1
  S  S30  1  0.59332309  0.75000000  0.21454281  1
  S  S31  1  0.09332309  0.75000000  0.28545719  1
  N  N32  1  0.55814822  0.25000000  0.57075163  1
  N  N33  1  0.05814822  0.25000000  0.92924837  1
  N  N34  1  0.44185178  0.75000000  0.42924837  1
  N  N35  1  0.94185178  0.75000000  0.07075163  1
  N  N36  1  0.63139270  0.25000000  0.33151611  1
  N  N37  1  0.13139270  0.25000000  0.16848389  1
  N  N38  1  0.36860730  0.75000000  0.66848389  1
  N  N39  1  0.86860730  0.75000000  0.83151611  1
  O  O40  1  0.96674210  0.25000000  0.39587147  1
  O  O41  1  0.46674210  0.25000000  0.10412853  1
  O  O42  1  0.03325790  0.75000000  0.60412853  1
  O  O43  1  0.53325790  0.75000000  0.89587147  1
