# generated using pymatgen
data_CuH20Se2(NO7)2
_symmetry_space_group_name_H-M   'P 1'
_cell_length_a   6.58927063
_cell_length_b   12.67350818
_cell_length_c   9.30929640
_cell_angle_alpha   90.00000000
_cell_angle_beta   105.87854320
_cell_angle_gamma   90.00000000
_symmetry_Int_Tables_number   1
_chemical_formula_structural   CuH20Se2(NO7)2
_chemical_formula_sum   'Cu2 H40 Se4 N4 O28'
_cell_volume   747.74861839
_cell_formula_units_Z   2
loop_
 _symmetry_equiv_pos_site_id
 _symmetry_equiv_pos_as_xyz
  1  'x, y, z'
loop_
 _atom_site_type_symbol
 _atom_site_label
 _atom_site_symmetry_multiplicity
 _atom_site_fract_x
 _atom_site_fract_y
 _atom_site_fract_z
 _atom_site_occupancy
  Cu  Cu0  1  0.50000000  0.50000000  0.00000000  1
  Cu  Cu1  1  0.50000000  0.00000000  0.50000000  1
  H  H2  1  0.18630181  0.44316268  0.10181663  1
  H  H3  1  0.81369819  0.94316268  0.39818337  1
  H  H4  1  0.81369819  0.55683732  0.89818337  1
  H  H5  1  0.18630181  0.05683732  0.60181663  1
  H  H6  1  0.18642396  0.35901834  0.97517996  1
  H  H7  1  0.81357604  0.85901834  0.52482004  1
  H  H8  1  0.81357604  0.64098166  0.02482004  1
  H  H9  1  0.18642396  0.14098166  0.47517996  1
  H  H10  1  0.51117200  0.31978450  0.87063748  1
  H  H11  1  0.48882800  0.81978450  0.62936252  1
  H  H12  1  0.48882800  0.68021550  0.12936252  1
  H  H13  1  0.51117200  0.18021550  0.37063748  1
  H  H14  1  0.44017556  0.40772556  0.74240503  1
  H  H15  1  0.55982444  0.90772556  0.75759497  1
  H  H16  1  0.55982444  0.59227444  0.25759497  1
  H  H17  1  0.44017556  0.09227444  0.24240503  1
  H  H18  1  0.82775282  0.40936484  0.21405842  1
  H  H19  1  0.17224718  0.90936484  0.28594158  1
  H  H20  1  0.17224718  0.59063516  0.78594158  1
  H  H21  1  0.82775282  0.09063516  0.71405842  1
  H  H22  1  0.62314768  0.37425366  0.26073608  1
  H  H23  1  0.37685232  0.87425366  0.23926392  1
  H  H24  1  0.37685232  0.62574634  0.73926392  1
  H  H25  1  0.62314768  0.12574634  0.76073608  1
  H  H26  1  0.87376146  0.41973364  0.66456194  1
  H  H27  1  0.12623854  0.91973364  0.83543806  1
  H  H28  1  0.12623854  0.58026636  0.33543806  1
  H  H29  1  0.87376146  0.08026636  0.16456194  1
  H  H30  1  0.89313230  0.29443408  0.73030644  1
  H  H31  1  0.10686770  0.79443408  0.76969356  1
  H  H32  1  0.10686770  0.70556592  0.26969356  1
  H  H33  1  0.89313230  0.20556592  0.23030644  1
  H  H34  1  0.70699209  0.32623095  0.56875035  1
  H  H35  1  0.29300791  0.82623095  0.93124965  1
  H  H36  1  0.29300791  0.67376905  0.43124965  1
  H  H37  1  0.70699209  0.17376905  0.06875035  1
  H  H38  1  0.96198355  0.31933236  0.57247423  1
  H  H39  1  0.03801645  0.81933236  0.92752577  1
  H  H40  1  0.03801645  0.68066764  0.42752577  1
  H  H41  1  0.96198355  0.18066764  0.07247423  1
  Se  Se42  1  0.24966546  0.36475520  0.41925986  1
  Se  Se43  1  0.75033454  0.86475520  0.08074014  1
  Se  Se44  1  0.75033454  0.63524480  0.58074014  1
  Se  Se45  1  0.24966546  0.13524480  0.91925986  1
  N  N46  1  0.85912742  0.34005621  0.63543375  1
  N  N47  1  0.14087258  0.84005621  0.86456625  1
  N  N48  1  0.14087258  0.65994379  0.36456625  1
  N  N49  1  0.85912742  0.15994379  0.13543375  1
  O  O50  1  0.47868251  0.31685921  0.39833724  1
  O  O51  1  0.52131749  0.81685921  0.10166276  1
  O  O52  1  0.52131749  0.68314079  0.60166276  1
  O  O53  1  0.47868251  0.18314079  0.89833724  1
  O  O54  1  0.12693374  0.44120931  0.27411606  1
  O  O55  1  0.87306626  0.94120931  0.22588394  1
  O  O56  1  0.87306626  0.55879069  0.72588394  1
  O  O57  1  0.12693374  0.05879069  0.77411606  1
  O  O58  1  0.08796814  0.26287076  0.42565022  1
  O  O59  1  0.91203186  0.76287076  0.07434978  1
  O  O60  1  0.91203186  0.73712924  0.57434978  1
  O  O61  1  0.08796814  0.23712924  0.92565022  1
  O  O62  1  0.28740317  0.43486189  0.57534885  1
  O  O63  1  0.71259683  0.93486189  0.92465115  1
  O  O64  1  0.71259683  0.56513811  0.42465115  1
  O  O65  1  0.28740317  0.06513811  0.07534885  1
  O  O66  1  0.21682301  0.43488355  0.00343406  1
  O  O67  1  0.78317699  0.93488355  0.49656594  1
  O  O68  1  0.78317699  0.56511645  0.99656594  1
  O  O69  1  0.21682301  0.06511645  0.50343406  1
  O  O70  1  0.53461608  0.39417918  0.84544521  1
  O  O71  1  0.46538392  0.89417918  0.65455479  1
  O  O72  1  0.46538392  0.60582082  0.15455479  1
  O  O73  1  0.53461608  0.10582082  0.34544521  1
  O  O74  1  0.68425570  0.38032910  0.17567130  1
  O  O75  1  0.31574430  0.88032910  0.32432870  1
  O  O76  1  0.31574430  0.61967090  0.82432870  1
  O  O77  1  0.68425570  0.11967090  0.67567130  1
