# generated using pymatgen
data_Ba2La2Fe2Cu2O11
_symmetry_space_group_name_H-M   'P 1'
_cell_length_a   5.60291211
_cell_length_b   5.60291264
_cell_length_c   22.52770113
_cell_angle_alpha   119.83899895
_cell_angle_beta   119.83900222
_cell_angle_gamma   89.99122998
_symmetry_Int_Tables_number   1
_chemical_formula_structural   Ba2La2Fe2Cu2O11
_chemical_formula_sum   'Ba4 La4 Fe4 Cu4 O22'
_cell_volume   502.53025297
_cell_formula_units_Z   2
loop_
 _symmetry_equiv_pos_site_id
 _symmetry_equiv_pos_as_xyz
  1  'x, y, z'
loop_
 _atom_site_type_symbol
 _atom_site_label
 _atom_site_symmetry_multiplicity
 _atom_site_fract_x
 _atom_site_fract_y
 _atom_site_fract_z
 _atom_site_occupancy
  Ba  Ba0  1  0.25745457  0.75744054  0.37872404  1
  Ba  Ba1  1  0.25253619  0.75251068  0.12625485  1
  Ba  Ba2  1  0.75744054  0.25745457  0.37872404  1
  Ba  Ba3  1  0.75251068  0.25253619  0.12625485  1
  La  La4  1  0.25406838  0.75407279  0.87704441  1
  La  La5  1  0.25888143  0.75879845  0.62940521  1
  La  La6  1  0.75407279  0.25406838  0.87704441  1
  La  La7  1  0.75879845  0.25888143  0.62940521  1
  Fe  Fe8  1  0.49570205  0.49570205  0.74784721  1
  Fe  Fe9  1  0.53747403  0.53747403  0.51873254  1
  Fe  Fe10  1  0.53181982  0.53181982  0.26590013  1
  Fe  Fe11  1  0.49290983  0.49290983  0.99644675  1
  Cu  Cu12  1  0.00607382  0.00607382  0.75303296  1
  Cu  Cu13  1  0.00878195  0.00878195  0.50439811  1
  Cu  Cu14  1  0.97645297  0.97645297  0.23820592  1
  Cu  Cu15  1  0.97848637  0.97848637  0.98923316  1
  O  O16  1  0.24916565  0.24916565  0.87461840  1
  O  O17  1  0.24717628  0.24717628  0.74725726  1
  O  O18  1  0.24705103  0.74187896  0.74723565  1
  O  O19  1  0.25490968  0.25490968  0.62750986  1
  O  O20  1  0.72859074  0.72859074  0.86420642  1
  O  O21  1  0.74187896  0.24705103  0.74723565  1
  O  O22  1  0.74173871  0.74173871  0.74718225  1
  O  O23  1  0.27821726  0.27821726  0.50978750  1
  O  O24  1  0.27811833  0.76079479  0.50973278  1
  O  O25  1  0.76817468  0.76817468  0.63406477  1
  O  O26  1  0.76079479  0.27811833  0.50973278  1
  O  O27  1  0.76057387  0.76057387  0.50963946  1
  O  O28  1  0.24921667  0.24921667  0.24797876  1
  O  O29  1  0.24903831  0.74289297  0.24798816  1
  O  O30  1  0.76432790  0.76432790  0.38216549  1
  O  O31  1  0.74289297  0.24903831  0.24798816  1
  O  O32  1  0.74256853  0.74256853  0.24792717  1
  O  O33  1  0.21889587  0.21889587  0.98677044  1
  O  O34  1  0.21889090  0.72824267  0.98680416  1
  O  O35  1  0.72590573  0.72590573  0.11295340  1
  O  O36  1  0.72824267  0.21889090  0.98680416  1
  O  O37  1  0.72816658  0.72816658  0.98676353  1
