# generated using pymatgen
data_MnO2
_symmetry_space_group_name_H-M   'P 1'
_cell_length_a   5.84821921
_cell_length_b   5.84821879
_cell_length_c   35.07961898
_cell_angle_alpha   59.99085934
_cell_angle_beta   59.99086171
_cell_angle_gamma   60.00000046
_symmetry_Int_Tables_number   1
_chemical_formula_structural   MnO2
_chemical_formula_sum   'Mn24 O48'
_cell_volume   848.25634638
_cell_formula_units_Z   24
loop_
 _symmetry_equiv_pos_site_id
 _symmetry_equiv_pos_as_xyz
  1  'x, y, z'
loop_
 _atom_site_type_symbol
 _atom_site_label
 _atom_site_symmetry_multiplicity
 _atom_site_fract_x
 _atom_site_fract_y
 _atom_site_fract_z
 _atom_site_occupancy
  Mn  Mn0  1  0.00990975  0.49576705  0.08309236  1
  Mn  Mn1  1  0.49576705  0.00990975  0.08309236  1
  Mn  Mn2  1  0.49576705  0.49576705  0.08309236  1
  Mn  Mn3  1  0.00898029  0.49756844  0.24931380  1
  Mn  Mn4  1  0.49756844  0.00898029  0.24931380  1
  Mn  Mn5  1  0.49756844  0.49756844  0.24931380  1
  Mn  Mn6  1  0.00095013  0.50044045  0.41636183  1
  Mn  Mn7  1  0.88256355  0.88256355  0.14205123  1
  Mn  Mn8  1  0.50197601  0.50197601  0.33234500  1
  Mn  Mn9  1  0.50044045  0.00095013  0.41636183  1
  Mn  Mn10  1  0.00041841  0.50012474  0.58322168  1
  Mn  Mn11  1  0.50044045  0.50044045  0.41636183  1
  Mn  Mn12  1  0.50012474  0.00041841  0.58322168  1
  Mn  Mn13  1  0.50054279  0.50054279  0.49972860  1
  Mn  Mn14  1  0.00029839  0.50007409  0.74992557  1
  Mn  Mn15  1  0.50012474  0.50012474  0.58322168  1
  Mn  Mn16  1  0.50037783  0.50037783  0.66647809  1
  Mn  Mn17  1  0.50007409  0.00029839  0.74992557  1
  Mn  Mn18  1  0.50007409  0.50007409  0.74992557  1
  Mn  Mn19  1  0.99944547  0.50017024  0.91670268  1
  Mn  Mn20  1  0.50017024  0.99944547  0.91670268  1
  Mn  Mn21  1  0.50019571  0.50019571  0.83323515  1
  Mn  Mn22  1  0.50017024  0.50017024  0.91670268  1
  Mn  Mn23  1  0.87753359  0.87753359  0.97790020  1
  O  O24  1  0.24801150  0.24801150  0.04947161  1
  O  O25  1  0.24801150  0.70714732  0.04947161  1
  O  O26  1  0.26257021  0.26257021  0.11871490  1
  O  O27  1  0.70714732  0.24801150  0.04947161  1
  O  O28  1  0.28217773  0.74791318  0.12033298  1
  O  O29  1  0.24430386  0.24430386  0.21632727  1
  O  O30  1  0.73610185  0.73610185  0.04861608  1
  O  O31  1  0.24430386  0.71343067  0.21632727  1
  O  O32  1  0.26430319  0.26430319  0.28451541  1
  O  O33  1  0.74791318  0.28217773  0.12033298  1
  O  O34  1  0.71343067  0.24430386  0.21632727  1
  O  O35  1  0.74791318  0.74791318  0.12033298  1
  O  O36  1  0.26579471  0.26579471  0.37734985  1
  O  O37  1  0.30014573  0.73495937  0.28832226  1
  O  O38  1  0.26574029  0.26574029  0.45046285  1
  O  O39  1  0.74150761  0.74150761  0.21257919  1
  O  O40  1  0.26579471  0.70430949  0.37734985  1
  O  O41  1  0.73495937  0.30014573  0.28832226  1
  O  O42  1  0.70430949  0.26579471  0.37734985  1
  O  O43  1  0.73495937  0.73495937  0.28832226  1
  O  O44  1  0.29663976  0.73459371  0.45569547  1
  O  O45  1  0.26530643  0.26530643  0.54424174  1
  O  O46  1  0.73516968  0.73516968  0.38241516  1
  O  O47  1  0.26541700  0.26541700  0.61729150  1
  O  O48  1  0.26530643  0.70393670  0.54424174  1
  O  O49  1  0.73459371  0.29663976  0.45569547  1
  O  O50  1  0.70393670  0.26530643  0.54424174  1
  O  O51  1  0.73459371  0.73459371  0.45569547  1
  O  O52  1  0.29632133  0.73441396  0.62247546  1
  O  O53  1  0.26526140  0.26526140  0.71093692  1
  O  O54  1  0.73483819  0.73483819  0.54924791  1
  O  O55  1  0.73441396  0.29632133  0.62247546  1
  O  O56  1  0.26526140  0.70385768  0.71093692  1
  O  O57  1  0.26535336  0.26535336  0.78399032  1
  O  O58  1  0.73441396  0.73441396  0.62247546  1
  O  O59  1  0.70385768  0.26526140  0.71093692  1
  O  O60  1  0.26545488  0.26545488  0.87761153  1
  O  O61  1  0.29622910  0.73435873  0.78917524  1
  O  O62  1  0.26417770  0.26417770  0.95124415  1
  O  O63  1  0.73476726  0.73476726  0.71594937  1
  O  O64  1  0.73435873  0.29622910  0.78917524  1
  O  O65  1  0.26545488  0.70341905  0.87761153  1
  O  O66  1  0.73435873  0.73435873  0.78917524  1
  O  O67  1  0.70341905  0.26545488  0.87761153  1
  O  O68  1  0.28469503  0.75087941  0.95225769  1
  O  O69  1  0.75087941  0.28469503  0.95225769  1
  O  O70  1  0.73375983  0.73375983  0.88312009  1
  O  O71  1  0.75087941  0.75087941  0.95225769  1
