# generated using pymatgen
data_LiBeH5(NF2)2
_symmetry_space_group_name_H-M   'P 1'
_cell_length_a   9.92568719
_cell_length_b   8.95719548
_cell_length_c   5.16872018
_cell_angle_alpha   90.00000000
_cell_angle_beta   90.00000000
_cell_angle_gamma   90.00000000
_symmetry_Int_Tables_number   1
_chemical_formula_structural   LiBeH5(NF2)2
_chemical_formula_sum   'Li4 Be4 H20 N8 F16'
_cell_volume   459.53189256
_cell_formula_units_Z   4
loop_
 _symmetry_equiv_pos_site_id
 _symmetry_equiv_pos_as_xyz
  1  'x, y, z'
loop_
 _atom_site_type_symbol
 _atom_site_label
 _atom_site_symmetry_multiplicity
 _atom_site_fract_x
 _atom_site_fract_y
 _atom_site_fract_z
 _atom_site_occupancy
  Li  Li0  1  0.82140251  0.06482500  0.26017186  1
  Li  Li1  1  0.17859749  0.93517500  0.76017186  1
  Li  Li2  1  0.67859749  0.56482500  0.76017186  1
  Li  Li3  1  0.32140251  0.43517500  0.26017186  1
  Be  Be4  1  0.65927224  0.37214378  0.25513899  1
  Be  Be5  1  0.34072776  0.62785622  0.75513899  1
  Be  Be6  1  0.84072776  0.87214378  0.75513899  1
  Be  Be7  1  0.15927224  0.12785622  0.25513899  1
  H  H8  1  0.61842939  0.11792335  0.79112595  1
  H  H9  1  0.38157061  0.88207665  0.29112595  1
  H  H10  1  0.88157061  0.61792335  0.29112595  1
  H  H11  1  0.11842939  0.38207665  0.79112595  1
  H  H12  1  0.51937796  0.04276821  0.56690252  1
  H  H13  1  0.48062204  0.95723179  0.06690252  1
  H  H14  1  0.98062204  0.54276821  0.06690252  1
  H  H15  1  0.01937796  0.45723179  0.56690252  1
  H  H16  1  0.84204700  0.30595754  0.70639958  1
  H  H17  1  0.15795300  0.69404246  0.20639958  1
  H  H18  1  0.65795300  0.80595754  0.20639958  1
  H  H19  1  0.34204700  0.19404246  0.70639958  1
  H  H20  1  0.94701692  0.22674744  0.92746629  1
  H  H21  1  0.05298308  0.77325256  0.42746629  1
  H  H22  1  0.55298308  0.72674744  0.42746629  1
  H  H23  1  0.44701692  0.27325256  0.92746629  1
  H  H24  1  0.97348074  0.20221577  0.60658659  1
  H  H25  1  0.02651926  0.79778423  0.10658659  1
  H  H26  1  0.52651926  0.70221577  0.10658659  1
  H  H27  1  0.47348074  0.29778423  0.60658659  1
  N  N28  1  0.52121397  0.08708624  0.75182097  1
  N  N29  1  0.47878603  0.91291376  0.25182097  1
  N  N30  1  0.97878603  0.58708624  0.25182097  1
  N  N31  1  0.02121397  0.41291376  0.75182097  1
  N  N32  1  0.94186561  0.27761896  0.74639518  1
  N  N33  1  0.05813439  0.72238104  0.24639518  1
  N  N34  1  0.55813439  0.77761896  0.24639518  1
  N  N35  1  0.44186561  0.22238104  0.74639518  1
  F  F36  1  0.69598128  0.39208364  0.55080828  1
  F  F37  1  0.30401872  0.60791636  0.05080828  1
  F  F38  1  0.80401872  0.89208364  0.05080828  1
  F  F39  1  0.19598128  0.10791636  0.55080828  1
  F  F40  1  0.49973166  0.35623549  0.23281049  1
  F  F41  1  0.50026834  0.64376451  0.73281049  1
  F  F42  1  0.00026834  0.85623549  0.73281049  1
  F  F43  1  0.99973166  0.14376451  0.23281049  1
  F  F44  1  0.72494427  0.22943587  0.14266478  1
  F  F45  1  0.27505573  0.77056413  0.64266478  1
  F  F46  1  0.77505573  0.72943587  0.64266478  1
  F  F47  1  0.22494427  0.27056413  0.14266478  1
  F  F48  1  0.79651454  0.01455382  0.60600852  1
  F  F49  1  0.20348546  0.98544618  0.10600852  1
  F  F50  1  0.70348546  0.51455382  0.10600852  1
  F  F51  1  0.29651454  0.48544618  0.60600852  1
