# generated using pymatgen
data_K2TeH6(O3F)2
_symmetry_space_group_name_H-M   'P 1'
_cell_length_a   10.03506992
_cell_length_b   11.25183587
_cell_length_c   8.33840827
_cell_angle_alpha   90.00000000
_cell_angle_beta   90.00000000
_cell_angle_gamma   90.00000000
_symmetry_Int_Tables_number   1
_chemical_formula_structural   K2TeH6(O3F)2
_chemical_formula_sum   'K8 Te4 H24 O24 F8'
_cell_volume   941.51435682
_cell_formula_units_Z   4
loop_
 _symmetry_equiv_pos_site_id
 _symmetry_equiv_pos_as_xyz
  1  'x, y, z'
loop_
 _atom_site_type_symbol
 _atom_site_label
 _atom_site_symmetry_multiplicity
 _atom_site_fract_x
 _atom_site_fract_y
 _atom_site_fract_z
 _atom_site_occupancy
  K  K0  1  0.75829668  0.25435154  0.21114265  1
  K  K1  1  0.25829668  0.74564846  0.28885735  1
  K  K2  1  0.24170332  0.24564846  0.71114265  1
  K  K3  1  0.74170332  0.75435154  0.78885735  1
  K  K4  1  0.24170332  0.74564846  0.78885735  1
  K  K5  1  0.74170332  0.25435154  0.71114265  1
  K  K6  1  0.75829668  0.75435154  0.28885735  1
  K  K7  1  0.25829668  0.24564846  0.21114265  1
  Te  Te8  1  0.50000000  0.50000000  -0.00000000  1
  Te  Te9  1  -0.00000000  0.50000000  0.50000000  1
  Te  Te10  1  0.50000000  -0.00000000  0.50000000  1
  Te  Te11  1  0.00000000  -0.00000000  -0.00000000  1
  H  H12  1  0.72765733  0.56546368  0.03128937  1
  H  H13  1  0.22765733  0.43453632  0.46871063  1
  H  H14  1  0.27234267  0.93453632  0.53128937  1
  H  H15  1  0.77234267  0.06546368  0.96871063  1
  H  H16  1  0.27234267  0.43453632  0.96871063  1
  H  H17  1  0.77234267  0.56546368  0.53128937  1
  H  H18  1  0.72765733  0.06546368  0.46871063  1
  H  H19  1  0.22765733  0.93453632  0.03128937  1
  H  H20  1  0.61419334  0.99960246  0.76307224  1
  H  H21  1  0.11419334  0.00039754  0.73692776  1
  H  H22  1  0.38580666  0.50039754  0.26307224  1
  H  H23  1  0.88580666  0.49960246  0.23692776  1
  H  H24  1  0.38580666  0.00039754  0.23692776  1
  H  H25  1  0.88580666  0.99960246  0.26307224  1
  H  H26  1  0.61419334  0.49960246  0.73692776  1
  H  H27  1  0.11419334  0.50039754  0.76307224  1
  H  H28  1  0.55628907  0.50782339  0.34449445  1
  H  H29  1  0.05628907  0.49217661  0.15550555  1
  H  H30  1  0.44371093  0.99217661  0.84449445  1
  H  H31  1  0.94371093  0.00782339  0.65550555  1
  H  H32  1  0.44371093  0.49217661  0.65550555  1
  H  H33  1  0.94371093  0.50782339  0.84449445  1
  H  H34  1  0.55628907  0.00782339  0.15550555  1
  H  H35  1  0.05628907  0.99217661  0.34449445  1
  O  O36  1  0.62393374  0.37863868  0.98117831  1
  O  O37  1  0.12393374  0.62136132  0.51882169  1
  O  O38  1  0.37606626  0.12136132  0.48117831  1
  O  O39  1  0.87606626  0.87863868  0.01882169  1
  O  O40  1  0.37606626  0.62136132  0.01882169  1
  O  O41  1  0.87606626  0.37863868  0.48117831  1
  O  O42  1  0.62393374  0.87863868  0.51882169  1
  O  O43  1  0.12393374  0.12136132  0.98117831  1
  O  O44  1  0.46797775  0.45736709  0.24090402  1
  O  O45  1  0.96797775  0.54263291  0.25909598  1
  O  O46  1  0.53202225  0.04263291  0.74090402  1
  O  O47  1  0.03202225  0.95736709  0.75909598  1
  O  O48  1  0.53202225  0.54263291  0.75909598  1
  O  O49  1  0.03202225  0.45736709  0.74090402  1
  O  O50  1  0.46797775  0.95736709  0.25909598  1
  O  O51  1  0.96797775  0.04263291  0.24090402  1
  O  O52  1  0.64761092  0.61212029  0.06002671  1
  O  O53  1  0.14761092  0.38787971  0.43997329  1
  O  O54  1  0.35238908  0.88787971  0.56002671  1
  O  O55  1  0.85238908  0.11212029  0.93997329  1
  O  O56  1  0.35238908  0.38787971  0.93997329  1
  O  O57  1  0.85238908  0.61212029  0.56002671  1
  O  O58  1  0.64761092  0.11212029  0.43997329  1
  O  O59  1  0.14761092  0.88787971  0.06002671  1
  F  F60  1  0.87918077  0.05157914  0.57640514  1
  F  F61  1  0.37918077  0.94842086  0.92359486  1
  F  F62  1  0.12081923  0.44842086  0.07640514  1
  F  F63  1  0.62081923  0.55157914  0.42359486  1
  F  F64  1  0.12081923  0.94842086  0.42359486  1
  F  F65  1  0.62081923  0.05157914  0.07640514  1
  F  F66  1  0.87918077  0.55157914  0.92359486  1
  F  F67  1  0.37918077  0.44842086  0.57640514  1
