# generated using pymatgen
data_Co3(P2O7)2
_symmetry_space_group_name_H-M   'P 1'
_cell_length_a   5.64454992
_cell_length_b   7.51751100
_cell_length_c   7.13626338
_cell_angle_alpha   82.97873824
_cell_angle_beta   87.67500596
_cell_angle_gamma   62.59130939
_symmetry_Int_Tables_number   1
_chemical_formula_structural   Co3(P2O7)2
_chemical_formula_sum   'Co3 P4 O14'
_cell_volume   266.76244357
_cell_formula_units_Z   1
loop_
 _symmetry_equiv_pos_site_id
 _symmetry_equiv_pos_as_xyz
  1  'x, y, z'
loop_
 _atom_site_type_symbol
 _atom_site_label
 _atom_site_symmetry_multiplicity
 _atom_site_fract_x
 _atom_site_fract_y
 _atom_site_fract_z
 _atom_site_occupancy
  Co  Co0  1  0.16932723  0.49927881  0.32504314  1
  Co  Co1  1  0.00000000  0.00000000  0.00000000  1
  Co  Co2  1  0.83067277  0.50072119  0.67495686  1
  P  P3  1  0.23789092  0.70061187  0.66723338  1
  P  P4  1  0.76210908  0.29938813  0.33276662  1
  P  P5  1  0.65829928  0.68473567  0.07435982  1
  P  P6  1  0.34170072  0.31526433  0.92564018  1
  O  O7  1  0.37796730  0.84780446  0.09134908  1
  O  O8  1  0.86384307  0.71264507  0.19072212  1
  O  O9  1  0.65899365  0.47456160  0.15632151  1
  O  O10  1  0.06430566  0.64826759  0.53918046  1
  O  O11  1  0.49233038  0.67913056  0.56229550  1
  O  O12  1  0.75935207  0.66087254  0.87140592  1
  O  O13  1  0.13615693  0.28735493  0.80927788  1
  O  O14  1  0.93569434  0.35173241  0.46081954  1
  O  O15  1  0.34100635  0.52543840  0.84367849  1
  O  O16  1  0.92043581  0.10200782  0.25507255  1
  O  O17  1  0.62203270  0.15219554  0.90865092  1
  O  O18  1  0.24064793  0.33912746  0.12859408  1
  O  O19  1  0.07956419  0.89799218  0.74492745  1
  O  O20  1  0.50766962  0.32086944  0.43770450  1
