# generated using pymatgen
data_InH7N2OF4
_symmetry_space_group_name_H-M   'P 1'
_cell_length_a   6.88678071
_cell_length_b   8.75493591
_cell_length_c   9.29824651
_cell_angle_alpha   90.00000000
_cell_angle_beta   90.00000000
_cell_angle_gamma   90.00000000
_symmetry_Int_Tables_number   1
_chemical_formula_structural   InH7N2OF4
_chemical_formula_sum   'In4 H28 N8 O4 F16'
_cell_volume   560.62218706
_cell_formula_units_Z   4
loop_
 _symmetry_equiv_pos_site_id
 _symmetry_equiv_pos_as_xyz
  1  'x, y, z'
loop_
 _atom_site_type_symbol
 _atom_site_label
 _atom_site_symmetry_multiplicity
 _atom_site_fract_x
 _atom_site_fract_y
 _atom_site_fract_z
 _atom_site_occupancy
  In  In0  1  0.86478556  0.71516770  0.44703668  1
  In  In1  1  0.63521444  0.28483230  0.94703668  1
  In  In2  1  0.36478556  0.78483230  0.55296332  1
  In  In3  1  0.13521444  0.21516770  0.05296332  1
  H  H4  1  0.00010138  0.49814893  0.23839393  1
  H  H5  1  0.49989862  0.50185107  0.73839393  1
  H  H6  1  0.50010138  0.00185107  0.76160607  1
  H  H7  1  -0.00010138  0.99814893  0.26160607  1
  H  H8  1  0.76983938  0.51615632  0.20348419  1
  H  H9  1  0.73016062  0.48384368  0.70348419  1
  H  H10  1  0.26983938  0.98384368  0.79651581  1
  H  H11  1  0.23016062  0.01615632  0.29651581  1
  H  H12  1  0.93183837  0.57164512  0.91901604  1
  H  H13  1  0.56816163  0.42835488  0.41901604  1
  H  H14  1  0.43183837  0.92835488  0.08098396  1
  H  H15  1  0.06816163  0.07164512  0.58098396  1
  H  H16  1  0.06439192  0.66177166  0.80005049  1
  H  H17  1  0.43560808  0.33822834  0.30005049  1
  H  H18  1  0.56439192  0.83822834  0.19994951  1
  H  H19  1  0.93560808  0.16177166  0.69994951  1
  H  H20  1  0.77901048  0.79055145  0.78656437  1
  H  H21  1  0.72098952  0.20944855  0.28656437  1
  H  H22  1  0.27901048  0.70944855  0.21343563  1
  H  H23  1  0.22098952  0.29055145  0.71343563  1
  H  H24  1  0.75451321  0.78730937  0.96849210  1
  H  H25  1  0.74548679  0.21269063  0.46849210  1
  H  H26  1  0.25451321  0.71269063  0.03150790  1
  H  H27  1  0.24548679  0.28730937  0.53150790  1
  H  H28  1  0.93038809  0.89616329  0.89173682  1
  H  H29  1  0.56961191  0.10383671  0.39173682  1
  H  H30  1  0.43038809  0.60383671  0.10826318  1
  H  H31  1  0.06961191  0.39616329  0.60826318  1
  N  N32  1  0.00063970  0.67325275  0.89982085  1
  N  N33  1  0.49936030  0.32674725  0.39982085  1
  N  N34  1  0.50063970  0.82674725  0.10017915  1
  N  N35  1  -0.00063970  0.17325275  0.60017915  1
  N  N36  1  0.85533995  0.79230150  0.88479087  1
  N  N37  1  0.64466005  0.20769850  0.38479087  1
  N  N38  1  0.35533995  0.70769850  0.11520913  1
  N  N39  1  0.14466005  0.29230150  0.61520913  1
  O  O40  1  0.87654531  0.55045080  0.26788881  1
  O  O41  1  0.62345469  0.44954920  0.76788881  1
  O  O42  1  0.37654531  0.94954920  0.73211119  1
  O  O43  1  0.12345469  0.05045080  0.23211119  1
  F  F44  1  0.55640033  0.66490433  0.39817345  1
  F  F45  1  0.94359967  0.33509567  0.89817345  1
  F  F46  1  0.05640033  0.83509567  0.60182655  1
  F  F47  1  0.44359967  0.16490433  0.10182655  1
  F  F48  1  0.82163932  0.91018572  0.32387448  1
  F  F49  1  0.67836068  0.08981428  0.82387448  1
  F  F50  1  0.32163932  0.58981428  0.67612552  1
  F  F51  1  0.17836068  0.41018572  0.17612552  1
  F  F52  1  0.88893294  0.52340722  0.58238555  1
  F  F53  1  0.61106706  0.47659278  0.08238555  1
  F  F54  1  0.38893294  0.97659278  0.41761445  1
  F  F55  1  0.11106706  0.02340722  0.91761445  1
  F  F56  1  0.67266676  0.80023912  0.62062692  1
  F  F57  1  0.82733324  0.19976088  0.12062692  1
  F  F58  1  0.17266676  0.69976088  0.37937308  1
  F  F59  1  0.32733324  0.30023912  0.87937308  1
