# generated using pymatgen
data_MnH18C4N8(ClO)4
_symmetry_space_group_name_H-M   'P 1'
_cell_length_a   6.41908329
_cell_length_b   11.50828451
_cell_length_c   11.70890377
_cell_angle_alpha   90.00000000
_cell_angle_beta   103.49711513
_cell_angle_gamma   90.00000000
_symmetry_Int_Tables_number   1
_chemical_formula_structural   MnH18C4N8(ClO)4
_chemical_formula_sum   'Mn2 H36 C8 N16 Cl8 O8'
_cell_volume   841.07863711
_cell_formula_units_Z   2
loop_
 _symmetry_equiv_pos_site_id
 _symmetry_equiv_pos_as_xyz
  1  'x, y, z'
loop_
 _atom_site_type_symbol
 _atom_site_label
 _atom_site_symmetry_multiplicity
 _atom_site_fract_x
 _atom_site_fract_y
 _atom_site_fract_z
 _atom_site_occupancy
  Mn  Mn0  1  0.50000000  0.00000000  0.50000000  1
  Mn  Mn1  1  0.00000000  0.50000000  0.00000000  1
  H  H2  1  0.29316543  0.78575857  0.49918688  1
  H  H3  1  0.79316543  0.71424143  0.99918688  1
  H  H4  1  0.70683457  0.21424143  0.50081312  1
  H  H5  1  0.20683457  0.28575857  0.00081312  1
  H  H6  1  0.13057841  0.88820618  0.49591185  1
  H  H7  1  0.63057841  0.61179382  0.99591185  1
  H  H8  1  0.86942159  0.11179382  0.50408815  1
  H  H9  1  0.36942159  0.38820618  0.00408815  1
  H  H10  1  0.00246269  0.71207068  0.20825655  1
  H  H11  1  0.50246269  0.78792932  0.70825655  1
  H  H12  1  0.99753731  0.28792932  0.79174345  1
  H  H13  1  0.49753731  0.21207068  0.29174345  1
  H  H14  1  0.12081881  0.82433439  0.30373289  1
  H  H15  1  0.62081881  0.67566561  0.80373289  1
  H  H16  1  0.87918119  0.17566561  0.69626711  1
  H  H17  1  0.37918119  0.32433439  0.19626711  1
  H  H18  1  0.08827529  0.00624026  0.25515551  1
  H  H19  1  0.58827529  0.49375974  0.75515551  1
  H  H20  1  0.91172471  0.99375974  0.74484449  1
  H  H21  1  0.41172471  0.50624026  0.24484449  1
  H  H22  1  0.87421631  0.26669939  0.13721802  1
  H  H23  1  0.37421631  0.23330061  0.63721802  1
  H  H24  1  0.12578369  0.73330061  0.86278198  1
  H  H25  1  0.62578369  0.76669939  0.36278198  1
  H  H26  1  0.03556187  0.19337918  0.25853652  1
  H  H27  1  0.53556187  0.30662082  0.75853652  1
  H  H28  1  0.96443813  0.80662082  0.74146348  1
  H  H29  1  0.46443813  0.69337918  0.24146348  1
  H  H30  1  0.66879230  0.15722913  0.98278229  1
  H  H31  1  0.16879230  0.34277087  0.48278229  1
  H  H32  1  0.33120770  0.84277087  0.01721771  1
  H  H33  1  0.83120770  0.65722913  0.51721771  1
  H  H34  1  0.69468920  0.00258410  0.98770412  1
  H  H35  1  0.19468920  0.49741590  0.48770412  1
  H  H36  1  0.30531080  0.99741590  0.01229588  1
  H  H37  1  0.80531080  0.50258410  0.51229588  1
  C  C38  1  0.92165449  0.87699851  0.14769074  1
  C  C39  1  0.42165449  0.62300149  0.64769074  1
  C  C40  1  0.07834551  0.12300149  0.85230926  1
  C  C41  1  0.57834551  0.37699851  0.35230926  1
  C  C42  1  0.87466148  0.08960458  0.12565315  1
  C  C43  1  0.37466148  0.41039542  0.62565315  1
  C  C44  1  0.12533852  0.91039542  0.87434685  1
  C  C45  1  0.62533852  0.58960458  0.37434685  1
  N  N46  1  0.02301311  0.79904097  0.22541308  1
  N  N47  1  0.52301311  0.70095903  0.72541308  1
  N  N48  1  0.97698689  0.20095903  0.77458692  1
  N  N49  1  0.47698689  0.29904097  0.27458692  1
  N  N50  1  0.96702980  0.99223193  0.18212527  1
  N  N51  1  0.46702980  0.50776807  0.68212527  1
  N  N52  1  0.03297020  0.00776807  0.81787473  1
  N  N53  1  0.53297020  0.49223193  0.31787473  1
  N  N54  1  0.93744354  0.19108026  0.17609147  1
  N  N55  1  0.43744354  0.30891974  0.67609147  1
  N  N56  1  0.06255646  0.80891974  0.82390853  1
  N  N57  1  0.56255646  0.69108026  0.32390853  1
  N  N58  1  0.73012268  0.08249545  0.02437030  1
  N  N59  1  0.23012268  0.41750455  0.52437030  1
  N  N60  1  0.26987732  0.91750455  0.97562970  1
  N  N61  1  0.76987732  0.58249545  0.47562970  1
  Cl  Cl62  1  0.49678918  0.00004176  0.29056179  1
  Cl  Cl63  1  0.99678918  0.49995824  0.79056179  1
  Cl  Cl64  1  0.50321082  -0.00004176  0.70943821  1
  Cl  Cl65  1  0.00321082  0.50004176  0.20943821  1
  Cl  Cl66  1  0.18437518  0.13952287  0.45506904  1
  Cl  Cl67  1  0.68437518  0.36047713  0.95506904  1
  Cl  Cl68  1  0.81562482  0.86047713  0.54493096  1
  Cl  Cl69  1  0.31562482  0.63952287  0.04493096  1
  O  O70  1  0.25800675  0.86600617  0.46651028  1
  O  O71  1  0.75800675  0.63399383  0.96651028  1
  O  O72  1  0.74199325  0.13399383  0.53348972  1
  O  O73  1  0.24199325  0.36600617  0.03348972  1
  O  O74  1  0.79704201  0.85219852  0.05084572  1
  O  O75  1  0.29704201  0.64780148  0.55084572  1
  O  O76  1  0.20295799  0.14780148  0.94915428  1
  O  O77  1  0.70295799  0.35219852  0.44915428  1
