# generated using pymatgen
data_CdRe2H16C4S4(NO)8
_symmetry_space_group_name_H-M   'P 1'
_cell_length_a   7.07435405
_cell_length_b   13.79018244
_cell_length_c   11.67442043
_cell_angle_alpha   90.00000000
_cell_angle_beta   106.78603326
_cell_angle_gamma   90.00000000
_symmetry_Int_Tables_number   1
_chemical_formula_structural   CdRe2H16C4S4(NO)8
_chemical_formula_sum   'Cd2 Re4 H32 C8 S8 N16 O16'
_cell_volume   1090.38780353
_cell_formula_units_Z   2
loop_
 _symmetry_equiv_pos_site_id
 _symmetry_equiv_pos_as_xyz
  1  'x, y, z'
loop_
 _atom_site_type_symbol
 _atom_site_label
 _atom_site_symmetry_multiplicity
 _atom_site_fract_x
 _atom_site_fract_y
 _atom_site_fract_z
 _atom_site_occupancy
  Cd  Cd0  1  0.00000000  0.50000000  0.50000000  1
  Cd  Cd1  1  0.00000000  0.00000000  0.00000000  1
  Re  Re2  1  0.58050490  0.52231241  0.18850280  1
  Re  Re3  1  0.41949510  0.02231241  0.31149720  1
  Re  Re4  1  0.41949510  0.47768759  0.81149720  1
  Re  Re5  1  0.58050490  0.97768759  0.68850280  1
  H  H6  1  0.75926172  0.67899374  0.38315945  1
  H  H7  1  0.24073828  0.17899374  0.11684055  1
  H  H8  1  0.24073828  0.32100626  0.61684055  1
  H  H9  1  0.75926172  0.82100626  0.88315945  1
  H  H10  1  0.74805907  0.80484079  0.35530486  1
  H  H11  1  0.25194093  0.30484079  0.14469514  1
  H  H12  1  0.25194093  0.19515921  0.64469514  1
  H  H13  1  0.74805907  0.69515921  0.85530486  1
  H  H14  1  0.90809847  0.91132434  0.50137030  1
  H  H15  1  0.09190153  0.41132434  0.99862970  1
  H  H16  1  0.09190153  0.08867566  0.49862970  1
  H  H17  1  0.90809847  0.58867566  0.00137030  1
  H  H18  1  0.04655203  0.86962509  0.64245572  1
  H  H19  1  0.95344797  0.36962509  0.85754428  1
  H  H20  1  0.95344797  0.13037491  0.35754428  1
  H  H21  1  0.04655203  0.63037491  0.14245572  1
  H  H22  1  0.51070560  0.58044348  0.57623371  1
  H  H23  1  0.48929440  0.08044348  0.92376629  1
  H  H24  1  0.48929440  0.41955652  0.42376629  1
  H  H25  1  0.51070560  0.91955652  0.07623371  1
  H  H26  1  0.54432286  0.70604041  0.59649429  1
  H  H27  1  0.45567714  0.20604041  0.90350571  1
  H  H28  1  0.45567714  0.29395959  0.40350571  1
  H  H29  1  0.54432286  0.79395959  0.09649429  1
  H  H30  1  0.36095045  0.81257529  0.45692433  1
  H  H31  1  0.63904955  0.31257529  0.04307567  1
  H  H32  1  0.63904955  0.18742471  0.54307567  1
  H  H33  1  0.36095045  0.68742471  0.95692433  1
  H  H34  1  0.18510282  0.76900711  0.32811932  1
  H  H35  1  0.81489718  0.26900711  0.17188068  1
  H  H36  1  0.81489718  0.23099289  0.67188068  1
  H  H37  1  0.18510282  0.73099289  0.82811932  1
  C  C38  1  0.91580489  0.76331651  0.52261028  1
  C  C39  1  0.08419511  0.26331651  0.97738972  1
  C  C40  1  0.08419511  0.23668349  0.47738972  1
  C  C41  1  0.91580489  0.73668349  0.02261028  1
  C  C42  1  0.33166485  0.66460089  0.44479184  1
  C  C43  1  0.66833515  0.16460089  0.05520816  1
  C  C44  1  0.66833515  0.33539911  0.55520816  1
  C  C45  1  0.33166485  0.83539911  0.94479184  1
  S  S46  1  0.00286743  0.67034989  0.62193198  1
  S  S47  1  0.99713257  0.17034989  0.87806802  1
  S  S48  1  0.99713257  0.32965011  0.37806802  1
  S  S49  1  0.00286743  0.82965011  0.12193198  1
  S  S50  1  0.20859250  0.56843206  0.35980845  1
  S  S51  1  0.79140750  0.06843206  0.14019155  1
  S  S52  1  0.79140750  0.43156794  0.64019155  1
  S  S53  1  0.20859250  0.93156794  0.85980845  1
  N  N54  1  0.80020386  0.74780506  0.41113613  1
  N  N55  1  0.19979614  0.24780506  0.08886387  1
  N  N56  1  0.19979614  0.25219494  0.58886387  1
  N  N57  1  0.80020386  0.75219494  0.91113613  1
  N  N58  1  0.96196493  0.85501964  0.55758109  1
  N  N59  1  0.03803507  0.35501964  0.94241891  1
  N  N60  1  0.03803507  0.14498036  0.44241891  1
  N  N61  1  0.96196493  0.64498036  0.05758109  1
  N  N62  1  0.47247344  0.64917766  0.54700764  1
  N  N63  1  0.52752656  0.14917766  0.95299236  1
  N  N64  1  0.52752656  0.35082234  0.45299236  1
  N  N65  1  0.47247344  0.85082234  0.04700764  1
  N  N66  1  0.29025145  0.75548351  0.40687957  1
  N  N67  1  0.70974855  0.25548351  0.09312043  1
  N  N68  1  0.70974855  0.24451649  0.59312043  1
  N  N69  1  0.29025145  0.74451649  0.90687957  1
  O  O70  1  0.69615430  0.53568599  0.34402025  1
  O  O71  1  0.30384570  0.03568599  0.15597975  1
  O  O72  1  0.30384570  0.46431401  0.65597975  1
  O  O73  1  0.69615430  0.96431401  0.84402025  1
  O  O74  1  0.37720592  0.44392709  0.16241764  1
  O  O75  1  0.62279408  0.94392709  0.33758236  1
  O  O76  1  0.62279408  0.55607291  0.83758236  1
  O  O77  1  0.37720592  0.05607291  0.66241764  1
  O  O78  1  0.74850442  0.47194814  0.12143422  1
  O  O79  1  0.25149558  0.97194814  0.37856578  1
  O  O80  1  0.25149558  0.52805186  0.87856578  1
  O  O81  1  0.74850442  0.02805186  0.62143422  1
  O  O82  1  0.51099896  0.63772049  0.12757666  1
  O  O83  1  0.48900104  0.13772049  0.37242334  1
  O  O84  1  0.48900104  0.36227951  0.87242334  1
  O  O85  1  0.51099896  0.86227951  0.62757666  1
