# generated using pymatgen
data_P6H24N6O19
_symmetry_space_group_name_H-M   'P 1'
_cell_length_a   9.36808991
_cell_length_b   9.36808991
_cell_length_c   9.36809022
_cell_angle_alpha   112.97901093
_cell_angle_beta   112.97901093
_cell_angle_gamma   112.97901738
_symmetry_Int_Tables_number   1
_chemical_formula_structural   P6H24N6O19
_chemical_formula_sum   'P6 H24 N6 O19'
_cell_volume   535.20890357
_cell_formula_units_Z   1
loop_
 _symmetry_equiv_pos_site_id
 _symmetry_equiv_pos_as_xyz
  1  'x, y, z'
loop_
 _atom_site_type_symbol
 _atom_site_label
 _atom_site_symmetry_multiplicity
 _atom_site_fract_x
 _atom_site_fract_y
 _atom_site_fract_z
 _atom_site_occupancy
  P  P0  1  0.21553318  0.12191939  0.86882296  1
  P  P1  1  0.12191939  0.86882296  0.21553318  1
  P  P2  1  0.86882296  0.21553318  0.12191939  1
  P  P3  1  0.78446682  0.87808061  0.13117704  1
  P  P4  1  0.87808061  0.13117704  0.78446682  1
  P  P5  1  0.13117704  0.78446682  0.87808061  1
  H  H6  1  0.28332754  0.87275463  0.64309262  1
  H  H7  1  0.87275463  0.64309262  0.28332754  1
  H  H8  1  0.64309262  0.28332754  0.87275463  1
  H  H9  1  0.71667246  0.12724537  0.35690738  1
  H  H10  1  0.12724537  0.35690738  0.71667246  1
  H  H11  1  0.35690738  0.71667246  0.12724537  1
  H  H12  1  0.19238963  0.22926995  0.61997131  1
  H  H13  1  0.22926995  0.61997131  0.19238963  1
  H  H14  1  0.61997131  0.19238962  0.22926995  1
  H  H15  1  0.80761037  0.77073005  0.38002869  1
  H  H16  1  0.77073005  0.38002869  0.80761037  1
  H  H17  1  0.38002869  0.80761038  0.77073005  1
  H  H18  1  0.51733645  0.21780443  0.63756304  1
  H  H19  1  0.21780443  0.63756304  0.51733645  1
  H  H20  1  0.63756304  0.51733645  0.21780443  1
  H  H21  1  0.48266355  0.78219557  0.36243696  1
  H  H22  1  0.78219557  0.36243696  0.48266355  1
  H  H23  1  0.36243696  0.48266355  0.78219557  1
  H  H24  1  0.54274154  0.14868396  0.35427580  1
  H  H25  1  0.14868396  0.35427580  0.54274154  1
  H  H26  1  0.35427580  0.54274154  0.14868396  1
  H  H27  1  0.45725846  0.85131604  0.64572420  1
  H  H28  1  0.85131604  0.64572420  0.45725846  1
  H  H29  1  0.64572420  0.45725846  0.85131604  1
  N  N30  1  0.64199605  0.33398563  0.79121440  1
  N  N31  1  0.33398563  0.79121440  0.64199605  1
  N  N32  1  0.79121440  0.64199605  0.33398563  1
  N  N33  1  0.35800395  0.66601437  0.20878560  1
  N  N34  1  0.66601437  0.20878560  0.35800395  1
  N  N35  1  0.20878560  0.35800395  0.66601437  1
  O  O36  1  0.36182144  0.34567537  0.04137959  1
  O  O37  1  0.34567537  0.04137959  0.36182144  1
  O  O38  1  0.04137959  0.36182144  0.34567537  1
  O  O39  1  0.63817856  0.65432463  0.95862041  1
  O  O40  1  0.65432463  0.95862041  0.63817856  1
  O  O41  1  0.95862041  0.63817856  0.65432463  1
  O  O42  1  0.22423939  0.04332358  0.70105205  1
  O  O43  1  0.04332358  0.70105205  0.22423939  1
  O  O44  1  0.70105205  0.22423939  0.04332358  1
  O  O45  1  0.77576061  0.95667642  0.29894795  1
  O  O46  1  0.95667642  0.29894795  0.77576061  1
  O  O47  1  0.29894795  0.77576061  0.95667642  1
  O  O48  1  0.98329297  0.03184946  0.76260981  1
  O  O49  1  0.03184946  0.76260981  0.98329297  1
  O  O50  1  0.76260981  0.98329297  0.03184946  1
  O  O51  1  0.01670703  0.96815054  0.23739019  1
  O  O52  1  0.96815054  0.23739019  0.01670703  1
  O  O53  1  0.23739019  0.01670703  0.96815054  1
  O  O54  1  0.50000000  0.50000000  0.50000000  1
