# generated using pymatgen
data_LiSnPO4
_symmetry_space_group_name_H-M   'P 1'
_cell_length_a   5.26558258
_cell_length_b   5.26558258
_cell_length_c   5.35117589
_cell_angle_alpha   60.52772247
_cell_angle_beta   60.52772235
_cell_angle_gamma   90.00000000
_symmetry_Int_Tables_number   1
_chemical_formula_structural   LiSnPO4
_chemical_formula_sum   'Li1 Sn1 P1 O4'
_cell_volume   106.56414046
_cell_formula_units_Z   1
loop_
 _symmetry_equiv_pos_site_id
 _symmetry_equiv_pos_as_xyz
  1  'x, y, z'
loop_
 _atom_site_type_symbol
 _atom_site_label
 _atom_site_symmetry_multiplicity
 _atom_site_fract_x
 _atom_site_fract_y
 _atom_site_fract_z
 _atom_site_occupancy
  Li  Li0  1  0.50000000  0.50000000  0.00000000  1
  Sn  Sn1  1  0.00000000  0.00000000  0.00000000  1
  P  P2  1  0.75000000  0.25000000  0.50000000  1
  O  O3  1  0.06966093  0.23006157  0.27189698  1
  O  O4  1  0.76993843  0.34155790  0.72810302  1
  O  O5  1  0.65844210  0.49804146  0.27189698  1
  O  O6  1  0.50195854  0.93033907  0.72810302  1
