# generated using pymatgen
data_Li3Nb4SnO12
_symmetry_space_group_name_H-M   'P 1'
_cell_length_a   5.66445380
_cell_length_b   11.30753581
_cell_length_c   9.91240505
_cell_angle_alpha   28.77692021
_cell_angle_beta   52.11213525
_cell_angle_gamma   57.37527120
_symmetry_Int_Tables_number   1
_chemical_formula_structural   Li3Nb4SnO12
_chemical_formula_sum   'Li3 Nb4 Sn1 O12'
_cell_volume   241.21564982
_cell_formula_units_Z   1
loop_
 _symmetry_equiv_pos_site_id
 _symmetry_equiv_pos_as_xyz
  1  'x, y, z'
loop_
 _atom_site_type_symbol
 _atom_site_label
 _atom_site_symmetry_multiplicity
 _atom_site_fract_x
 _atom_site_fract_y
 _atom_site_fract_z
 _atom_site_occupancy
  Li  Li0  1  0.27953384  0.49557964  0.28870642  1
  Li  Li1  1  0.78214070  0.00414298  0.78249095  1
  Li  Li2  1  0.78730848  0.49676568  0.78545245  1
  Nb  Nb3  1  0.01956712  0.00838708  0.98622426  1
  Nb  Nb4  1  0.97935896  0.50009010  0.00268406  1
  Nb  Nb5  1  0.47354105  0.99985767  0.50750531  1
  Nb  Nb6  1  0.52562382  0.50435365  0.47791895  1
  Sn  Sn7  1  0.26873150  0.00559424  0.25654771  1
  O  O8  1  0.33051339  0.29235846  0.14069545  1
  O  O9  1  0.23026426  0.11077467  0.63103171  1
  O  O10  1  0.13563686  0.31037590  0.72673352  1
  O  O11  1  0.80514629  0.22167364  0.22390153  1
  O  O12  1  0.36003419  0.80200344  0.12679679  1
  O  O13  1  0.71582943  0.38444874  0.35659386  1
  O  O14  1  0.23003422  0.56124718  0.67579179  1
  O  O15  1  0.66905852  0.19241306  0.82413658  1
  O  O16  1  0.12076849  0.80707380  0.73625031  1
  O  O17  1  0.85238309  0.70174946  0.22677237  1
  O  O18  1  0.73002673  0.89666191  0.34006050  1
  O  O19  1  0.63409806  0.70444870  0.83330647  1
