# generated using pymatgen
data_Ba2CaI6
_symmetry_space_group_name_H-M   'P 1'
_cell_length_a   9.32247421
_cell_length_b   9.21973870
_cell_length_c   10.20515605
_cell_angle_alpha   91.35315808
_cell_angle_beta   87.32278889
_cell_angle_gamma   120.36929714
_symmetry_Int_Tables_number   1
_chemical_formula_structural   Ba2CaI6
_chemical_formula_sum   'Ba4 Ca2 I12'
_cell_volume   755.95791262
_cell_formula_units_Z   2
loop_
 _symmetry_equiv_pos_site_id
 _symmetry_equiv_pos_as_xyz
  1  'x, y, z'
loop_
 _atom_site_type_symbol
 _atom_site_label
 _atom_site_symmetry_multiplicity
 _atom_site_fract_x
 _atom_site_fract_y
 _atom_site_fract_z
 _atom_site_occupancy
  Ba  Ba0  1  0.27979933  0.67319191  0.48723047  1
  Ba  Ba1  1  0.39339258  0.67319191  0.01276953  1
  Ba  Ba2  1  0.60660742  0.32680809  0.98723047  1
  Ba  Ba3  1  0.72020067  0.32680809  0.51276953  1
  Ca  Ca4  1  0.04798536  0.09597173  0.25000000  1
  Ca  Ca5  1  0.95201464  0.90402827  0.75000000  1
  I  I6  1  0.30263722  0.95898998  0.15725795  1
  I  I7  1  0.98998322  0.42781898  0.21442990  1
  I  I8  1  0.05307730  0.23620587  0.54934457  1
  I  I9  1  0.18312857  0.23620587  0.95065543  1
  I  I10  1  0.43783676  0.42781898  0.28557010  1
  I  I11  1  0.65635276  0.95898998  0.34274205  1
  I  I12  1  0.34364724  0.04101002  0.65725795  1
  I  I13  1  0.56216424  0.57218102  0.71442990  1
  I  I14  1  0.81687143  0.76379413  0.04934457  1
  I  I15  1  0.94692270  0.76379413  0.45065543  1
  I  I16  1  0.01001678  0.57218102  0.78557010  1
  I  I17  1  0.69736278  0.04101002  0.84274205  1
