# generated using pymatgen
data_V2As3H17C4N8O17
_symmetry_space_group_name_H-M   'P 1'
_cell_length_a   8.67945630
_cell_length_b   11.23498116
_cell_length_c   12.63193414
_cell_angle_alpha   83.13618658
_cell_angle_beta   82.66036269
_cell_angle_gamma   69.91955727
_symmetry_Int_Tables_number   1
_chemical_formula_structural   V2As3H17C4N8O17
_chemical_formula_sum   'V4 As6 H34 C8 N16 O34'
_cell_volume   1143.63690363
_cell_formula_units_Z   2
loop_
 _symmetry_equiv_pos_site_id
 _symmetry_equiv_pos_as_xyz
  1  'x, y, z'
loop_
 _atom_site_type_symbol
 _atom_site_label
 _atom_site_symmetry_multiplicity
 _atom_site_fract_x
 _atom_site_fract_y
 _atom_site_fract_z
 _atom_site_occupancy
  V  V0  1  0.26970082  0.81225706  0.62205869  1
  V  V1  1  0.73029918  0.18774294  0.37794131  1
  V  V2  1  0.22267018  0.11307098  0.59236828  1
  V  V3  1  0.77732982  0.88692902  0.40763172  1
  As  As4  1  0.04227750  0.65426028  0.54321475  1
  As  As5  1  0.95772250  0.34573972  0.45678525  1
  As  As6  1  0.82741994  0.03035145  0.60188534  1
  As  As7  1  0.17258006  0.96964855  0.39811466  1
  As  As8  1  0.12735104  0.98523529  0.82743118  1
  As  As9  1  0.87264896  0.01476471  0.17256882  1
  H  H10  1  0.19582520  0.47271486  0.46754240  1
  H  H11  1  0.80417480  0.52728514  0.53245760  1
  H  H12  1  0.80405331  0.03619829  0.78595508  1
  H  H13  1  0.19594669  0.96380171  0.21404492  1
  H  H14  1  0.17301888  0.97206896  0.00647968  1
  H  H15  1  0.82698112  0.02793104  0.99352032  1
  H  H16  1  0.27890959  0.56567071  0.73236691  1
  H  H17  1  0.72109041  0.43432929  0.26763309  1
  H  H18  1  0.98607258  0.62017511  0.95057254  1
  H  H19  1  0.01392742  0.37982489  0.04942746  1
  H  H20  1  0.08367329  0.68505484  0.83608877  1
  H  H21  1  0.91632671  0.31494516  0.16391123  1
  H  H22  1  0.51347706  0.18363129  0.76889707  1
  H  H23  1  0.48652294  0.81636871  0.23110293  1
  H  H24  1  0.33720883  0.25968753  0.85948397  1
  H  H25  1  0.66279117  0.74031247  0.14051603  1
  H  H26  1  0.59593698  0.31266751  0.62822455  1
  H  H27  1  0.40406302  0.68733249  0.37177545  1
  H  H28  1  0.49436825  0.47696304  0.62179411  1
  H  H29  1  0.50563175  0.52303696  0.37820589  1
  H  H30  1  0.44351964  0.77799875  0.92907428  1
  H  H31  1  0.55648036  0.22200125  0.07092572  1
  H  H32  1  0.50949430  0.61109775  0.95532566  1
  H  H33  1  0.49050570  0.38890225  0.04467434  1
  H  H34  1  0.57695860  0.86865217  0.78338663  1
  H  H35  1  0.42304140  0.13134783  0.21661337  1
  H  H36  1  0.72774292  0.77113115  0.69915905  1
  H  H37  1  0.27225708  0.22886885  0.30084095  1
  H  H38  1  0.81322439  0.56693682  0.72709646  1
  H  H39  1  0.18677561  0.43306318  0.27290354  1
  H  H40  1  0.86047004  0.25547585  0.82872169  1
  H  H41  1  0.13952996  0.74452415  0.17127831  1
  H  H42  1  0.92095204  0.35649882  0.72959237  1
  H  H43  1  0.07904796  0.64350118  0.27040763  1
  C  C44  1  0.40796578  0.37546288  0.74548097  1
  C  C45  1  0.59203422  0.62453712  0.25451903  1
  C  C46  1  0.17167535  0.49060101  0.86880032  1
  C  C47  1  0.82832465  0.50939899  0.13119968  1
  C  C48  1  0.63376942  0.67840665  0.82767763  1
  C  C49  1  0.36623058  0.32159335  0.17232237  1
  C  C50  1  0.73731943  0.44390709  0.84602798  1
  C  C51  1  0.26268057  0.55609291  0.15397202  1
  N  N52  1  0.28582972  0.48288870  0.77825330  1
  N  N53  1  0.71417028  0.51711130  0.22174670  1
  N  N54  1  0.07102940  0.60904356  0.88476645  1
  N  N55  1  0.92897060  0.39095644  0.11523355  1
  N  N56  1  0.42348798  0.26254987  0.79693131  1
  N  N57  1  0.57651202  0.73745013  0.20306869  1
  N  N58  1  0.51075544  0.38982652  0.66164409  1
  N  N59  1  0.48924456  0.61017348  0.33835591  1
  N  N60  1  0.52325275  0.69034158  0.91195649  1
  N  N61  1  0.47674725  0.30965842  0.08804351  1
  N  N62  1  0.65493293  0.78020553  0.76989071  1
  N  N63  1  0.34506707  0.21979447  0.23010929  1
  N  N64  1  0.73528145  0.56298175  0.79692472  1
  N  N65  1  0.26471855  0.43701825  0.20307528  1
  N  N66  1  0.85020591  0.34555245  0.79833281  1
  N  N67  1  0.14979409  0.65444755  0.20166719  1
  O  O68  1  0.22517985  0.08890069  0.44142579  1
  O  O69  1  0.77482015  0.91109931  0.55857421  1
  O  O70  1  0.35649049  0.18454296  0.58016998  1
  O  O71  1  0.64350951  0.81545704  0.41983002  1
  O  O72  1  0.26272622  0.82450321  0.46720190  1
  O  O73  1  0.73727378  0.17549679  0.53279810  1
  O  O74  1  0.01930767  0.25502682  0.57502642  1
  O  O75  1  0.98069233  0.74497318  0.42497358  1
  O  O76  1  0.34852422  0.94146291  0.60972779  1
  O  O77  1  0.65147578  0.05853709  0.39027221  1
  O  O78  1  0.22777277  0.53532003  0.50451241  1
  O  O79  1  0.77222723  0.46467997  0.49548759  1
  O  O80  1  0.42935547  0.68365290  0.63473023  1
  O  O81  1  0.57064453  0.31634710  0.36526977  1
  O  O82  1  0.03118501  0.99718501  0.61285542  1
  O  O83  1  0.96881499  0.00281499  0.38714458  1
  O  O84  1  0.17664818  0.10502303  0.74678986  1
  O  O85  1  0.82335182  0.89497697  0.25321014  1
  O  O86  1  0.09703657  0.73041754  0.63554886  1
  O  O87  1  0.90296343  0.26958246  0.36445114  1
  O  O88  1  0.89719441  0.59281773  0.60295753  1
  O  O89  1  0.10280559  0.40718227  0.39704247  1
  O  O90  1  0.20274663  0.83866010  0.77495550  1
  O  O91  1  0.79725337  0.16133990  0.22504450  1
  O  O92  1  0.72119967  0.04810601  0.73068908  1
  O  O93  1  0.27880033  0.95189399  0.26931092  1
  O  O94  1  0.24606753  0.96323855  0.93641104  1
  O  O95  1  0.75393247  0.03676145  0.06358896  1
  O  O96  1  0.92374806  0.03142882  0.87125638  1
  O  O97  1  0.07625194  0.96857118  0.12874362  1
  O  O98  1  0.16676542  0.39338835  0.92702917  1
  O  O99  1  0.83323458  0.60661165  0.07297083  1
  O  O100  1  0.64318842  0.43189204  0.92663029  1
  O  O101  1  0.35681158  0.56810796  0.07336971  1
