# generated using pymatgen
data_Fe2H13C6NCl2O11
_symmetry_space_group_name_H-M   'P 1'
_cell_length_a   8.89536311
_cell_length_b   8.89536311
_cell_length_c   12.95643382
_cell_angle_alpha   78.05188019
_cell_angle_beta   101.94811981
_cell_angle_gamma   63.45894351
_symmetry_Int_Tables_number   1
_chemical_formula_structural   Fe2H13C6NCl2O11
_chemical_formula_sum   'Fe4 H26 C12 N2 Cl4 O22'
_cell_volume   843.11458990
_cell_formula_units_Z   2
loop_
 _symmetry_equiv_pos_site_id
 _symmetry_equiv_pos_as_xyz
  1  'x, y, z'
loop_
 _atom_site_type_symbol
 _atom_site_label
 _atom_site_symmetry_multiplicity
 _atom_site_fract_x
 _atom_site_fract_y
 _atom_site_fract_z
 _atom_site_occupancy
  Fe  Fe0  1  0.91101409  0.00229222  0.83459692  1
  Fe  Fe1  1  0.99770778  0.08898591  0.33459692  1
  Fe  Fe2  1  0.63093574  0.96354957  0.60811178  1
  Fe  Fe3  1  0.03645043  0.36906426  0.10811178  1
  H  H4  1  0.61535699  0.21190555  0.68053893  1
  H  H5  1  0.78809445  0.38464301  0.18053893  1
  H  H6  1  0.11443125  0.63403727  0.67306212  1
  H  H7  1  0.36596273  0.88556875  0.17306212  1
  H  H8  1  0.26179140  0.55843434  0.80088011  1
  H  H9  1  0.44156566  0.73820860  0.30088011  1
  H  H10  1  0.33444857  0.49847162  0.69754768  1
  H  H11  1  0.50152838  0.66555143  0.19754768  1
  H  H12  1  0.22305017  0.65291510  0.34718213  1
  H  H13  1  0.34708490  0.77694983  0.84718213  1
  H  H14  1  0.38529242  0.45610095  0.38889363  1
  H  H15  1  0.54389905  0.61470758  0.88889363  1
  H  H16  1  0.57318226  0.49954290  0.67208901  1
  H  H17  1  0.50045710  0.42681774  0.17208901  1
  H  H18  1  0.44541321  0.52008966  0.55548721  1
  H  H19  1  0.47991034  0.55458679  0.05548721  1
  H  H20  1  0.08449981  0.40926273  0.77987820  1
  H  H21  1  0.59073727  0.91550019  0.27987820  1
  H  H22  1  0.18765851  0.33185373  0.68240219  1
  H  H23  1  0.66814627  0.81234149  0.18240219  1
  H  H24  1  0.34633759  0.09695171  0.87392004  1
  H  H25  1  0.90304829  0.65366241  0.37392004  1
  H  H26  1  0.48929620  0.16591171  0.83196088  1
  H  H27  1  0.83408829  0.51070380  0.33196088  1
  H  H28  1  0.38967840  0.24470310  0.93117743  1
  H  H29  1  0.75529690  0.61032160  0.43117743  1
  C  C30  1  0.89221115  0.73807984  0.99345810  1
  C  C31  1  0.26192016  0.10778885  0.49345810  1
  C  C32  1  0.02624558  0.63795332  0.93908136  1
  C  C33  1  0.36204668  0.97375442  0.43908136  1
  C  C34  1  0.87457144  0.26224593  0.94062539  1
  C  C35  1  0.73775407  0.12542856  0.44062539  1
  C  C36  1  0.06403524  0.10150857  0.00715963  1
  C  C37  1  0.89849143  0.93596476  0.50715963  1
  C  C38  1  0.20730611  0.36543846  0.75914596  1
  C  C39  1  0.63456154  0.79269389  0.25914596  1
  C  C40  1  0.36858517  0.20979658  0.85500071  1
  C  C41  1  0.79020342  0.63141483  0.35500071  1
  N  N42  1  0.23138022  0.52353513  0.73139433  1
  N  N43  1  0.47646487  0.76861978  0.23139433  1
  Cl  Cl44  1  0.06854295  0.04730597  0.72579137  1
  Cl  Cl45  1  0.95269403  0.93145705  0.22579137  1
  Cl  Cl46  1  0.67634309  0.71227799  0.73156982  1
  Cl  Cl47  1  0.28772201  0.32365691  0.23156982  1
  O  O48  1  0.68894730  0.07916890  0.71183802  1
  O  O49  1  0.92083110  0.31105270  0.21183802  1
  O  O50  1  0.81466113  0.90621535  0.95691100  1
  O  O51  1  0.09378465  0.18533887  0.45691100  1
  O  O52  1  0.04767389  0.73351635  0.86228337  1
  O  O53  1  0.26648365  0.95232611  0.36228337  1
  O  O54  1  0.87250540  0.64110786  0.07047610  1
  O  O55  1  0.35889214  0.12749460  0.57047610  1
  O  O56  1  0.10576118  0.46967682  0.97404262  1
  O  O57  1  0.53032318  0.89423882  0.47404262  1
  O  O58  1  0.82464538  0.39562924  0.97267554  1
  O  O59  1  0.60437076  0.17535462  0.47267554  1
  O  O60  1  0.15999220  0.12075991  0.08555613  1
  O  O61  1  0.87924009  0.84000780  0.58555613  1
  O  O62  1  0.11115606  0.96432401  0.97927385  1
  O  O63  1  0.03567599  0.88884394  0.47927385  1
  O  O64  1  0.78464865  0.24630331  0.85776219  1
  O  O65  1  0.75369669  0.21535135  0.35776219  1
  O  O66  1  0.35008390  0.57492828  0.39389962  1
  O  O67  1  0.42507172  0.64991610  0.89389962  1
  O  O68  1  0.49485646  0.45984512  0.63805664  1
  O  O69  1  0.54015488  0.50514354  0.13805664  1
