# generated using pymatgen
data_V2Sn4H24C8O9
_symmetry_space_group_name_H-M   'P 1'
_cell_length_a   12.84900372
_cell_length_b   13.71636120
_cell_length_c   13.56576508
_cell_angle_alpha   90.00000000
_cell_angle_beta   90.00000000
_cell_angle_gamma   90.00000000
_symmetry_Int_Tables_number   1
_chemical_formula_structural   V2Sn4H24C8O9
_chemical_formula_sum   'V8 Sn16 H96 C32 O36'
_cell_volume   2390.85181848
_cell_formula_units_Z   4
loop_
 _symmetry_equiv_pos_site_id
 _symmetry_equiv_pos_as_xyz
  1  'x, y, z'
loop_
 _atom_site_type_symbol
 _atom_site_label
 _atom_site_symmetry_multiplicity
 _atom_site_fract_x
 _atom_site_fract_y
 _atom_site_fract_z
 _atom_site_occupancy
  V  V0  1  0.47645401  0.36987124  0.74833223  1
  V  V1  1  0.52354599  0.63012876  0.74833223  1
  V  V2  1  0.97645401  0.13012876  0.75166777  1
  V  V3  1  0.02354599  0.86987124  0.75166777  1
  V  V4  1  0.52354599  0.63012876  0.25166777  1
  V  V5  1  0.47645401  0.36987124  0.25166777  1
  V  V6  1  0.02354599  0.86987124  0.24833223  1
  V  V7  1  0.97645401  0.13012876  0.24833223  1
  Sn  Sn8  1  0.13008441  0.21486889  0.50000000  1
  Sn  Sn9  1  0.86991559  0.78513111  0.50000000  1
  Sn  Sn10  1  0.63008441  0.28513111  0.00000000  1
  Sn  Sn11  1  0.36991559  0.71486889  0.00000000  1
  Sn  Sn12  1  0.37781402  0.30183331  0.50000000  1
  Sn  Sn13  1  0.62218598  0.69816669  0.50000000  1
  Sn  Sn14  1  0.87781402  0.19816669  0.00000000  1
  Sn  Sn15  1  0.12218598  0.80183331  0.00000000  1
  Sn  Sn16  1  0.20784222  0.26932639  0.74385982  1
  Sn  Sn17  1  0.79215778  0.73067361  0.74385982  1
  Sn  Sn18  1  0.70784222  0.23067361  0.75614018  1
  Sn  Sn19  1  0.29215778  0.76932639  0.75614018  1
  Sn  Sn20  1  0.79215778  0.73067361  0.25614018  1
  Sn  Sn21  1  0.20784222  0.26932639  0.25614018  1
  Sn  Sn22  1  0.29215778  0.76932639  0.24385982  1
  Sn  Sn23  1  0.70784222  0.23067361  0.24385982  1
  H  H24  1  0.22963948  0.04246031  0.50000000  1
  H  H25  1  0.77036052  0.95753969  0.50000000  1
  H  H26  1  0.72963948  0.45753969  0.00000000  1
  H  H27  1  0.27036052  0.54246031  0.00000000  1
  H  H28  1  0.11035047  0.02958577  0.56665680  1
  H  H29  1  0.88964953  0.97041423  0.56665680  1
  H  H30  1  0.61035047  0.47041423  0.93334320  1
  H  H31  1  0.38964953  0.52958577  0.93334320  1
  H  H32  1  0.88964953  0.97041423  0.43334320  1
  H  H33  1  0.11035047  0.02958577  0.43334320  1
  H  H34  1  0.38964953  0.52958577  0.06665680  1
  H  H35  1  0.61035047  0.47041423  0.06665680  1
  H  H36  1  0.05069507  0.39686606  0.50000000  1
  H  H37  1  0.94930493  0.60313394  0.50000000  1
  H  H38  1  0.55069507  0.10313394  0.00000000  1
  H  H39  1  0.44930493  0.89686606  0.00000000  1
  H  H40  1  0.96467186  0.31746341  0.43352061  1
  H  H41  1  0.03532814  0.68253659  0.43352061  1
  H  H42  1  0.46467186  0.18253659  0.06647939  1
  H  H43  1  0.53532814  0.81746341  0.06647939  1
  H  H44  1  0.03532814  0.68253659  0.56647939  1
  H  H45  1  0.96467186  0.31746341  0.56647939  1
  H  H46  1  0.53532814  0.81746341  0.93352061  1
  H  H47  1  0.46467186  0.18253659  0.93352061  1
  H  H48  1  0.37647856  0.10408298  0.50000000  1
  H  H49  1  0.62352144  0.89591702  0.50000000  1
  H  H50  1  0.87647856  0.39591702  0.00000000  1
  H  H51  1  0.12352144  0.60408298  0.00000000  1
  H  H52  1  0.48820626  0.14740497  0.43421276  1
  H  H53  1  0.51179374  0.85259503  0.43421276  1
  H  H54  1  0.98820626  0.35259503  0.06578724  1
  H  H55  1  0.01179374  0.64740497  0.06578724  1
  H  H56  1  0.51179374  0.85259503  0.56578724  1
  H  H57  1  0.48820626  0.14740497  0.56578724  1
  H  H58  1  0.01179374  0.64740497  0.93421276  1
  H  H59  1  0.98820626  0.35259503  0.93421276  1
  H  H60  1  0.26377271  0.46741758  0.50000000  1
  H  H61  1  0.73622729  0.53258242  0.50000000  1
  H  H62  1  0.76377271  0.03258242  0.00000000  1
  H  H63  1  0.23622729  0.96741758  0.00000000  1
  H  H64  1  0.38329426  0.48744348  0.56585945  1
  H  H65  1  0.61670574  0.51255652  0.56585945  1
  H  H66  1  0.88329426  0.01255652  0.93414055  1
  H  H67  1  0.11670574  0.98744348  0.93414055  1
  H  H68  1  0.61670574  0.51255652  0.43414055  1
  H  H69  1  0.38329426  0.48744348  0.43414055  1
  H  H70  1  0.11670574  0.98744348  0.06585945  1
  H  H71  1  0.88329426  0.01255652  0.06585945  1
  H  H72  1  0.30433066  0.09710319  0.77162925  1
  H  H73  1  0.69566934  0.90289681  0.77162925  1
  H  H74  1  0.80433066  0.40289681  0.72837075  1
  H  H75  1  0.19566934  0.59710319  0.72837075  1
  H  H76  1  0.69566934  0.90289681  0.22837075  1
  H  H77  1  0.30433066  0.09710319  0.22837075  1
  H  H78  1  0.19566934  0.59710319  0.27162925  1
  H  H79  1  0.80433066  0.40289681  0.27162925  1
  H  H80  1  0.30667068  0.16432387  0.88504339  1
  H  H81  1  0.69332932  0.83567613  0.88504339  1
  H  H82  1  0.80667068  0.33567613  0.61495661  1
  H  H83  1  0.19332932  0.66432387  0.61495661  1
  H  H84  1  0.69332932  0.83567613  0.11495661  1
  H  H85  1  0.30667068  0.16432387  0.11495661  1
  H  H86  1  0.19332932  0.66432387  0.38504339  1
  H  H87  1  0.80667068  0.33567613  0.38504339  1
  H  H88  1  0.19104053  0.10110734  0.84862353  1
  H  H89  1  0.80895947  0.89889266  0.84862353  1
  H  H90  1  0.69104053  0.39889266  0.65137647  1
  H  H91  1  0.30895947  0.60110734  0.65137647  1
  H  H92  1  0.80895947  0.89889266  0.15137647  1
  H  H93  1  0.19104053  0.10110734  0.15137647  1
  H  H94  1  0.30895947  0.60110734  0.34862353  1
  H  H95  1  0.69104053  0.39889266  0.34862353  1
  H  H96  1  0.11069253  0.44173581  0.71383124  1
  H  H97  1  0.88930747  0.55826419  0.71383124  1
  H  H98  1  0.61069253  0.05826419  0.78616876  1
  H  H99  1  0.38930747  0.94173581  0.78616876  1
  H  H100  1  0.88930747  0.55826419  0.28616876  1
  H  H101  1  0.11069253  0.44173581  0.28616876  1
  H  H102  1  0.38930747  0.94173581  0.21383124  1
  H  H103  1  0.61069253  0.05826419  0.21383124  1
  H  H104  1  0.03797257  0.37317061  0.80204136  1
  H  H105  1  0.96202743  0.62682939  0.80204136  1
  H  H106  1  0.53797257  0.12682939  0.69795864  1
  H  H107  1  0.46202743  0.87317061  0.69795864  1
  H  H108  1  0.96202743  0.62682939  0.19795864  1
  H  H109  1  0.03797257  0.37317061  0.19795864  1
  H  H110  1  0.46202743  0.87317061  0.30204136  1
  H  H111  1  0.53797257  0.12682939  0.30204136  1
  H  H112  1  0.15425108  0.43596450  0.83937934  1
  H  H113  1  0.84574892  0.56403550  0.83937934  1
  H  H114  1  0.65425108  0.06403550  0.66062066  1
  H  H115  1  0.34574892  0.93596450  0.66062066  1
  H  H116  1  0.84574892  0.56403550  0.16062066  1
  H  H117  1  0.15425108  0.43596450  0.16062066  1
  H  H118  1  0.34574892  0.93596450  0.33937934  1
  H  H119  1  0.65425108  0.06403550  0.33937934  1
  C  C120  1  0.14630133  0.05929297  0.50000000  1
  C  C121  1  0.85369867  0.94070703  0.50000000  1
  C  C122  1  0.64630133  0.44070703  0.00000000  1
  C  C123  1  0.35369867  0.55929297  0.00000000  1
  C  C124  1  0.01205649  0.32563329  0.50000000  1
  C  C125  1  0.98794351  0.67436671  0.50000000  1
  C  C126  1  0.51205649  0.17436671  0.00000000  1
  C  C127  1  0.48794351  0.82563329  0.00000000  1
  C  C128  1  0.44030699  0.15673155  0.50000000  1
  C  C129  1  0.55969301  0.84326845  0.50000000  1
  C  C130  1  0.94030699  0.34326845  0.00000000  1
  C  C131  1  0.05969301  0.65673155  0.00000000  1
  C  C132  1  0.34802240  0.45548358  0.50000000  1
  C  C133  1  0.65197760  0.54451642  0.50000000  1
  C  C134  1  0.84802240  0.04451642  0.00000000  1
  C  C135  1  0.15197760  0.95548358  0.00000000  1
  C  C136  1  0.25845949  0.14203463  0.82242065  1
  C  C137  1  0.74154051  0.85796537  0.82242065  1
  C  C138  1  0.75845949  0.35796537  0.67757935  1
  C  C139  1  0.24154051  0.64203463  0.67757935  1
  C  C140  1  0.74154051  0.85796537  0.17757935  1
  C  C141  1  0.25845949  0.14203463  0.17757935  1
  C  C142  1  0.24154051  0.64203463  0.32242065  1
  C  C143  1  0.75845949  0.35796537  0.32242065  1
  C  C144  1  0.11609153  0.39570729  0.77971473  1
  C  C145  1  0.88390847  0.60429271  0.77971473  1
  C  C146  1  0.61609153  0.10429271  0.72028527  1
  C  C147  1  0.38390847  0.89570729  0.72028527  1
  C  C148  1  0.88390847  0.60429271  0.22028527  1
  C  C149  1  0.11609153  0.39570729  0.22028527  1
  C  C150  1  0.38390847  0.89570729  0.27971473  1
  C  C151  1  0.61609153  0.10429271  0.27971473  1
  O  O152  1  0.24690923  0.26530293  0.59789007  1
  O  O153  1  0.75309077  0.73469707  0.59789007  1
  O  O154  1  0.74690923  0.23469707  0.90210993  1
  O  O155  1  0.25309077  0.76530293  0.90210993  1
  O  O156  1  0.75309077  0.73469707  0.40210993  1
  O  O157  1  0.24690923  0.26530293  0.40210993  1
  O  O158  1  0.25309077  0.76530293  0.09789007  1
  O  O159  1  0.74690923  0.23469707  0.09789007  1
  O  O160  1  0.35100401  0.34538562  0.78417542  1
  O  O161  1  0.64899599  0.65461438  0.78417542  1
  O  O162  1  0.85100401  0.15461438  0.71582458  1
  O  O163  1  0.14899599  0.84538562  0.71582458  1
  O  O164  1  0.64899599  0.65461438  0.21582458  1
  O  O165  1  0.35100401  0.34538562  0.21582458  1
  O  O166  1  0.14899599  0.84538562  0.28417542  1
  O  O167  1  0.85100401  0.15461438  0.28417542  1
  O  O168  1  0.49250192  0.33096534  0.63082513  1
  O  O169  1  0.50749808  0.66903466  0.63082513  1
  O  O170  1  0.99250192  0.16903466  0.86917487  1
  O  O171  1  0.00749808  0.83096534  0.86917487  1
  O  O172  1  0.50749808  0.66903466  0.36917487  1
  O  O173  1  0.49250192  0.33096534  0.36917487  1
  O  O174  1  0.00749808  0.83096534  0.13082513  1
  O  O175  1  0.99250192  0.16903466  0.13082513  1
  O  O176  1  0.56782721  0.30806971  0.82171052  1
  O  O177  1  0.43217279  0.69193029  0.82171052  1
  O  O178  1  0.06782721  0.19193029  0.67828948  1
  O  O179  1  0.93217279  0.80806971  0.67828948  1
  O  O180  1  0.43217279  0.69193029  0.17828948  1
  O  O181  1  0.56782721  0.30806971  0.17828948  1
  O  O182  1  0.93217279  0.80806971  0.32171052  1
  O  O183  1  0.06782721  0.19193029  0.32171052  1
  O  O184  1  0.50000000  0.50000000  0.75658387  1
  O  O185  1  0.00000000  0.00000000  0.74341613  1
  O  O186  1  0.50000000  0.50000000  0.24341613  1
  O  O187  1  0.00000000  0.00000000  0.25658387  1
