# generated using pymatgen
data_Li6FeS4
_symmetry_space_group_name_H-M   'P 1'
_cell_length_a   7.96060086
_cell_length_b   7.96070992
_cell_length_c   5.84804905
_cell_angle_alpha   90.00153158
_cell_angle_beta   90.00037982
_cell_angle_gamma   89.08855990
_symmetry_Int_Tables_number   1
_chemical_formula_structural   Li6FeS4
_chemical_formula_sum   'Li12 Fe2 S8'
_cell_volume   370.55587468
_cell_formula_units_Z   2
loop_
 _symmetry_equiv_pos_site_id
 _symmetry_equiv_pos_as_xyz
  1  'x, y, z'
loop_
 _atom_site_type_symbol
 _atom_site_label
 _atom_site_symmetry_multiplicity
 _atom_site_fract_x
 _atom_site_fract_y
 _atom_site_fract_z
 _atom_site_occupancy
  Li  Li0  1  0.02340980  0.52338504  0.74999754  1
  Li  Li1  1  0.02280978  0.97717642  0.74999648  1
  Li  Li2  1  0.25002042  0.25002488  0.71026546  1
  Li  Li3  1  0.25001505  0.25003148  0.21196576  1
  Li  Li4  1  0.47720906  0.52283300  0.75001320  1
  Li  Li5  1  0.47658426  0.97661168  0.74998943  1
  Li  Li6  1  0.51921727  0.01924035  0.24999214  1
  Li  Li7  1  0.51886226  0.48117837  0.25000875  1
  Li  Li8  1  0.75001315  0.75000177  0.28803714  1
  Li  Li9  1  0.75000518  0.75001485  0.78974482  1
  Li  Li10  1  0.98114558  0.01884207  0.24999637  1
  Li  Li11  1  0.98078618  0.48076128  0.24999420  1
  Fe  Fe12  1  0.25003493  0.74997273  0.25005075  1
  Fe  Fe13  1  0.75000243  0.25002225  0.74994563  1
  S  S14  1  0.00392271  0.24995599  0.96586420  1
  S  S15  1  0.24991732  0.00125484  0.46429052  1
  S  S16  1  0.25009024  0.49879911  0.46431499  1
  S  S17  1  0.49610654  0.25005711  0.96587441  1
  S  S18  1  0.50123025  0.74994472  0.03570489  1
  S  S19  1  0.75002719  0.99609445  0.53412722  1
  S  S20  1  0.74998020  0.50392001  0.53412834  1
  S  S21  1  0.99879119  0.75005760  0.03569776  1
