# generated using pymatgen
data_Ba2Sc2O5
_symmetry_space_group_name_H-M   'P 1'
_cell_length_a   6.30830982
_cell_length_b   6.30830982
_cell_length_c   8.42733875
_cell_angle_alpha   90.89644447
_cell_angle_beta   89.10355553
_cell_angle_gamma   93.60277626
_symmetry_Int_Tables_number   1
_chemical_formula_structural   Ba2Sc2O5
_chemical_formula_sum   'Ba4 Sc4 O10'
_cell_volume   334.62415474
_cell_formula_units_Z   2
loop_
 _symmetry_equiv_pos_site_id
 _symmetry_equiv_pos_as_xyz
  1  'x, y, z'
loop_
 _atom_site_type_symbol
 _atom_site_label
 _atom_site_symmetry_multiplicity
 _atom_site_fract_x
 _atom_site_fract_y
 _atom_site_fract_z
 _atom_site_occupancy
  Ba  Ba0  1  0.19579170  0.73443905  0.69402874  1
  Ba  Ba1  1  0.26556095  0.80420830  0.19402874  1
  Ba  Ba2  1  0.73443905  0.19579170  0.80597126  1
  Ba  Ba3  1  0.80420830  0.26556095  0.30597126  1
  Sc  Sc4  1  0.69886472  0.75682061  0.52167754  1
  Sc  Sc5  1  0.24317939  0.30113528  0.02167754  1
  Sc  Sc6  1  0.75682061  0.69886472  0.97832246  1
  Sc  Sc7  1  0.30113528  0.24317939  0.47832246  1
  O  O8  1  0.00000000  0.50000000  0.00000000  1
  O  O9  1  0.03317630  0.26185739  0.58844853  1
  O  O10  1  0.73814261  0.96682370  0.08844853  1
  O  O11  1  0.77752769  0.77752769  0.75000000  1
  O  O12  1  0.50000000  0.50000000  0.50000000  1
  O  O13  1  0.22247231  0.22247231  0.25000000  1
  O  O14  1  0.50000000  0.50000000  0.00000000  1
  O  O15  1  0.26185739  0.03317630  0.91155147  1
  O  O16  1  0.96682370  0.73814261  0.41155147  1
  O  O17  1  0.50000000  0.00000000  0.50000000  1
