# generated using pymatgen
data_Nd4O3F7
_symmetry_space_group_name_H-M   'P 1'
_cell_length_a   5.51608927
_cell_length_b   5.86685363
_cell_length_c   5.85216751
_cell_angle_alpha   90.00000000
_cell_angle_beta   90.00000000
_cell_angle_gamma   91.10057127
_symmetry_Int_Tables_number   1
_chemical_formula_structural   Nd4O3F7
_chemical_formula_sum   'Nd4 O3 F7'
_cell_volume   189.35342368
_cell_formula_units_Z   1
loop_
 _symmetry_equiv_pos_site_id
 _symmetry_equiv_pos_as_xyz
  1  'x, y, z'
loop_
 _atom_site_type_symbol
 _atom_site_label
 _atom_site_symmetry_multiplicity
 _atom_site_fract_x
 _atom_site_fract_y
 _atom_site_fract_z
 _atom_site_occupancy
  Nd  Nd0  1  0.02220857  0.24889884  0.27504352  1
  Nd  Nd1  1  0.51099922  0.25189812  0.79610442  1
  Nd  Nd2  1  0.98900078  0.74810188  0.79610442  1
  Nd  Nd3  1  0.47779143  0.75110116  0.27504352  1
  O  O4  1  0.25000000  0.00000000  0.04015650  1
  O  O5  1  0.75000000  0.00000000  0.02568181  1
  O  O6  1  0.25000000  0.50000000  0.99614339  1
  F  F7  1  0.25000000  0.00000000  0.56001044  1
  F  F8  1  0.43395299  0.35377977  0.39962169  1
  F  F9  1  0.75000000  0.00000000  0.49440914  1
  F  F10  1  0.06604701  0.64622023  0.39962169  1
  F  F11  1  0.57505925  0.65324749  0.67983103  1
  F  F12  1  0.92494075  0.34675251  0.67983103  1
  F  F13  1  0.75000000  0.50000000  0.08039641  1
