# generated using pymatgen
data_Zn(AgO2)2
_symmetry_space_group_name_H-M   'P 1'
_cell_length_a   6.07861380
_cell_length_b   6.56650400
_cell_length_c   6.31335754
_cell_angle_alpha   102.87472973
_cell_angle_beta   118.77746401
_cell_angle_gamma   62.42882858
_symmetry_Int_Tables_number   1
_chemical_formula_structural   Zn(AgO2)2
_chemical_formula_sum   'Zn2 Ag4 O8'
_cell_volume   195.79283969
_cell_formula_units_Z   2
loop_
 _symmetry_equiv_pos_site_id
 _symmetry_equiv_pos_as_xyz
  1  'x, y, z'
loop_
 _atom_site_type_symbol
 _atom_site_label
 _atom_site_symmetry_multiplicity
 _atom_site_fract_x
 _atom_site_fract_y
 _atom_site_fract_z
 _atom_site_occupancy
  Zn  Zn0  1  0.87500000  0.25000000  0.25000000  1
  Zn  Zn1  1  0.12500000  0.75000000  0.75000000  1
  Ag  Ag2  1  0.50820317  0.98359366  0.25000000  1
  Ag  Ag3  1  0.75820317  0.48359366  0.75000000  1
  Ag  Ag4  1  0.24179683  0.51640634  0.25000000  1
  Ag  Ag5  1  0.49179683  0.01640634  0.75000000  1
  O  O6  1  0.86518709  0.49693111  0.11065301  1
  O  O7  1  0.74853481  0.99693111  0.61065301  1
  O  O8  1  0.74546592  0.00306889  0.11065301  1
  O  O9  1  0.63788080  0.49693111  0.38934699  1
  O  O10  1  0.25453408  0.99693111  0.88934699  1
  O  O11  1  0.36211920  0.50306889  0.61065301  1
  O  O12  1  0.25146519  0.00306889  0.38934699  1
  O  O13  1  0.13481291  0.50306889  0.88934699  1
