# generated using pymatgen
data_GdOF
_symmetry_space_group_name_H-M   'P 1'
_cell_length_a   3.93559935
_cell_length_b   3.93564161
_cell_length_c   5.66800809
_cell_angle_alpha   90.00000000
_cell_angle_beta   90.00000000
_cell_angle_gamma   90.00000000
_symmetry_Int_Tables_number   1
_chemical_formula_structural   GdOF
_chemical_formula_sum   'Gd2 O2 F2'
_cell_volume   87.79239264
_cell_formula_units_Z   2
loop_
 _symmetry_equiv_pos_site_id
 _symmetry_equiv_pos_as_xyz
  1  'x, y, z'
loop_
 _atom_site_type_symbol
 _atom_site_label
 _atom_site_symmetry_multiplicity
 _atom_site_fract_x
 _atom_site_fract_y
 _atom_site_fract_z
 _atom_site_occupancy
  Gd  Gd0  1  0.00000000  0.50000000  0.19931639  1
  Gd  Gd1  1  0.50000000  0.00000000  0.80068361  1
  O  O2  1  0.00000000  0.00000000  0.99999897  1
  O  O3  1  0.50000000  0.50000000  0.00000103  1
  F  F4  1  0.00000000  0.50000000  0.60130870  1
  F  F5  1  0.50000000  0.00000000  0.39869130  1
