# generated using pymatgen
data_Bi4O5F2
_symmetry_space_group_name_H-M   'P 1'
_cell_length_a   5.82591291
_cell_length_b   5.42117891
_cell_length_c   14.09038337
_cell_angle_alpha   90.00000000
_cell_angle_beta   91.90411368
_cell_angle_gamma   90.00000000
_symmetry_Int_Tables_number   1
_chemical_formula_structural   Bi4O5F2
_chemical_formula_sum   'Bi8 O10 F4'
_cell_volume   444.77530752
_cell_formula_units_Z   2
loop_
 _symmetry_equiv_pos_site_id
 _symmetry_equiv_pos_as_xyz
  1  'x, y, z'
loop_
 _atom_site_type_symbol
 _atom_site_label
 _atom_site_symmetry_multiplicity
 _atom_site_fract_x
 _atom_site_fract_y
 _atom_site_fract_z
 _atom_site_occupancy
  Bi  Bi0  1  0.23330917  0.88637758  0.78636797  1
  Bi  Bi1  1  0.20949347  0.28545354  0.54640644  1
  Bi  Bi2  1  0.23330917  0.61362242  0.28636797  1
  Bi  Bi3  1  0.20949347  0.21454646  0.04640644  1
  Bi  Bi4  1  0.79050653  0.78545354  0.95359356  1
  Bi  Bi5  1  0.76669083  0.38637758  0.71363203  1
  Bi  Bi6  1  0.79050653  0.71454646  0.45359356  1
  Bi  Bi7  1  0.76669083  0.11362242  0.21363203  1
  O  O8  1  0.07866957  0.00961179  0.91467362  1
  O  O9  1  0.00000000  0.00000000  0.50000000  1
  O  O10  1  0.11894704  0.19608298  0.70756803  1
  O  O11  1  0.07866957  0.49038821  0.41467362  1
  O  O12  1  0.00000000  0.50000000  0.00000000  1
  O  O13  1  0.11894704  0.30391702  0.20756803  1
  O  O14  1  0.88105296  0.69608298  0.79243197  1
  O  O15  1  0.92133043  0.50961179  0.58532638  1
  O  O16  1  0.88105296  0.80391702  0.29243197  1
  O  O17  1  0.92133043  0.99038821  0.08532638  1
  F  F18  1  0.51918223  0.14469753  0.85870552  1
  F  F19  1  0.48081777  0.64469753  0.64129448  1
  F  F20  1  0.51918223  0.35530247  0.35870552  1
  F  F21  1  0.48081777  0.85530247  0.14129448  1
