# generated using pymatgen
data_CaPbI4
_symmetry_space_group_name_H-M   'P 1'
_cell_length_a   9.74522372
_cell_length_b   7.85183923
_cell_length_c   15.52750129
_cell_angle_alpha   90.00000000
_cell_angle_beta   93.02815566
_cell_angle_gamma   90.00000000
_symmetry_Int_Tables_number   1
_chemical_formula_structural   CaPbI4
_chemical_formula_sum   'Ca4 Pb4 I16'
_cell_volume   1186.47326179
_cell_formula_units_Z   4
loop_
 _symmetry_equiv_pos_site_id
 _symmetry_equiv_pos_as_xyz
  1  'x, y, z'
loop_
 _atom_site_type_symbol
 _atom_site_label
 _atom_site_symmetry_multiplicity
 _atom_site_fract_x
 _atom_site_fract_y
 _atom_site_fract_z
 _atom_site_occupancy
  Ca  Ca0  1  0.12917205  0.49489419  0.86977399  1
  Ca  Ca1  1  0.12917205  0.00510581  0.36977399  1
  Ca  Ca2  1  0.87082795  0.99489419  0.63022601  1
  Ca  Ca3  1  0.87082795  0.50510581  0.13022601  1
  Pb  Pb4  1  0.31901456  0.17944214  0.61675557  1
  Pb  Pb5  1  0.31901456  0.32055786  0.11675557  1
  Pb  Pb6  1  0.68098544  0.67944214  0.88324443  1
  Pb  Pb7  1  0.68098544  0.82055786  0.38324443  1
  I  I8  1  0.04167892  0.33109639  0.68706996  1
  I  I9  1  0.04167892  0.16890361  0.18706996  1
  I  I10  1  0.15873385  0.84780694  0.55850383  1
  I  I11  1  0.15873385  0.65219306  0.05850383  1
  I  I12  1  0.30867841  0.18582421  0.93338393  1
  I  I13  1  0.30867841  0.31417579  0.43338393  1
  I  I14  1  0.37727724  0.67156493  0.79469759  1
  I  I15  1  0.37727724  0.82843507  0.29469759  1
  I  I16  1  0.62272276  0.17156493  0.70530241  1
  I  I17  1  0.62272276  0.32843507  0.20530241  1
  I  I18  1  0.69132159  0.68582421  0.56661607  1
  I  I19  1  0.69132159  0.81417579  0.06661607  1
  I  I20  1  0.84126615  0.34780694  0.94149617  1
  I  I21  1  0.84126615  0.15219306  0.44149617  1
  I  I22  1  0.95832108  0.83109639  0.81293004  1
  I  I23  1  0.95832108  0.66890361  0.31293004  1
