# generated using pymatgen
data_Gd3YO6
_symmetry_space_group_name_H-M   'P 1'
_cell_length_a   7.26809343
_cell_length_b   7.26809343
_cell_length_c   5.78382337
_cell_angle_alpha   90.00000000
_cell_angle_beta   90.00000000
_cell_angle_gamma   77.70954271
_symmetry_Int_Tables_number   1
_chemical_formula_structural   Gd3YO6
_chemical_formula_sum   'Gd6 Y2 O12'
_cell_volume   298.52905882
_cell_formula_units_Z   2
loop_
 _symmetry_equiv_pos_site_id
 _symmetry_equiv_pos_as_xyz
  1  'x, y, z'
loop_
 _atom_site_type_symbol
 _atom_site_label
 _atom_site_symmetry_multiplicity
 _atom_site_fract_x
 _atom_site_fract_y
 _atom_site_fract_z
 _atom_site_occupancy
  Gd  Gd0  1  0.31323441  0.91157582  0.46455841  1
  Gd  Gd1  1  0.08842418  0.68676559  0.96455841  1
  Gd  Gd2  1  0.39791727  0.39791727  0.41074150  1
  Gd  Gd3  1  0.60208273  0.60208273  0.91074150  1
  Gd  Gd4  1  0.91157582  0.31323441  0.46455841  1
  Gd  Gd5  1  0.68676559  0.08842418  0.96455841  1
  Y  Y6  1  0.16346533  0.16346533  0.97811108  1
  Y  Y7  1  0.83653467  0.83653467  0.47811108  1
  O  O8  1  0.35567606  0.67981496  0.18249463  1
  O  O9  1  0.32018504  0.64432394  0.68249463  1
  O  O10  1  0.09834423  0.42084925  0.17704990  1
  O  O11  1  0.57915075  0.90165577  0.67704990  1
  O  O12  1  0.01644899  0.01644899  0.25214363  1
  O  O13  1  0.22245756  0.22245756  0.61809589  1
  O  O14  1  0.77754244  0.77754244  0.11809589  1
  O  O15  1  0.98355101  0.98355101  0.75214363  1
  O  O16  1  0.42084925  0.09834423  0.17704990  1
  O  O17  1  0.90165577  0.57915075  0.67704990  1
  O  O18  1  0.67981496  0.35567606  0.18249463  1
  O  O19  1  0.64432394  0.32018504  0.68249463  1
