# generated using pymatgen
data_Li3Cu3(PO4)2
_symmetry_space_group_name_H-M   'P 1'
_cell_length_a   6.22333408
_cell_length_b   5.44031458
_cell_length_c   5.14378762
_cell_angle_alpha   90.28852696
_cell_angle_beta   90.00000000
_cell_angle_gamma   90.00000000
_symmetry_Int_Tables_number   1
_chemical_formula_structural   Li3Cu3(PO4)2
_chemical_formula_sum   'Li3 Cu3 P2 O8'
_cell_volume   174.15046981
_cell_formula_units_Z   1
loop_
 _symmetry_equiv_pos_site_id
 _symmetry_equiv_pos_as_xyz
  1  'x, y, z'
loop_
 _atom_site_type_symbol
 _atom_site_label
 _atom_site_symmetry_multiplicity
 _atom_site_fract_x
 _atom_site_fract_y
 _atom_site_fract_z
 _atom_site_occupancy
  Li  Li0  1  0.00000000  0.15368334  0.49113227  1
  Li  Li1  1  0.25385910  0.67397050  0.48943056  1
  Li  Li2  1  0.74614090  0.67397050  0.48943056  1
  Cu  Cu3  1  0.24691362  0.34090234  0.01308061  1
  Cu  Cu4  1  0.50000000  0.81628278  0.00575168  1
  Cu  Cu5  1  0.75308638  0.34090234  0.01308061  1
  P  P6  1  0.00000000  0.82720628  0.99376032  1
  P  P7  1  0.50000000  0.17383226  0.49818354  1
  O  O8  1  0.00000000  0.09251528  0.88137073  1
  O  O9  1  0.00000000  0.82266095  0.29436801  1
  O  O10  1  0.20220720  0.69355438  0.87765197  1
  O  O11  1  0.29291778  0.31072976  0.40648983  1
  O  O12  1  0.50000000  0.17451229  0.80103783  1
  O  O13  1  0.50000000  0.90099386  0.40368065  1
  O  O14  1  0.70708222  0.31072976  0.40648983  1
  O  O15  1  0.79779280  0.69355438  0.87765197  1
