# generated using pymatgen
data_SrLa2Cl8
_symmetry_space_group_name_H-M   'P 1'
_cell_length_a   7.52601243
_cell_length_b   10.22708137
_cell_length_c   10.22708137
_cell_angle_alpha   97.78080925
_cell_angle_beta   111.58895248
_cell_angle_gamma   68.41104752
_symmetry_Int_Tables_number   1
_chemical_formula_structural   SrLa2Cl8
_chemical_formula_sum   'Sr2 La4 Cl16'
_cell_volume   680.59971263
_cell_formula_units_Z   2
loop_
 _symmetry_equiv_pos_site_id
 _symmetry_equiv_pos_as_xyz
  1  'x, y, z'
loop_
 _atom_site_type_symbol
 _atom_site_label
 _atom_site_symmetry_multiplicity
 _atom_site_fract_x
 _atom_site_fract_y
 _atom_site_fract_z
 _atom_site_occupancy
  Sr  Sr0  1  0.00000000  0.00000000  0.00000000  1
  Sr  Sr1  1  0.75000000  0.50000000  0.50000000  1
  La  La2  1  0.57839547  0.07886983  0.34235505  1
  La  La3  1  0.76395958  0.65764495  0.07886983  1
  La  La4  1  0.34273470  0.34235505  0.92113017  1
  La  La5  1  0.31491025  0.92113017  0.65764495  1
  Cl  Cl6  1  0.22814712  0.18694637  0.09538392  1
  Cl  Cl7  1  0.66563018  0.25812527  0.19600462  1
  Cl  Cl8  1  0.25345522  0.07929015  0.42965380  1
  Cl  Cl9  1  0.17619858  0.57034620  0.07929015  1
  Cl  Cl10  1  0.55884795  0.30733500  0.51414486  1
  Cl  Cl11  1  0.95529691  0.48585514  0.30733500  1
  Cl  Cl12  1  0.07624455  0.19600462  0.74187473  1
  Cl  Cl13  1  0.58490752  0.09538392  0.81305363  1
  Cl  Cl14  1  0.86723681  0.90461608  0.18694637  1
  Cl  Cl15  1  0.53037343  0.80399538  0.25812527  1
  Cl  Cl16  1  0.13381705  0.51414486  0.69266500  1
  Cl  Cl17  1  0.35203809  0.69266500  0.48585514  1
  Cl  Cl18  1  0.66725363  0.42965380  0.92070985  1
  Cl  Cl19  1  0.90309157  0.92070985  0.57034620  1
  Cl  Cl20  1  0.72775084  0.74187473  0.80399538  1
  Cl  Cl21  1  0.31970856  0.81305363  0.90461608  1
