# generated using pymatgen
data_Cs2O
_symmetry_space_group_name_H-M   'P 1'
_cell_length_a   7.31512837
_cell_length_b   5.63046784
_cell_length_c   9.41574730
_cell_angle_alpha   90.00000000
_cell_angle_beta   90.00000000
_cell_angle_gamma   90.00000000
_symmetry_Int_Tables_number   1
_chemical_formula_structural   Cs2O
_chemical_formula_sum   'Cs8 O4'
_cell_volume   387.81198672
_cell_formula_units_Z   4
loop_
 _symmetry_equiv_pos_site_id
 _symmetry_equiv_pos_as_xyz
  1  'x, y, z'
loop_
 _atom_site_type_symbol
 _atom_site_label
 _atom_site_symmetry_multiplicity
 _atom_site_fract_x
 _atom_site_fract_y
 _atom_site_fract_z
 _atom_site_occupancy
  Cs  Cs0  1  0.02470992  0.25000000  0.13985683  1
  Cs  Cs1  1  0.10663655  0.25000000  0.61033350  1
  Cs  Cs2  1  0.39336345  0.75000000  0.11033350  1
  Cs  Cs3  1  0.47529008  0.75000000  0.63985683  1
  Cs  Cs4  1  0.52470992  0.25000000  0.36014317  1
  Cs  Cs5  1  0.60663655  0.25000000  0.88966650  1
  Cs  Cs6  1  0.89336345  0.75000000  0.38966650  1
  Cs  Cs7  1  0.97529008  0.75000000  0.86014317  1
  O  O8  1  0.27820443  0.75000000  0.40258975  1
  O  O9  1  0.22179557  0.25000000  0.90258975  1
  O  O10  1  0.77820443  0.75000000  0.09741025  1
  O  O11  1  0.72179557  0.25000000  0.59741025  1
