# generated using pymatgen
data_Bi2PO6
_symmetry_space_group_name_H-M   'P 1'
_cell_length_a   5.72981600
_cell_length_b   5.76117803
_cell_length_c   7.85953921
_cell_angle_alpha   90.00000000
_cell_angle_beta   111.37764458
_cell_angle_gamma   90.00000000
_symmetry_Int_Tables_number   1
_chemical_formula_structural   Bi2PO6
_chemical_formula_sum   'Bi4 P2 O12'
_cell_volume   241.59678080
_cell_formula_units_Z   2
loop_
 _symmetry_equiv_pos_site_id
 _symmetry_equiv_pos_as_xyz
  1  'x, y, z'
loop_
 _atom_site_type_symbol
 _atom_site_label
 _atom_site_symmetry_multiplicity
 _atom_site_fract_x
 _atom_site_fract_y
 _atom_site_fract_z
 _atom_site_occupancy
  Bi  Bi0  1  0.21173827  0.49970560  0.33101336  1
  Bi  Bi1  1  0.38072391  0.99970560  0.66898664  1
  Bi  Bi2  1  0.88072391  0.50029440  0.66898664  1
  Bi  Bi3  1  0.71173827  0.00029440  0.33101336  1
  P  P4  1  0.04458413  0.00000000  0.00000000  1
  P  P5  1  0.54458413  0.50000000  0.00000000  1
  O  O6  1  0.12772817  0.85114582  0.86691527  1
  O  O7  1  0.96195795  0.85127288  0.13305779  1
  O  O8  1  0.32889917  0.35127288  0.86694221  1
  O  O9  1  0.26081290  0.14885418  0.13308473  1
  O  O10  1  0.62772817  0.64885418  0.86691527  1
  O  O11  1  0.54641960  0.26162812  0.49928269  1
  O  O12  1  0.54713691  0.76162812  0.50071731  1
  O  O13  1  0.46195795  0.64872712  0.13305779  1
  O  O14  1  0.82889917  0.14872712  0.86694221  1
  O  O15  1  0.76081290  0.35114582  0.13308473  1
  O  O16  1  0.04641960  0.23837188  0.49928269  1
  O  O17  1  0.04713691  0.73837188  0.50071731  1
