# generated using pymatgen
data_Li3Cu3(PO4)2
_symmetry_space_group_name_H-M   'P 1'
_cell_length_a   6.24287311
_cell_length_b   5.40563709
_cell_length_c   5.11569389
_cell_angle_alpha   90.32362800
_cell_angle_beta   89.92403413
_cell_angle_gamma   89.84958764
_symmetry_Int_Tables_number   1
_chemical_formula_structural   Li3Cu3(PO4)2
_chemical_formula_sum   'Li3 Cu3 P2 O8'
_cell_volume   172.63431592
_cell_formula_units_Z   1
loop_
 _symmetry_equiv_pos_site_id
 _symmetry_equiv_pos_as_xyz
  1  'x, y, z'
loop_
 _atom_site_type_symbol
 _atom_site_label
 _atom_site_symmetry_multiplicity
 _atom_site_fract_x
 _atom_site_fract_y
 _atom_site_fract_z
 _atom_site_occupancy
  Li  Li0  1  0.99992650  0.15464147  0.49369968  1
  Li  Li1  1  0.24825501  0.32688326  0.99601439  1
  Li  Li2  1  0.74596747  0.67410512  0.49315591  1
  Cu  Cu3  1  0.26062974  0.66399848  0.49287955  1
  Cu  Cu4  1  0.49976456  0.81735165  0.99390551  1
  Cu  Cu5  1  0.74915685  0.33204436  0.00545717  1
  P  P6  1  0.99954012  0.83085666  0.99873356  1
  P  P7  1  0.49950187  0.18050993  0.49809218  1
  O  O8  1  0.01213854  0.09884553  0.88926022  1
  O  O9  1  0.98850599  0.83088176  0.30173674  1
  O  O10  1  0.20044700  0.67922260  0.90585844  1
  O  O11  1  0.29137796  0.29899868  0.38217687  1
  O  O12  1  0.48778898  0.18957244  0.80092872  1
  O  O13  1  0.51221206  0.90471006  0.40447307  1
  O  O14  1  0.70639695  0.31814172  0.40736219  1
  O  O15  1  0.79838838  0.69923629  0.87885682  1
