# generated using pymatgen
data_AgSnO3
_symmetry_space_group_name_H-M   'P 1'
_cell_length_a   6.60556914
_cell_length_b   6.60503166
_cell_length_c   3.28670323
_cell_angle_alpha   89.93330695
_cell_angle_beta   89.93561350
_cell_angle_gamma   69.81867774
_symmetry_Int_Tables_number   1
_chemical_formula_structural   AgSnO3
_chemical_formula_sum   'Ag2 Sn2 O6'
_cell_volume   134.59481414
_cell_formula_units_Z   2
loop_
 _symmetry_equiv_pos_site_id
 _symmetry_equiv_pos_as_xyz
  1  'x, y, z'
loop_
 _atom_site_type_symbol
 _atom_site_label
 _atom_site_symmetry_multiplicity
 _atom_site_fract_x
 _atom_site_fract_y
 _atom_site_fract_z
 _atom_site_occupancy
  Ag  Ag0  1  0.49907708  0.49913844  0.50010976  1
  Ag  Ag1  1  0.99904095  0.99894852  0.50040319  1
  Sn  Sn2  1  0.99962021  0.49906583  0.00014413  1
  Sn  Sn3  1  0.49952447  0.99897096  0.00008837  1
  O  O4  1  0.43161786  0.82660450  0.50079499  1
  O  O5  1  0.17208856  0.56678987  0.49970183  1
  O  O6  1  0.17268606  0.17239757  0.00167698  1
  O  O7  1  0.82629617  0.82601485  0.00131950  1
  O  O8  1  0.82793846  0.43040414  0.50079458  1
  O  O9  1  0.56800619  0.17075431  0.49970866  1
