# generated using pymatgen
data_Mg17(SiO3)16
_symmetry_space_group_name_H-M   'P 1'
_cell_length_a   9.48811395
_cell_length_b   8.93334148
_cell_length_c   10.85969943
_cell_angle_alpha   90.00000000
_cell_angle_beta   89.28868344
_cell_angle_gamma   90.00000000
_symmetry_Int_Tables_number   1
_chemical_formula_structural   Mg17(SiO3)16
_chemical_formula_sum   'Mg17 Si16 O48'
_cell_volume   920.40329103
_cell_formula_units_Z   1
loop_
 _symmetry_equiv_pos_site_id
 _symmetry_equiv_pos_as_xyz
  1  'x, y, z'
loop_
 _atom_site_type_symbol
 _atom_site_label
 _atom_site_symmetry_multiplicity
 _atom_site_fract_x
 _atom_site_fract_y
 _atom_site_fract_z
 _atom_site_occupancy
  Mg  Mg0  1  0.01101977  0.10301798  0.87808129  1
  Mg  Mg1  1  0.00333633  0.73898026  0.87650932  1
  Mg  Mg2  1  0.00000000  0.26191922  0.62500000  1
  Mg  Mg3  1  0.00000000  0.89586186  0.12500000  1
  Mg  Mg4  1  0.00000000  0.26173555  0.12500000  1
  Mg  Mg5  1  0.98898023  0.10301798  0.37191871  1
  Mg  Mg6  1  0.99666367  0.73898026  0.37349068  1
  Mg  Mg7  1  0.00000000  0.89568593  0.62500000  1
  Mg  Mg8  1  0.50000000  0.76466560  0.62500000  1
  Mg  Mg9  1  0.50000000  0.13052003  0.62500000  1
  Mg  Mg10  1  0.50000000  0.44074192  0.62500000  1
  Mg  Mg11  1  0.49938283  0.60987609  0.37334998  1
  Mg  Mg12  1  0.50000000  0.75949183  0.12500000  1
  Mg  Mg13  1  0.49798259  0.25178771  0.36924432  1
  Mg  Mg14  1  0.50000000  0.40274263  0.12500000  1
  Mg  Mg15  1  0.50061717  0.60987609  0.87665002  1
  Mg  Mg16  1  0.50201741  0.25178771  0.88075568  1
  Si  Si17  1  0.20883788  0.58948115  0.03194218  1
  Si  Si18  1  0.20679729  0.40951212  0.28142006  1
  Si  Si19  1  0.21173238  0.41234276  0.78036084  1
  Si  Si20  1  0.20638255  0.59329128  0.53001703  1
  Si  Si21  1  0.29256639  0.09131000  0.03282999  1
  Si  Si22  1  0.26869271  0.08668791  0.51742782  1
  Si  Si23  1  0.29064858  0.91278296  0.78316836  1
  Si  Si24  1  0.28574567  0.90409649  0.27589615  1
  Si  Si25  1  0.70743361  0.09131000  0.21717001  1
  Si  Si26  1  0.71425433  0.90409649  0.97410385  1
  Si  Si27  1  0.73130729  0.08668791  0.73257218  1
  Si  Si28  1  0.70935142  0.91278296  0.46683164  1
  Si  Si29  1  0.78826762  0.41234276  0.46963916  1
  Si  Si30  1  0.79320271  0.40951212  0.96857994  1
  Si  Si31  1  0.79116212  0.58948115  0.21805782  1
  Si  Si32  1  0.79361745  0.59329128  0.71998297  1
  O  O33  1  0.12285039  0.74473749  0.03276738  1
  O  O34  1  0.11864853  0.74763461  0.52943764  1
  O  O35  1  0.12644746  0.25588877  0.77958824  1
  O  O36  1  0.11956775  0.25407324  0.28375235  1
  O  O37  1  0.12002213  0.09693108  0.03951937  1
  O  O38  1  0.11404652  0.90032184  0.28284643  1
  O  O39  1  0.11945689  0.90394293  0.78811989  1
  O  O40  1  0.10042189  0.08825187  0.53207050  1
  O  O41  1  0.15554669  0.48209291  0.64524625  1
  O  O42  1  0.15245627  0.47604940  0.14455673  1
  O  O43  1  0.15315590  0.52332091  0.39461947  1
  O  O44  1  0.15521542  0.52258795  0.89486140  1
  O  O45  1  0.33602515  0.01812201  0.38833019  1
  O  O46  1  0.34583517  0.02252618  0.89587244  1
  O  O47  1  0.34620054  0.97321673  0.14147652  1
  O  O48  1  0.33713686  0.98349558  0.63801613  1
  O  O49  1  0.37970138  0.40928243  0.28554312  1
  O  O50  1  0.38596367  0.41413071  0.78505152  1
  O  O51  1  0.38174126  0.59505347  0.03649659  1
  O  O52  1  0.37985521  0.60208732  0.53614041  1
  O  O53  1  0.37924562  0.24717336  0.03460357  1
  O  O54  1  0.36217536  0.24298827  0.52658083  1
  O  O55  1  0.37502825  0.75057563  0.27959590  1
  O  O56  1  0.38249852  0.76107980  0.77999034  1
  O  O57  1  0.62075438  0.24717336  0.21539643  1
  O  O58  1  0.61750148  0.76107980  0.47000966  1
  O  O59  1  0.62497175  0.75057563  0.97040410  1
  O  O60  1  0.63782464  0.24298827  0.72341917  1
  O  O61  1  0.61403633  0.41413071  0.46494848  1
  O  O62  1  0.62029862  0.40928243  0.96445688  1
  O  O63  1  0.61825874  0.59505347  0.21350341  1
  O  O64  1  0.62014479  0.60208732  0.71385959  1
  O  O65  1  0.65416483  0.02252618  0.35412756  1
  O  O66  1  0.66397485  0.01812201  0.86166981  1
  O  O67  1  0.65379946  0.97321673  0.10852348  1
  O  O68  1  0.66286314  0.98349558  0.61198387  1
  O  O69  1  0.84684410  0.52332091  0.85538053  1
  O  O70  1  0.84445331  0.48209291  0.60475375  1
  O  O71  1  0.84754373  0.47604940  0.10544327  1
  O  O72  1  0.84478458  0.52258795  0.35513860  1
  O  O73  1  0.88595348  0.90032184  0.96715357  1
  O  O74  1  0.87997787  0.09693108  0.21048063  1
  O  O75  1  0.89957811  0.08825187  0.71792950  1
  O  O76  1  0.88054311  0.90394293  0.46188011  1
  O  O77  1  0.88043225  0.25407324  0.96624765  1
  O  O78  1  0.87355254  0.25588877  0.47041176  1
  O  O79  1  0.87714961  0.74473749  0.21723262  1
  O  O80  1  0.88135147  0.74763461  0.72056236  1
