# generated using pymatgen
data_KRbO
_symmetry_space_group_name_H-M   'P 1'
_cell_length_a   8.93466456
_cell_length_b   8.93466456
_cell_length_c   8.93466456
_cell_angle_alpha   95.94387581
_cell_angle_beta   95.94387581
_cell_angle_gamma   142.45655794
_symmetry_Int_Tables_number   1
_chemical_formula_structural   KRbO
_chemical_formula_sum   'K4 Rb4 O4'
_cell_volume   411.50270342
_cell_formula_units_Z   4
loop_
 _symmetry_equiv_pos_site_id
 _symmetry_equiv_pos_as_xyz
  1  'x, y, z'
loop_
 _atom_site_type_symbol
 _atom_site_label
 _atom_site_symmetry_multiplicity
 _atom_site_fract_x
 _atom_site_fract_y
 _atom_site_fract_z
 _atom_site_occupancy
  K  K0  1  0.83524076  0.16475924  0.00000000  1
  K  K1  1  0.16475924  0.16475924  0.32951748  1
  K  K2  1  0.16475924  0.83524076  0.00000000  1
  K  K3  1  0.83524076  0.83524076  0.67048252  1
  Rb  Rb4  1  0.85429638  0.50000000  0.35429638  1
  Rb  Rb5  1  0.50000000  0.14570362  0.64570362  1
  Rb  Rb6  1  0.50000000  0.85429638  0.35429638  1
  Rb  Rb7  1  0.14570362  0.50000000  0.64570362  1
  O  O8  1  0.30002048  0.00000000  0.30002048  1
  O  O9  1  0.69997952  0.00000000  0.69997952  1
  O  O10  1  0.00000000  0.30002048  0.30002048  1
  O  O11  1  0.00000000  0.69997952  0.69997952  1
