# generated using pymatgen
data_Na(SnO2)2
_symmetry_space_group_name_H-M   'P 1'
_cell_length_a   6.67150554
_cell_length_b   6.68374371
_cell_length_c   6.67150554
_cell_angle_alpha   60.06054677
_cell_angle_beta   90.00000000
_cell_angle_gamma   119.93945323
_symmetry_Int_Tables_number   1
_chemical_formula_structural   Na(SnO2)2
_chemical_formula_sum   'Na2 Sn4 O8'
_cell_volume   210.73926410
_cell_formula_units_Z   2
loop_
 _symmetry_equiv_pos_site_id
 _symmetry_equiv_pos_as_xyz
  1  'x, y, z'
loop_
 _atom_site_type_symbol
 _atom_site_label
 _atom_site_symmetry_multiplicity
 _atom_site_fract_x
 _atom_site_fract_y
 _atom_site_fract_z
 _atom_site_occupancy
  Na  Na0  1  0.00000000  0.00000000  0.00000000  1
  Na  Na1  1  0.75000000  0.50000000  0.75000000  1
  Sn  Sn2  1  0.37500000  0.25000000  0.37500000  1
  Sn  Sn3  1  0.87500000  0.25000000  0.37500000  1
  Sn  Sn4  1  0.37500000  0.75000000  0.37500000  1
  Sn  Sn5  1  0.37500000  0.75000000  0.87500000  1
  O  O6  1  0.14403968  0.28808037  0.14240591  1
  O  O7  1  0.60596032  0.21191963  0.18048628  1
  O  O8  1  0.56951372  0.71191963  0.14403968  1
  O  O9  1  0.14240591  0.71191963  0.14403968  1
  O  O10  1  0.60596032  0.21191963  0.60759409  1
  O  O11  1  0.14403968  0.28808037  0.56951372  1
  O  O12  1  0.60759409  0.78808037  0.60596032  1
  O  O13  1  0.18048628  0.78808037  0.60596032  1
