# generated using pymatgen
data_Ti2Nb2(CuO4)3
_symmetry_space_group_name_H-M   'P 1'
_cell_length_a   6.55315177
_cell_length_b   6.55315177
_cell_length_c   6.49733531
_cell_angle_alpha   109.54168437
_cell_angle_beta   109.47826942
_cell_angle_gamma   109.73968697
_symmetry_Int_Tables_number   1
_chemical_formula_structural   Ti2Nb2(CuO4)3
_chemical_formula_sum   'Ti2 Nb2 Cu3 O12'
_cell_volume   213.86695035
_cell_formula_units_Z   1
loop_
 _symmetry_equiv_pos_site_id
 _symmetry_equiv_pos_as_xyz
  1  'x, y, z'
loop_
 _atom_site_type_symbol
 _atom_site_label
 _atom_site_symmetry_multiplicity
 _atom_site_fract_x
 _atom_site_fract_y
 _atom_site_fract_z
 _atom_site_occupancy
  Ti  Ti0  1  0.50000000  0.00000000  0.00000000  1
  Ti  Ti1  1  0.00000000  0.50000000  0.00000000  1
  Nb  Nb2  1  0.00000000  0.00000000  0.50000000  1
  Nb  Nb3  1  0.50000000  0.50000000  0.50000000  1
  Cu  Cu4  1  0.50000000  0.50000000  0.00000000  1
  Cu  Cu5  1  0.50000000  0.00000000  0.50000000  1
  Cu  Cu6  1  0.00000000  0.50000000  0.50000000  1
  O  O7  1  0.81643105  0.31125571  0.12768675  1
  O  O8  1  0.49278560  0.17949112  0.31008652  1
  O  O9  1  0.86940460  0.18269808  0.68991348  1
  O  O10  1  0.30990618  0.49283513  0.17913650  1
  O  O11  1  0.68630137  0.86923032  0.17913650  1
  O  O12  1  0.82189261  0.68734318  0.50923579  1
  O  O13  1  0.17810739  0.31265682  0.49076421  1
  O  O14  1  0.31369863  0.13076968  0.82086350  1
  O  O15  1  0.69009382  0.50716487  0.82086350  1
  O  O16  1  0.13059540  0.81730192  0.31008652  1
  O  O17  1  0.50721440  0.82050888  0.68991348  1
  O  O18  1  0.18356895  0.68874429  0.87231325  1
