# generated using pymatgen
data_BaCaI4
_symmetry_space_group_name_H-M   'P 1'
_cell_length_a   9.80306809
_cell_length_b   5.76043994
_cell_length_c   5.76044062
_cell_angle_alpha   60.00000166
_cell_angle_beta   72.91392815
_cell_angle_gamma   72.91392502
_symmetry_Int_Tables_number   1
_chemical_formula_structural   BaCaI4
_chemical_formula_sum   'Ba1 Ca1 I4'
_cell_volume   265.00356788
_cell_formula_units_Z   1
loop_
 _symmetry_equiv_pos_site_id
 _symmetry_equiv_pos_as_xyz
  1  'x, y, z'
loop_
 _atom_site_type_symbol
 _atom_site_label
 _atom_site_symmetry_multiplicity
 _atom_site_fract_x
 _atom_site_fract_y
 _atom_site_fract_z
 _atom_site_occupancy
  Ba  Ba0  1  0.00000000  0.00000000  0.00000000  1
  Ca  Ca1  1  0.50000000  0.50000000  0.50000000  1
  I  I2  1  0.14319754  0.61893382  0.61893382  1
  I  I3  1  0.39264114  0.86911995  0.86911995  1
  I  I4  1  0.60735886  0.13088005  0.13088005  1
  I  I5  1  0.85680246  0.38106618  0.38106618  1
