# generated using pymatgen
data_UGeO4
_symmetry_space_group_name_H-M   'P 1'
_cell_length_a   5.13923030
_cell_length_b   5.13932794
_cell_length_c   6.66544119
_cell_angle_alpha   112.67876567
_cell_angle_beta   112.67808735
_cell_angle_gamma   90.00104715
_symmetry_Int_Tables_number   1
_chemical_formula_structural   UGeO4
_chemical_formula_sum   'U2 Ge2 O8'
_cell_volume   147.57514753
_cell_formula_units_Z   2
loop_
 _symmetry_equiv_pos_site_id
 _symmetry_equiv_pos_as_xyz
  1  'x, y, z'
loop_
 _atom_site_type_symbol
 _atom_site_label
 _atom_site_symmetry_multiplicity
 _atom_site_fract_x
 _atom_site_fract_y
 _atom_site_fract_z
 _atom_site_occupancy
  O  O0  1  0.30072484  0.45187402  0.08746348  1
  O  O1  1  0.63566331  0.80077215  0.58751570  1
  O  O2  1  0.95187474  0.28672161  0.58747760  1
  O  O3  1  0.78667073  0.13559518  0.08745477  1
  O  O4  1  0.21332927  0.86440482  0.91254523  1
  O  O5  1  0.04812526  0.71327839  0.41252240  1
  O  O6  1  0.36433669  0.19922785  0.41248430  1
  O  O7  1  0.69927516  0.54812598  0.91253652  1
  Ge  Ge8  1  0.87507054  0.62503235  0.75005131  1
  Ge  Ge9  1  0.12492946  0.37496765  0.24994869  1
  U  U10  1  0.37501441  0.12498492  0.74996724  1
  U  U11  1  0.62498559  0.87501508  0.25003276  1
