# generated using pymatgen
data_BaNa2O2
_symmetry_space_group_name_H-M   'P 1'
_cell_length_a   8.42117687
_cell_length_b   6.97294678
_cell_length_c   6.67246929
_cell_angle_alpha   90.00000000
_cell_angle_beta   81.86310266
_cell_angle_gamma   90.00000000
_symmetry_Int_Tables_number   1
_chemical_formula_structural   BaNa2O2
_chemical_formula_sum   'Ba4 Na8 O8'
_cell_volume   387.86572159
_cell_formula_units_Z   4
loop_
 _symmetry_equiv_pos_site_id
 _symmetry_equiv_pos_as_xyz
  1  'x, y, z'
loop_
 _atom_site_type_symbol
 _atom_site_label
 _atom_site_symmetry_multiplicity
 _atom_site_fract_x
 _atom_site_fract_y
 _atom_site_fract_z
 _atom_site_occupancy
  Ba  Ba0  1  0.30324841  0.40840128  0.90791059  1
  Ba  Ba1  1  0.30324841  0.09159872  0.40791059  1
  Ba  Ba2  1  0.69675159  0.90840128  0.59208941  1
  Ba  Ba3  1  0.69675159  0.59159872  0.09208941  1
  Na  Na4  1  0.94835851  0.35847761  0.64748411  1
  Na  Na5  1  0.94835851  0.14152239  0.14748411  1
  Na  Na6  1  0.37898815  0.86723423  0.95838601  1
  Na  Na7  1  0.37898815  0.63276577  0.45838601  1
  Na  Na8  1  0.62101185  0.36723423  0.54161399  1
  Na  Na9  1  0.62101185  0.13276577  0.04161399  1
  Na  Na10  1  0.05164149  0.85847761  0.85251589  1
  Na  Na11  1  0.05164149  0.64152239  0.35251589  1
  O  O12  1  0.13684227  0.59470847  0.66663702  1
  O  O13  1  0.13684227  0.90529153  0.16663702  1
  O  O14  1  0.45639298  0.12088707  0.73383589  1
  O  O15  1  0.45639298  0.37911293  0.23383589  1
  O  O16  1  0.54360702  0.62088707  0.76616411  1
  O  O17  1  0.54360702  0.87911293  0.26616411  1
  O  O18  1  0.86315773  0.09470847  0.83336298  1
  O  O19  1  0.86315773  0.40529153  0.33336298  1
