# generated using pymatgen
data_Li4Nb(TeO4)3
_symmetry_space_group_name_H-M   'P 1'
_cell_length_a   5.62001170
_cell_length_b   11.24485763
_cell_length_c   9.90914002
_cell_angle_alpha   28.03165680
_cell_angle_beta   50.87891486
_cell_angle_gamma   56.19805570
_symmetry_Int_Tables_number   1
_chemical_formula_structural   Li4Nb(TeO4)3
_chemical_formula_sum   'Li4 Nb1 Te3 O12'
_cell_volume   228.32031764
_cell_formula_units_Z   1
loop_
 _symmetry_equiv_pos_site_id
 _symmetry_equiv_pos_as_xyz
  1  'x, y, z'
loop_
 _atom_site_type_symbol
 _atom_site_label
 _atom_site_symmetry_multiplicity
 _atom_site_fract_x
 _atom_site_fract_y
 _atom_site_fract_z
 _atom_site_occupancy
  Li  Li0  1  0.29753483  0.99720026  0.28962390  1
  Li  Li1  1  0.28449561  0.50156266  0.29196062  1
  Li  Li2  1  0.76328760  0.00260065  0.77035597  1
  Li  Li3  1  0.77509887  0.49995902  0.76438242  1
  Nb  Nb4  1  0.00662103  0.00031487  0.00210695  1
  Te  Te5  1  0.50028107  0.00104409  0.50216905  1
  Te  Te6  1  0.51172433  0.49723147  0.50589615  1
  Te  Te7  1  0.00117081  0.49901441  0.00323571  1
  O  O8  1  0.40280509  0.29500274  0.12599594  1
  O  O9  1  0.25065655  0.13242986  0.60956147  1
  O  O10  1  0.11107497  0.31299400  0.74256606  1
  O  O11  1  0.87585260  0.16937558  0.25593246  1
  O  O12  1  0.36981186  0.81469445  0.11292346  1
  O  O13  1  0.72265403  0.37200791  0.38500587  1
  O  O14  1  0.24347194  0.63006042  0.61703260  1
  O  O15  1  0.62156352  0.17704865  0.88187337  1
  O  O16  1  0.12846499  0.84660861  0.71110713  1
  O  O17  1  0.88106829  0.69073709  0.24059140  1
  O  O18  1  0.72876569  0.87204529  0.38245133  1
  O  O19  1  0.59479631  0.68806796  0.87643214  1
