# generated using pymatgen
data_Li5CuF6
_symmetry_space_group_name_H-M   'P 1'
_cell_length_a   5.13729553
_cell_length_b   5.13729590
_cell_length_c   5.14646949
_cell_angle_alpha   79.89385623
_cell_angle_beta   100.10613937
_cell_angle_gamma   60.37174430
_symmetry_Int_Tables_number   1
_chemical_formula_structural   Li5CuF6
_chemical_formula_sum   'Li5 Cu1 F6'
_cell_volume   110.64271727
_cell_formula_units_Z   1
loop_
 _symmetry_equiv_pos_site_id
 _symmetry_equiv_pos_as_xyz
  1  'x, y, z'
loop_
 _atom_site_type_symbol
 _atom_site_label
 _atom_site_symmetry_multiplicity
 _atom_site_fract_x
 _atom_site_fract_y
 _atom_site_fract_z
 _atom_site_occupancy
  Li  Li0  1  0.16570660  0.16570660  0.50000000  1
  Li  Li1  1  0.33284238  0.33284238  0.00000000  1
  Li  Li2  1  0.50000000  0.50000000  0.50000000  1
  Li  Li3  1  0.66715762  0.66715762  1.00000000  1
  Li  Li4  1  0.83429340  0.83429340  0.50000000  1
  Cu  Cu5  1  0.00000000  0.00000000  0.00000000  1
  F  F6  1  0.08551980  0.56017543  0.25448188  1
  F  F7  1  0.56017543  0.08551980  0.74551812  1
  F  F8  1  0.26619369  0.73380631  0.72952429  1
  F  F9  1  0.73380631  0.26619369  0.27047571  1
  F  F10  1  0.43982457  0.91448020  0.25448188  1
  F  F11  1  0.91448020  0.43982457  0.74551812  1
