# generated using pymatgen
data_Li3Sn2(PO4)3
_symmetry_space_group_name_H-M   'P 1'
_cell_length_a   8.90706695
_cell_length_b   9.38908078
_cell_length_c   12.54289793
_cell_angle_alpha   89.99999872
_cell_angle_beta   85.96329606
_cell_angle_gamma   90.00000224
_symmetry_Int_Tables_number   1
_chemical_formula_structural   Li3Sn2(PO4)3
_chemical_formula_sum   'Li12 Sn8 P12 O48'
_cell_volume   1046.34987306
_cell_formula_units_Z   4
loop_
 _symmetry_equiv_pos_site_id
 _symmetry_equiv_pos_as_xyz
  1  'x, y, z'
loop_
 _atom_site_type_symbol
 _atom_site_label
 _atom_site_symmetry_multiplicity
 _atom_site_fract_x
 _atom_site_fract_y
 _atom_site_fract_z
 _atom_site_occupancy
  Li  Li0  1  0.70729186  0.23055089  0.91138915  1
  Li  Li1  1  0.50000000  0.57211918  0.75000000  1
  Li  Li2  1  0.29270814  0.23055089  0.58861085  1
  Li  Li3  1  0.50000000  0.50000000  0.50000000  1
  Li  Li4  1  0.00000000  0.00000000  0.50000000  1
  Li  Li5  1  0.70729186  0.76944911  0.41138915  1
  Li  Li6  1  0.00000000  0.86784200  0.75000000  1
  Li  Li7  1  0.50000000  0.42788082  0.25000000  1
  Li  Li8  1  1.00000000  0.13215800  0.25000000  1
  Li  Li9  1  0.00000000  0.00000000  0.00000000  1
  Li  Li10  1  0.50000000  0.50000000  0.00000000  1
  Li  Li11  1  0.29270814  0.76944911  0.08861085  1
  Sn  Sn12  1  0.70685443  0.99048725  0.64070176  1
  Sn  Sn13  1  0.82442505  0.51160864  0.83359805  1
  Sn  Sn14  1  0.29314557  0.99048725  0.85929824  1
  Sn  Sn15  1  0.82442505  0.48839136  0.33359805  1
  Sn  Sn16  1  0.70685443  0.00951275  0.14070176  1
  Sn  Sn17  1  0.17557495  0.51160864  0.66640195  1
  Sn  Sn18  1  0.29314557  0.00951275  0.35929824  1
  Sn  Sn19  1  0.17557495  0.48839136  0.16640195  1
  P  P20  1  0.50000000  0.27253795  0.75000000  1
  P  P21  1  0.65798835  0.84841477  0.89636368  1
  P  P22  1  0.79604641  0.65487618  0.59057351  1
  P  P23  1  0.65798835  0.15158523  0.39636368  1
  P  P24  1  0.20395359  0.65487618  0.90942649  1
  P  P25  1  1.00000000  0.15082733  0.75000000  1
  P  P26  1  0.34201165  0.84841477  0.60363632  1
  P  P27  1  0.79604641  0.34512382  0.09057351  1
  P  P28  1  0.20395359  0.34512382  0.40942649  1
  P  P29  1  0.34201165  0.15158523  0.10363632  1
  P  P30  1  0.50000000  0.72746205  0.25000000  1
  P  P31  1  0.00000000  0.84917267  0.25000000  1
  O  O32  1  0.87726090  0.23474585  0.81064197  1
  O  O33  1  0.04060811  0.62154428  0.88860329  1
  O  O34  1  0.93599242  0.04368952  0.66226605  1
  O  O35  1  0.56492073  0.36508838  0.83675179  1
  O  O36  1  0.37337688  0.17575257  0.80225977  1
  O  O37  1  0.64490036  0.68655104  0.91023205  1
  O  O38  1  0.74911914  0.91775114  0.98589222  1
  O  O39  1  0.62662412  0.17575257  0.69774023  1
  O  O40  1  0.26405439  0.58120804  0.00858219  1
  O  O41  1  0.74911914  0.08224886  0.48589222  1
  O  O42  1  0.06400758  0.04368952  0.83773395  1
  O  O43  1  0.68401875  0.62677668  0.68489790  1
  O  O44  1  0.04060811  0.37845572  0.38860329  1
  O  O45  1  0.50176114  0.92084887  0.89654180  1
  O  O46  1  0.74996821  0.88969657  0.78839313  1
  O  O47  1  0.43507927  0.36508838  0.66324821  1
  O  O48  1  0.31598125  0.62677668  0.81510210  1
  O  O49  1  0.74996821  0.11030343  0.28839313  1
  O  O50  1  0.79771083  0.82067689  0.55686356  1
  O  O51  1  0.73594561  0.58120804  0.49141781  1
  O  O52  1  0.50176114  0.07915113  0.39654180  1
  O  O53  1  0.12273910  0.23474585  0.68935803  1
  O  O54  1  0.20228917  0.82067689  0.94313644  1
  O  O55  1  0.64490036  0.31344896  0.41023205  1
  O  O56  1  0.35509964  0.68655104  0.58976795  1
  O  O57  1  0.79771083  0.17932311  0.05686356  1
  O  O58  1  0.49823886  0.92084887  0.60345820  1
  O  O59  1  0.87726090  0.76525415  0.31064197  1
  O  O60  1  0.26405439  0.41879196  0.50858219  1
  O  O61  1  0.20228917  0.17932311  0.44313644  1
  O  O62  1  0.68401875  0.37322332  0.18489790  1
  O  O63  1  0.25003179  0.88969657  0.71160687  1
  O  O64  1  0.56492073  0.63491162  0.33675179  1
  O  O65  1  0.25003179  0.11030343  0.21160687  1
  O  O66  1  0.95939189  0.62154428  0.61139671  1
  O  O67  1  0.49823886  0.07915113  0.10345820  1
  O  O68  1  0.31598125  0.37322332  0.31510210  1
  O  O69  1  0.93599242  0.95631048  0.16226605  1
  O  O70  1  0.25088086  0.91775114  0.51410778  1
  O  O71  1  0.73594561  0.41879196  0.99141781  1
  O  O72  1  0.37337688  0.82424743  0.30225977  1
  O  O73  1  0.35509964  0.31344896  0.08976795  1
  O  O74  1  0.25088086  0.08224886  0.01410778  1
  O  O75  1  0.62662412  0.82424743  0.19774023  1
  O  O76  1  0.43507927  0.63491162  0.16324821  1
  O  O77  1  0.06400758  0.95631048  0.33773395  1
  O  O78  1  0.95939189  0.37845572  0.11139671  1
  O  O79  1  0.12273910  0.76525415  0.18935803  1
