# generated using pymatgen
data_LiCuCO3
_symmetry_space_group_name_H-M   'P 1'
_cell_length_a   8.29717005
_cell_length_b   8.29677858
_cell_length_c   3.05428246
_cell_angle_alpha   90.00000000
_cell_angle_beta   90.00000000
_cell_angle_gamma   120.00488303
_symmetry_Int_Tables_number   1
_chemical_formula_structural   LiCuCO3
_chemical_formula_sum   'Li3 Cu3 C3 O9'
_cell_volume   182.07819937
_cell_formula_units_Z   3
loop_
 _symmetry_equiv_pos_site_id
 _symmetry_equiv_pos_as_xyz
  1  'x, y, z'
loop_
 _atom_site_type_symbol
 _atom_site_label
 _atom_site_symmetry_multiplicity
 _atom_site_fract_x
 _atom_site_fract_y
 _atom_site_fract_z
 _atom_site_occupancy
  Li  Li0  1  0.32785271  0.29865810  0.50000000  1
  Li  Li1  1  0.97080703  0.67214557  0.50000000  1
  Li  Li2  1  0.70133194  0.02918664  0.50000000  1
  Cu  Cu3  1  0.02073067  0.35498455  0.00000000  1
  Cu  Cu4  1  0.33426175  0.97931138  0.00000000  1
  Cu  Cu5  1  0.64499949  0.66570678  0.00000000  1
  C  C6  1  0.33334040  0.66662447  0.50000000  1
  C  C7  1  0.00026536  0.00017104  0.00000000  1
  C  C8  1  0.66650075  0.33340153  0.00000000  1
  O  O9  1  0.05550128  0.87836853  0.00000000  1
  O  O10  1  0.15174066  0.57603567  0.50000000  1
  O  O11  1  0.42428937  0.84827395  0.50000000  1
  O  O12  1  0.12153282  0.17703809  0.00000000  1
  O  O13  1  0.42396121  0.57574204  0.50000000  1
  O  O14  1  0.82269091  0.94442621  0.00000000  1
  O  O15  1  0.48761572  0.26321471  0.00000000  1
  O  O16  1  0.77568942  0.51247086  0.00000000  1
  O  O17  1  0.73688852  0.22423888  0.00000000  1
