# generated using pymatgen
data_Li2CuF4
_symmetry_space_group_name_H-M   'P 1'
_cell_length_a   8.86276819
_cell_length_b   8.86276807
_cell_length_c   8.86276786
_cell_angle_alpha   107.01273623
_cell_angle_beta   107.01273949
_cell_angle_gamma   107.01274165
_symmetry_Int_Tables_number   1
_chemical_formula_structural   Li2CuF4
_chemical_formula_sum   'Li12 Cu6 F24'
_cell_volume   579.56589473
_cell_formula_units_Z   6
loop_
 _symmetry_equiv_pos_site_id
 _symmetry_equiv_pos_as_xyz
  1  'x, y, z'
loop_
 _atom_site_type_symbol
 _atom_site_label
 _atom_site_symmetry_multiplicity
 _atom_site_fract_x
 _atom_site_fract_y
 _atom_site_fract_z
 _atom_site_occupancy
  Li  Li0  1  0.12697524  0.72575202  0.89448477  1
  Li  Li1  1  0.10551523  0.87302476  0.27424798  1
  Li  Li2  1  0.20282935  0.61051504  0.43661921  1
  Li  Li3  1  0.27424798  0.10551523  0.87302476  1
  Li  Li4  1  0.38948496  0.56338079  0.79717065  1
  Li  Li5  1  0.43661921  0.20282935  0.61051504  1
  Li  Li6  1  0.56338079  0.79717065  0.38948496  1
  Li  Li7  1  0.61051504  0.43661921  0.20282935  1
  Li  Li8  1  0.72575202  0.89448477  0.12697524  1
  Li  Li9  1  0.79717065  0.38948496  0.56338079  1
  Li  Li10  1  0.89448477  0.12697524  0.72575202  1
  Li  Li11  1  0.87302476  0.27424798  0.10551523  1
  Cu  Cu12  1  0.06351685  0.22724651  0.46424134  1
  Cu  Cu13  1  0.53575866  0.93648315  0.77275349  1
  Cu  Cu14  1  0.22724651  0.46424134  0.06351685  1
  Cu  Cu15  1  0.77275349  0.53575866  0.93648315  1
  Cu  Cu16  1  0.46424134  0.06351685  0.22724651  1
  Cu  Cu17  1  0.93648315  0.77275349  0.53575866  1
  F  F18  1  0.28914371  0.95866885  0.99229749  1
  F  F19  1  0.08415565  0.75313009  0.41522582  1
  F  F20  1  0.00770251  0.71085629  0.04133115  1
  F  F21  1  0.24686991  0.58477418  0.91584435  1
  F  F22  1  0.04302101  0.37294658  0.33823811  1
  F  F23  1  0.04133115  0.00770251  0.71085629  1
  F  F24  1  0.36698742  0.70034194  0.66745190  1
  F  F25  1  0.29965806  0.33254810  0.63301258  1
  F  F26  1  0.33254810  0.63301258  0.29965806  1
  F  F27  1  0.62705342  0.66176189  0.95697899  1
  F  F28  1  0.41522582  0.08415565  0.75313009  1
  F  F29  1  0.66176189  0.95697899  0.62705342  1
  F  F30  1  0.33823811  0.04302101  0.37294658  1
  F  F31  1  0.58477418  0.91584435  0.24686991  1
  F  F32  1  0.37294658  0.33823811  0.04302101  1
  F  F33  1  0.66745190  0.36698742  0.70034194  1
  F  F34  1  0.70034194  0.66745190  0.36698742  1
  F  F35  1  0.63301258  0.29965806  0.33254810  1
  F  F36  1  0.95866885  0.99229749  0.28914371  1
  F  F37  1  0.95697899  0.62705342  0.66176189  1
  F  F38  1  0.75313009  0.41522582  0.08415565  1
  F  F39  1  0.99229749  0.28914371  0.95866885  1
  F  F40  1  0.91584435  0.24686991  0.58477418  1
  F  F41  1  0.71085629  0.04133115  0.00770251  1
