# generated using pymatgen
data_LiTi(PO3)4
_symmetry_space_group_name_H-M   'P 1'
_cell_length_a   7.32659398
_cell_length_b   7.72005239
_cell_length_c   8.44121850
_cell_angle_alpha   90.00000000
_cell_angle_beta   90.00000000
_cell_angle_gamma   94.43843378
_symmetry_Int_Tables_number   1
_chemical_formula_structural   LiTi(PO3)4
_chemical_formula_sum   'Li2 Ti2 P8 O24'
_cell_volume   476.01773840
_cell_formula_units_Z   2
loop_
 _symmetry_equiv_pos_site_id
 _symmetry_equiv_pos_as_xyz
  1  'x, y, z'
loop_
 _atom_site_type_symbol
 _atom_site_label
 _atom_site_symmetry_multiplicity
 _atom_site_fract_x
 _atom_site_fract_y
 _atom_site_fract_z
 _atom_site_occupancy
  Li  Li0  1  0.25198984  0.86837287  0.69550672  1
  Li  Li1  1  0.74801016  0.13162713  0.19550672  1
  Ti  Ti2  1  0.24724007  0.31804463  0.50432242  1
  Ti  Ti3  1  0.75275993  0.68195537  0.00432242  1
  P  P4  1  0.07827842  0.96665113  0.28074568  1
  P  P5  1  0.07054455  0.37975211  0.88441813  1
  P  P6  1  0.35571119  0.81016999  0.06802739  1
  P  P7  1  0.37280037  0.44394988  0.13092487  1
  P  P8  1  0.62719963  0.55605012  0.63092487  1
  P  P9  1  0.64428881  0.18983001  0.56802739  1
  P  P10  1  0.92945545  0.62024789  0.38441813  1
  P  P11  1  0.92172158  0.03334887  0.78074568  1
  O  O12  1  0.06198847  0.79883702  0.39762558  1
  O  O13  1  0.04295163  0.47646229  0.43050697  1
  O  O14  1  0.27615876  0.80622626  0.90658095  1
  O  O15  1  0.08427175  0.03946801  0.67540575  1
  O  O16  1  0.16910274  0.38982933  0.72829517  1
  O  O17  1  0.26480492  0.94383638  0.18405331  1
  O  O18  1  0.11722159  0.12564499  0.37965000  1
  O  O19  1  0.21600049  0.34394517  0.02219015  1
  O  O20  1  0.29493957  0.63051131  0.16079952  1
  O  O21  1  0.37305474  0.34858759  0.28508885  1
  O  O22  1  0.56164013  0.84869698  0.08502614  1
  O  O23  1  0.44755550  0.53544214  0.54450338  1
  O  O24  1  0.55244450  0.46455786  0.04450338  1
  O  O25  1  0.43835987  0.15130302  0.58502614  1
  O  O26  1  0.62694526  0.65141241  0.78508885  1
  O  O27  1  0.70506043  0.36948869  0.66079952  1
  O  O28  1  0.78399951  0.65605483  0.52219015  1
  O  O29  1  0.88277841  0.87435501  0.87965000  1
  O  O30  1  0.73519508  0.05616362  0.68405331  1
  O  O31  1  0.83089726  0.61017067  0.22829517  1
  O  O32  1  0.91572825  0.96053199  0.17540575  1
  O  O33  1  0.72384124  0.19377374  0.40658095  1
  O  O34  1  0.95704837  0.52353771  0.93050697  1
  O  O35  1  0.93801153  0.20116298  0.89762558  1
