# generated using pymatgen
data_LiTiP2O7
_symmetry_space_group_name_H-M   'P 1'
_cell_length_a   8.67855222
_cell_length_b   5.17964617
_cell_length_c   12.26063011
_cell_angle_alpha   90.00000000
_cell_angle_beta   78.11736746
_cell_angle_gamma   90.00000000
_symmetry_Int_Tables_number   1
_chemical_formula_structural   LiTiP2O7
_chemical_formula_sum   'Li4 Ti4 P8 O28'
_cell_volume   539.32767144
_cell_formula_units_Z   4
loop_
 _symmetry_equiv_pos_site_id
 _symmetry_equiv_pos_as_xyz
  1  'x, y, z'
loop_
 _atom_site_type_symbol
 _atom_site_label
 _atom_site_symmetry_multiplicity
 _atom_site_fract_x
 _atom_site_fract_y
 _atom_site_fract_z
 _atom_site_occupancy
  Li  Li0  1  0.13642278  0.26240391  0.30469911  1
  Li  Li1  1  0.36357722  0.76240391  0.19530089  1
  Li  Li2  1  0.63642278  0.23759609  0.80469911  1
  Li  Li3  1  0.86357722  0.73759609  0.69530089  1
  Ti  Ti4  1  0.23478187  0.23527715  0.02906556  1
  Ti  Ti5  1  0.26521813  0.73527715  0.47093444  1
  Ti  Ti6  1  0.73478187  0.26472285  0.52906556  1
  Ti  Ti7  1  0.76521813  0.76472285  0.97093444  1
  P  P8  1  0.02416433  0.75859998  0.14785532  1
  P  P9  1  0.06663074  0.22020920  0.61605490  1
  P  P10  1  0.47583567  0.25859998  0.35214468  1
  P  P11  1  0.56663074  0.27979080  0.11605490  1
  P  P12  1  0.43336926  0.72020920  0.88394510  1
  P  P13  1  0.52416433  0.74140002  0.64785532  1
  P  P14  1  0.93336926  0.77979080  0.38394510  1
  P  P15  1  0.97583567  0.24140002  0.85214468  1
  O  O16  1  0.09761130  0.02519861  0.15967509  1
  O  O17  1  0.14889618  0.54510885  0.13914568  1
  O  O18  1  0.10924148  0.70664706  0.36862347  1
  O  O19  1  0.09200319  0.93048715  0.59202786  1
  O  O20  1  0.10484602  0.28291298  0.73747825  1
  O  O21  1  0.17428467  0.39263420  0.53474879  1
  O  O22  1  0.07173886  0.25761118  0.94269281  1
  O  O23  1  0.39075852  0.20664706  0.13137653  1
  O  O24  1  0.35110382  0.04510885  0.36085432  1
  O  O25  1  0.40238870  0.52519861  0.34032491  1
  O  O26  1  0.42826114  0.75761118  0.55730719  1
  O  O27  1  0.59200319  0.56951285  0.09202786  1
  O  O28  1  0.32571533  0.89263420  0.96525121  1
  O  O29  1  0.39515398  0.78291298  0.76252175  1
  O  O30  1  0.60484602  0.21708702  0.23747825  1
  O  O31  1  0.67428467  0.10736580  0.03474879  1
  O  O32  1  0.40799681  0.43048715  0.90797214  1
  O  O33  1  0.57173886  0.24238882  0.44269281  1
  O  O34  1  0.59761130  0.47480139  0.65967509  1
  O  O35  1  0.64889618  0.95489115  0.63914568  1
  O  O36  1  0.60924148  0.79335294  0.86862347  1
  O  O37  1  0.92826114  0.74238882  0.05730719  1
  O  O38  1  0.82571533  0.60736580  0.46525121  1
  O  O39  1  0.89515398  0.71708702  0.26252175  1
  O  O40  1  0.90799681  0.06951285  0.40797214  1
  O  O41  1  0.89075852  0.29335294  0.63137653  1
  O  O42  1  0.85110382  0.45489115  0.86085432  1
  O  O43  1  0.90238870  0.97480139  0.84032491  1
