# generated using pymatgen
data_LiCu2F7
_symmetry_space_group_name_H-M   'P 1'
_cell_length_a   5.74358901
_cell_length_b   12.38954519
_cell_length_c   6.85724202
_cell_angle_alpha   90.00000000
_cell_angle_beta   84.23089727
_cell_angle_gamma   90.00000000
_symmetry_Int_Tables_number   1
_chemical_formula_structural   LiCu2F7
_chemical_formula_sum   'Li4 Cu8 F28'
_cell_volume   485.49295489
_cell_formula_units_Z   4
loop_
 _symmetry_equiv_pos_site_id
 _symmetry_equiv_pos_as_xyz
  1  'x, y, z'
loop_
 _atom_site_type_symbol
 _atom_site_label
 _atom_site_symmetry_multiplicity
 _atom_site_fract_x
 _atom_site_fract_y
 _atom_site_fract_z
 _atom_site_occupancy
  Li  Li0  1  0.39472919  0.62757486  0.24270155  1
  Li  Li1  1  0.39472919  0.87242514  0.74270155  1
  Li  Li2  1  0.60527081  0.12757486  0.25729845  1
  Li  Li3  1  0.60527081  0.37242514  0.75729845  1
  Cu  Cu4  1  0.15454113  0.96045790  0.32697703  1
  Cu  Cu5  1  0.14422626  0.33247559  0.44413654  1
  Cu  Cu6  1  0.15454113  0.53954210  0.82697703  1
  Cu  Cu7  1  0.14422626  0.16752441  0.94413654  1
  Cu  Cu8  1  0.85577374  0.83247559  0.05586346  1
  Cu  Cu9  1  0.84545887  0.46045790  0.17302297  1
  Cu  Cu10  1  0.85577374  0.66752441  0.55586346  1
  Cu  Cu11  1  0.84545887  0.03954210  0.67302297  1
  F  F12  1  0.05830546  0.09379783  0.45048464  1
  F  F13  1  0.09702793  0.24891826  0.16230560  1
  F  F14  1  0.05830546  0.40620217  0.95048464  1
  F  F15  1  0.09702793  0.25108174  0.66230560  1
  F  F16  1  0.16845769  0.85439075  0.03876100  1
  F  F17  1  0.14941299  0.46107167  0.29547020  1
  F  F18  1  0.16845769  0.64560925  0.53876100  1
  F  F19  1  0.14941299  0.03892833  0.79547020  1
  F  F20  1  0.35451412  0.04616420  0.15980429  1
  F  F21  1  0.35451412  0.45383580  0.65980429  1
  F  F22  1  0.38757827  0.90236904  0.46101080  1
  F  F23  1  0.44088203  0.28909411  0.39616477  1
  F  F24  1  0.38757827  0.59763096  0.96101080  1
  F  F25  1  0.44088203  0.21090589  0.89616477  1
  F  F26  1  0.55911797  0.78909411  0.10383523  1
  F  F27  1  0.61242173  0.40236904  0.03898920  1
  F  F28  1  0.55911797  0.71090589  0.60383523  1
  F  F29  1  0.61242173  0.09763096  0.53898920  1
  F  F30  1  0.64548588  0.54616420  0.34019571  1
  F  F31  1  0.64548588  0.95383580  0.84019571  1
  F  F32  1  0.85058701  0.96107167  0.20452980  1
  F  F33  1  0.83154231  0.35439075  0.46123900  1
  F  F34  1  0.85058701  0.53892833  0.70452980  1
  F  F35  1  0.83154231  0.14560925  0.96123900  1
  F  F36  1  0.90297207  0.74891826  0.33769440  1
  F  F37  1  0.94169454  0.59379783  0.04951536  1
  F  F38  1  0.90297207  0.75108174  0.83769440  1
  F  F39  1  0.94169454  0.90620217  0.54951536  1
