# generated using pymatgen
data_Li3Bi2(PO4)3
_symmetry_space_group_name_H-M   'P 1'
_cell_length_a   8.81363645
_cell_length_b   9.44990204
_cell_length_c   12.85301114
_cell_angle_alpha   90.00000017
_cell_angle_beta   81.95434242
_cell_angle_gamma   89.99999870
_symmetry_Int_Tables_number   1
_chemical_formula_structural   Li3Bi2(PO4)3
_chemical_formula_sum   'Li12 Bi8 P12 O48'
_cell_volume   1059.96449906
_cell_formula_units_Z   4
loop_
 _symmetry_equiv_pos_site_id
 _symmetry_equiv_pos_as_xyz
  1  'x, y, z'
loop_
 _atom_site_type_symbol
 _atom_site_label
 _atom_site_symmetry_multiplicity
 _atom_site_fract_x
 _atom_site_fract_y
 _atom_site_fract_z
 _atom_site_occupancy
  Li  Li0  1  0.72025648  0.18408278  0.94290960  1
  Li  Li1  1  0.50000000  0.60970450  0.75000000  1
  Li  Li2  1  0.27974352  0.18408278  0.55709040  1
  Li  Li3  1  0.50000000  0.50000000  0.50000000  1
  Li  Li4  1  0.00000000  0.00000000  0.50000000  1
  Li  Li5  1  0.72025648  0.81591722  0.44290960  1
  Li  Li6  1  1.00000000  0.88836840  0.75000000  1
  Li  Li7  1  0.50000000  0.39029550  0.25000000  1
  Li  Li8  1  0.00000000  0.11163160  0.25000000  1
  Li  Li9  1  0.00000000  0.00000000  0.00000000  1
  Li  Li10  1  0.50000000  0.50000000  0.00000000  1
  Li  Li11  1  0.27974352  0.81591722  0.05709040  1
  Bi  Bi12  1  0.80937570  0.50494334  0.83893588  1
  Bi  Bi13  1  0.68596163  0.00266394  0.65999413  1
  Bi  Bi14  1  0.31403837  0.00266394  0.84000587  1
  Bi  Bi15  1  0.19062430  0.50494334  0.66106412  1
  Bi  Bi16  1  0.68596163  0.99733606  0.15999413  1
  Bi  Bi17  1  0.31403837  0.99733606  0.34000587  1
  Bi  Bi18  1  0.80937570  0.49505666  0.33893588  1
  Bi  Bi19  1  0.19062430  0.49505666  0.16106412  1
  P  P20  1  0.50000000  0.33127543  0.75000000  1
  P  P21  1  0.67758082  0.83557932  0.91750193  1
  P  P22  1  0.81433006  0.66150490  0.59014460  1
  P  P23  1  1.00000000  0.16166289  0.75000000  1
  P  P24  1  0.67758082  0.16442068  0.41750193  1
  P  P25  1  0.18566994  0.66150490  0.90985540  1
  P  P26  1  0.32241918  0.83557932  0.58249807  1
  P  P27  1  0.81433006  0.33849510  0.09014460  1
  P  P28  1  0.18566994  0.33849510  0.40985540  1
  P  P29  1  0.32241918  0.16442068  0.08249807  1
  P  P30  1  0.50000000  0.66872457  0.25000000  1
  P  P31  1  0.00000000  0.83833711  0.25000000  1
  O  O32  1  0.87383001  0.24778413  0.81582747  1
  O  O33  1  0.02953704  0.59564229  0.90110902  1
  O  O34  1  0.93451221  0.05858797  0.66967129  1
  O  O35  1  0.55962222  0.43289516  0.83358758  1
  O  O36  1  0.37049435  0.24146994  0.80820976  1
  O  O37  1  0.67909719  0.67194262  0.93677895  1
  O  O38  1  0.76383437  0.91901501  0.99803279  1
  O  O39  1  0.62950565  0.24146994  0.69179024  1
  O  O40  1  0.06548779  0.05858797  0.83032871  1
  O  O41  1  0.76383437  0.08098499  0.49803279  1
  O  O42  1  0.26558792  0.60518996  0.00449286  1
  O  O43  1  0.70408682  0.63672072  0.69172993  1
  O  O44  1  0.02953704  0.40435771  0.40110902  1
  O  O45  1  0.50719574  0.87941293  0.92890092  1
  O  O46  1  0.77050454  0.87458123  0.81034012  1
  O  O47  1  0.44037778  0.43289516  0.66641242  1
  O  O48  1  0.77050454  0.12541877  0.31034012  1
  O  O49  1  0.29591318  0.63672072  0.80827007  1
  O  O50  1  0.83442221  0.82539442  0.56661323  1
  O  O51  1  0.73441208  0.60518996  0.49550714  1
  O  O52  1  0.12616999  0.24778413  0.68417253  1
  O  O53  1  0.50719574  0.12058707  0.42890092  1
  O  O54  1  0.67909719  0.32805738  0.43677895  1
  O  O55  1  0.16557779  0.82539442  0.93338677  1
  O  O56  1  0.32090281  0.67194262  0.56322105  1
  O  O57  1  0.83442221  0.17460558  0.06661323  1
  O  O58  1  0.87383001  0.75221587  0.31582747  1
  O  O59  1  0.49280426  0.87941293  0.57109908  1
  O  O60  1  0.16557779  0.17460558  0.43338677  1
  O  O61  1  0.26558792  0.39481004  0.50449286  1
  O  O62  1  0.22949546  0.87458123  0.68965988  1
  O  O63  1  0.70408682  0.36327928  0.19172993  1
  O  O64  1  0.55962222  0.56710484  0.33358758  1
  O  O65  1  0.22949546  0.12541877  0.18965988  1
  O  O66  1  0.97046296  0.59564229  0.59889098  1
  O  O67  1  0.49280426  0.12058707  0.07109908  1
  O  O68  1  0.29591318  0.36327928  0.30827007  1
  O  O69  1  0.73441208  0.39481004  0.99550714  1
  O  O70  1  0.23616563  0.91901501  0.50196721  1
  O  O71  1  0.93451221  0.94141203  0.16967129  1
  O  O72  1  0.37049435  0.75853006  0.30820976  1
  O  O73  1  0.32090281  0.32805738  0.06322105  1
  O  O74  1  0.23616563  0.08098499  0.00196721  1
  O  O75  1  0.62950565  0.75853006  0.19179024  1
  O  O76  1  0.44037778  0.56710484  0.16641242  1
  O  O77  1  0.06548779  0.94141203  0.33032871  1
  O  O78  1  0.97046296  0.40435771  0.09889098  1
  O  O79  1  0.12616999  0.75221587  0.18417253  1
