# generated using pymatgen
data_Li2Bi2P2O9
_symmetry_space_group_name_H-M   'P 1'
_cell_length_a   7.89641392
_cell_length_b   9.31070075
_cell_length_c   5.69485371
_cell_angle_alpha   90.00000000
_cell_angle_beta   93.02579299
_cell_angle_gamma   90.00000000
_symmetry_Int_Tables_number   1
_chemical_formula_structural   Li2Bi2P2O9
_chemical_formula_sum   'Li4 Bi4 P4 O18'
_cell_volume   418.10846678
_cell_formula_units_Z   2
loop_
 _symmetry_equiv_pos_site_id
 _symmetry_equiv_pos_as_xyz
  1  'x, y, z'
loop_
 _atom_site_type_symbol
 _atom_site_label
 _atom_site_symmetry_multiplicity
 _atom_site_fract_x
 _atom_site_fract_y
 _atom_site_fract_z
 _atom_site_occupancy
  Li  Li0  1  0.06929392  0.58000844  0.39663144  1
  Li  Li1  1  0.43070608  0.08000844  0.60336856  1
  Li  Li2  1  0.64459484  0.61983545  0.47157441  1
  Li  Li3  1  0.85540516  0.11983545  0.52842559  1
  Bi  Bi4  1  0.12859545  0.20953192  0.02835629  1
  Bi  Bi5  1  0.37140455  0.70953192  0.97164371  1
  Bi  Bi6  1  0.67435906  0.28076674  0.10861328  1
  Bi  Bi7  1  0.82564094  0.78076674  0.89138672  1
  P  P8  1  0.90947215  0.44926890  0.81665744  1
  P  P9  1  0.10840899  0.87024548  0.52319249  1
  P  P10  1  0.39159101  0.37024548  0.47680751  1
  P  P11  1  0.59052785  0.94926890  0.18334256  1
  O  O12  1  0.92638636  0.92197334  0.59545378  1
  O  O13  1  0.09303736  0.77973669  0.29490634  1
  O  O14  1  0.16044201  0.76481003  0.73513359  1
  O  O15  1  0.27571654  0.49891046  0.48365236  1
  O  O16  1  0.09451450  0.44277622  0.93181814  1
  O  O17  1  0.40548550  0.94277622  0.06818186  1
  O  O18  1  0.22428346  0.99891046  0.51634764  1
  O  O19  1  0.33955799  0.26481003  0.26486641  1
  O  O20  1  0.40696264  0.27973669  0.70509366  1
  O  O21  1  0.57361364  0.42197334  0.40454622  1
  O  O22  1  0.64002371  0.79117687  0.24451754  1
  O  O23  1  0.57424309  0.73057634  0.73977025  1
  O  O24  1  0.61092500  0.05963135  0.38501878  1
  O  O25  1  0.71136485  0.00074975  0.98698769  1
  O  O26  1  0.78863515  0.50074975  0.01301231  1
  O  O27  1  0.88907500  0.55963135  0.61498122  1
  O  O28  1  0.92575691  0.23057634  0.26022975  1
  O  O29  1  0.85997629  0.29117687  0.75548246  1
