# generated using pymatgen
data_Tl2(PbO3)3
_symmetry_space_group_name_H-M   'P 1'
_cell_length_a   3.83861025
_cell_length_b   3.83861025
_cell_length_c   14.18591031
_cell_angle_alpha   97.77576992
_cell_angle_beta   97.77576992
_cell_angle_gamma   90.00000000
_symmetry_Int_Tables_number   1
_chemical_formula_structural   Tl2(PbO3)3
_chemical_formula_sum   'Tl2 Pb3 O9'
_cell_volume   205.16640127
_cell_formula_units_Z   1
loop_
 _symmetry_equiv_pos_site_id
 _symmetry_equiv_pos_as_xyz
  1  'x, y, z'
loop_
 _atom_site_type_symbol
 _atom_site_label
 _atom_site_symmetry_multiplicity
 _atom_site_fract_x
 _atom_site_fract_y
 _atom_site_fract_z
 _atom_site_occupancy
  Tl  Tl0  1  0.99657072  0.99657072  0.99314144  1
  Tl  Tl1  1  0.60342928  0.60342928  0.20685856  1
  Pb  Pb2  1  0.20021981  0.20021981  0.40044063  1
  Pb  Pb3  1  0.80000000  0.80000000  0.60000000  1
  Pb  Pb4  1  0.39978019  0.39978019  0.79955937  1
  O  O5  1  0.05000000  0.55000000  0.10000000  1
  O  O6  1  0.16074738  0.66074738  0.32149576  1
  O  O7  1  0.63871400  0.13871400  0.27742899  1
  O  O8  1  0.26062566  0.76062566  0.52125132  1
  O  O9  1  0.73957553  0.23957553  0.47915105  1
  O  O10  1  0.36042447  0.86042447  0.72084895  1
  O  O11  1  0.83937434  0.33937434  0.67874868  1
  O  O12  1  0.46128600  0.96128600  0.92257101  1
  O  O13  1  0.93925262  0.43925262  0.87850424  1
