# generated using pymatgen
data_Li3CrB4O9
_symmetry_space_group_name_H-M   'P 1'
_cell_length_a   5.89267560
_cell_length_b   8.54380316
_cell_length_c   6.70440198
_cell_angle_alpha   90.00000000
_cell_angle_beta   103.38170837
_cell_angle_gamma   90.00000000
_symmetry_Int_Tables_number   1
_chemical_formula_structural   Li3CrB4O9
_chemical_formula_sum   'Li6 Cr2 B8 O18'
_cell_volume   328.37464259
_cell_formula_units_Z   2
loop_
 _symmetry_equiv_pos_site_id
 _symmetry_equiv_pos_as_xyz
  1  'x, y, z'
loop_
 _atom_site_type_symbol
 _atom_site_label
 _atom_site_symmetry_multiplicity
 _atom_site_fract_x
 _atom_site_fract_y
 _atom_site_fract_z
 _atom_site_occupancy
  Li  Li0  1  0.23791920  0.56439474  0.16007982  1
  Li  Li1  1  0.23791920  0.93560526  0.16007982  1
  Li  Li2  1  0.41430885  0.25000000  0.50187497  1
  Li  Li3  1  0.58569115  0.75000000  0.49812503  1
  Li  Li4  1  0.76208080  0.06439474  0.83992018  1
  Li  Li5  1  0.76208080  0.43560526  0.83992018  1
  Cr  Cr6  1  0.24835656  0.25000000  0.88701196  1
  Cr  Cr7  1  0.75164344  0.75000000  0.11298804  1
  B  B8  1  0.00162033  0.25000000  0.23128296  1
  B  B9  1  0.13605553  0.75000000  0.45883588  1
  B  B10  1  0.28272400  0.54258144  0.71674118  1
  B  B11  1  0.28272400  0.95741856  0.71674118  1
  B  B12  1  0.71727600  0.04258144  0.28325882  1
  B  B13  1  0.71727600  0.45741856  0.28325882  1
  B  B14  1  0.86394447  0.25000000  0.54116412  1
  B  B15  1  0.99837967  0.75000000  0.76871704  1
  O  O16  1  0.14566301  0.60414012  0.84278967  1
  O  O17  1  0.14566301  0.89585988  0.84278967  1
  O  O18  1  0.06658173  0.25000000  0.45373775  1
  O  O19  1  0.08017229  0.75000000  0.23602871  1
  O  O20  1  0.29044315  0.61054856  0.53210905  1
  O  O21  1  0.29044315  0.88945144  0.53210905  1
  O  O22  1  0.21164036  0.25000000  0.15517799  1
  O  O23  1  0.41705501  0.08892474  0.77824493  1
  O  O24  1  0.41705501  0.41107526  0.77824493  1
  O  O25  1  0.58294499  0.91107526  0.22175507  1
  O  O26  1  0.58294499  0.58892474  0.22175507  1
  O  O27  1  0.78835964  0.75000000  0.84482201  1
  O  O28  1  0.70955685  0.11054856  0.46789095  1
  O  O29  1  0.70955685  0.38945144  0.46789095  1
  O  O30  1  0.91982771  0.25000000  0.76397129  1
  O  O31  1  0.93341827  0.75000000  0.54626225  1
  O  O32  1  0.85433699  0.10414012  0.15721033  1
  O  O33  1  0.85433699  0.39585988  0.15721033  1
