# generated using pymatgen
data_LiFeSiO4
_symmetry_space_group_name_H-M   'P 1'
_cell_length_a   7.49976293
_cell_length_b   7.49909836
_cell_length_c   9.62240698
_cell_angle_alpha   89.99759952
_cell_angle_beta   90.00156425
_cell_angle_gamma   119.99769124
_symmetry_Int_Tables_number   1
_chemical_formula_structural   LiFeSiO4
_chemical_formula_sum   'Li6 Fe6 Si6 O24'
_cell_volume   468.68498598
_cell_formula_units_Z   6
loop_
 _symmetry_equiv_pos_site_id
 _symmetry_equiv_pos_as_xyz
  1  'x, y, z'
loop_
 _atom_site_type_symbol
 _atom_site_label
 _atom_site_symmetry_multiplicity
 _atom_site_fract_x
 _atom_site_fract_y
 _atom_site_fract_z
 _atom_site_occupancy
  Li  Li0  1  0.20479778  0.94732678  0.25213626  1
  Li  Li1  1  0.05272804  0.25752663  0.25210903  1
  Li  Li2  1  0.25749109  0.05273136  0.75211364  1
  Li  Li3  1  0.74250526  0.79523919  0.25210530  1
  Li  Li4  1  0.79520322  0.74253330  0.75213623  1
  Li  Li5  1  0.94728321  0.20480873  0.75211489  1
  Fe  Fe6  1  0.05946281  0.60119361  0.47225363  1
  Fe  Fe7  1  0.54166984  0.94041408  0.47233468  1
  Fe  Fe8  1  0.39877694  0.45827521  0.47225515  1
  Fe  Fe9  1  0.45836519  0.39878848  0.97234857  1
  Fe  Fe10  1  0.60122608  0.05948100  0.97225805  1
  Fe  Fe11  1  0.94045858  0.54166357  0.97226306  1
  Si  Si12  1  0.33329368  0.66665340  0.16935776  1
  Si  Si13  1  0.00003050  0.00001167  0.00639794  1
  Si  Si14  1  0.99997888  -0.00000415  0.50640169  1
  Si  Si15  1  0.33339334  0.66667166  0.77702100  1
  Si  Si16  1  0.66669655  0.33333197  0.66936093  1
  Si  Si17  1  0.66660004  0.33329401  0.27701504  1
  O  O18  1  0.10955754  0.87162136  0.44202941  1
  O  O19  1  0.13793353  0.68877564  0.11697405  1
  O  O20  1  0.40573110  0.90068141  0.82942674  1
  O  O21  1  0.09938561  0.50508297  0.82945471  1
  O  O22  1  0.31117155  0.44914370  0.11699334  1
  O  O23  1  0.33328689  0.66665743  0.34545855  1
  O  O24  1  0.00001314  0.00002105  0.17349057  1
  O  O25  1  0.99999049  0.00001155  0.67349107  1
  O  O26  1  0.33342677  0.66671846  0.59950241  1
  O  O27  1  0.12837292  0.23797591  0.44203977  1
  O  O28  1  0.55084631  0.86203361  0.11698891  1
  O  O29  1  0.23797230  0.12841477  0.94202978  1
  O  O30  1  0.49500929  0.59431921  0.82950616  1
  O  O31  1  0.76203660  0.89040377  0.44202800  1
  O  O32  1  0.44916523  0.31117816  0.61698094  1
  O  O33  1  0.50500499  0.09931279  0.32951019  1
  O  O34  1  0.59426662  0.49495453  0.32942069  1
  O  O35  1  0.86204478  0.55085589  0.61699770  1
  O  O36  1  0.66671376  0.33333181  0.84545869  1
  O  O37  1  0.66656945  0.33326233  0.09950053  1
  O  O38  1  0.89041559  0.76203992  0.94204324  1
  O  O39  1  0.68886879  0.13797171  0.61699318  1
  O  O40  1  0.90061022  0.40567927  0.32943798  1
  O  O41  1  0.87164549  0.10961025  0.94204154  1
