# generated using pymatgen
data_LiNbF5
_symmetry_space_group_name_H-M   'P 1'
_cell_length_a   5.28015917
_cell_length_b   9.15401606
_cell_length_c   9.15535018
_cell_angle_alpha   114.62939199
_cell_angle_beta   84.40425265
_cell_angle_gamma   84.41039759
_symmetry_Int_Tables_number   1
_chemical_formula_structural   LiNbF5
_chemical_formula_sum   'Li4 Nb4 F20'
_cell_volume   395.65671206
_cell_formula_units_Z   4
loop_
 _symmetry_equiv_pos_site_id
 _symmetry_equiv_pos_as_xyz
  1  'x, y, z'
loop_
 _atom_site_type_symbol
 _atom_site_label
 _atom_site_symmetry_multiplicity
 _atom_site_fract_x
 _atom_site_fract_y
 _atom_site_fract_z
 _atom_site_occupancy
  Li  Li0  1  0.57131836  0.14166093  0.51785854  1
  Li  Li1  1  0.42869115  0.48210404  0.85838543  1
  Li  Li2  1  0.57177880  0.51709078  0.14114084  1
  Li  Li3  1  0.42825780  0.85888026  0.48291303  1
  Nb  Nb4  1  0.99991247  0.19231432  0.80770449  1
  Nb  Nb5  1  0.24668185  0.25200420  0.25192391  1
  Nb  Nb6  1  0.75325198  0.74804299  0.74791342  1
  Nb  Nb7  1  0.99995269  0.80775786  0.19218414  1
  F  F8  1  0.34703891  0.07153372  0.65864518  1
  F  F9  1  0.12397181  0.02174519  0.21663553  1
  F  F10  1  0.65300295  0.34137743  0.92848624  1
  F  F11  1  0.86904710  0.17660966  0.60634739  1
  F  F12  1  0.13091760  0.39361376  0.82336126  1
  F  F13  1  0.57198236  0.12850036  0.12851914  1
  F  F14  1  0.35993964  0.27292286  0.45905841  1
  F  F15  1  0.12436413  0.21683823  0.02236211  1
  F  F16  1  0.89712906  0.34542184  0.34545502  1
  F  F17  1  0.63997625  0.54082077  0.72706489  1
  F  F18  1  0.36000390  0.45942770  0.27293700  1
  F  F19  1  0.10283763  0.65460249  0.65460490  1
  F  F20  1  0.87623802  0.78336380  0.97848017  1
  F  F21  1  0.63996080  0.72708097  0.54059178  1
  F  F22  1  0.42809826  0.87150153  0.87151382  1
  F  F23  1  0.86902196  0.60645973  0.17661263  1
  F  F24  1  0.13090480  0.82334097  0.39333374  1
  F  F25  1  0.34568737  0.65933646  0.07208440  1
  F  F26  1  0.87570381  0.97772055  0.78319461  1
  F  F27  1  0.65431956  0.92792958  0.34069097  1
