# generated using pymatgen
data_Li2FeP2O7
_symmetry_space_group_name_H-M   'P 1'
_cell_length_a   5.07384367
_cell_length_b   5.43573436
_cell_length_c   11.76977558
_cell_angle_alpha   86.28685848
_cell_angle_beta   102.44753090
_cell_angle_gamma   62.17893133
_symmetry_Int_Tables_number   1
_chemical_formula_structural   Li2FeP2O7
_chemical_formula_sum   'Li4 Fe2 P4 O14'
_cell_volume   275.15399340
_cell_formula_units_Z   2
loop_
 _symmetry_equiv_pos_site_id
 _symmetry_equiv_pos_as_xyz
  1  'x, y, z'
loop_
 _atom_site_type_symbol
 _atom_site_label
 _atom_site_symmetry_multiplicity
 _atom_site_fract_x
 _atom_site_fract_y
 _atom_site_fract_z
 _atom_site_occupancy
  Li  Li0  1  0.22139749  0.88507795  0.35983433  1
  Li  Li1  1  0.74664011  0.61492205  0.14016567  1
  Li  Li2  1  0.25335989  0.38507795  0.85983433  1
  Li  Li3  1  0.77860251  0.11492205  0.64016567  1
  Fe  Fe4  1  0.00000000  0.50000000  0.50000000  1
  Fe  Fe5  1  0.00000000  0.00000000  0.00000000  1
  P  P6  1  0.46351073  0.80335617  0.62407345  1
  P  P7  1  0.64279246  0.69664383  0.87592655  1
  P  P8  1  0.35720754  0.30335617  0.12407345  1
  P  P9  1  0.53648927  0.19664383  0.37592655  1
  O  O10  1  0.77280429  0.89552183  0.85492200  1
  O  O11  1  0.46239881  0.76184265  0.96800706  1
  O  O12  1  0.61537999  0.88463288  0.39332107  1
  O  O13  1  0.38358477  0.75000000  0.75000000  1
  O  O14  1  0.25623339  0.73815735  0.53199294  1
  O  O15  1  0.81340312  0.60447817  0.64507800  1
  O  O16  1  0.10669181  0.61536712  0.10667893  1
  O  O17  1  0.89330819  0.38463288  0.89332107  1
  O  O18  1  0.18659688  0.39552183  0.35492300  1
  O  O19  1  0.74376661  0.26184265  0.46800706  1
  O  O20  1  0.61641523  0.25000000  0.25000000  1
  O  O21  1  0.38462001  0.11536712  0.60667893  1
  O  O22  1  0.53760119  0.23815735  0.03199294  1
  O  O23  1  0.22719571  0.10447817  0.14507700  1
