# generated using pymatgen
data_LiCrPO5
_symmetry_space_group_name_H-M   'P 1'
_cell_length_a   12.58168991
_cell_length_b   6.21980879
_cell_length_c   10.45583657
_cell_angle_alpha   90.00000000
_cell_angle_beta   90.00000000
_cell_angle_gamma   90.00000000
_symmetry_Int_Tables_number   1
_chemical_formula_structural   LiCrPO5
_chemical_formula_sum   'Li8 Cr8 P8 O40'
_cell_volume   818.22886733
_cell_formula_units_Z   8
loop_
 _symmetry_equiv_pos_site_id
 _symmetry_equiv_pos_as_xyz
  1  'x, y, z'
loop_
 _atom_site_type_symbol
 _atom_site_label
 _atom_site_symmetry_multiplicity
 _atom_site_fract_x
 _atom_site_fract_y
 _atom_site_fract_z
 _atom_site_occupancy
  Li  Li0  1  0.09830172  0.85822664  0.07262120  1
  Li  Li1  1  0.16286850  0.28198279  0.83110369  1
  Li  Li2  1  0.33713150  0.78198279  0.33110369  1
  Li  Li3  1  0.40169828  0.35822664  0.57262120  1
  Li  Li4  1  0.59830172  0.64177336  0.07262120  1
  Li  Li5  1  0.66286850  0.21801721  0.83110369  1
  Li  Li6  1  0.83713150  0.71801721  0.33110369  1
  Li  Li7  1  0.90169828  0.14177336  0.57262120  1
  Cr  Cr8  1  0.12984429  0.99896266  0.50852000  1
  Cr  Cr9  1  0.24706673  0.24910750  0.25814313  1
  Cr  Cr10  1  0.25293327  0.74910750  0.75814313  1
  Cr  Cr11  1  0.37015571  0.49896266  0.00852000  1
  Cr  Cr12  1  0.62984429  0.50103734  0.50852000  1
  Cr  Cr13  1  0.74706673  0.25089250  0.25814313  1
  Cr  Cr14  1  0.75293327  0.75089250  0.75814313  1
  Cr  Cr15  1  0.87015571  0.00103734  0.00852000  1
  P  P16  1  0.00365897  0.82923140  0.76735460  1
  P  P17  1  0.18770273  0.50203705  0.50725155  1
  P  P18  1  0.31229727  0.00203705  0.00725155  1
  P  P19  1  0.49634103  0.32923140  0.26735460  1
  P  P20  1  0.50365897  0.67076860  0.76735460  1
  P  P21  1  0.68770273  0.99796295  0.50725155  1
  P  P22  1  0.81229727  0.49796295  0.00725155  1
  P  P23  1  0.99634103  0.17076860  0.26735460  1
  O  O24  1  0.00133652  0.03190646  0.39224919  1
  O  O25  1  0.01598837  0.99089491  0.65381380  1
  O  O26  1  0.09475511  0.31214108  0.24804086  1
  O  O27  1  0.10009325  0.67495757  0.77616801  1
  O  O28  1  0.11270059  0.69238214  0.48705274  1
  O  O29  1  0.11656237  0.30731832  0.53243609  1
  O  O30  1  0.22585526  0.96009255  0.63491310  1
  O  O31  1  0.22645018  0.02002779  0.37809480  1
  O  O32  1  0.23266203  0.02490866  0.12160932  1
  O  O33  1  0.23554282  0.97748678  0.89078791  1
  O  O34  1  0.26445718  0.47748678  0.39078791  1
  O  O35  1  0.26733797  0.52490866  0.62160932  1
  O  O36  1  0.27354982  0.52002779  0.87809480  1
  O  O37  1  0.27414474  0.46009255  0.13491310  1
  O  O38  1  0.38343763  0.80731832  0.03243609  1
  O  O39  1  0.38729941  0.19238214  0.98705274  1
  O  O40  1  0.39990675  0.17495757  0.27616801  1
  O  O41  1  0.40524489  0.81214108  0.74804086  1
  O  O42  1  0.48401163  0.49089491  0.15381380  1
  O  O43  1  0.49866348  0.53190646  0.89224919  1
  O  O44  1  0.50133652  0.46809354  0.39224919  1
  O  O45  1  0.51598837  0.50910509  0.65381380  1
  O  O46  1  0.59475511  0.18785892  0.24804086  1
  O  O47  1  0.60009325  0.82504243  0.77616801  1
  O  O48  1  0.61270059  0.80761786  0.48705274  1
  O  O49  1  0.61656237  0.19268168  0.53243609  1
  O  O50  1  0.72585526  0.53990745  0.63491310  1
  O  O51  1  0.72645018  0.47997221  0.37809480  1
  O  O52  1  0.73266203  0.47509134  0.12160932  1
  O  O53  1  0.73554282  0.52251322  0.89078791  1
  O  O54  1  0.76445718  0.02251322  0.39078791  1
  O  O55  1  0.76733797  0.97509134  0.62160932  1
  O  O56  1  0.77354982  0.97997221  0.87809480  1
  O  O57  1  0.77414474  0.03990745  0.13491310  1
  O  O58  1  0.88343763  0.69268168  0.03243609  1
  O  O59  1  0.88729941  0.30761786  0.98705274  1
  O  O60  1  0.89990675  0.32504243  0.27616801  1
  O  O61  1  0.90524489  0.68785892  0.74804086  1
  O  O62  1  0.98401163  0.00910509  0.15381380  1
  O  O63  1  0.99866348  0.96809354  0.89224919  1
