# generated using pymatgen
data_Ti3Cu3(TeO8)2
_symmetry_space_group_name_H-M   'P 1'
_cell_length_a   5.97385501
_cell_length_b   6.00720944
_cell_length_c   9.30170488
_cell_angle_alpha   90.00498809
_cell_angle_beta   91.28993773
_cell_angle_gamma   120.17719240
_symmetry_Int_Tables_number   1
_chemical_formula_structural   Ti3Cu3(TeO8)2
_chemical_formula_sum   'Ti3 Cu3 Te2 O16'
_cell_volume   288.46594595
_cell_formula_units_Z   1
loop_
 _symmetry_equiv_pos_site_id
 _symmetry_equiv_pos_as_xyz
  1  'x, y, z'
loop_
 _atom_site_type_symbol
 _atom_site_label
 _atom_site_symmetry_multiplicity
 _atom_site_fract_x
 _atom_site_fract_y
 _atom_site_fract_z
 _atom_site_occupancy
  Ti  Ti0  1  0.17323335  0.83550324  0.21070422  1
  Ti  Ti1  1  0.17324551  0.33774608  0.21070813  1
  Ti  Ti2  1  0.32209590  0.16105240  0.70695756  1
  Cu  Cu3  1  0.66000923  0.83002921  0.20389273  1
  Cu  Cu4  1  0.82595024  0.65876163  0.70954217  1
  Cu  Cu5  1  0.82595374  0.16716197  0.70952992  1
  Te  Te6  1  0.34018284  0.67009178  0.48918501  1
  Te  Te7  1  0.67649141  0.33823966  0.98328143  1
  O  O8  1  0.18252941  0.83027255  0.59981780  1
  O  O9  1  0.04497994  0.52250113  0.34411961  1
  O  O10  1  0.31774743  0.65887719  0.10585851  1
  O  O11  1  0.00414043  0.00208657  0.29533159  1
  O  O12  1  0.00325705  0.00160528  0.80103570  1
  O  O13  1  0.18255240  0.35231304  0.59981444  1
  O  O14  1  0.46153414  0.95473649  0.35055706  1
  O  O15  1  0.46153392  0.50679739  0.35055878  1
  O  O16  1  0.35999095  0.18000868  0.10399594  1
  O  O17  1  0.66464764  0.83229887  0.59553384  1
  O  O18  1  0.51216064  0.47070236  0.84810860  1
  O  O19  1  0.51214197  0.04150736  0.84813539  1
  O  O20  1  0.65858726  0.32930681  0.60920216  1
  O  O21  1  0.83811052  0.65032310  0.09820554  1
  O  O22  1  0.96079323  0.48044553  0.84343616  1
  O  O23  1  0.83813086  0.18783268  0.09820870  1
