# generated using pymatgen
data_Ti3Co3(TeO8)2
_symmetry_space_group_name_H-M   'P 1'
_cell_length_a   6.03192343
_cell_length_b   6.00287052
_cell_length_c   9.29770332
_cell_angle_alpha   89.99725083
_cell_angle_beta   91.27641756
_cell_angle_gamma   119.84124504
_symmetry_Int_Tables_number   1
_chemical_formula_structural   Ti3Co3(TeO8)2
_chemical_formula_sum   'Ti3 Co3 Te2 O16'
_cell_volume   291.92459672
_cell_formula_units_Z   1
loop_
 _symmetry_equiv_pos_site_id
 _symmetry_equiv_pos_as_xyz
  1  'x, y, z'
loop_
 _atom_site_type_symbol
 _atom_site_label
 _atom_site_symmetry_multiplicity
 _atom_site_fract_x
 _atom_site_fract_y
 _atom_site_fract_z
 _atom_site_occupancy
  Ti  Ti0  1  0.17731898  0.83642190  0.20865657  1
  Ti  Ti1  1  0.17720718  0.34083002  0.20874273  1
  Ti  Ti2  1  0.32663611  0.16333929  0.70608031  1
  Co  Co3  1  0.65862086  0.82925562  0.20733397  1
  Co  Co4  1  0.81910184  0.65376695  0.71375230  1
  Co  Co5  1  0.81914040  0.16541851  0.71377633  1
  Te  Te6  1  0.34111840  0.67058634  0.48824687  1
  Te  Te7  1  0.67784649  0.33891860  0.98711272  1
  O  O8  1  0.18777062  0.83138273  0.60220148  1
  O  O9  1  0.04938639  0.52469447  0.34528841  1
  O  O10  1  0.30138627  0.65067661  0.10187546  1
  O  O11  1  0.01751498  0.00872698  0.29292780  1
  O  O12  1  0.99669178  0.99836212  0.79332797  1
  O  O13  1  0.18780499  0.35646990  0.60220780  1
  O  O14  1  0.46376948  0.95322057  0.34803875  1
  O  O15  1  0.46375625  0.51058522  0.34806380  1
  O  O16  1  0.36559940  0.18282022  0.10501535  1
  O  O17  1  0.66077330  0.83041440  0.59228845  1
  O  O18  1  0.51376010  0.46820985  0.84810422  1
  O  O19  1  0.51374229  0.04555935  0.84812310  1
  O  O20  1  0.65756842  0.32879156  0.60964967  1
  O  O21  1  0.83487567  0.65207439  0.09998095  1
  O  O22  1  0.95377921  0.47692461  0.84493271  1
  O  O23  1  0.83482960  0.18275080  0.09999228  1
