# generated using pymatgen
data_Na4Ti7O16
_symmetry_space_group_name_H-M   'P 1'
_cell_length_a   5.51814459
_cell_length_b   9.58328649
_cell_length_c   6.03373390
_cell_angle_alpha   90.00000000
_cell_angle_beta   90.00000000
_cell_angle_gamma   88.77096240
_symmetry_Int_Tables_number   1
_chemical_formula_structural   Na4Ti7O16
_chemical_formula_sum   'Na4 Ti7 O16'
_cell_volume   319.00227186
_cell_formula_units_Z   1
loop_
 _symmetry_equiv_pos_site_id
 _symmetry_equiv_pos_as_xyz
  1  'x, y, z'
loop_
 _atom_site_type_symbol
 _atom_site_label
 _atom_site_symmetry_multiplicity
 _atom_site_fract_x
 _atom_site_fract_y
 _atom_site_fract_z
 _atom_site_occupancy
  Na  Na0  1  0.43352964  0.03992072  0.87500000  1
  Na  Na1  1  0.47325780  0.34533440  0.87500000  1
  Na  Na2  1  0.95552613  0.45561987  0.11839365  1
  Na  Na3  1  0.95552613  0.45561987  0.63160635  1
  Ti  Ti4  1  0.04232788  0.86407064  0.37500000  1
  Ti  Ti5  1  0.00588078  0.84057893  0.87500000  1
  Ti  Ti6  1  0.45746395  0.34918346  0.37500000  1
  Ti  Ti7  1  0.51841877  0.63949951  0.12660302  1
  Ti  Ti8  1  0.51841877  0.63949951  0.62339698  1
  Ti  Ti9  1  0.95196091  0.13769135  0.12209047  1
  Ti  Ti10  1  0.95196091  0.13769135  0.62790953  1
  O  O11  1  0.17453944  0.23412266  0.37500000  1
  O  O12  1  0.11962732  0.22566335  0.87500000  1
  O  O13  1  0.17105177  0.95936200  0.12185257  1
  O  O14  1  0.17105177  0.95936200  0.62814743  1
  O  O15  1  0.33840179  0.47610395  0.59914551  1
  O  O16  1  0.33840179  0.47610395  0.15085449  1
  O  O17  1  0.31434716  0.72750310  0.87500000  1
  O  O18  1  0.33809145  0.73601697  0.37500000  1
  O  O19  1  0.69457237  0.26447394  0.15731207  1
  O  O20  1  0.69457237  0.26447394  0.59268793  1
  O  O21  1  0.69604484  0.54758300  0.37500000  1
  O  O22  1  0.68901796  0.56084628  0.87500000  1
  O  O23  1  0.81532050  0.02988454  0.87500000  1
  O  O24  1  0.82786048  0.03083280  0.37500000  1
  O  O25  1  0.83935566  0.77204345  0.12615313  1
  O  O26  1  0.83935566  0.77204345  0.62384687  1
