# generated using pymatgen
data_LiCoSnO4
_symmetry_space_group_name_H-M   'P 1'
_cell_length_a   6.08039210
_cell_length_b   6.08040441
_cell_length_c   8.58302862
_cell_angle_alpha   90.00293624
_cell_angle_beta   90.00309717
_cell_angle_gamma   89.99352700
_symmetry_Int_Tables_number   1
_chemical_formula_structural   LiCoSnO4
_chemical_formula_sum   'Li4 Co4 Sn4 O16'
_cell_volume   317.32523340
_cell_formula_units_Z   4
loop_
 _symmetry_equiv_pos_site_id
 _symmetry_equiv_pos_as_xyz
  1  'x, y, z'
loop_
 _atom_site_type_symbol
 _atom_site_label
 _atom_site_symmetry_multiplicity
 _atom_site_fract_x
 _atom_site_fract_y
 _atom_site_fract_z
 _atom_site_occupancy
  Li  Li0  1  0.99999636  0.21549381  0.99997378  1
  Li  Li1  1  0.00003003  0.78448668  0.50002082  1
  Li  Li2  1  0.21550958  0.99996294  0.24997470  1
  Li  Li3  1  0.78450451  0.99999612  0.75003354  1
  Co  Co4  1  0.24597755  0.24600647  0.62499335  1
  Co  Co5  1  0.24596664  0.75403595  0.87500027  1
  Co  Co6  1  0.75403598  0.24596831  0.37500047  1
  Co  Co7  1  0.75400437  0.75403566  0.12500722  1
  Sn  Sn8  1  0.23071386  0.49992547  0.25001096  1
  Sn  Sn9  1  0.50000290  0.23073913  -0.00000293  1
  Sn  Sn10  1  0.50005147  0.76930156  0.49999070  1
  Sn  Sn11  1  0.76927965  0.49997690  0.74999284  1
  O  O12  1  0.99688091  0.25578964  0.25159056  1
  O  O13  1  0.99686424  0.74422822  0.24842459  1
  O  O14  1  0.25578565  0.99688967  0.99842524  1
  O  O15  1  0.25576598  0.00314442  0.50157721  1
  O  O16  1  0.25789048  0.48251907  0.00688392  1
  O  O17  1  0.25790813  0.51751971  0.49311278  1
  O  O18  1  0.48253114  0.25790274  0.24310940  1
  O  O19  1  0.48247797  0.74208830  0.25688829  1
  O  O20  1  0.51749319  0.25791999  0.75688583  1
  O  O21  1  0.51748292  0.74210336  0.74311692  1
  O  O22  1  0.74209325  0.51747385  0.50688947  1
  O  O23  1  0.74207741  0.48250693  0.99311411  1
  O  O24  1  0.74422163  0.99687239  0.00157084  1
  O  O25  1  0.74420815  0.00312160  0.49840840  1
  O  O26  1  0.00313717  0.25577475  0.74842906  1
  O  O27  1  0.00310885  0.74421635  0.75157763  1
