# generated using pymatgen
data_LiNiPO4
_symmetry_space_group_name_H-M   'P 1'
_cell_length_a   4.84675868
_cell_length_b   4.84675868
_cell_length_c   16.06714784
_cell_angle_alpha   96.01954439
_cell_angle_beta   83.98045561
_cell_angle_gamma   79.21446034
_symmetry_Int_Tables_number   1
_chemical_formula_structural   LiNiPO4
_chemical_formula_sum   'Li4 Ni4 P4 O16'
_cell_volume   365.71643800
_cell_formula_units_Z   4
loop_
 _symmetry_equiv_pos_site_id
 _symmetry_equiv_pos_as_xyz
  1  'x, y, z'
loop_
 _atom_site_type_symbol
 _atom_site_label
 _atom_site_symmetry_multiplicity
 _atom_site_fract_x
 _atom_site_fract_y
 _atom_site_fract_z
 _atom_site_occupancy
  Li  Li0  1  0.57481864  0.80770143  0.93496001  1
  Li  Li1  1  0.80770143  0.57481864  0.56503999  1
  Li  Li2  1  0.19229857  0.42518136  0.43496001  1
  Li  Li3  1  0.42518136  0.19229857  0.06503999  1
  Ni  Ni4  1  0.33038098  0.83660776  0.75070538  1
  Ni  Ni5  1  0.16339224  0.66961902  0.25070538  1
  Ni  Ni6  1  0.83660776  0.33038098  0.74929462  1
  Ni  Ni7  1  0.66961902  0.16339224  0.24929462  1
  P  P8  1  0.28421789  0.37700110  0.63858335  1
  P  P9  1  0.37700110  0.28421789  0.86141665  1
  P  P10  1  0.62299890  0.71578211  0.13858335  1
  P  P11  1  0.71578211  0.62299890  0.36141665  1
  O  O12  1  0.06291989  0.60347100  0.70303879  1
  O  O13  1  0.39652900  0.93708111  0.20303879  1
  O  O14  1  0.08789529  0.23211885  0.83788067  1
  O  O15  1  0.44674207  0.57874129  0.84368460  1
  O  O16  1  0.22711937  0.41099883  0.54904404  1
  O  O17  1  0.76788015  0.91210471  0.33788067  1
  O  O18  1  0.42125871  0.55325793  0.34368460  1
  O  O19  1  0.58900117  0.77288063  0.04904404  1
  O  O20  1  0.41099883  0.22711937  0.95095596  1
  O  O21  1  0.57874129  0.44674207  0.65631540  1
  O  O22  1  0.23211885  0.08789529  0.66211933  1
  O  O23  1  0.77288063  0.58900117  0.45095596  1
  O  O24  1  0.55325793  0.42125871  0.15631540  1
  O  O25  1  0.91210471  0.76788015  0.16211933  1
  O  O26  1  0.60347100  0.06291989  0.79696121  1
  O  O27  1  0.93708111  0.39652900  0.29696121  1
