# generated using pymatgen
data_LiMnPO4
_symmetry_space_group_name_H-M   'P 1'
_cell_length_a   8.88510874
_cell_length_b   7.49297137
_cell_length_c   15.39780494
_cell_angle_alpha   90.00000000
_cell_angle_beta   90.94147320
_cell_angle_gamma   90.00000000
_symmetry_Int_Tables_number   1
_chemical_formula_structural   LiMnPO4
_chemical_formula_sum   'Li12 Mn12 P12 O48'
_cell_volume   1024.98379876
_cell_formula_units_Z   12
loop_
 _symmetry_equiv_pos_site_id
 _symmetry_equiv_pos_as_xyz
  1  'x, y, z'
loop_
 _atom_site_type_symbol
 _atom_site_label
 _atom_site_symmetry_multiplicity
 _atom_site_fract_x
 _atom_site_fract_y
 _atom_site_fract_z
 _atom_site_occupancy
  Li  Li0  1  0.22389794  0.98161017  0.92894869  1
  Li  Li1  1  0.23049040  0.01916580  0.58656790  1
  Li  Li2  1  0.23962174  0.00498675  0.23777732  1
  Li  Li3  1  0.26037826  0.50498675  0.26222268  1
  Li  Li4  1  0.26950960  0.51916580  0.91343210  1
  Li  Li5  1  0.27610206  0.48161017  0.57105131  1
  Li  Li6  1  0.72389794  0.51838983  0.42894869  1
  Li  Li7  1  0.73049040  0.48083420  0.08656790  1
  Li  Li8  1  0.73962174  0.49501325  0.73777732  1
  Li  Li9  1  0.76037826  0.99501325  0.76222268  1
  Li  Li10  1  0.76950960  0.98083420  0.41343210  1
  Li  Li11  1  0.77610206  0.01838983  0.07105131  1
  Mn  Mn12  1  0.06031231  0.69084030  0.40889517  1
  Mn  Mn13  1  0.08093409  0.80357494  0.76280993  1
  Mn  Mn14  1  0.09630010  0.68586660  0.08231501  1
  Mn  Mn15  1  0.40369990  0.18586660  0.41768499  1
  Mn  Mn16  1  0.41906591  0.30357494  0.73719007  1
  Mn  Mn17  1  0.43968769  0.19084030  0.09110483  1
  Mn  Mn18  1  0.56031231  0.80915970  0.90889517  1
  Mn  Mn19  1  0.58093409  0.69642506  0.26280993  1
  Mn  Mn20  1  0.59630010  0.81413340  0.58231501  1
  Mn  Mn21  1  0.90369990  0.31413340  0.91768499  1
  Mn  Mn22  1  0.91906591  0.19642506  0.23719007  1
  Mn  Mn23  1  0.93968769  0.30915970  0.59110483  1
  P  P24  1  0.05698303  0.26000294  0.40800998  1
  P  P25  1  0.08065297  0.22879401  0.76988896  1
  P  P26  1  0.11143705  0.25705125  0.07403520  1
  P  P27  1  0.38856295  0.75705125  0.42596480  1
  P  P28  1  0.41934703  0.72879401  0.73011104  1
  P  P29  1  0.44301697  0.76000294  0.09199002  1
  P  P30  1  0.55698303  0.23999706  0.90800998  1
  P  P31  1  0.58065297  0.27120599  0.26988896  1
  P  P32  1  0.61143705  0.24294875  0.57403520  1
  P  P33  1  0.88856295  0.74294875  0.92596480  1
  P  P34  1  0.91934703  0.77120599  0.23011104  1
  P  P35  1  0.94301697  0.73999706  0.59199002  1
  O  O36  1  0.96532100  0.43689212  0.39907785  1
  O  O37  1  0.04441350  0.88852218  0.63338833  1
  O  O38  1  0.09057738  0.38532408  0.83653681  1
  O  O39  1  0.09627644  0.21722833  0.50430948  1
  O  O40  1  0.05170052  0.78395417  0.95831805  1
  O  O41  1  0.07520885  0.76307124  0.27861515  1
  O  O42  1  0.11644164  0.26012702  0.17513382  1
  O  O43  1  0.08960490  0.05428678  0.82480549  1
  O  O44  1  0.16660879  0.43881405  0.03732979  1
  O  O45  1  0.20535653  0.23205356  0.70055206  1
  O  O46  1  0.22509557  0.11417175  0.04172062  1
  O  O47  1  0.20576214  0.27511179  0.35599968  1
  O  O48  1  0.29423786  0.77511179  0.14400032  1
  O  O49  1  0.27490443  0.61417175  0.45827938  1
  O  O50  1  0.29464347  0.73205356  0.79944794  1
  O  O51  1  0.33339121  0.93881405  0.46267021  1
  O  O52  1  0.41039510  0.55428678  0.67519451  1
  O  O53  1  0.38355836  0.76012702  0.32486618  1
  O  O54  1  0.42479115  0.26307124  0.22138485  1
  O  O55  1  0.44829948  0.28395417  0.54168195  1
  O  O56  1  0.40372356  0.71722833  0.99569052  1
  O  O57  1  0.40942262  0.88532508  0.66346319  1
  O  O58  1  0.45558750  0.38852218  0.86661167  1
  O  O59  1  0.53467900  0.93689212  0.10092215  1
  O  O60  1  0.46532100  0.06310788  0.89907785  1
  O  O61  1  0.54441350  0.61147782  0.13338833  1
  O  O62  1  0.59057738  0.11467592  0.33653681  1
  O  O63  1  0.59627644  0.28277167  0.00430948  1
  O  O64  1  0.55170052  0.71604583  0.45831805  1
  O  O65  1  0.57520885  0.73692876  0.77861515  1
  O  O66  1  0.61644164  0.23987298  0.67513382  1
  O  O67  1  0.58960490  0.44571322  0.32480549  1
  O  O68  1  0.66660879  0.06118595  0.53732979  1
  O  O69  1  0.70535653  0.26794644  0.20055206  1
  O  O70  1  0.72509557  0.38582825  0.54172062  1
  O  O71  1  0.70576214  0.22488821  0.85599968  1
  O  O72  1  0.79423786  0.72488821  0.64400032  1
  O  O73  1  0.79464347  0.76794644  0.29944794  1
  O  O74  1  0.77490443  0.88582825  0.95827938  1
  O  O75  1  0.83339121  0.56118595  0.96267021  1
  O  O76  1  0.91039510  0.94571322  0.17519451  1
  O  O77  1  0.88355836  0.73987298  0.82486618  1
  O  O78  1  0.92479115  0.23692876  0.72138485  1
  O  O79  1  0.94829948  0.21604583  0.04168195  1
  O  O80  1  0.90372356  0.78277167  0.49569052  1
  O  O81  1  0.90942262  0.61467492  0.16346319  1
  O  O82  1  0.95558650  0.11147782  0.36661167  1
  O  O83  1  0.03467900  0.56310788  0.60092215  1
