# generated using pymatgen
data_Li2Cu(PO3)4
_symmetry_space_group_name_H-M   'P 1'
_cell_length_a   9.34338871
_cell_length_b   9.35164868
_cell_length_c   4.64826106
_cell_angle_alpha   86.94604966
_cell_angle_beta   92.40798659
_cell_angle_gamma   90.10869477
_symmetry_Int_Tables_number   1
_chemical_formula_structural   Li2Cu(PO3)4
_chemical_formula_sum   'Li4 Cu2 P8 O24'
_cell_volume   405.21191652
_cell_formula_units_Z   2
loop_
 _symmetry_equiv_pos_site_id
 _symmetry_equiv_pos_as_xyz
  1  'x, y, z'
loop_
 _atom_site_type_symbol
 _atom_site_label
 _atom_site_symmetry_multiplicity
 _atom_site_fract_x
 _atom_site_fract_y
 _atom_site_fract_z
 _atom_site_occupancy
  Li  Li0  1  0.00339855  0.99915654  0.50097723  1
  Li  Li1  1  0.99827700  0.50343069  0.50379991  1
  Li  Li2  1  0.50144854  0.50127313  0.49836055  1
  Li  Li3  1  0.49519210  0.00062470  0.50141124  1
  Cu  Cu4  1  0.25989917  0.26954070  0.49999363  1
  Cu  Cu5  1  0.72876737  0.74849248  0.49453081  1
  P  P6  1  0.02464081  0.75210522  -0.00127585  1
  P  P7  1  0.24538225  0.52934866  0.00506067  1
  P  P8  1  0.24628623  0.97463900  -0.00401390  1
  P  P9  1  0.47035480  0.75274751  0.00189749  1
  P  P10  1  0.52772270  0.24517103  0.99367902  1
  P  P11  1  0.75506843  0.02430879  0.00465111  1
  P  P12  1  0.75489098  0.47252523  0.99347793  1
  P  P13  1  0.97685851  0.24606983  0.00542045  1
  O  O14  1  0.05888163  0.31629228  0.24765526  1
  O  O15  1  0.04465572  0.17739618  0.76383146  1
  O  O16  1  0.13523819  0.86462906  0.83957437  1
  O  O17  1  0.13913404  0.63483519  0.15824106  1
  O  O18  1  0.17749462  0.04135968  0.23837062  1
  O  O19  1  0.17155771  0.45832997  0.76101590  1
  O  O20  1  0.32533491  0.44510539  0.24952239  1
  O  O21  1  0.31939271  0.05573792  0.75451568  1
  O  O22  1  0.36533144  0.86117141  0.15072376  1
  O  O23  1  0.36255967  0.63697704  0.85811683  1
  O  O24  1  0.45743234  0.17150046  0.24152328  1
  O  O25  1  0.44377795  0.32188248  0.74496202  1
  O  O26  1  0.55313761  0.67418119  0.24751863  1
  O  O27  1  0.54357749  0.82707482  0.75642642  1
  O  O28  1  0.63552670  0.13569012  0.85001911  1
  O  O29  1  0.63503668  0.36372585  0.12944413  1
  O  O30  1  0.67916687  0.55768727  0.74456722  1
  O  O31  1  0.68240595  0.94077991  0.24776917  1
  O  O32  1  0.82651763  0.54047639  0.24292659  1
  O  O33  1  0.82372560  0.95665272  0.76281886  1
  O  O34  1  0.86510467  0.13418114  0.16411443  1
  O  O35  1  0.86448644  0.36485253  0.85012814  1
  O  O36  1  0.94682393  0.67912762  0.75903131  1
  O  O37  1  0.95557106  0.82098089  0.23921306  1
