# generated using pymatgen
data_LiNiP2O7
_symmetry_space_group_name_H-M   'P 1'
_cell_length_a   6.98069121
_cell_length_b   6.17796918
_cell_length_c   7.16124828
_cell_angle_alpha   114.96026411
_cell_angle_beta   104.95345533
_cell_angle_gamma   79.15417354
_symmetry_Int_Tables_number   1
_chemical_formula_structural   LiNiP2O7
_chemical_formula_sum   'Li2 Ni2 P4 O14'
_cell_volume   269.40199619
_cell_formula_units_Z   2
loop_
 _symmetry_equiv_pos_site_id
 _symmetry_equiv_pos_as_xyz
  1  'x, y, z'
loop_
 _atom_site_type_symbol
 _atom_site_label
 _atom_site_symmetry_multiplicity
 _atom_site_fract_x
 _atom_site_fract_y
 _atom_site_fract_z
 _atom_site_occupancy
  Li  Li0  1  0.32978879  0.92538959  0.83449511  1
  Li  Li1  1  0.67021121  0.07461041  0.16550489  1
  Ni  Ni2  1  0.17036112  0.67996356  0.10330763  1
  Ni  Ni3  1  0.82963888  0.32003644  0.89669237  1
  P  P4  1  0.19539563  0.22455992  0.24094693  1
  P  P5  1  0.36259936  0.36676620  0.69832458  1
  P  P6  1  0.63740064  0.63323380  0.30167542  1
  P  P7  1  0.80460437  0.77544008  0.75905307  1
  O  O8  1  0.92951289  0.96703197  0.78180572  1
  O  O9  1  0.07788645  0.39735381  0.13455263  1
  O  O10  1  0.24476972  0.40341634  0.48577071  1
  O  O11  1  0.27666395  0.16637962  0.71311282  1
  O  O12  1  0.38455534  0.11765297  0.15546442  1
  O  O13  1  0.32237551  0.61306119  0.87109627  1
  O  O14  1  0.41805271  0.69503431  0.32039767  1
  O  O15  1  0.58194729  0.30496569  0.67960233  1
  O  O16  1  0.67762449  0.38693881  0.12890373  1
  O  O17  1  0.61544466  0.88234703  0.84453558  1
  O  O18  1  0.72333605  0.83362038  0.28688718  1
  O  O19  1  0.75523028  0.59658366  0.51422929  1
  O  O20  1  0.92211355  0.60264619  0.86544737  1
  O  O21  1  0.07048711  0.03296803  0.21819428  1
