# generated using pymatgen
data_Li2VSi7O16
_symmetry_space_group_name_H-M   'P 1'
_cell_length_a   7.61933190
_cell_length_b   7.61579483
_cell_length_c   7.30847609
_cell_angle_alpha   75.14424211
_cell_angle_beta   102.31224957
_cell_angle_gamma   63.65540830
_symmetry_Int_Tables_number   1
_chemical_formula_structural   Li2VSi7O16
_chemical_formula_sum   'Li2 V1 Si7 O16'
_cell_volume   340.15715005
_cell_formula_units_Z   1
loop_
 _symmetry_equiv_pos_site_id
 _symmetry_equiv_pos_as_xyz
  1  'x, y, z'
loop_
 _atom_site_type_symbol
 _atom_site_label
 _atom_site_symmetry_multiplicity
 _atom_site_fract_x
 _atom_site_fract_y
 _atom_site_fract_z
 _atom_site_occupancy
  Li  Li0  1  0.33614120  0.75942170  0.63219470  1
  Li  Li1  1  0.73728389  0.41429668  0.34794927  1
  V  V2  1  0.40453446  0.83644062  0.13167182  1
  Si  Si3  1  0.21009283  0.55827158  0.15863051  1
  Si  Si4  1  0.83729427  0.81380574  0.72252722  1
  Si  Si5  1  0.17100628  0.16793719  0.70410386  1
  Si  Si6  1  0.14781984  0.18194250  0.28097435  1
  Si  Si7  1  0.83776926  0.80839844  0.29620541  1
  Si  Si8  1  0.56907662  0.18413909  0.84660326  1
  Si  Si9  1  0.80046458  0.41477942  0.84875657  1
  O  O10  1  0.30416741  0.91282060  0.81760196  1
  O  O11  1  0.06265022  0.69453919  0.91136777  1
  O  O12  1  0.29929913  0.92930273  0.35605294  1
  O  O13  1  0.06966097  0.67689171  0.28215731  1
  O  O14  1  0.31618406  0.26993996  0.76694390  1
  O  O15  1  0.73033965  0.66546117  0.75902667  1
  O  O16  1  0.43119201  0.54488305  0.21274199  1
  O  O17  1  0.06438200  0.24088494  0.45881993  1
  O  O18  1  0.87671112  0.85577774  0.50740597  1
  O  O19  1  0.58350579  0.40388376  0.78688040  1
  O  O20  1  0.71924479  0.68090112  0.30309239  1
  O  O21  1  0.25924766  0.31354131  0.21405540  1
  O  O22  1  0.95309776  0.28625878  0.74606026  1
  O  O23  1  0.67661809  0.04684984  0.71990104  1
  O  O24  1  0.68738207  0.04303332  0.09285969  1
  O  O25  1  0.91483605  0.29559781  0.09541443  1
