# generated using pymatgen
data_LiFePO5
_symmetry_space_group_name_H-M   'P 1'
_cell_length_a   7.35382702
_cell_length_b   7.98618749
_cell_length_c   7.04978461
_cell_angle_alpha   90.00000000
_cell_angle_beta   60.54307684
_cell_angle_gamma   90.00000000
_symmetry_Int_Tables_number   1
_chemical_formula_structural   LiFePO5
_chemical_formula_sum   'Li4 Fe4 P4 O20'
_cell_volume   360.50401675
_cell_formula_units_Z   4
loop_
 _symmetry_equiv_pos_site_id
 _symmetry_equiv_pos_as_xyz
  1  'x, y, z'
loop_
 _atom_site_type_symbol
 _atom_site_label
 _atom_site_symmetry_multiplicity
 _atom_site_fract_x
 _atom_site_fract_y
 _atom_site_fract_z
 _atom_site_occupancy
  Li  Li0  1  0.25219259  0.93761808  0.96836370  1
  Li  Li1  1  0.25219259  0.56238192  0.46836370  1
  Li  Li2  1  0.74780741  0.43761808  0.53163630  1
  Li  Li3  1  0.74780741  0.06238192  0.03163630  1
  Fe  Fe4  1  0.24991948  0.25351646  0.75018267  1
  Fe  Fe5  1  0.24991948  0.24648354  0.25018267  1
  Fe  Fe6  1  0.75008052  0.75351646  0.74981733  1
  Fe  Fe7  1  0.75008052  0.74648354  0.24981733  1
  P  P8  1  0.25039775  0.89172891  0.50109040  1
  P  P9  1  0.74960225  0.39172891  0.99890960  1
  P  P10  1  0.25039775  0.60827109  0.00109040  1
  P  P11  1  0.74960225  0.10827109  0.49890960  1
  O  O12  1  0.24950944  0.17772124  0.99922190  1
  O  O13  1  0.26331800  0.49926568  0.81369295  1
  O  O14  1  0.06497319  0.76498152  0.58726600  1
  O  O15  1  0.43510504  0.73594751  0.91271261  1
  O  O16  1  0.23956746  0.99962886  0.68890584  1
  O  O17  1  0.24950944  0.32227876  0.49922190  1
  O  O18  1  0.26331800  0.00073432  0.31369295  1
  O  O19  1  0.06497319  0.73501848  0.08726600  1
  O  O20  1  0.76043254  0.49962886  0.81109416  1
  O  O21  1  0.56489496  0.23594751  0.58728739  1
  O  O22  1  0.43510504  0.76405249  0.41271261  1
  O  O23  1  0.23956746  0.50037114  0.18890584  1
  O  O24  1  0.93502681  0.26498152  0.91273400  1
  O  O25  1  0.73668200  0.99926568  0.68630705  1
  O  O26  1  0.75049056  0.67772124  0.50077810  1
  O  O27  1  0.76043254  0.00037114  0.31109416  1
  O  O28  1  0.56489496  0.26405249  0.08728739  1
  O  O29  1  0.93502681  0.23501848  0.41273400  1
  O  O30  1  0.73668200  0.50073432  0.18630705  1
  O  O31  1  0.75049056  0.82227876  0.00077810  1
