# generated using pymatgen
data_Li2MnP2O7
_symmetry_space_group_name_H-M   'P 1'
_cell_length_a   6.08100930
_cell_length_b   8.09678008
_cell_length_c   8.09678008
_cell_angle_alpha   74.68082866
_cell_angle_beta   112.05646935
_cell_angle_gamma   67.94353065
_symmetry_Int_Tables_number   1
_chemical_formula_structural   Li2MnP2O7
_chemical_formula_sum   'Li4 Mn2 P4 O14'
_cell_volume   301.94442432
_cell_formula_units_Z   2
loop_
 _symmetry_equiv_pos_site_id
 _symmetry_equiv_pos_as_xyz
  1  'x, y, z'
loop_
 _atom_site_type_symbol
 _atom_site_label
 _atom_site_symmetry_multiplicity
 _atom_site_fract_x
 _atom_site_fract_y
 _atom_site_fract_z
 _atom_site_occupancy
  Li  Li0  1  0.00000000  0.23707923  0.23707923  1
  Li  Li1  1  0.50000000  0.26292077  0.26292077  1
  Li  Li2  1  0.50000000  0.73707923  0.73707923  1
  Li  Li3  1  0.00000000  0.76292077  0.76292077  1
  Mn  Mn4  1  0.00000000  0.00000000  0.00000000  1
  Mn  Mn5  1  0.50000000  0.50000000  0.50000000  1
  P  P6  1  0.60123227  0.63608481  0.13608481  1
  P  P7  1  0.39876773  0.13608481  0.63608481  1
  P  P8  1  0.60123227  0.86391519  0.36391519  1
  P  P9  1  0.39876773  0.36391519  0.86391519  1
  O  O10  1  0.29110041  0.03286083  0.20224171  1
  O  O11  1  0.70889959  0.20224171  0.03286083  1
  O  O12  1  0.22251121  0.05390045  0.55390045  1
  O  O13  1  0.77748879  0.55390045  0.05390045  1
  O  O14  1  0.62171954  0.46713917  0.29775829  1
  O  O15  1  0.37828046  0.29775829  0.46713917  1
  O  O16  1  0.72270961  0.75000000  0.25000000  1
  O  O17  1  0.27729039  0.25000000  0.75000000  1
  O  O18  1  0.62171954  0.70224171  0.53286083  1
  O  O19  1  0.37828046  0.53286083  0.70224171  1
  O  O20  1  0.22251121  0.44609955  0.94609955  1
  O  O21  1  0.77748879  0.94609955  0.44609955  1
  O  O22  1  0.70889959  0.96713917  0.79775829  1
  O  O23  1  0.29110041  0.79775829  0.96713917  1
