# generated using pymatgen
data_LiCoPO4
_symmetry_space_group_name_H-M   'P 1'
_cell_length_a   9.77255178
_cell_length_b   6.17586328
_cell_length_c   4.94745130
_cell_angle_alpha   89.99995409
_cell_angle_beta   89.99929019
_cell_angle_gamma   90.00004142
_symmetry_Int_Tables_number   1
_chemical_formula_structural   LiCoPO4
_chemical_formula_sum   'Li4 Co4 P4 O16'
_cell_volume   298.59819716
_cell_formula_units_Z   4
loop_
 _symmetry_equiv_pos_site_id
 _symmetry_equiv_pos_as_xyz
  1  'x, y, z'
loop_
 _atom_site_type_symbol
 _atom_site_label
 _atom_site_symmetry_multiplicity
 _atom_site_fract_x
 _atom_site_fract_y
 _atom_site_fract_z
 _atom_site_occupancy
  Li  Li0  1  0.99999697  0.00000016  0.00000174  1
  Li  Li1  1  0.99999685  0.49999973  0.00000129  1
  Li  Li2  1  0.49999823  0.00000445  0.50000094  1
  Li  Li3  1  0.49999823  0.49999545  0.50000115  1
  Co  Co4  1  0.16083489  0.74999968  0.47219875  1
  Co  Co5  1  0.33916028  0.24999977  0.97219676  1
  Co  Co6  1  0.66083220  0.75000010  0.02780674  1
  Co  Co7  1  0.83916502  0.24999974  0.52780195  1
  P  P8  1  0.17811740  0.24999965  0.46078065  1
  P  P9  1  0.32189313  0.75000165  0.96076315  1
  P  P10  1  0.67810788  0.24999963  0.03922706  1
  P  P11  1  0.82188513  0.75000021  0.53922673  1
  O  O12  1  0.15829239  0.25000021  0.77217507  1
  O  O13  1  0.10915092  0.04732333  0.33500100  1
  O  O14  1  0.10915099  0.45267663  0.33500191  1
  O  O15  1  0.16545785  0.74999967  0.88263315  1
  O  O16  1  0.33454328  0.25000110  0.38263333  1
  O  O17  1  0.39084950  0.95267310  0.83500529  1
  O  O18  1  0.39084966  0.54732620  0.83500380  1
  O  O19  1  0.34170728  0.74999998  0.27218402  1
  O  O20  1  0.65829886  0.25000010  0.72781947  1
  O  O21  1  0.60915363  0.04733072  0.16499805  1
  O  O22  1  0.60915395  0.45266921  0.16499754  1
  O  O23  1  0.66545872  0.74999911  0.61737044  1
  O  O24  1  0.83454708  0.25000004  0.11736355  1
  O  O25  1  0.89084856  0.54732698  0.66499756  1
  O  O26  1  0.89084816  0.95267378  0.66499772  1
  O  O27  1  0.84170296  0.74999961  0.22781121  1
