# generated using pymatgen
data_LiMnSi3O8
_symmetry_space_group_name_H-M   'P 1'
_cell_length_a   7.71294534
_cell_length_b   7.16870336
_cell_length_c   7.04118252
_cell_angle_alpha   81.79755996
_cell_angle_beta   108.80768404
_cell_angle_gamma   62.68283889
_symmetry_Int_Tables_number   1
_chemical_formula_structural   LiMnSi3O8
_chemical_formula_sum   'Li2 Mn2 Si6 O16'
_cell_volume   307.26375139
_cell_formula_units_Z   2
loop_
 _symmetry_equiv_pos_site_id
 _symmetry_equiv_pos_as_xyz
  1  'x, y, z'
loop_
 _atom_site_type_symbol
 _atom_site_label
 _atom_site_symmetry_multiplicity
 _atom_site_fract_x
 _atom_site_fract_y
 _atom_site_fract_z
 _atom_site_occupancy
  Li  Li0  1  0.82708204  0.82255278  0.80207214  1
  Li  Li1  1  0.17291796  0.17744722  0.19792786  1
  Mn  Mn2  1  0.22299196  0.74300030  0.13848307  1
  Mn  Mn3  1  0.77700804  0.25699970  0.86151693  1
  Si  Si4  1  0.22542131  0.55122327  0.73306870  1
  Si  Si5  1  0.46528901  0.74822450  0.62129120  1
  Si  Si6  1  0.16917878  0.15821801  0.73957004  1
  Si  Si7  1  0.83082122  0.84178199  0.26042996  1
  Si  Si8  1  0.53471099  0.25177550  0.37870880  1
  Si  Si9  1  0.77457869  0.44877673  0.26693130  1
  O  O10  1  0.14114108  0.69046664  0.87783284  1
  O  O11  1  0.34937366  0.93847949  0.71919950  1
  O  O12  1  0.04445502  0.69262830  0.48819782  1
  O  O13  1  0.31108860  0.84594484  0.36376312  1
  O  O14  1  0.09652856  0.09652982  0.92256973  1
  O  O15  1  0.45513299  0.52696620  0.74021927  1
  O  O16  1  0.28244173  0.29783996  0.81010487  1
  O  O17  1  0.71853136  0.64297575  0.70258638  1
  O  O18  1  0.28146864  0.35702425  0.29741362  1
  O  O19  1  0.71755827  0.70216004  0.18989513  1
  O  O20  1  0.54486701  0.47303480  0.25978073  1
  O  O21  1  0.90347144  0.90347018  0.07743027  1
  O  O22  1  0.68891140  0.15405516  0.63623688  1
  O  O23  1  0.95554498  0.30737170  0.51180218  1
  O  O24  1  0.65062634  0.06152051  0.28080050  1
  O  O25  1  0.85885892  0.30953336  0.12216716  1
