# generated using pymatgen
data_Li2CrSiO4
_symmetry_space_group_name_H-M   'P 1'
_cell_length_a   10.23588552
_cell_length_b   5.39829405
_cell_length_c   14.07890764
_cell_angle_alpha   90.00000000
_cell_angle_beta   90.00000000
_cell_angle_gamma   90.00000000
_symmetry_Int_Tables_number   1
_chemical_formula_structural   Li2CrSiO4
_chemical_formula_sum   'Li16 Cr8 Si8 O32'
_cell_volume   777.94862439
_cell_formula_units_Z   8
loop_
 _symmetry_equiv_pos_site_id
 _symmetry_equiv_pos_as_xyz
  1  'x, y, z'
loop_
 _atom_site_type_symbol
 _atom_site_label
 _atom_site_symmetry_multiplicity
 _atom_site_fract_x
 _atom_site_fract_y
 _atom_site_fract_z
 _atom_site_occupancy
  Li  Li0  1  0.91879853  0.89770529  0.57547754  1
  Li  Li1  1  0.95388661  0.50826730  0.95152026  1
  Li  Li2  1  0.24419234  0.90053867  0.21426234  1
  Li  Li3  1  0.18106829  0.45595874  0.29898986  1
  Li  Li4  1  0.25580766  0.90053867  0.71426234  1
  Li  Li5  1  0.31893171  0.45595874  0.79898986  1
  Li  Li6  1  0.54611339  0.50826730  0.45152126  1
  Li  Li7  1  0.58120147  0.89770529  0.07547754  1
  Li  Li8  1  0.45388661  0.49173270  0.95152026  1
  Li  Li9  1  0.41879853  0.10229471  0.57547754  1
  Li  Li10  1  0.68106829  0.54404126  0.29898986  1
  Li  Li11  1  0.74419234  0.09946133  0.21426234  1
  Li  Li12  1  0.81893171  0.54404126  0.79898986  1
  Li  Li13  1  0.75580766  0.09946133  0.71426234  1
  Li  Li14  1  0.08120147  0.10229471  0.07547754  1
  Li  Li15  1  0.04611339  0.49173270  0.45152126  1
  Cr  Cr16  1  0.07505801  0.34794714  0.66966608  1
  Cr  Cr17  1  0.18556178  0.04279053  0.43943700  1
  Cr  Cr18  1  0.31443822  0.04279053  0.93943700  1
  Cr  Cr19  1  0.42494199  0.34794714  0.16966608  1
  Cr  Cr20  1  0.57505801  0.65205286  0.66966608  1
  Cr  Cr21  1  0.68556178  0.95720947  0.43943700  1
  Cr  Cr22  1  0.81443822  0.95720947  0.93943700  1
  Cr  Cr23  1  0.92494199  0.65205286  0.16966608  1
  Si  Si24  1  0.99532855  0.04113552  0.80360571  1
  Si  Si25  1  0.19664458  0.56715134  0.06757847  1
  Si  Si26  1  0.30335542  0.56715134  0.56757847  1
  Si  Si27  1  0.50467145  0.04113552  0.30360571  1
  Si  Si28  1  0.49532855  0.95886448  0.80360571  1
  Si  Si29  1  0.69664458  0.43284866  0.06757847  1
  Si  Si30  1  0.80335542  0.43284866  0.56757847  1
  Si  Si31  1  0.00467145  0.95886448  0.30360571  1
  O  O32  1  0.04522764  0.22313005  0.35292346  1
  O  O33  1  0.05624053  0.94096444  0.19233766  1
  O  O34  1  0.04457446  0.46196846  0.07453420  1
  O  O35  1  0.09502817  0.75879215  0.36534680  1
  O  O36  1  0.14928839  0.12992421  0.78892449  1
  O  O37  1  0.23662331  0.56506871  0.67608150  1
  O  O38  1  0.21836846  0.37207149  0.50333896  1
  O  O39  1  0.19837305  0.85060315  0.02643967  1
  O  O40  1  0.28163154  0.37207149  0.00333896  1
  O  O41  1  0.30162695  0.85060315  0.52643967  1
  O  O42  1  0.26337669  0.56506871  0.17608150  1
  O  O43  1  0.35071161  0.12992421  0.28892449  1
  O  O44  1  0.45542554  0.46196846  0.57453420  1
  O  O45  1  0.40497183  0.75879215  0.86534680  1
  O  O46  1  0.45477236  0.22313005  0.85292346  1
  O  O47  1  0.44375947  0.94096444  0.69233766  1
  O  O48  1  0.55624053  0.05903556  0.19233766  1
  O  O49  1  0.54522764  0.77686995  0.35292346  1
  O  O50  1  0.59502817  0.24120785  0.36534680  1
  O  O51  1  0.54457446  0.53803154  0.07453420  1
  O  O52  1  0.73662331  0.43493129  0.67608150  1
  O  O53  1  0.64928839  0.87007579  0.78892449  1
  O  O54  1  0.69837305  0.14939685  0.02643967  1
  O  O55  1  0.71836846  0.62792851  0.50333896  1
  O  O56  1  0.80162695  0.14939685  0.52643967  1
  O  O57  1  0.78163154  0.62792851  0.00333896  1
  O  O58  1  0.76337669  0.43493129  0.17608150  1
  O  O59  1  0.85071161  0.87007579  0.28892449  1
  O  O60  1  0.90497183  0.24120785  0.86534680  1
  O  O61  1  0.95542554  0.53803154  0.57453420  1
  O  O62  1  0.94375947  0.05903556  0.69233766  1
  O  O63  1  0.95477236  0.77686995  0.85292346  1
