# generated using pymatgen
data_Li3V4P2O8F9
_symmetry_space_group_name_H-M   'P 1'
_cell_length_a   7.04601613
_cell_length_b   14.59025194
_cell_length_c   7.42062071
_cell_angle_alpha   90.00000000
_cell_angle_beta   104.49724573
_cell_angle_gamma   90.00000000
_symmetry_Int_Tables_number   1
_chemical_formula_structural   Li3V4P2O8F9
_chemical_formula_sum   'Li6 V8 P4 O16 F18'
_cell_volume   738.57337586
_cell_formula_units_Z   2
loop_
 _symmetry_equiv_pos_site_id
 _symmetry_equiv_pos_as_xyz
  1  'x, y, z'
loop_
 _atom_site_type_symbol
 _atom_site_label
 _atom_site_symmetry_multiplicity
 _atom_site_fract_x
 _atom_site_fract_y
 _atom_site_fract_z
 _atom_site_occupancy
  Li  Li0  1  0.98048492  0.25000000  0.44037823  1
  Li  Li1  1  0.18397288  0.55072578  0.72683382  1
  Li  Li2  1  0.18397288  0.94927422  0.72683382  1
  Li  Li3  1  0.81602712  0.44927422  0.27316618  1
  Li  Li4  1  0.81602712  0.05072578  0.27316618  1
  Li  Li5  1  0.01951508  0.75000000  0.55962177  1
  V  V6  1  0.03645935  0.25000000  0.06066171  1
  V  V7  1  0.48240261  0.75000000  0.94923501  1
  V  V8  1  0.31413372  0.61943175  0.32421772  1
  V  V9  1  0.31413372  0.88056825  0.32421772  1
  V  V10  1  0.68586628  0.38056825  0.67578228  1
  V  V11  1  0.68586628  0.11943175  0.67578228  1
  V  V12  1  0.51759739  0.25000000  0.05076499  1
  V  V13  1  0.96354065  0.75000000  0.93933829  1
  P  P14  1  0.33616078  0.10004193  0.29782089  1
  P  P15  1  0.33616078  0.39995807  0.29782089  1
  P  P16  1  0.66383922  0.60004193  0.70217911  1
  P  P17  1  0.66383922  0.89995807  0.70217911  1
  O  O18  1  0.13957058  0.15564858  0.25638221  1
  O  O19  1  0.13957058  0.34435142  0.25638221  1
  O  O20  1  0.28787045  0.49601728  0.21164471  1
  O  O21  1  0.28787045  0.00398272  0.21164471  1
  O  O22  1  0.50758062  0.64541287  0.78977508  1
  O  O23  1  0.50758062  0.85458713  0.78977508  1
  O  O24  1  0.42114487  0.09595198  0.51027128  1
  O  O25  1  0.42114487  0.40404802  0.51027128  1
  O  O26  1  0.57885513  0.59595198  0.48972872  1
  O  O27  1  0.57885513  0.90404802  0.48972872  1
  O  O28  1  0.49241938  0.14541287  0.21022492  1
  O  O29  1  0.49241938  0.35458713  0.21022492  1
  O  O30  1  0.71212955  0.50398272  0.78835529  1
  O  O31  1  0.71212955  0.99601728  0.78835529  1
  O  O32  1  0.86042842  0.65564858  0.74361779  1
  O  O33  1  0.86042842  0.84435142  0.74361779  1
  F  F34  1  0.19056203  0.75000000  0.81383667  1
  F  F35  1  0.23926992  0.25000000  0.92079420  1
  F  F36  1  0.13728903  0.58816421  0.48812894  1
  F  F37  1  0.13728903  0.91183579  0.48812894  1
  F  F38  1  0.07650141  0.65431468  0.12051124  1
  F  F39  1  0.07650141  0.84568532  0.12051124  1
  F  F40  1  0.28968510  0.75000000  0.42028578  1
  F  F41  1  0.54447987  0.15848901  0.86297404  1
  F  F42  1  0.54447987  0.34151099  0.86297404  1
  F  F43  1  0.45552013  0.65848901  0.13702596  1
  F  F44  1  0.45552013  0.84151099  0.13702596  1
  F  F45  1  0.71031490  0.25000000  0.57971422  1
  F  F46  1  0.92349859  0.15431468  0.87948876  1
  F  F47  1  0.92349859  0.34568532  0.87948876  1
  F  F48  1  0.86271097  0.08816421  0.51187106  1
  F  F49  1  0.86271097  0.41183579  0.51187106  1
  F  F50  1  0.76073008  0.75000000  0.07920580  1
  F  F51  1  0.80943797  0.25000000  0.18616333  1
