# generated using pymatgen
data_Fe2C2O7
_symmetry_space_group_name_H-M   'P 1'
_cell_length_a   8.05520008
_cell_length_b   7.74008405
_cell_length_c   12.32948977
_cell_angle_alpha   90.00000000
_cell_angle_beta   65.22227097
_cell_angle_gamma   90.00000000
_symmetry_Int_Tables_number   1
_chemical_formula_structural   Fe2C2O7
_chemical_formula_sum   'Fe8 C8 O28'
_cell_volume   697.95026971
_cell_formula_units_Z   4
loop_
 _symmetry_equiv_pos_site_id
 _symmetry_equiv_pos_as_xyz
  1  'x, y, z'
loop_
 _atom_site_type_symbol
 _atom_site_label
 _atom_site_symmetry_multiplicity
 _atom_site_fract_x
 _atom_site_fract_y
 _atom_site_fract_z
 _atom_site_occupancy
  Fe  Fe0  1  0.07727253  0.91651591  0.12794405  1
  Fe  Fe1  1  0.01967260  0.86216249  0.61827808  1
  Fe  Fe2  1  0.51967260  0.63783751  0.11827808  1
  Fe  Fe3  1  0.42272747  0.41651591  0.37205595  1
  Fe  Fe4  1  0.57727253  0.58348409  0.62794405  1
  Fe  Fe5  1  0.48032740  0.36216249  0.88172192  1
  Fe  Fe6  1  0.98032740  0.13783751  0.38172192  1
  Fe  Fe7  1  0.92272747  0.08348409  0.87205595  1
  C  C8  1  0.21604868  0.60564719  0.04419351  1
  C  C9  1  0.28395132  0.10564719  0.45580649  1
  C  C10  1  0.23166027  0.57400595  0.60121238  1
  C  C11  1  0.26833973  0.07400595  0.89878762  1
  C  C12  1  0.73166027  0.92599405  0.10121238  1
  C  C13  1  0.76833973  0.42599405  0.39878762  1
  C  C14  1  0.71604868  0.89435281  0.54419351  1
  C  C15  1  0.78395132  0.39435281  0.95580649  1
  O  O16  1  0.05623414  0.67518425  0.07995058  1
  O  O17  1  0.08405552  0.96748695  0.27126879  1
  O  O18  1  0.26193449  0.05929319  0.00489295  1
  O  O19  1  0.34349610  0.70140195  0.05567678  1
  O  O20  1  0.15650390  0.20140195  0.44432322  1
  O  O21  1  0.10372065  0.66673266  0.67974318  1
  O  O22  1  0.23806551  0.55929319  0.49510705  1
  O  O23  1  0.41594448  0.46748695  0.22873121  1
  O  O24  1  0.24984430  0.95420879  0.50115163  1
  O  O25  1  0.14990866  0.99601445  0.86995247  1
  O  O26  1  0.35009134  0.49601445  0.63004753  1
  O  O27  1  0.44376586  0.17518425  0.42004942  1
  O  O28  1  0.60372065  0.83326734  0.17974318  1
  O  O29  1  0.25015570  0.45420879  0.99884837  1
  O  O30  1  0.74984430  0.54579121  0.00115163  1
  O  O31  1  0.39627935  0.16673266  0.82025682  1
  O  O32  1  0.55623414  0.82481575  0.57995058  1
  O  O33  1  0.64990866  0.50398555  0.36995247  1
  O  O34  1  0.85009134  0.00398555  0.13004753  1
  O  O35  1  0.75015570  0.04579121  0.49884837  1
  O  O36  1  0.58405552  0.53251305  0.77126879  1
  O  O37  1  0.76193449  0.44070681  0.50489295  1
  O  O38  1  0.89627935  0.33326734  0.32025682  1
  O  O39  1  0.84349610  0.79859805  0.55567678  1
  O  O40  1  0.65650390  0.29859805  0.94432322  1
  O  O41  1  0.73806551  0.94070681  0.99510705  1
  O  O42  1  0.91594448  0.03251305  0.72873121  1
  O  O43  1  0.94376586  0.32481575  0.92004942  1
