# generated using pymatgen
data_Li5Cr6P5O24
_symmetry_space_group_name_H-M   'P 1'
_cell_length_a   6.78492345
_cell_length_b   10.66712245
_cell_length_c   6.50830179
_cell_angle_alpha   72.03093440
_cell_angle_beta   90.25857797
_cell_angle_gamma   109.53234902
_symmetry_Int_Tables_number   1
_chemical_formula_structural   Li5Cr6P5O24
_chemical_formula_sum   'Li5 Cr6 P5 O24'
_cell_volume   419.71790016
_cell_formula_units_Z   1
loop_
 _symmetry_equiv_pos_site_id
 _symmetry_equiv_pos_as_xyz
  1  'x, y, z'
loop_
 _atom_site_type_symbol
 _atom_site_label
 _atom_site_symmetry_multiplicity
 _atom_site_fract_x
 _atom_site_fract_y
 _atom_site_fract_z
 _atom_site_occupancy
  Li  Li0  1  0.75737659  0.52377630  0.24076272  1
  Li  Li1  1  0.24842404  0.47745814  0.24346400  1
  Li  Li2  1  0.50129469  0.01638436  0.47857414  1
  Li  Li3  1  0.52930180  0.03808269  0.98072626  1
  Li  Li4  1  0.98806844  0.97173094  0.51807920  1
  Cr  Cr5  1  0.87118839  0.24769099  0.11169446  1
  Cr  Cr6  1  0.37257918  0.24297676  0.19635498  1
  Cr  Cr7  1  0.11479547  0.75046683  0.37480943  1
  Cr  Cr8  1  0.37875815  0.24643163  0.62511723  1
  Cr  Cr9  1  0.23158097  0.46357833  0.76674692  1
  Cr  Cr10  1  0.63695798  0.75531646  0.87643755  1
  P  P11  1  0.00269272  0.99873522  0.00625909  1
  P  P12  1  0.87318558  0.24918989  0.51687985  1
  P  P13  1  0.51243295  0.75159567  0.37597816  1
  P  P14  1  0.74869084  0.50599559  0.75105469  1
  P  P15  1  0.24087699  0.75495233  0.87553635  1
  O  O16  1  0.85505537  0.08033369  0.01927679  1
  O  O17  1  0.17816734  0.32029659  0.06335328  1
  O  O18  1  0.56910034  0.18200651  0.13329128  1
  O  O19  1  0.10050030  0.71961416  0.08385402  1
  O  O20  1  0.90209766  0.37569757  0.30167144  1
  O  O21  1  0.84678276  0.12281531  0.42976674  1
  O  O22  1  0.27715568  0.11405781  0.46539928  1
  O  O23  1  0.46853500  0.37878732  0.33007725  1
  O  O24  1  0.61683397  0.71979494  0.20013805  1
  O  O25  1  0.01233428  0.90956617  0.24488793  1
  O  O26  1  0.42278811  0.87398004  0.28763674  1
  O  O27  1  0.08423922  0.28772554  0.61971466  1
  O  O28  1  0.66687464  0.21168375  0.65955779  1
  O  O29  1  0.29592631  0.62048138  0.46790878  1
  O  O30  1  0.84190974  0.58976356  0.51089170  1
  O  O31  1  0.23606854  0.09403014  0.91701980  1
  O  O32  1  0.51603195  0.40855968  0.75143590  1
  O  O33  1  0.65012936  0.78218775  0.55379426  1
  O  O34  1  0.13148643  0.78024984  0.66838155  1
  O  O35  1  0.89119072  0.42000346  0.84934836  1
  O  O36  1  0.73405188  0.59115958  0.90225427  1
  O  O37  1  0.32789360  0.62840507  0.91474951  1
  O  O38  1  0.45564594  0.88134285  0.83668856  1
  O  O39  1  0.91099610  0.91309715  0.85042899  1
