# generated using pymatgen
data_LiCrSiO4
_symmetry_space_group_name_H-M   'P 1'
_cell_length_a   5.56573839
_cell_length_b   10.78364436
_cell_length_c   10.11209039
_cell_angle_alpha   90.00000000
_cell_angle_beta   91.20370330
_cell_angle_gamma   90.00000000
_symmetry_Int_Tables_number   1
_chemical_formula_structural   LiCrSiO4
_chemical_formula_sum   'Li8 Cr8 Si8 O32'
_cell_volume   606.78305053
_cell_formula_units_Z   8
loop_
 _symmetry_equiv_pos_site_id
 _symmetry_equiv_pos_as_xyz
  1  'x, y, z'
loop_
 _atom_site_type_symbol
 _atom_site_label
 _atom_site_symmetry_multiplicity
 _atom_site_fract_x
 _atom_site_fract_y
 _atom_site_fract_z
 _atom_site_occupancy
  Li  Li0  1  0.09462381  0.84119108  0.82918269  1
  Li  Li1  1  0.09462381  0.65880892  0.32918269  1
  Li  Li2  1  0.36518495  0.38277886  0.59351023  1
  Li  Li3  1  0.36518495  0.11722114  0.09351023  1
  Li  Li4  1  0.63481505  0.88277886  0.90648977  1
  Li  Li5  1  0.63481505  0.61722114  0.40648977  1
  Li  Li6  1  0.90537619  0.34119108  0.67081731  1
  Li  Li7  1  0.90537619  0.15880892  0.17081731  1
  Cr  Cr8  1  0.15077063  0.12264615  0.51582924  1
  Cr  Cr9  1  0.15077063  0.37735385  0.01582924  1
  Cr  Cr10  1  0.33987611  0.59125693  0.76791588  1
  Cr  Cr11  1  0.33987611  0.90874307  0.26791588  1
  Cr  Cr12  1  0.66012389  0.09125693  0.73208412  1
  Cr  Cr13  1  0.66012389  0.40874307  0.23208412  1
  Cr  Cr14  1  0.84922937  0.62264615  0.98417076  1
  Cr  Cr15  1  0.84922937  0.87735385  0.48417076  1
  Si  Si16  1  0.11159871  0.10267654  0.84055870  1
  Si  Si17  1  0.11159871  0.39732346  0.34055870  1
  Si  Si18  1  0.40399607  0.85674053  0.58257758  1
  Si  Si19  1  0.40399607  0.64325947  0.08257758  1
  Si  Si20  1  0.59600393  0.35674053  0.91742242  1
  Si  Si21  1  0.59600393  0.14325947  0.41742142  1
  Si  Si22  1  0.88840129  0.60267654  0.65944130  1
  Si  Si23  1  0.88840129  0.89732346  0.15944130  1
  O  O24  1  0.11626289  0.20102174  0.96323148  1
  O  O25  1  0.11109567  0.50280682  0.64224495  1
  O  O26  1  0.11626289  0.29897826  0.46323148  1
  O  O27  1  0.11109567  0.99719318  0.14224495  1
  O  O28  1  0.01855961  0.16439674  0.69339182  1
  O  O29  1  0.16017622  0.94139374  0.56663341  1
  O  O30  1  0.01855961  0.33560326  0.19339182  1
  O  O31  1  0.16017622  0.55860626  0.06663341  1
  O  O32  1  0.34676322  0.75168339  0.68640204  1
  O  O33  1  0.36868468  0.02793710  0.83024624  1
  O  O34  1  0.34676322  0.74831661  0.18640204  1
  O  O35  1  0.36868468  0.47206290  0.33024624  1
  O  O36  1  0.35118466  0.42920148  0.86307608  1
  O  O37  1  0.50050713  0.67983113  0.93112693  1
  O  O38  1  0.35118466  0.07079852  0.36307608  1
  O  O39  1  0.50050713  0.82016887  0.43112693  1
  O  O40  1  0.49949287  0.17983113  0.56887307  1
  O  O41  1  0.64881534  0.92920148  0.63692392  1
  O  O42  1  0.49949287  0.32016887  0.06887307  1
  O  O43  1  0.64881534  0.57079852  0.13692392  1
  O  O44  1  0.63131532  0.52793710  0.66975376  1
  O  O45  1  0.65323678  0.25168339  0.81359796  1
  O  O46  1  0.63131532  0.97206290  0.16975376  1
  O  O47  1  0.65323678  0.24831661  0.31359796  1
  O  O48  1  0.83982378  0.44139374  0.93336659  1
  O  O49  1  0.98144039  0.66439674  0.80660818  1
  O  O50  1  0.83982378  0.05860626  0.43336659  1
  O  O51  1  0.98144039  0.83560326  0.30660818  1
  O  O52  1  0.88890433  0.00280682  0.85775505  1
  O  O53  1  0.88373711  0.70102174  0.53676852  1
  O  O54  1  0.88890433  0.49719318  0.35775505  1
  O  O55  1  0.88373711  0.79897826  0.03676852  1
