# generated using pymatgen
data_Li2Cr(SiO3)2
_symmetry_space_group_name_H-M   'P 1'
_cell_length_a   5.10726239
_cell_length_b   10.78159363
_cell_length_c   5.11223905
_cell_angle_alpha   103.31275173
_cell_angle_beta   88.56606193
_cell_angle_gamma   76.75846532
_symmetry_Int_Tables_number   1
_chemical_formula_structural   Li2Cr(SiO3)2
_chemical_formula_sum   'Li4 Cr2 Si4 O12'
_cell_volume   265.75455678
_cell_formula_units_Z   2
loop_
 _symmetry_equiv_pos_site_id
 _symmetry_equiv_pos_as_xyz
  1  'x, y, z'
loop_
 _atom_site_type_symbol
 _atom_site_label
 _atom_site_symmetry_multiplicity
 _atom_site_fract_x
 _atom_site_fract_y
 _atom_site_fract_z
 _atom_site_occupancy
  Li  Li0  1  0.54882070  0.83758370  0.90411601  1
  Li  Li1  1  0.13880944  0.66558785  0.81527183  1
  Li  Li2  1  0.81388683  0.33713492  0.13848081  1
  Li  Li3  1  0.90635042  0.16485976  0.54841565  1
  Cr  Cr4  1  0.75079087  0.50102920  0.75163600  1
  Cr  Cr5  1  0.99679994  0.00159184  0.99655714  1
  Si  Si6  1  0.15342037  0.83501699  0.39970573  1
  Si  Si7  1  0.73577929  0.66804534  0.31735712  1
  Si  Si8  1  0.31632346  0.33426701  0.73864266  1
  Si  Si9  1  0.39854160  0.16859977  0.15609594  1
  O  O10  1  0.07747196  0.98353161  0.58098426  1
  O  O11  1  0.17552946  0.82357867  0.07462475  1
  O  O12  1  0.93981522  0.75206216  0.48815071  1
  O  O13  1  0.44012950  0.75099593  0.48852922  1
  O  O14  1  0.74609998  0.67963290  0.00402506  1
  O  O15  1  0.80621810  0.51921074  0.35060332  1
  O  O16  1  0.34899602  0.48395976  0.80654983  1
  O  O17  1  0.00394413  0.32259435  0.74869441  1
  O  O18  1  0.48893434  0.25000285  0.44451699  1
  O  O19  1  0.48755971  0.25309201  0.94648517  1
  O  O20  1  0.07482129  0.17948549  0.17682767  1
  O  O21  1  0.58129036  0.01919514  0.07499772  1
