# generated using pymatgen
data_Li2Ti3VO8
_symmetry_space_group_name_H-M   'P 1'
_cell_length_a   5.98397022
_cell_length_b   5.98385065
_cell_length_c   6.07775330
_cell_angle_alpha   89.69365605
_cell_angle_beta   60.32039566
_cell_angle_gamma   59.84446987
_symmetry_Int_Tables_number   1
_chemical_formula_structural   Li2Ti3VO8
_chemical_formula_sum   'Li2 Ti3 V1 O8'
_cell_volume   154.66909745
_cell_formula_units_Z   1
loop_
 _symmetry_equiv_pos_site_id
 _symmetry_equiv_pos_as_xyz
  1  'x, y, z'
loop_
 _atom_site_type_symbol
 _atom_site_label
 _atom_site_symmetry_multiplicity
 _atom_site_fract_x
 _atom_site_fract_y
 _atom_site_fract_z
 _atom_site_occupancy
  Li  Li0  1  0.99999804  0.50000030  0.49999777  1
  Li  Li1  1  0.49999678  0.00000038  0.49999821  1
  Ti  Ti2  1  0.99999925  0.49999765  0.99999697  1
  Ti  Ti3  1  0.49999781  0.50000250  0.99999919  1
  Ti  Ti4  1  0.50000584  0.00000115  0.99999861  1
  V  V5  1  0.00001066  0.99999353  0.00000608  1
  O  O6  1  0.47163735  0.26349000  0.79172036  1
  O  O7  1  0.49775142  0.75539909  0.78389471  1
  O  O8  1  0.97140081  0.28171977  0.78391677  1
  O  O9  1  0.95958067  0.75301410  0.79331168  1
  O  O10  1  0.04041845  0.24699018  0.20669043  1
  O  O11  1  0.02859144  0.71827811  0.21609005  1
  O  O12  1  0.50225418  0.24459974  0.21610095  1
  O  O13  1  0.52835930  0.73651351  0.20827823  1
