# generated using pymatgen
data_Li2CuPO4
_symmetry_space_group_name_H-M   'P 1'
_cell_length_a   4.96453973
_cell_length_b   4.96481678
_cell_length_c   12.02971246
_cell_angle_alpha   90.00595235
_cell_angle_beta   90.00142701
_cell_angle_gamma   120.00215694
_symmetry_Int_Tables_number   1
_chemical_formula_structural   Li2CuPO4
_chemical_formula_sum   'Li6 Cu3 P3 O12'
_cell_volume   256.77849649
_cell_formula_units_Z   3
loop_
 _symmetry_equiv_pos_site_id
 _symmetry_equiv_pos_as_xyz
  1  'x, y, z'
loop_
 _atom_site_type_symbol
 _atom_site_label
 _atom_site_symmetry_multiplicity
 _atom_site_fract_x
 _atom_site_fract_y
 _atom_site_fract_z
 _atom_site_occupancy
  Li  Li0  1  0.33797784  0.91330146  0.58405643  1
  Li  Li1  1  0.08666217  0.42468731  0.91740026  1
  Li  Li2  1  0.57535631  0.66201962  0.25073531  1
  Li  Li3  1  0.42467281  0.08670147  0.08260697  1
  Li  Li4  1  0.66200618  0.57530520  0.74926862  1
  Li  Li5  1  0.91336352  0.33803321  0.41593264  1
  Cu  Cu6  1  0.00000475  0.32060595  0.16668230  1
  Cu  Cu7  1  0.67917904  0.67931869  0.49995380  1
  Cu  Cu8  1  0.32061283  0.99996087  0.83334319  1
  P  P9  1  -0.00002752  0.23239103  0.66672290  1
  P  P10  1  0.23260931  0.00005844  0.33341258  1
  P  P11  1  0.76749012  0.76760565  -0.00014388  1
  O  O12  1  0.09942789  0.81393226  0.97259878  1
  O  O13  1  0.08643038  0.45119118  0.56522776  1
  O  O14  1  0.36490119  0.91362483  0.23189617  1
  O  O15  1  0.18612144  0.28558603  0.30591490  1
  O  O16  1  0.28549786  0.18603007  0.69407956  1
  O  O17  1  0.71445633  0.90052418  0.63925101  1
  O  O18  1  0.54891718  0.63529054  0.89862617  1
  O  O19  1  0.63504225  0.54869632  0.10146968  1
  O  O20  1  0.45113549  0.08637082  0.43471104  1
  O  O21  1  0.90056872  0.71446051  0.36074308  1
  O  O22  1  0.81392318  0.09952387  0.02742559  1
  O  O23  1  0.91366874  0.36478047  0.76805112  1
