# generated using pymatgen
data_Li2Co2(CO3)3
_symmetry_space_group_name_H-M   'P 1'
_cell_length_a   7.44234326
_cell_length_b   7.51294940
_cell_length_c   7.46001310
_cell_angle_alpha   108.90649272
_cell_angle_beta   107.36794858
_cell_angle_gamma   108.99343295
_symmetry_Int_Tables_number   1
_chemical_formula_structural   Li2Co2(CO3)3
_chemical_formula_sum   'Li4 Co4 C6 O18'
_cell_volume   332.91679443
_cell_formula_units_Z   2
loop_
 _symmetry_equiv_pos_site_id
 _symmetry_equiv_pos_as_xyz
  1  'x, y, z'
loop_
 _atom_site_type_symbol
 _atom_site_label
 _atom_site_symmetry_multiplicity
 _atom_site_fract_x
 _atom_site_fract_y
 _atom_site_fract_z
 _atom_site_occupancy
  Li  Li0  1  0.31027296  0.61044994  0.84461129  1
  Li  Li1  1  0.58650807  0.80592803  0.30640123  1
  Li  Li2  1  0.84279573  0.84989102  0.83816895  1
  Li  Li3  1  0.81207285  0.28716850  0.56455580  1
  Co  Co4  1  0.03489844  0.53563719  0.15204402  1
  Co  Co5  1  0.41940537  0.41908013  0.43987694  1
  Co  Co6  1  0.15052687  0.03683712  0.53482148  1
  Co  Co7  1  0.53308883  0.15268050  0.03503149  1
  C  C8  1  0.24534996  0.92389773  0.15740303  1
  C  C9  1  0.40023859  0.80911004  0.58677678  1
  C  C10  1  0.17076915  0.25672114  0.93425519  1
  C  C11  1  0.80660848  0.58471405  0.40447526  1
  C  C12  1  0.59067849  0.40298051  0.80561496  1
  C  C13  1  0.92513543  0.15807304  0.24385603  1
  O  O14  1  0.04928345  0.78070143  0.05187416  1
  O  O15  1  0.38354261  0.90175506  0.08553048  1
  O  O16  1  0.39529223  0.97891925  0.69936108  1
  O  O17  1  0.35612953  0.75321534  0.38848579  1
  O  O18  1  0.10600432  0.39741831  0.91718951  1
  O  O19  1  0.44850563  0.69618102  0.67088725  1
  O  O20  1  0.08865141  0.33437567  0.30541022  1
  O  O21  1  0.34457418  0.31394295  0.09424274  1
  O  O22  1  0.69323573  0.66609913  0.46274963  1
  O  O23  1  0.05955219  0.06148454  0.78550753  1
  O  O24  1  0.39158608  0.36298988  0.74609447  1
  O  O25  1  0.67857759  0.44646640  0.69098437  1
  O  O26  1  0.31002939  0.08647835  0.33601865  1
  O  O27  1  0.69617466  0.39966623  0.97657673  1
  O  O28  1  0.97461512  0.70051499  0.39693819  1
  O  O29  1  0.75259266  0.38580766  0.35140878  1
  O  O30  1  0.77935274  0.05276954  0.05006698  1
  O  O31  1  0.90244826  0.08674431  0.38128000  1
