# generated using pymatgen
data_Fe4O3F5
_symmetry_space_group_name_H-M   'P 1'
_cell_length_a   4.82253925
_cell_length_b   9.63412372
_cell_length_c   6.20052061
_cell_angle_alpha   89.64999034
_cell_angle_beta   90.20584472
_cell_angle_gamma   92.45571874
_symmetry_Int_Tables_number   1
_chemical_formula_structural   Fe4O3F5
_chemical_formula_sum   'Fe8 O6 F10'
_cell_volume   287.81048001
_cell_formula_units_Z   2
loop_
 _symmetry_equiv_pos_site_id
 _symmetry_equiv_pos_as_xyz
  1  'x, y, z'
loop_
 _atom_site_type_symbol
 _atom_site_label
 _atom_site_symmetry_multiplicity
 _atom_site_fract_x
 _atom_site_fract_y
 _atom_site_fract_z
 _atom_site_occupancy
  Fe  Fe0  1  0.98408086  0.98259567  0.00601500  1
  Fe  Fe1  1  0.04921073  0.01161814  0.48825112  1
  Fe  Fe2  1  0.97110810  0.48686740  0.00174585  1
  Fe  Fe3  1  0.01016172  0.50615255  0.49855223  1
  Fe  Fe4  1  0.51989443  0.25753349  0.26148260  1
  Fe  Fe5  1  0.52256631  0.25488202  0.74070367  1
  Fe  Fe6  1  0.46317445  0.76397122  0.25178521  1
  Fe  Fe7  1  0.49464903  0.74686460  0.75024100  1
  O  O8  1  0.19197564  0.90393509  0.26062980  1
  O  O9  1  0.31914464  0.16012602  0.50205905  1
  O  O10  1  0.30804837  0.65266866  0.50265719  1
  O  O11  1  0.67539974  0.33526961  0.00035553  1
  O  O12  1  0.71624680  0.35645092  0.50120293  1
  O  O13  1  0.66325861  0.83221517  0.99626897  1
  F  F14  1  0.20312212  0.40263208  0.25839453  1
  F  F15  1  0.20219498  0.40442167  0.74269469  1
  F  F16  1  0.19988051  0.89762318  0.73478692  1
  F  F17  1  0.29707094  0.15043089  0.99490928  1
  F  F18  1  0.28639148  0.64416150  0.99953779  1
  F  F19  1  0.70293083  0.85288669  0.50455477  1
  F  F20  1  0.80348562  0.60241287  0.74116573  1
  F  F21  1  0.81344830  0.09224366  0.73667023  1
  F  F22  1  0.80332857  0.60230700  0.26077066  1
  F  F23  1  0.79922823  0.09973088  0.26456527  1
