# generated using pymatgen
data_Li3Mn(PO4)2
_symmetry_space_group_name_H-M   'P 1'
_cell_length_a   8.45065295
_cell_length_b   8.45065272
_cell_length_c   8.45065270
_cell_angle_alpha   64.26556388
_cell_angle_beta   64.26556801
_cell_angle_gamma   64.26556126
_symmetry_Int_Tables_number   1
_chemical_formula_structural   Li3Mn(PO4)2
_chemical_formula_sum   'Li9 Mn3 P6 O24'
_cell_volume   466.73282382
_cell_formula_units_Z   3
loop_
 _symmetry_equiv_pos_site_id
 _symmetry_equiv_pos_as_xyz
  1  'x, y, z'
loop_
 _atom_site_type_symbol
 _atom_site_label
 _atom_site_symmetry_multiplicity
 _atom_site_fract_x
 _atom_site_fract_y
 _atom_site_fract_z
 _atom_site_occupancy
  Li  Li0  1  0.29807299  0.82681534  0.64495758  1
  Li  Li1  1  0.34644330  0.74694185  0.14978978  1
  Li  Li2  1  0.14978978  0.34644330  0.74694185  1
  Li  Li3  1  0.99741883  0.99741883  0.99741883  1
  Li  Li4  1  0.50876954  0.50876954  0.50876954  1
  Li  Li5  1  0.65090647  0.65090647  0.65090647  1
  Li  Li6  1  0.82681534  0.64495758  0.29807299  1
  Li  Li7  1  0.64495758  0.29807299  0.82681534  1
  Li  Li8  1  0.74694185  0.14978978  0.34644330  1
  Mn  Mn9  1  0.14480681  0.14480681  0.14480681  1
  Mn  Mn10  1  0.35557412  0.35557412  0.35557412  1
  Mn  Mn11  1  0.85385599  0.85385599  0.85385599  1
  P  P12  1  0.05150516  0.74756100  0.44613686  1
  P  P13  1  0.54916042  0.94998550  0.24807026  1
  P  P14  1  0.24807026  0.54916042  0.94998550  1
  P  P15  1  0.74756100  0.44613686  0.05150516  1
  P  P16  1  0.44613686  0.05150516  0.74756100  1
  P  P17  1  0.94998550  0.24807026  0.54916042  1
  O  O18  1  0.07351630  0.90487641  0.25285032  1
  O  O19  1  0.09849800  0.74125666  0.92889711  1
  O  O20  1  0.47070879  0.89563490  0.68787835  1
  O  O21  1  0.60806420  0.02314056  0.80562248  1
  O  O22  1  0.24714857  0.59917438  0.42473422  1
  O  O23  1  0.17642176  0.39009231  0.99079314  1
  O  O24  1  0.11263151  0.30688054  0.52185497  1
  O  O25  1  0.55386824  0.76522748  0.40345802  1
  O  O26  1  0.74125666  0.92889711  0.09849800  1
  O  O27  1  0.99079314  0.17642176  0.39009231  1
  O  O28  1  0.30688054  0.52185497  0.11263151  1
  O  O29  1  0.40345802  0.55386824  0.76522748  1
  O  O30  1  0.59917438  0.42473422  0.24714857  1
  O  O31  1  0.68787835  0.47070879  0.89563490  1
  O  O32  1  0.02314056  0.80562248  0.60806420  1
  O  O33  1  0.42473422  0.24714857  0.59917438  1
  O  O34  1  0.25285032  0.07351630  0.90487641  1
  O  O35  1  0.80562248  0.60806420  0.02314056  1
  O  O36  1  0.89563490  0.68787835  0.47070879  1
  O  O37  1  0.76522748  0.40345802  0.55386824  1
  O  O38  1  0.39009231  0.99079314  0.17642176  1
  O  O39  1  0.52185497  0.11263151  0.30688054  1
  O  O40  1  0.90487641  0.25285032  0.07351630  1
  O  O41  1  0.92889711  0.09849800  0.74125666  1
