# generated using pymatgen
data_LiMnF3
_symmetry_space_group_name_H-M   'P 1'
_cell_length_a   8.98355794
_cell_length_b   8.98355839
_cell_length_c   8.98355825
_cell_angle_alpha   112.27346728
_cell_angle_beta   112.27347392
_cell_angle_gamma   112.27346970
_symmetry_Int_Tables_number   1
_chemical_formula_structural   LiMnF3
_chemical_formula_sum   'Li6 Mn6 F18'
_cell_volume   491.78591406
_cell_formula_units_Z   6
loop_
 _symmetry_equiv_pos_site_id
 _symmetry_equiv_pos_as_xyz
  1  'x, y, z'
loop_
 _atom_site_type_symbol
 _atom_site_label
 _atom_site_symmetry_multiplicity
 _atom_site_fract_x
 _atom_site_fract_y
 _atom_site_fract_z
 _atom_site_occupancy
  Li  Li0  1  0.08435612  0.93547126  0.28230862  1
  Li  Li1  1  0.06452874  0.71769138  0.91564388  1
  Li  Li2  1  0.71769138  0.91564388  0.06452874  1
  Li  Li3  1  0.28230862  0.08435612  0.93547126  1
  Li  Li4  1  0.93547126  0.28230862  0.08435612  1
  Li  Li5  1  0.91564388  0.06452874  0.71769138  1
  Mn  Mn6  1  0.99385828  0.68543122  0.51677319  1
  Mn  Mn7  1  0.48322681  0.00614172  0.31456878  1
  Mn  Mn8  1  0.31456878  0.48322681  0.00614172  1
  Mn  Mn9  1  0.68543122  0.51677319  0.99385828  1
  Mn  Mn10  1  0.51677319  0.99385828  0.68543122  1
  Mn  Mn11  1  0.00614172  0.31456878  0.48322681  1
  F  F12  1  0.01109334  0.10479002  0.29036570  1
  F  F13  1  0.30863558  0.91533316  0.73989481  1
  F  F14  1  0.89520998  0.70963430  0.98890666  1
  F  F15  1  0.35897484  0.03474829  0.47237079  1
  F  F16  1  0.96525171  0.52762921  0.64102516  1
  F  F17  1  0.26010519  0.69136442  0.08466684  1
  F  F18  1  0.08466684  0.26010519  0.69136442  1
  F  F19  1  0.70963430  0.98890666  0.89520998  1
  F  F20  1  0.52762921  0.64102516  0.96525171  1
  F  F21  1  0.47237079  0.35897484  0.03474829  1
  F  F22  1  0.29036570  0.01109334  0.10479002  1
  F  F23  1  0.91533316  0.73989481  0.30863558  1
  F  F24  1  0.73989481  0.30863558  0.91533316  1
  F  F25  1  0.03474829  0.47237079  0.35897484  1
  F  F26  1  0.64102516  0.96525171  0.52762921  1
  F  F27  1  0.10479002  0.29036570  0.01109334  1
  F  F28  1  0.69136442  0.08466684  0.26010519  1
  F  F29  1  0.98890666  0.89520998  0.70963430  1
