# generated using pymatgen
data_Fe4O5F3
_symmetry_space_group_name_H-M   'P 1'
_cell_length_a   4.74052086
_cell_length_b   9.46250519
_cell_length_c   6.07188184
_cell_angle_alpha   89.79404982
_cell_angle_beta   90.20457672
_cell_angle_gamma   92.29643500
_symmetry_Int_Tables_number   1
_chemical_formula_structural   Fe4O5F3
_chemical_formula_sum   'Fe8 O10 F6'
_cell_volume   272.14553871
_cell_formula_units_Z   2
loop_
 _symmetry_equiv_pos_site_id
 _symmetry_equiv_pos_as_xyz
  1  'x, y, z'
loop_
 _atom_site_type_symbol
 _atom_site_label
 _atom_site_symmetry_multiplicity
 _atom_site_fract_x
 _atom_site_fract_y
 _atom_site_fract_z
 _atom_site_occupancy
  Fe  Fe0  1  0.96079765  0.99135623  0.00165497  1
  Fe  Fe1  1  0.99290927  0.00707477  0.49771932  1
  Fe  Fe2  1  0.02501130  0.48335756  0.00161570  1
  Fe  Fe3  1  0.05877529  0.49796939  0.49818018  1
  Fe  Fe4  1  0.50568827  0.24619446  0.25019639  1
  Fe  Fe5  1  0.48212557  0.26206850  0.75105064  1
  Fe  Fe6  1  0.50948826  0.74517823  0.24941261  1
  Fe  Fe7  1  0.45548666  0.76766722  0.74955573  1
  O  O8  1  0.21742799  0.39981888  0.25257849  1
  O  O9  1  0.21156852  0.40428541  0.74908968  1
  O  O10  1  0.15810018  0.91139994  0.75001039  1
  O  O11  1  0.30118972  0.15473139  0.50188547  1
  O  O12  1  0.31169360  0.65255465  0.00489254  1
  O  O13  1  0.32557476  0.65743558  0.49595704  1
  O  O14  1  0.69785425  0.34227464  0.00177770  1
  O  O15  1  0.67422919  0.84389028  0.00088474  1
  O  O16  1  0.68287293  0.85149792  0.49688570  1
  O  O17  1  0.79986010  0.09270675  0.24939599  1
  F  F18  1  0.18735863  0.90124580  0.24696814  1
  F  F19  1  0.28635364  0.14653366  0.99824371  1
  F  F20  1  0.71771868  0.34952804  0.50050778  1
  F  F21  1  0.83138216  0.59044542  0.74475261  1
  F  F22  1  0.78355913  0.10562282  0.75234724  1
  F  F23  1  0.82297123  0.59516145  0.25443727  1
