# generated using pymatgen
data_LiMnF3
_symmetry_space_group_name_H-M   'P 1'
_cell_length_a   7.72487624
_cell_length_b   12.01624691
_cell_length_c   5.56543710
_cell_angle_alpha   90.00000000
_cell_angle_beta   76.88970348
_cell_angle_gamma   90.00000000
_symmetry_Int_Tables_number   1
_chemical_formula_structural   LiMnF3
_chemical_formula_sum   'Li8 Mn8 F24'
_cell_volume   503.14101817
_cell_formula_units_Z   8
loop_
 _symmetry_equiv_pos_site_id
 _symmetry_equiv_pos_as_xyz
  1  'x, y, z'
loop_
 _atom_site_type_symbol
 _atom_site_label
 _atom_site_symmetry_multiplicity
 _atom_site_fract_x
 _atom_site_fract_y
 _atom_site_fract_z
 _atom_site_occupancy
  Li  Li0  1  0.01508976  0.84185854  0.53873803  1
  Li  Li1  1  0.28211260  0.48304550  0.11830825  1
  Li  Li2  1  0.21788740  0.98304550  0.88169175  1
  Li  Li3  1  0.48491024  0.34185854  0.46126197  1
  Li  Li4  1  0.51508976  0.65814146  0.53873803  1
  Li  Li5  1  0.78211260  0.01695450  0.11830825  1
  Li  Li6  1  0.71788740  0.51695450  0.88169175  1
  Li  Li7  1  0.98491024  0.15814146  0.46126197  1
  Mn  Mn8  1  0.12082120  0.56234411  0.68159679  1
  Mn  Mn9  1  0.11294136  0.23877038  0.91248856  1
  Mn  Mn10  1  0.38705864  0.73877038  0.08751144  1
  Mn  Mn11  1  0.37917880  0.06234411  0.31840321  1
  Mn  Mn12  1  0.62082120  0.93765589  0.68159679  1
  Mn  Mn13  1  0.61294136  0.26122962  0.91248856  1
  Mn  Mn14  1  0.88705864  0.76122962  0.08751144  1
  Mn  Mn15  1  0.87917880  0.43765589  0.31840321  1
  F  F16  1  0.08134943  0.73554924  0.75085327  1
  F  F17  1  0.11801741  0.76941149  0.23158884  1
  F  F18  1  0.13555282  0.42878920  0.41533827  1
  F  F19  1  0.15986051  0.10295486  0.63510280  1
  F  F20  1  0.13508776  0.08827324  0.14355257  1
  F  F21  1  0.11278448  0.42006502  0.93359556  1
  F  F22  1  0.38721552  0.92006502  0.06640444  1
  F  F23  1  0.36491224  0.58827324  0.85644743  1
  F  F24  1  0.34013949  0.60295486  0.36489720  1
  F  F25  1  0.36444718  0.92878920  0.58466173  1
  F  F26  1  0.38198259  0.26941149  0.76841116  1
  F  F27  1  0.41865057  0.23554924  0.24914673  1
  F  F28  1  0.58134943  0.76445076  0.75085327  1
  F  F29  1  0.61801741  0.73058851  0.23158884  1
  F  F30  1  0.63555282  0.07121080  0.41533827  1
  F  F31  1  0.65986051  0.39704514  0.63510280  1
  F  F32  1  0.63508776  0.41172676  0.14355257  1
  F  F33  1  0.61278448  0.07993498  0.93359556  1
  F  F34  1  0.88721552  0.57993498  0.06640444  1
  F  F35  1  0.86491224  0.91172676  0.85644743  1
  F  F36  1  0.84013949  0.89704514  0.36489720  1
  F  F37  1  0.86444718  0.57121080  0.58466173  1
  F  F38  1  0.88198259  0.23058851  0.76841116  1
  F  F39  1  0.91865057  0.26445076  0.24914673  1
