# generated using pymatgen
data_Li6FeCo9O20
_symmetry_space_group_name_H-M   'P 1'
_cell_length_a   7.74288995
_cell_length_b   4.98589666
_cell_length_c   9.81604530
_cell_angle_alpha   85.80845187
_cell_angle_beta   81.11076712
_cell_angle_gamma   70.31131475
_symmetry_Int_Tables_number   1
_chemical_formula_structural   Li6FeCo9O20
_chemical_formula_sum   'Li6 Fe1 Co9 O20'
_cell_volume   352.42070143
_cell_formula_units_Z   1
loop_
 _symmetry_equiv_pos_site_id
 _symmetry_equiv_pos_as_xyz
  1  'x, y, z'
loop_
 _atom_site_type_symbol
 _atom_site_label
 _atom_site_symmetry_multiplicity
 _atom_site_fract_x
 _atom_site_fract_y
 _atom_site_fract_z
 _atom_site_occupancy
  Li  Li0  1  0.09955694  0.69567505  0.50211455  1
  Li  Li1  1  0.20044306  0.40432495  0.99788545  1
  Li  Li2  1  0.49594345  0.50413316  0.50088332  1
  Li  Li3  1  0.59812876  0.20419326  0.99857591  1
  Li  Li4  1  0.70187124  0.89580674  0.50142409  1
  Li  Li5  1  0.80405655  0.59586684  -0.00088332  1
  Fe  Fe6  1  0.15000000  0.05000000  0.25000000  1
  Co  Co7  1  0.05232056  0.35100898  0.74380130  1
  Co  Co8  1  0.34821976  0.45117379  0.25000534  1
  Co  Co9  1  0.24767944  0.74899102  0.75619870  1
  Co  Co10  1  0.45268456  0.15031604  0.74712910  1
  Co  Co11  1  0.54789573  0.85119780  0.24944660  1
  Co  Co12  1  0.75210427  0.24880220  0.25055340  1
  Co  Co13  1  0.65000000  0.55000000  0.75000000  1
  Co  Co14  1  0.95178024  0.64882621  0.24999466  1
  Co  Co15  1  0.84731544  0.94968396  0.75287090  1
  O  O16  1  0.06321697  0.00844078  0.65520453  1
  O  O17  1  0.13235238  0.39994425  0.35197776  1
  O  O18  1  0.16764762  0.70005575  0.14802224  1
  O  O19  1  0.01379462  0.66697498  0.85811238  1
  O  O20  1  0.23678303  0.09155922  0.84479547  1
  O  O21  1  0.36957788  0.14710114  0.14079310  1
  O  O22  1  0.28620538  0.43302502  0.64188762  1
  O  O23  1  0.32880937  0.75429040  0.35936493  1
  O  O24  1  0.52284408  0.18711897  0.35674124  1
  O  O25  1  0.42162944  0.46214518  0.85605932  1
  O  O26  1  0.56266584  0.52109100  0.14261314  1
  O  O27  1  0.48977228  0.82122961  0.64367240  1
  O  O28  1  0.66529725  0.20958638  0.64529268  1
  O  O29  1  0.73733416  0.57890900  0.35738686  1
  O  O30  1  0.77715592  0.91288103  0.14325876  1
  O  O31  1  0.63470275  0.89041362  0.85470732  1
  O  O32  1  0.97119063  0.34570960  0.14063507  1
  O  O33  1  0.81022772  0.27877039  0.85632760  1
  O  O34  1  0.87837056  0.63785482  0.64394068  1
  O  O35  1  0.93042212  0.95289886  0.35920590  1
