# generated using pymatgen
data_Li2VO2F
_symmetry_space_group_name_H-M   'P 1'
_cell_length_a   6.02253818
_cell_length_b   5.20720926
_cell_length_c   7.94542792
_cell_angle_alpha   90.16569572
_cell_angle_beta   67.72546762
_cell_angle_gamma   90.00211649
_symmetry_Int_Tables_number   1
_chemical_formula_structural   Li2VO2F
_chemical_formula_sum   'Li8 V4 O8 F4'
_cell_volume   230.57865037
_cell_formula_units_Z   4
loop_
 _symmetry_equiv_pos_site_id
 _symmetry_equiv_pos_as_xyz
  1  'x, y, z'
loop_
 _atom_site_type_symbol
 _atom_site_label
 _atom_site_symmetry_multiplicity
 _atom_site_fract_x
 _atom_site_fract_y
 _atom_site_fract_z
 _atom_site_occupancy
  Li  Li0  1  0.19091771  0.85095589  0.13499889  1
  Li  Li1  1  0.43024101  0.29906046  0.13943184  1
  Li  Li2  1  0.07749515  0.66380368  0.84500607  1
  Li  Li3  1  0.67395260  0.85094307  0.13498609  1
  Li  Li4  1  0.34440729  0.15648278  0.85624826  1
  Li  Li5  1  0.92283916  0.33799571  0.15420331  1
  Li  Li6  1  0.56931500  0.68485304  0.86122243  1
  Li  Li7  1  0.79926592  0.15642813  0.85627944  1
  V  V8  1  0.99127221  0.49543076  0.50667878  1
  V  V9  1  0.24813355  0.01376832  0.50379647  1
  V  V10  1  0.50213809  0.49542970  0.50665420  1
  V  V11  1  0.74933450  0.99580557  0.50141133  1
  O  O12  1  0.07411373  0.17118893  0.35356850  1
  O  O13  1  0.17458126  0.34805787  0.65093903  1
  O  O14  1  0.49925768  0.99441393  0.00137372  1
  O  O15  1  0.41982908  0.83117511  0.64408092  1
  O  O16  1  0.57241996  0.17119018  0.35354888  1
  O  O17  1  0.67301689  0.32432182  0.65403546  1
  O  O18  1  0.82305507  0.65841460  0.35401321  1
  O  O19  1  0.93615007  0.83116743  0.64410647  1
  F  F20  1  0.00056578  0.00062533  0.99870830  1
  F  F21  1  0.24153223  0.50042315  0.00286999  1
  F  F22  1  0.33059531  0.66763249  0.33897228  1
  F  F23  1  0.75553077  0.50043304  0.00286514  1
