# generated using pymatgen
data_LiCo2(CO3)4
_symmetry_space_group_name_H-M   'P 1'
_cell_length_a   7.45583942
_cell_length_b   9.55086767
_cell_length_c   9.19569073
_cell_angle_alpha   90.00000000
_cell_angle_beta   120.22559535
_cell_angle_gamma   90.00000000
_symmetry_Int_Tables_number   1
_chemical_formula_structural   LiCo2(CO3)4
_chemical_formula_sum   'Li2 Co4 C8 O24'
_cell_volume   565.79956222
_cell_formula_units_Z   2
loop_
 _symmetry_equiv_pos_site_id
 _symmetry_equiv_pos_as_xyz
  1  'x, y, z'
loop_
 _atom_site_type_symbol
 _atom_site_label
 _atom_site_symmetry_multiplicity
 _atom_site_fract_x
 _atom_site_fract_y
 _atom_site_fract_z
 _atom_site_occupancy
  Li  Li0  1  0.36116791  0.91314115  0.35862118  1
  Li  Li1  1  0.63883209  0.41314115  0.14137882  1
  Co  Co2  1  0.50229496  0.13464115  0.92712432  1
  Co  Co3  1  0.49770504  0.63464115  0.57287568  1
  Co  Co4  1  0.47208323  0.35364223  0.43249766  1
  Co  Co5  1  0.52791677  0.85364223  0.06750234  1
  C  C6  1  0.12600165  0.97357311  0.86791409  1
  C  C7  1  0.09454248  0.50088730  0.35126305  1
  C  C8  1  0.51259400  0.39971417  0.76784728  1
  C  C9  1  0.48740600  0.89971417  0.73215272  1
  C  C10  1  0.51595336  0.12005484  0.24610057  1
  C  C11  1  0.48404664  0.62005484  0.25389943  1
  C  C12  1  0.87399835  0.47357311  0.63208591  1
  C  C13  1  0.90545752  0.00088730  0.14873695  1
  O  O14  1  0.22820063  0.08469563  0.86728236  1
  O  O15  1  0.21960418  0.85892002  0.94230330  1
  O  O16  1  0.06891251  0.47890138  0.70494077  1
  O  O17  1  0.18548820  0.39992384  0.31504535  1
  O  O18  1  0.20947547  0.59750157  0.46143327  1
  O  O19  1  0.09833959  0.00661769  0.21649931  1
  O  O20  1  0.52135001  0.33772649  0.89667315  1
  O  O21  1  0.45699881  0.03179580  0.72431335  1
  O  O22  1  0.52777586  0.82414664  0.86256965  1
  O  O23  1  0.47222414  0.32414664  0.63743035  1
  O  O24  1  0.54300119  0.53179580  0.77568665  1
  O  O25  1  0.47864999  0.83772649  0.60332685  1
  O  O26  1  0.49576030  0.16079864  0.37076127  1
  O  O27  1  0.49785607  0.48492188  0.27793666  1
  O  O28  1  0.45713418  0.70758846  0.34698074  1
  O  O29  1  0.54286582  0.20758846  0.15301926  1
  O  O30  1  0.50214393  0.98492188  0.22206334  1
  O  O31  1  0.50423970  0.66079864  0.12923873  1
  O  O32  1  0.93108749  0.97890138  0.79505923  1
  O  O33  1  0.78039582  0.35892002  0.55769670  1
  O  O34  1  0.77179937  0.58469563  0.63271764  1
  O  O35  1  0.90166041  0.50661769  0.28350069  1
  O  O36  1  0.79052453  0.09750157  0.03856673  1
  O  O37  1  0.81451180  0.89992384  0.18495465  1
