# generated using pymatgen
data_Co6O5F7
_symmetry_space_group_name_H-M   'P 1'
_cell_length_a   4.64046213
_cell_length_b   4.65976213
_cell_length_c   9.17507796
_cell_angle_alpha   90.00000000
_cell_angle_beta   90.00000000
_cell_angle_gamma   93.87447717
_symmetry_Int_Tables_number   1
_chemical_formula_structural   Co6O5F7
_chemical_formula_sum   'Co6 O5 F7'
_cell_volume   197.94339627
_cell_formula_units_Z   1
loop_
 _symmetry_equiv_pos_site_id
 _symmetry_equiv_pos_as_xyz
  1  'x, y, z'
loop_
 _atom_site_type_symbol
 _atom_site_label
 _atom_site_symmetry_multiplicity
 _atom_site_fract_x
 _atom_site_fract_y
 _atom_site_fract_z
 _atom_site_occupancy
  Co  Co0  1  0.98998647  0.98979984  0.00000000  1
  Co  Co1  1  0.03365982  0.01454356  0.33993536  1
  Co  Co2  1  0.03365982  0.01454356  0.66006464  1
  Co  Co3  1  0.49497212  0.48763371  0.15819034  1
  Co  Co4  1  0.49497212  0.48763371  0.84180966  1
  Co  Co5  1  0.45608331  0.50644350  0.50000000  1
  O  O6  1  0.19132251  0.81686633  0.50000000  1
  O  O7  1  0.30634647  0.30931529  0.32169298  1
  O  O8  1  0.30681743  0.29961144  0.00000000  1
  O  O9  1  0.30634647  0.30931529  0.67830702  1
  O  O10  1  0.68437732  0.67199857  0.00000000  1
  F  F11  1  0.19467258  0.79845781  0.16851679  1
  F  F12  1  0.19467258  0.79845781  0.83148321  1
  F  F13  1  0.70156267  0.70679977  0.67693540  1
  F  F14  1  0.70156267  0.70679977  0.32306460  1
  F  F15  1  0.80442138  0.18839706  0.17054928  1
  F  F16  1  0.80442138  0.18839706  0.82945172  1
  F  F17  1  0.80014388  0.20498492  0.50000000  1
