# generated using pymatgen
data_Li2Co(Si2O5)2
_symmetry_space_group_name_H-M   'P 1'
_cell_length_a   11.06458860
_cell_length_b   7.73111954
_cell_length_c   11.18262848
_cell_angle_alpha   90.00000000
_cell_angle_beta   110.82315616
_cell_angle_gamma   90.00000000
_symmetry_Int_Tables_number   1
_chemical_formula_structural   Li2Co(Si2O5)2
_chemical_formula_sum   'Li8 Co4 Si16 O40'
_cell_volume   894.09872078
_cell_formula_units_Z   4
loop_
 _symmetry_equiv_pos_site_id
 _symmetry_equiv_pos_as_xyz
  1  'x, y, z'
loop_
 _atom_site_type_symbol
 _atom_site_label
 _atom_site_symmetry_multiplicity
 _atom_site_fract_x
 _atom_site_fract_y
 _atom_site_fract_z
 _atom_site_occupancy
  Li  Li0  1  0.09145712  0.25000000  0.39535954  1
  Li  Li1  1  0.02441570  0.25000000  0.10810028  1
  Li  Li2  1  0.35954417  0.25000000  0.86702021  1
  Li  Li3  1  0.37852324  0.25000000  0.44650306  1
  Li  Li4  1  0.62147676  0.75000000  0.55349694  1
  Li  Li5  1  0.64045583  0.75000000  0.13297979  1
  Li  Li6  1  0.97558430  0.75000000  0.89189972  1
  Li  Li7  1  0.90854288  0.75000000  0.60464046  1
  Co  Co8  1  0.21022457  0.02320452  0.27713726  1
  Co  Co9  1  0.21022457  0.47679548  0.27713726  1
  Co  Co10  1  0.78977543  0.52320452  0.72286274  1
  Co  Co11  1  0.78977543  0.97679548  0.72286274  1
  Si  Si12  1  0.09055845  0.04804372  0.74293587  1
  Si  Si13  1  0.09055845  0.45195628  0.74293587  1
  Si  Si14  1  0.26081993  0.95425263  0.58660951  1
  Si  Si15  1  0.26081993  0.54574737  0.58660951  1
  Si  Si16  1  0.24180970  0.55057009  0.01234439  1
  Si  Si17  1  0.24180970  0.94942991  0.01234439  1
  Si  Si18  1  0.52915478  0.55448205  0.77518268  1
  Si  Si19  1  0.52915478  0.94551795  0.77518268  1
  Si  Si20  1  0.47084522  0.05448205  0.22481732  1
  Si  Si21  1  0.47084522  0.44551795  0.22481732  1
  Si  Si22  1  0.75819030  0.05057009  0.98765561  1
  Si  Si23  1  0.75819030  0.44942991  0.98765561  1
  Si  Si24  1  0.73918007  0.04574737  0.41339049  1
  Si  Si25  1  0.73918007  0.45425263  0.41339049  1
  Si  Si26  1  0.90944155  0.54804372  0.25706413  1
  Si  Si27  1  0.90944155  0.95195628  0.25706413  1
  O  O28  1  0.04825831  0.25000000  0.70623886  1
  O  O29  1  0.22236547  0.05475902  0.87651367  1
  O  O30  1  0.22236547  0.44524098  0.87651367  1
  O  O31  1  0.18957389  0.75000000  0.96980326  1
  O  O32  1  0.13295354  0.53417002  0.62843003  1
  O  O33  1  0.13295354  0.96582998  0.62843003  1
  O  O34  1  0.02359035  0.06767304  0.24338804  1
  O  O35  1  0.02359035  0.43232696  0.24338804  1
  O  O36  1  0.28895345  0.75000000  0.56422765  1
  O  O37  1  0.24107506  0.06996882  0.46215361  1
  O  O38  1  0.24107506  0.43003118  0.46215361  1
  O  O39  1  0.16403395  0.03943724  0.09190824  1
  O  O40  1  0.16403395  0.46056276  0.09190824  1
  O  O41  1  0.38269266  0.46914071  0.71206908  1
  O  O42  1  0.38269266  0.03085929  0.71206908  1
  O  O43  1  0.51444498  0.75000000  0.82694858  1
  O  O44  1  0.60052291  0.05894295  0.90721701  1
  O  O45  1  0.60052291  0.44105705  0.90721701  1
  O  O46  1  0.39687776  0.05070888  0.32520940  1
  O  O47  1  0.39687776  0.44929112  0.32520940  1
  O  O48  1  0.60312224  0.55070888  0.67479060  1
  O  O49  1  0.60312224  0.94929112  0.67479060  1
  O  O50  1  0.39947709  0.55894295  0.09278299  1
  O  O51  1  0.39947709  0.94105705  0.09278299  1
  O  O52  1  0.48555502  0.25000000  0.17305142  1
  O  O53  1  0.61730734  0.53085929  0.28793092  1
  O  O54  1  0.61730734  0.96914071  0.28793092  1
  O  O55  1  0.83596605  0.96056276  0.90809176  1
  O  O56  1  0.83596605  0.53943724  0.90809176  1
  O  O57  1  0.75892494  0.56996882  0.53784639  1
  O  O58  1  0.75892494  0.93003118  0.53784639  1
  O  O59  1  0.71104655  0.25000000  0.43577235  1
  O  O60  1  0.97640965  0.56767304  0.75661196  1
  O  O61  1  0.97640965  0.93232696  0.75661196  1
  O  O62  1  0.86704646  0.03417002  0.37156997  1
  O  O63  1  0.86704646  0.46582998  0.37156997  1
  O  O64  1  0.81042611  0.25000000  0.03019674  1
  O  O65  1  0.77763453  0.55475902  0.12348633  1
  O  O66  1  0.77763453  0.94524098  0.12348633  1
  O  O67  1  0.95174169  0.75000000  0.29376114  1
