# generated using pymatgen
data_LiMnF3
_symmetry_space_group_name_H-M   'P 1'
_cell_length_a   5.32011742
_cell_length_b   5.32700008
_cell_length_c   15.38592212
_cell_angle_alpha   90.29524212
_cell_angle_beta   89.98564151
_cell_angle_gamma   119.92296397
_symmetry_Int_Tables_number   1
_chemical_formula_structural   LiMnF3
_chemical_formula_sum   'Li6 Mn6 F18'
_cell_volume   377.90911356
_cell_formula_units_Z   6
loop_
 _symmetry_equiv_pos_site_id
 _symmetry_equiv_pos_as_xyz
  1  'x, y, z'
loop_
 _atom_site_type_symbol
 _atom_site_label
 _atom_site_symmetry_multiplicity
 _atom_site_fract_x
 _atom_site_fract_y
 _atom_site_fract_z
 _atom_site_occupancy
  Li  Li0  1  0.99909993  0.00087893  0.32998206  1
  Li  Li1  1  0.66530291  0.33117422  0.05475319  1
  Li  Li2  1  0.99530112  0.99863769  0.17612297  1
  Li  Li3  1  0.00470355  0.00136797  0.82387234  1
  Li  Li4  1  0.33469941  0.66883725  0.94525468  1
  Li  Li5  1  0.00089534  0.99913787  0.67001108  1
  Mn  Mn6  1  0.67032806  0.33436826  0.81732425  1
  Mn  Mn7  1  0.66498680  0.33378741  0.34072900  1
  Mn  Mn8  1  0.33502317  0.66623291  0.65926178  1
  Mn  Mn9  1  0.00003520  0.00002117  0.00000318  1
  Mn  Mn10  1  -0.00000353  0.99997787  0.50001237  1
  Mn  Mn11  1  0.32965420  0.66561033  0.18267955  1
  F  F12  1  0.97991452  0.31390953  0.91959366  1
  F  F13  1  0.98382310  0.30429236  0.23898122  1
  F  F14  1  0.71946116  0.02683949  0.40220111  1
  F  F15  1  0.68673995  0.98739152  0.76078386  1
  F  F16  1  0.97639141  0.69649677  0.40123936  1
  F  F17  1  0.68824393  0.66714721  0.91840443  1
  F  F18  1  0.31326800  0.01261794  0.23920767  1
  F  F19  1  0.69516023  0.71841171  0.59719651  1
  F  F20  1  0.33658183  0.02393540  0.91954124  1
  F  F21  1  0.69308965  0.68434390  0.23925066  1
  F  F22  1  0.30691921  0.31565357  0.76074736  1
  F  F23  1  0.66340310  0.97604758  0.08045920  1
  F  F24  1  0.30484544  0.28158766  0.40279973  1
  F  F25  1  0.31174074  0.33284335  0.08160369  1
  F  F26  1  0.02362211  0.30349940  0.59875363  1
  F  F27  1  0.28052513  0.97315216  0.59779851  1
  F  F28  1  0.01617574  0.69570345  0.76101655  1
  F  F29  1  0.02009061  0.68610114  0.08041313  1
