# generated using pymatgen
data_Li4Ti3Nb3Cr2O16
_symmetry_space_group_name_H-M   'P 1'
_cell_length_a   6.00364091
_cell_length_b   5.96545256
_cell_length_c   9.93942957
_cell_angle_alpha   90.03250334
_cell_angle_beta   89.46930219
_cell_angle_gamma   119.76577179
_symmetry_Int_Tables_number   1
_chemical_formula_structural   Li4Ti3Nb3Cr2O16
_chemical_formula_sum   'Li4 Ti3 Nb3 Cr2 O16'
_cell_volume   308.99189755
_cell_formula_units_Z   1
loop_
 _symmetry_equiv_pos_site_id
 _symmetry_equiv_pos_as_xyz
  1  'x, y, z'
loop_
 _atom_site_type_symbol
 _atom_site_label
 _atom_site_symmetry_multiplicity
 _atom_site_fract_x
 _atom_site_fract_y
 _atom_site_fract_z
 _atom_site_occupancy
  Li  Li0  1  0.33182489  0.66604712  0.89968721  1
  Li  Li1  1  0.02306435  0.01122711  0.99338060  1
  Li  Li2  1  0.01260311  0.00644127  0.49698453  1
  Li  Li3  1  0.66218973  0.33098831  0.39110101  1
  Ti  Ti4  1  0.16948257  0.83123997  0.21666414  1
  Ti  Ti5  1  0.16977494  0.33786247  0.21637875  1
  Ti  Ti6  1  0.33006573  0.16516705  0.71830266  1
  Nb  Nb7  1  0.66732842  0.83357283  0.21138857  1
  Nb  Nb8  1  0.82811160  0.64058675  0.70982704  1
  Nb  Nb9  1  0.82790722  0.18756453  0.70975918  1
  Cr  Cr10  1  0.33884075  0.66936812  0.48370193  1
  Cr  Cr11  1  0.66462514  0.33208644  0.98936535  1
  O  O12  1  0.16324242  0.83254638  0.60228676  1
  O  O13  1  0.04280355  0.52167860  0.33486105  1
  O  O14  1  0.32969883  0.66475882  0.10452233  1
  O  O15  1  0.01164128  0.00627543  0.31635026  1
  O  O16  1  0.00152712  0.00068467  0.81227309  1
  O  O17  1  0.16300751  0.33089285  0.60205853  1
  O  O18  1  0.47894763  0.96086267  0.33876739  1
  O  O19  1  0.47938042  0.51824550  0.33846373  1
  O  O20  1  0.32637136  0.16311984  0.10728008  1
  O  O21  1  0.67363408  0.83695416  0.59580665  1
  O  O22  1  0.51187925  0.47752116  0.83421699  1
  O  O23  1  0.51179778  0.03438744  0.83470216  1
  O  O24  1  0.62519610  0.31309227  0.58816716  1
  O  O25  1  0.84419314  0.67839494  0.10376977  1
  O  O26  1  0.96667589  0.48313920  0.85369218  1
  O  O27  1  0.84418620  0.16559409  0.10408091  1
