# generated using pymatgen
data_Li2VO2F
_symmetry_space_group_name_H-M   'P 1'
_cell_length_a   3.01555676
_cell_length_b   13.10317952
_cell_length_c   7.35729602
_cell_angle_alpha   90.22924719
_cell_angle_beta   89.99019277
_cell_angle_gamma   96.60011395
_symmetry_Int_Tables_number   1
_chemical_formula_structural   Li2VO2F
_chemical_formula_sum   'Li10 V5 O10 F5'
_cell_volume   288.78264074
_cell_formula_units_Z   5
loop_
 _symmetry_equiv_pos_site_id
 _symmetry_equiv_pos_as_xyz
  1  'x, y, z'
loop_
 _atom_site_type_symbol
 _atom_site_label
 _atom_site_symmetry_multiplicity
 _atom_site_fract_x
 _atom_site_fract_y
 _atom_site_fract_z
 _atom_site_occupancy
  Li  Li0  1  0.46936325  0.94226737  0.14108395  1
  Li  Li1  1  0.07347816  0.14008605  0.16020154  1
  Li  Li2  1  0.26786732  0.53902804  0.13071763  1
  Li  Li3  1  0.32011825  0.64443440  0.86703465  1
  Li  Li4  1  0.13596388  0.27000562  0.84033866  1
  Li  Li5  1  0.67203980  0.33939403  0.15797240  1
  Li  Li6  1  0.84950260  0.71335884  0.14071474  1
  Li  Li7  1  0.92613270  0.85730274  0.85103066  1
  Li  Li8  1  0.53771842  0.07375268  0.84364891  1
  Li  Li9  1  0.73712801  0.47495920  0.85642730  1
  V  V10  1  0.00941397  0.00567187  0.50650597  1
  V  V11  1  0.20613368  0.39700205  0.49947730  1
  V  V12  1  0.41289933  0.79271249  0.51681257  1
  V  V13  1  0.59546208  0.20011214  0.49865063  1
  V  V14  1  0.79816042  0.59698868  0.49967930  1
  O  O15  1  0.48433858  0.93207129  0.63906186  1
  O  O16  1  0.26673593  0.53119667  0.64445167  1
  O  O17  1  0.05176306  0.13176959  0.65645729  1
  O  O18  1  0.14130138  0.26228906  0.34669371  1
  O  O19  1  0.33425354  0.67137043  0.35621029  1
  O  O20  1  0.67363884  0.32837041  0.65203358  1
  O  O21  1  0.87351743  0.73604156  0.65426711  1
  O  O22  1  0.73459358  0.46144010  0.35410526  1
  O  O23  1  0.52232721  0.06476807  0.34610034  1
  O  O24  1  0.79647563  0.59597225  0.00031112  1
  F  F25  1  0.00146724  0.00244083  0.99861048  1
  F  F26  1  0.19632532  0.38917252  0.00034515  1
  F  F27  1  0.40535699  0.81294772  0.00757638  1
  F  F28  1  0.94835874  0.86849634  0.33975714  1
  F  F29  1  0.60104566  0.19665094  0.00161140  1
