# generated using pymatgen
data_Li9Cr4(BO3)8
_symmetry_space_group_name_H-M   'P 1'
_cell_length_a   8.94388988
_cell_length_b   6.03887758
_cell_length_c   9.46049152
_cell_angle_alpha   88.99489782
_cell_angle_beta   65.62891844
_cell_angle_gamma   89.37733534
_symmetry_Int_Tables_number   1
_chemical_formula_structural   Li9Cr4(BO3)8
_chemical_formula_sum   'Li9 Cr4 B8 O24'
_cell_volume   465.36423805
_cell_formula_units_Z   1
loop_
 _symmetry_equiv_pos_site_id
 _symmetry_equiv_pos_as_xyz
  1  'x, y, z'
loop_
 _atom_site_type_symbol
 _atom_site_label
 _atom_site_symmetry_multiplicity
 _atom_site_fract_x
 _atom_site_fract_y
 _atom_site_fract_z
 _atom_site_occupancy
  Li  Li0  1  0.85363336  0.74862758  0.91391299  1
  Li  Li1  1  0.87246243  0.78071766  0.42616005  1
  Li  Li2  1  0.69771997  0.57107197  0.32679305  1
  Li  Li3  1  0.61677211  0.23842707  0.51369830  1
  Li  Li4  1  0.39625326  0.74498061  0.98892363  1
  Li  Li5  1  0.62110695  0.22554594  0.00255108  1
  Li  Li6  1  0.29449163  0.45241148  0.65914758  1
  Li  Li7  1  0.13166914  0.20784997  0.57333395  1
  Li  Li8  1  0.27546915  0.08082945  0.16294032  1
  Cr  Cr9  1  0.76964227  0.46665125  0.71777087  1
  Cr  Cr10  1  0.76992461  0.03273941  0.21950384  1
  Cr  Cr11  1  0.23866406  0.95399166  0.77645666  1
  Cr  Cr12  1  0.23834353  0.53424949  0.27900791  1
  B  B13  1  0.94846766  0.28374698  0.91979278  1
  B  B14  1  0.94674599  0.21592844  0.42324600  1
  B  B15  1  0.54883543  0.66313693  0.68660122  1
  B  B16  1  0.45614773  0.15865193  0.81040784  1
  B  B17  1  0.54414721  0.84618222  0.19690923  1
  B  B18  1  0.45267959  0.32622347  0.31246851  1
  B  B19  1  0.05897515  0.77697825  0.57524095  1
  B  B20  1  0.05389610  0.72265806  0.08166762  1
  O  O21  1  0.82352408  0.40109056  0.90158635  1
  O  O22  1  0.91030808  0.71244877  0.69190243  1
  O  O23  1  0.91531092  0.27191883  0.57785231  1
  O  O24  1  0.82659474  0.09847968  0.40133903  1
  O  O25  1  0.89864721  0.75757315  0.20231231  1
  O  O26  1  0.59900156  0.23149756  0.80956205  1
  O  O27  1  0.91375062  0.22097592  0.07383200  1
  O  O28  1  0.58495168  0.66581513  0.81512969  1
  O  O29  1  0.67808363  0.56857949  0.55752438  1
  O  O30  1  0.33714162  0.03636517  0.92853836  1
  O  O31  1  0.60400067  0.28553516  0.31482441  1
  O  O32  1  0.41440075  0.18123654  0.68321408  1
  O  O33  1  0.57850796  0.84353443  0.32779915  1
  O  O34  1  0.39756845  0.71702906  0.69243459  1
  O  O35  1  0.67858847  0.93854332  0.07028699  1
  O  O36  1  0.31936315  0.40776404  0.43962930  1
  O  O37  1  0.42719930  0.31401530  0.17754494  1
  O  O38  1  0.06897946  0.79650618  0.93285105  1
  O  O39  1  0.40317529  0.78588846  0.18858578  1
  O  O40  1  0.09762939  0.23728984  0.80175705  1
  O  O41  1  0.16827575  0.89623164  0.61174787  1
  O  O42  1  0.08072099  0.73477889  0.42624291  1
  O  O43  1  0.09632892  0.26585661  0.31256220  1
  O  O44  1  0.18031899  0.62770243  0.10221141  1
