# generated using pymatgen
data_CrH10S2(NO2)4
_symmetry_space_group_name_H-M   'P 1'
_cell_length_a   7.34797812
_cell_length_b   5.53645918
_cell_length_c   5.80444030
_cell_angle_alpha   97.49830152
_cell_angle_beta   91.81301841
_cell_angle_gamma   103.36728003
_symmetry_Int_Tables_number   1
_chemical_formula_structural   CrH10S2(NO2)4
_chemical_formula_sum   'Cr1 H10 S2 N4 O8'
_cell_volume   227.30498706
_cell_formula_units_Z   1
loop_
 _symmetry_equiv_pos_site_id
 _symmetry_equiv_pos_as_xyz
  1  'x, y, z'
loop_
 _atom_site_type_symbol
 _atom_site_label
 _atom_site_symmetry_multiplicity
 _atom_site_fract_x
 _atom_site_fract_y
 _atom_site_fract_z
 _atom_site_occupancy
  Cr  Cr0  1  0.00000000  0.00000000  0.00000000  1
  H  H1  1  0.26849754  0.91719611  0.70890313  1
  H  H2  1  0.16921389  0.24402826  0.55495644  1
  H  H3  1  0.28547016  0.44341286  0.78926872  1
  H  H4  1  0.37583364  0.12329644  0.92908967  1
  H  H5  1  0.40750344  0.29210844  0.59659407  1
  H  H6  1  0.59249656  0.70789156  0.40340593  1
  H  H7  1  0.62416636  0.87670356  0.07091033  1
  H  H8  1  0.71452984  0.55658714  0.21073128  1
  H  H9  1  0.83078611  0.75597174  0.44504356  1
  H  H10  1  0.73150246  0.08280389  0.29109687  1
  S  S11  1  0.22660118  0.65579298  0.25088785  1
  S  S12  1  0.77339882  0.34420702  0.74911215  1
  N  N13  1  0.28034018  0.27638993  0.67767579  1
  N  N14  1  0.25655064  0.07521718  0.81876528  1
  N  N15  1  0.74344936  0.92478282  0.18123472  1
  N  N16  1  0.71965982  0.72361007  0.32232421  1
  O  O17  1  0.11998686  0.86093599  0.26790300  1
  O  O18  1  0.09402278  0.40844745  0.23970848  1
  O  O19  1  0.35515927  0.70688492  0.46587297  1
  O  O20  1  0.33911206  0.67063138  0.04148996  1
  O  O21  1  0.66088794  0.32936862  0.95851004  1
  O  O22  1  0.64484073  0.29311508  0.53412703  1
  O  O23  1  0.90597722  0.59155255  0.76029152  1
  O  O24  1  0.88001314  0.13906401  0.73209700  1
