# generated using pymatgen
data_LiV(PO3)3
_symmetry_space_group_name_H-M   'P 1'
_cell_length_a   10.74898431
_cell_length_b   12.02187653
_cell_length_c   5.36107859
_cell_angle_alpha   90.00000000
_cell_angle_beta   90.00000000
_cell_angle_gamma   90.00000000
_symmetry_Int_Tables_number   1
_chemical_formula_structural   LiV(PO3)3
_chemical_formula_sum   'Li4 V4 P12 O36'
_cell_volume   692.77445597
_cell_formula_units_Z   4
loop_
 _symmetry_equiv_pos_site_id
 _symmetry_equiv_pos_as_xyz
  1  'x, y, z'
loop_
 _atom_site_type_symbol
 _atom_site_label
 _atom_site_symmetry_multiplicity
 _atom_site_fract_x
 _atom_site_fract_y
 _atom_site_fract_z
 _atom_site_occupancy
  Li  Li0  1  0.11244386  0.08673427  0.10960023  1
  Li  Li1  1  0.38755614  0.91326573  0.60960023  1
  Li  Li2  1  0.61244386  0.41326573  0.89039977  1
  Li  Li3  1  0.88755614  0.58673427  0.39039977  1
  V  V4  1  0.03464101  0.86929168  0.59791028  1
  V  V5  1  0.46535899  0.13070832  0.09791028  1
  V  V6  1  0.53464101  0.63070832  0.40208972  1
  V  V7  1  0.96535899  0.36929168  0.90208972  1
  P  P8  1  0.07347953  0.62606091  0.88178048  1
  P  P9  1  0.15286099  0.36155806  0.39910815  1
  P  P10  1  0.19489400  0.82151886  0.08232007  1
  P  P11  1  0.30510600  0.17848114  0.58232007  1
  P  P12  1  0.34713901  0.63844194  0.89910815  1
  P  P13  1  0.42652047  0.37393909  0.38178048  1
  P  P14  1  0.57347953  0.87393909  0.11821952  1
  P  P15  1  0.65286099  0.13844194  0.60089185  1
  P  P16  1  0.69489400  0.67848114  0.91767993  1
  P  P17  1  0.80510600  0.32151886  0.41767993  1
  P  P18  1  0.84713901  0.86155806  0.10089185  1
  P  P19  1  0.92652047  0.12606091  0.61821952  1
  O  O20  1  0.01189327  0.04374273  0.49278989  1
  O  O21  1  0.03676045  0.67615866  0.63410411  1
  O  O22  1  0.06340033  0.42837018  0.55298448  1
  O  O23  1  0.08739078  0.72749460  0.08000562  1
  O  O24  1  0.11794829  0.32434030  0.14106143  1
  O  O25  1  0.19198363  0.89285769  0.85012736  1
  O  O26  1  0.18784791  0.87785841  0.33131132  1
  O  O27  1  0.18211739  0.25345252  0.57203219  1
  O  O28  1  0.21346334  0.57595737  0.88551757  1
  O  O29  1  0.28653666  0.42404263  0.38551757  1
  O  O30  1  0.31788261  0.74654748  0.07203219  1
  O  O31  1  0.31215209  0.12214159  0.83131132  1
  O  O32  1  0.30801637  0.10714231  0.35012736  1
  O  O33  1  0.38205171  0.67565970  0.64106143  1
  O  O34  1  0.41260922  0.27250540  0.58000562  1
  O  O35  1  0.43659967  0.57162982  0.05298448  1
  O  O36  1  0.46323955  0.32384134  0.13410411  1
  O  O37  1  0.48810673  0.95625727  0.99278989  1
  O  O38  1  0.51189327  0.45625727  0.50721011  1
  O  O39  1  0.53676045  0.82384134  0.36589589  1
  O  O40  1  0.56340033  0.07162982  0.44701552  1
  O  O41  1  0.58739078  0.77250540  0.91999438  1
  O  O42  1  0.61794829  0.17565970  0.85893857  1
  O  O43  1  0.69198363  0.60714231  0.14987264  1
  O  O44  1  0.68784691  0.62214159  0.66868868  1
  O  O45  1  0.68211739  0.24654748  0.42796781  1
  O  O46  1  0.71346334  0.92404263  0.11448243  1
  O  O47  1  0.78653666  0.07595737  0.61448243  1
  O  O48  1  0.81788261  0.75345252  0.92796781  1
  O  O49  1  0.81215309  0.37785841  0.16868868  1
  O  O50  1  0.80801637  0.39285769  0.64987264  1
  O  O51  1  0.88205171  0.82434030  0.35893857  1
  O  O52  1  0.91260922  0.22749460  0.41999438  1
  O  O53  1  0.93659967  0.92837018  0.94701552  1
  O  O54  1  0.96323955  0.17615866  0.86589589  1
  O  O55  1  0.98810673  0.54374273  0.00721011  1
