# generated using pymatgen
data_Li2VO2F
_symmetry_space_group_name_H-M   'P 1'
_cell_length_a   4.11552771
_cell_length_b   3.99763094
_cell_length_c   6.96287889
_cell_angle_alpha   90.00000000
_cell_angle_beta   72.81047421
_cell_angle_gamma   90.00000000
_symmetry_Int_Tables_number   1
_chemical_formula_structural   Li2VO2F
_chemical_formula_sum   'Li4 V2 O4 F2'
_cell_volume   109.43886444
_cell_formula_units_Z   2
loop_
 _symmetry_equiv_pos_site_id
 _symmetry_equiv_pos_as_xyz
  1  'x, y, z'
loop_
 _atom_site_type_symbol
 _atom_site_label
 _atom_site_symmetry_multiplicity
 _atom_site_fract_x
 _atom_site_fract_y
 _atom_site_fract_z
 _atom_site_occupancy
  Li  Li0  1  0.00229942  0.00000000  0.99540215  1
  Li  Li1  1  0.33103458  0.00000000  0.33793185  1
  Li  Li2  1  0.66666700  0.00000000  0.66666700  1
  Li  Li3  1  0.16666700  0.50000000  0.66666700  1
  V  V4  1  0.49864065  0.50000000  0.00271769  1
  V  V5  1  0.83469235  0.50000000  0.33061531  1
  O  O6  1  0.51008270  0.00000000  0.97983559  1
  O  O7  1  0.99149070  0.50000000  0.01701861  1
  O  O8  1  0.82325130  0.00000000  0.35349841  1
  O  O9  1  0.34184230  0.50000000  0.31631539  1
  F  F10  1  0.16666700  0.00000000  0.66666700  1
  F  F11  1  0.66666700  0.50000000  0.66666700  1
