# generated using pymatgen
data_Li2Mn3SbO8
_symmetry_space_group_name_H-M   'P 1'
_cell_length_a   6.11876348
_cell_length_b   6.07928477
_cell_length_c   6.10732670
_cell_angle_alpha   62.16550543
_cell_angle_beta   120.78419509
_cell_angle_gamma   117.88997100
_symmetry_Int_Tables_number   1
_chemical_formula_structural   Li2Mn3SbO8
_chemical_formula_sum   'Li2 Mn3 Sb1 O8'
_cell_volume   164.57481672
_cell_formula_units_Z   1
loop_
 _symmetry_equiv_pos_site_id
 _symmetry_equiv_pos_as_xyz
  1  'x, y, z'
loop_
 _atom_site_type_symbol
 _atom_site_label
 _atom_site_symmetry_multiplicity
 _atom_site_fract_x
 _atom_site_fract_y
 _atom_site_fract_z
 _atom_site_occupancy
  Li  Li0  1  0.49993787  0.99995442  0.00001054  1
  Li  Li1  1  0.99995181  0.99995378  0.49999931  1
  Mn  Mn2  1  0.50002081  0.00002386  0.50003365  1
  Mn  Mn3  1  0.50017689  0.50019377  0.99988407  1
  Mn  Mn4  1  0.00007976  0.50000114  0.49998198  1
  Sb  Sb5  1  -0.00004302  0.00004376  -0.00006408  1
  O  O6  1  0.69582366  0.24317920  0.26419164  1
  O  O7  1  0.74118681  0.20944232  0.75130921  1
  O  O8  1  0.23524559  0.19464886  0.27426878  1
  O  O9  1  0.75866395  0.75663754  0.20528358  1
  O  O10  1  0.24131584  0.24334184  0.79474557  1
  O  O11  1  0.76471775  0.80531373  0.72579920  1
  O  O12  1  0.25876962  0.79045891  0.24873050  1
  O  O13  1  0.30414967  0.75680687  0.73582505  1
