# generated using pymatgen
data_Cr(Bi7O12)2
_symmetry_space_group_name_H-M   'P 1'
_cell_length_a   8.75502986
_cell_length_b   8.78258839
_cell_length_c   10.60825263
_cell_angle_alpha   65.80455890
_cell_angle_beta   65.88693611
_cell_angle_gamma   90.56933325
_symmetry_Int_Tables_number   1
_chemical_formula_structural   Cr(Bi7O12)2
_chemical_formula_sum   'Cr1 Bi14 O24'
_cell_volume   663.51712085
_cell_formula_units_Z   1
loop_
 _symmetry_equiv_pos_site_id
 _symmetry_equiv_pos_as_xyz
  1  'x, y, z'
loop_
 _atom_site_type_symbol
 _atom_site_label
 _atom_site_symmetry_multiplicity
 _atom_site_fract_x
 _atom_site_fract_y
 _atom_site_fract_z
 _atom_site_occupancy
  Cr  Cr0  1  0.99417016  0.99417016  0.01165968  1
  Bi  Bi1  1  0.44315148  0.21627521  0.99939537  1
  Bi  Bi2  1  0.93891967  0.12502765  0.33620896  1
  Bi  Bi3  1  0.46296920  0.06054927  0.66194391  1
  Bi  Bi4  1  0.79200225  0.43540830  0.00362841  1
  Bi  Bi5  1  0.34002230  0.34002230  0.31995541  1
  Bi  Bi6  1  0.20436934  0.56096329  0.00362841  1
  Bi  Bi7  1  0.87508589  0.27750682  0.66194391  1
  Bi  Bi8  1  0.72487137  0.53876339  0.33620896  1
  Bi  Bi9  1  0.55745315  0.78432942  0.99939537  1
  Bi  Bi10  1  0.27730759  0.46420526  0.66327146  1
  Bi  Bi11  1  0.12445370  0.72136619  0.33771387  1
  Bi  Bi12  1  0.65884092  0.65884092  0.68231915  1
  Bi  Bi13  1  0.53783343  0.94091994  0.33771387  1
  Bi  Bi14  1  0.05942095  0.87252328  0.66327146  1
  O  O15  1  0.90421653  0.16216592  0.04234300  1
  O  O16  1  0.33421385  0.00792092  0.49331797  1
  O  O17  1  0.54335044  0.23887891  0.15798025  1
  O  O18  1  0.23533883  0.29413978  0.15988026  1
  O  O19  1  0.00616926  0.17352200  0.49356881  1
  O  O20  1  0.09501966  0.09501966  0.80996168  1
  O  O21  1  0.61795005  0.11795005  0.76409990  1
  O  O22  1  0.88147697  0.38147697  0.23704607  1
  O  O23  1  0.50026193  0.33291018  0.49356881  1
  O  O24  1  0.60477991  0.54597995  0.15988026  1
  O  O25  1  0.29866931  0.60314084  0.15798025  1
  O  O26  1  0.82788940  0.49950221  0.50780421  1
  O  O27  1  0.17246818  0.49876111  0.49331797  1
  O  O28  1  0.70302014  0.39396559  0.84373957  1
  O  O29  1  0.05344047  0.79549109  0.04234300  1
  O  O30  1  0.39694792  0.45433625  0.84039774  1
  O  O31  1  0.50028573  0.66717791  0.50598868  1
  O  O32  1  0.38237936  0.88237936  0.23524129  1
  O  O33  1  0.11856243  0.61856243  0.76287414  1
  O  O34  1  0.88311065  0.88311065  0.23377870  1
  O  O35  1  0.99372558  0.82683341  0.50598868  1
  O  O36  1  0.76265533  0.70526601  0.84039774  1
  O  O37  1  0.45324030  0.76229485  0.84373957  1
  O  O38  1  0.66430639  0.99269358  0.50780421  1
