# generated using pymatgen
data_Li2Mn5O10
_symmetry_space_group_name_H-M   'P 1'
_cell_length_a   5.06791431
_cell_length_b   5.19232753
_cell_length_c   7.93822944
_cell_angle_alpha   112.53212881
_cell_angle_beta   100.32189030
_cell_angle_gamma   99.86903668
_symmetry_Int_Tables_number   1
_chemical_formula_structural   Li2Mn5O10
_chemical_formula_sum   'Li2 Mn5 O10'
_cell_volume   183.07739517
_cell_formula_units_Z   1
loop_
 _symmetry_equiv_pos_site_id
 _symmetry_equiv_pos_as_xyz
  1  'x, y, z'
loop_
 _atom_site_type_symbol
 _atom_site_label
 _atom_site_symmetry_multiplicity
 _atom_site_fract_x
 _atom_site_fract_y
 _atom_site_fract_z
 _atom_site_occupancy
  Li  Li0  1  0.23806130  0.93688733  0.42989583  1
  Li  Li1  1  0.76193870  0.06311267  0.57010417  1
  Mn  Mn2  1  0.11025129  0.69252170  0.69081148  1
  Mn  Mn3  1  0.00000000  0.50000000  0.00000000  1
  Mn  Mn4  1  0.68981569  0.88014066  0.88974588  1
  Mn  Mn5  1  0.31018431  0.11985934  0.11025412  1
  Mn  Mn6  1  0.88974871  0.30747830  0.30918852  1
  O  O7  1  0.04160442  0.06960925  0.86170575  1
  O  O8  1  0.09017595  0.30388757  0.52954329  1
  O  O9  1  0.34178203  0.73282259  0.93785471  1
  O  O10  1  0.20614409  0.46527105  0.23229352  1
  O  O11  1  0.45911822  0.87969419  0.67697284  1
  O  O12  1  0.54088178  0.12030581  0.32302716  1
  O  O13  1  0.79385591  0.53472895  0.76770648  1
  O  O14  1  0.65821797  0.26717741  0.06214529  1
  O  O15  1  0.90982405  0.69611243  0.47045671  1
  O  O16  1  0.95839558  0.93039075  0.13829425  1
