# generated using pymatgen
data_Li3Fe4P3H12O19
_symmetry_space_group_name_H-M   'P 1'
_cell_length_a   10.69050148
_cell_length_b   10.69050148
_cell_length_c   10.69050187
_cell_angle_alpha   60.90346349
_cell_angle_beta   60.90346349
_cell_angle_gamma   60.90346306
_symmetry_Int_Tables_number   1
_chemical_formula_structural   Li3Fe4P3H12O19
_chemical_formula_sum   'Li6 Fe8 P6 H24 O38'
_cell_volume   881.52418663
_cell_formula_units_Z   2
loop_
 _symmetry_equiv_pos_site_id
 _symmetry_equiv_pos_as_xyz
  1  'x, y, z'
loop_
 _atom_site_type_symbol
 _atom_site_label
 _atom_site_symmetry_multiplicity
 _atom_site_fract_x
 _atom_site_fract_y
 _atom_site_fract_z
 _atom_site_occupancy
  Li  Li0  1  0.06391955  0.67777288  0.94082783  1
  Li  Li1  1  0.17777288  0.56391955  0.44082783  1
  Li  Li2  1  0.67777288  0.94082783  0.06391955  1
  Li  Li3  1  0.56391955  0.44082783  0.17777288  1
  Li  Li4  1  0.44082783  0.17777288  0.56391955  1
  Li  Li5  1  0.94082783  0.06391955  0.67777288  1
  Fe  Fe6  1  0.00775809  0.97800006  0.30599152  1
  Fe  Fe7  1  0.50775809  0.80599152  0.47800006  1
  Fe  Fe8  1  0.47800006  0.50775809  0.80599152  1
  Fe  Fe9  1  0.00285727  0.00285727  0.00285727  1
  Fe  Fe10  1  0.50285727  0.50285727  0.50285727  1
  Fe  Fe11  1  0.30599152  0.00775809  0.97800006  1
  Fe  Fe12  1  0.80599152  0.47800006  0.50775809  1
  Fe  Fe13  1  0.97800006  0.30599152  0.00775809  1
  P  P14  1  0.30166616  0.83801885  0.80661398  1
  P  P15  1  0.33801885  0.80166616  0.30661398  1
  P  P16  1  0.30661398  0.33801885  0.80166616  1
  P  P17  1  0.83801885  0.80661398  0.30166616  1
  P  P18  1  0.80661398  0.30166616  0.83801885  1
  P  P19  1  0.80166616  0.30661398  0.33801885  1
  H  H20  1  0.00207369  0.75745024  0.69078110  1
  H  H21  1  0.14086409  0.80777286  0.62905967  1
  H  H22  1  0.03219632  0.45633802  0.22017729  1
  H  H23  1  0.30777286  0.64086409  0.12905967  1
  H  H24  1  0.72017729  0.95633802  0.53219632  1
  H  H25  1  0.25745024  0.50207369  0.19078110  1
  H  H26  1  0.12905967  0.30777286  0.64086409  1
  H  H27  1  0.59622710  0.89646566  0.67501203  1
  H  H28  1  0.17501203  0.39646566  0.09622710  1
  H  H29  1  0.53219632  0.72017729  0.95633802  1
  H  H30  1  0.19078110  0.25745024  0.50207369  1
  H  H31  1  0.09622710  0.17501203  0.39646566  1
  H  H32  1  0.67501203  0.59622710  0.89646566  1
  H  H33  1  0.75745024  0.69078110  0.00207369  1
  H  H34  1  0.22017729  0.03219632  0.45633802  1
  H  H35  1  0.89646566  0.67501203  0.59622710  1
  H  H36  1  0.39646566  0.09622710  0.17501203  1
  H  H37  1  0.80777286  0.62905967  0.14086409  1
  H  H38  1  0.45633802  0.22017729  0.03219632  1
  H  H39  1  0.50207369  0.19078110  0.25745024  1
  H  H40  1  0.95633802  0.53219632  0.72017729  1
  H  H41  1  0.62905967  0.14086409  0.80777286  1
  H  H42  1  0.64086409  0.12905967  0.30777286  1
  H  H43  1  0.69078110  0.00207369  0.75745024  1
  O  O44  1  0.14501337  0.96032860  0.80750712  1
  O  O45  1  0.03940706  0.81626539  0.70607684  1
  O  O46  1  0.18289843  0.78837530  0.34532644  1
  O  O47  1  0.38163178  0.92339400  0.15082683  1
  O  O48  1  0.32194213  0.85377458  0.42976583  1
  O  O49  1  0.35377458  0.82194213  0.92976583  1
  O  O50  1  0.42339400  0.88163178  0.65082683  1
  O  O51  1  0.28837530  0.68289843  0.84532644  1
  O  O52  1  0.13133654  0.47035493  0.14831029  1
  O  O53  1  0.64831029  0.97035493  0.63133654  1
  O  O54  1  0.15082683  0.38163178  0.92339400  1
  O  O55  1  0.31626539  0.53940706  0.20607684  1
  O  O56  1  0.68289843  0.84532644  0.28837530  1
  O  O57  1  0.46032860  0.64501337  0.30750712  1
  O  O58  1  0.30750712  0.46032860  0.64501337  1
  O  O59  1  0.82194213  0.92976583  0.35377458  1
  O  O60  1  0.20607684  0.31626539  0.53940706  1
  O  O61  1  0.63133654  0.64831029  0.97035493  1
  O  O62  1  0.07947629  0.07947629  0.07947629  1
  O  O63  1  0.57947629  0.57947629  0.57947629  1
  O  O64  1  0.14831029  0.13133654  0.47035493  1
  O  O65  1  0.81626539  0.70607684  0.03940706  1
  O  O66  1  0.42976583  0.32194213  0.85377458  1
  O  O67  1  0.96032860  0.80750712  0.14501337  1
  O  O68  1  0.34532644  0.18289843  0.78837530  1
  O  O69  1  0.65082683  0.42339400  0.88163178  1
  O  O70  1  0.88163178  0.65082683  0.42339400  1
  O  O71  1  0.47035493  0.14831029  0.13133654  1
  O  O72  1  0.97035493  0.63133654  0.64831029  1
  O  O73  1  0.64501337  0.30750712  0.46032860  1
  O  O74  1  0.53940706  0.20607684  0.31626539  1
  O  O75  1  0.85377458  0.42976583  0.32194213  1
  O  O76  1  0.78837530  0.34532644  0.18289843  1
  O  O77  1  0.84532644  0.28837530  0.68289843  1
  O  O78  1  0.92976583  0.35377458  0.82194213  1
  O  O79  1  0.70607684  0.03940706  0.81626539  1
  O  O80  1  0.80750712  0.14501337  0.96032860  1
  O  O81  1  0.92339400  0.15082683  0.38163178  1
