# generated using pymatgen
data_LiMn5O10
_symmetry_space_group_name_H-M   'P 1'
_cell_length_a   5.02582518
_cell_length_b   10.16950801
_cell_length_c   7.67437830
_cell_angle_alpha   74.40899665
_cell_angle_beta   108.11686571
_cell_angle_gamma   98.02054234
_symmetry_Int_Tables_number   1
_chemical_formula_structural   LiMn5O10
_chemical_formula_sum   'Li2 Mn10 O20'
_cell_volume   358.40490138
_cell_formula_units_Z   2
loop_
 _symmetry_equiv_pos_site_id
 _symmetry_equiv_pos_as_xyz
  1  'x, y, z'
loop_
 _atom_site_type_symbol
 _atom_site_label
 _atom_site_symmetry_multiplicity
 _atom_site_fract_x
 _atom_site_fract_y
 _atom_site_fract_z
 _atom_site_occupancy
  Li  Li0  1  0.30814447  0.75210423  0.45952455  1
  Li  Li1  1  0.69185553  0.24789577  0.54047545  1
  Mn  Mn2  1  0.10426203  0.50077523  0.68898581  1
  Mn  Mn3  1  0.00109598  0.75048647  0.99684888  1
  Mn  Mn4  1  0.11392718  0.00277675  0.68674623  1
  Mn  Mn5  1  0.69135596  0.99514860  0.89315636  1
  Mn  Mn6  1  0.99890402  0.24951353  0.00315112  1
  Mn  Mn7  1  0.68736981  0.49597169  0.89143501  1
  Mn  Mn8  1  0.31263019  0.50402831  0.10856499  1
  Mn  Mn9  1  0.30864404  0.00485140  0.10684364  1
  Mn  Mn10  1  0.88607282  0.99722325  0.31325377  1
  Mn  Mn11  1  0.89573797  0.49922477  0.31101419  1
  O  O12  1  0.03367293  0.60774540  0.87041446  1
  O  O13  1  0.11358498  0.89275015  0.53075635  1
  O  O14  1  0.35019504  0.89653553  0.93612392  1
  O  O15  1  0.03084709  0.11042468  0.86769347  1
  O  O16  1  0.08897084  0.38631363  0.53590636  1
  O  O17  1  0.34879399  0.39530443  0.94017928  1
  O  O18  1  0.20570707  0.62303499  0.22447760  1
  O  O19  1  0.44471649  0.59645253  0.67971859  1
  O  O20  1  0.19856757  0.11950268  0.22520648  1
  O  O21  1  0.45733640  0.09989485  0.68263294  1
  O  O22  1  0.54266360  0.90010515  0.31736706  1
  O  O23  1  0.80143243  0.88049732  0.77479352  1
  O  O24  1  0.55528351  0.40354747  0.32028141  1
  O  O25  1  0.79429293  0.37696501  0.77552240  1
  O  O26  1  0.65120601  0.60469557  0.05982072  1
  O  O27  1  0.91102916  0.61368637  0.46409364  1
  O  O28  1  0.96915291  0.88957532  0.13230653  1
  O  O29  1  0.64980496  0.10346447  0.06387608  1
  O  O30  1  0.88641502  0.10724985  0.46924365  1
  O  O31  1  0.96632707  0.39225460  0.12958554  1
