# generated using pymatgen
data_Na2LiCaVP2O9
_symmetry_space_group_name_H-M   'P 1'
_cell_length_a   6.90739467
_cell_length_b   10.58677593
_cell_length_c   10.64614789
_cell_angle_alpha   89.99984575
_cell_angle_beta   90.00002525
_cell_angle_gamma   89.99993545
_symmetry_Int_Tables_number   1
_chemical_formula_structural   Na2LiCaVP2O9
_chemical_formula_sum   'Na8 Li4 Ca4 V4 P8 O36'
_cell_volume   778.52127867
_cell_formula_units_Z   4
loop_
 _symmetry_equiv_pos_site_id
 _symmetry_equiv_pos_as_xyz
  1  'x, y, z'
loop_
 _atom_site_type_symbol
 _atom_site_label
 _atom_site_symmetry_multiplicity
 _atom_site_fract_x
 _atom_site_fract_y
 _atom_site_fract_z
 _atom_site_occupancy
  Na  Na0  1  0.49157382  0.64495900  0.77078083  1
  Na  Na1  1  0.00768987  0.65403469  0.75902623  1
  Na  Na2  1  0.50769403  0.15403414  0.74097597  1
  Na  Na3  1  0.99156992  0.14495713  0.72922211  1
  Na  Na4  1  0.00769142  0.84596460  0.25902287  1
  Na  Na5  1  0.49157363  0.85504198  0.27077801  1
  Na  Na6  1  0.50769032  0.34596521  0.24097563  1
  Na  Na7  1  0.99157111  0.35504134  0.22922039  1
  Li  Li8  1  0.96718037  0.49760208  0.96842365  1
  Li  Li9  1  0.46717936  0.99760022  0.53157966  1
  Li  Li10  1  0.96717745  0.00240018  0.46842149  1
  Li  Li11  1  0.46718047  0.50239739  0.03158183  1
  Ca  Ca12  1  0.75116048  0.93921440  0.93103408  1
  Ca  Ca13  1  0.25115455  0.43921060  0.56896436  1
  Ca  Ca14  1  0.75115118  0.56078943  0.43103898  1
  Ca  Ca15  1  0.25115461  0.06078527  0.06896030  1
  V  V16  1  0.74377857  0.29231932  0.96807454  1
  V  V17  1  0.24377716  0.79231844  0.53191675  1
  V  V18  1  0.74379610  0.20768378  0.46806639  1
  V  V19  1  0.24377249  0.70768166  0.03192733  1
  P  P20  1  0.24739061  0.35583569  0.90702961  1
  P  P21  1  0.25315042  0.91629910  0.81639226  1
  P  P22  1  0.75315036  0.41631144  0.68359474  1
  P  P23  1  0.74738918  0.85583881  0.59295661  1
  P  P24  1  0.24739074  0.14416200  0.40704114  1
  P  P25  1  0.25314934  0.58368629  0.31640793  1
  P  P26  1  0.75315138  0.08369894  0.18360906  1
  P  P27  1  0.74738990  0.64416256  0.09297352  1
  O  O28  1  0.42970392  0.31661272  0.98714936  1
  O  O29  1  0.06480320  0.31295707  0.98339120  1
  O  O30  1  0.24336033  0.50519638  0.90479884  1
  O  O31  1  0.75144144  0.14761410  0.88334559  1
  O  O32  1  0.42985883  0.98405379  0.87325583  1
  O  O33  1  0.07162413  0.98332978  0.86747413  1
  O  O34  1  0.24974451  0.77432081  0.85278506  1
  O  O35  1  0.76233352  0.42971150  0.83071254  1
  O  O36  1  0.25254959  0.30045209  0.77346886  1
  O  O37  1  0.75254898  0.80044811  0.72654574  1
  O  O38  1  0.26232988  0.92971076  0.66930492  1
  O  O39  1  0.74974783  0.27431574  0.64722397  1
  O  O40  1  0.57163590  0.48332425  0.63253909  1
  O  O41  1  0.92984783  0.48404788  0.62675556  1
  O  O42  1  0.25144466  0.64762363  0.61665321  1
  O  O43  1  0.74335932  0.00519407  0.59521091  1
  O  O44  1  0.92969770  0.81661449  0.51285519  1
  O  O45  1  0.56480829  0.81295817  0.51661376  1
  O  O46  1  0.42969867  0.18338595  0.48714473  1
  O  O47  1  0.06480769  0.18704138  0.48338868  1
  O  O48  1  0.24336121  0.99480238  0.40479457  1
  O  O49  1  0.75144540  0.35238383  0.38334418  1
  O  O50  1  0.42984656  0.51595233  0.37324541  1
  O  O51  1  0.07163664  0.51667716  0.36745971  1
  O  O52  1  0.24974692  0.72568545  0.35277763  1
  O  O53  1  0.76233083  0.07028910  0.33069584  1
  O  O54  1  0.25254784  0.19954737  0.27345768  1
  O  O55  1  0.75254792  0.69954888  0.22652893  1
  O  O56  1  0.26233387  0.57028948  0.16928862  1
  O  O57  1  0.74974533  0.22568228  0.14721526  1
  O  O58  1  0.92985542  0.01595023  0.12674546  1
  O  O59  1  0.57162402  0.01667228  0.13252700  1
  O  O60  1  0.25144109  0.85237488  0.11664880  1
  O  O61  1  0.74336124  0.49480408  0.09520121  1
  O  O62  1  0.92970474  0.68338781  0.01284966  1
  O  O63  1  0.56480093  0.68704210  0.01660759  1
