# generated using pymatgen
data_Ba2LiVP2O9
_symmetry_space_group_name_H-M   'P 1'
_cell_length_a   5.39381398
_cell_length_b   9.52293038
_cell_length_c   9.76514066
_cell_angle_alpha   70.94769336
_cell_angle_beta   90.06296724
_cell_angle_gamma   73.60655931
_symmetry_Int_Tables_number   1
_chemical_formula_structural   Ba2LiVP2O9
_chemical_formula_sum   'Ba4 Li2 V2 P4 O18'
_cell_volume   452.42474364
_cell_formula_units_Z   2
loop_
 _symmetry_equiv_pos_site_id
 _symmetry_equiv_pos_as_xyz
  1  'x, y, z'
loop_
 _atom_site_type_symbol
 _atom_site_label
 _atom_site_symmetry_multiplicity
 _atom_site_fract_x
 _atom_site_fract_y
 _atom_site_fract_z
 _atom_site_occupancy
  Ba  Ba0  1  0.29131341  0.33637546  0.42187314  1
  Ba  Ba1  1  0.31760931  0.33634696  0.92277287  1
  Ba  Ba2  1  0.62448517  0.66989608  0.58563126  1
  Ba  Ba3  1  0.65098097  0.67053375  0.08516576  1
  Li  Li4  1  0.40022599  0.02037856  0.31155286  1
  Li  Li5  1  0.51235439  0.02377151  0.80916664  1
  V  V6  1  0.02423997  0.00040784  0.99937225  1
  V  V7  1  0.91669154  0.00055150  0.49955541  1
  P  P8  1  0.07084444  0.73869748  0.32594885  1
  P  P9  1  0.13482384  0.73825271  0.82647327  1
  P  P10  1  0.80537307  0.26057348  0.67510263  1
  P  P11  1  0.87733269  0.26129169  0.17454934  1
  O  O12  1  0.03344412  0.11496790  0.30837771  1
  O  O13  1  0.02651909  0.32369757  0.70161676  1
  O  O14  1  0.02576623  0.38347779  0.15075254  1
  O  O15  1  0.36424338  0.00117429  0.98399292  1
  O  O16  1  0.07179529  0.79007390  0.46241650  1
  O  O17  1  0.08776672  0.78813705  0.96393108  1
  O  O18  1  0.12845237  0.88435960  0.69196575  1
  O  O19  1  0.57570893  0.00091989  0.48404080  1
  O  O20  1  0.35542503  0.66391317  0.30590883  1
  O  O21  1  0.40948413  0.61889957  0.85247368  1
  O  O22  1  0.53612528  0.38427530  0.64898768  1
  O  O23  1  0.59273626  0.32643447  0.19891960  1
  O  O24  1  0.78988582  0.11523832  0.80861654  1
  O  O25  1  0.84751115  0.21159016  0.53730767  1
  O  O26  1  0.88612915  0.21246689  0.03657184  1
  O  O27  1  0.91737869  0.61799222  0.35501684  1
  O  O28  1  0.92552239  0.66211372  0.80826973  1
  O  O29  1  0.92650717  0.88325316  0.19107420  1
