# generated using pymatgen
data_LiFe2C2O7
_symmetry_space_group_name_H-M   'P 1'
_cell_length_a   7.71876207
_cell_length_b   7.98121181
_cell_length_c   11.56980462
_cell_angle_alpha   90.00000000
_cell_angle_beta   73.24173327
_cell_angle_gamma   90.00000000
_symmetry_Int_Tables_number   1
_chemical_formula_structural   LiFe2C2O7
_chemical_formula_sum   'Li4 Fe8 C8 O28'
_cell_volume   682.48765610
_cell_formula_units_Z   4
loop_
 _symmetry_equiv_pos_site_id
 _symmetry_equiv_pos_as_xyz
  1  'x, y, z'
loop_
 _atom_site_type_symbol
 _atom_site_label
 _atom_site_symmetry_multiplicity
 _atom_site_fract_x
 _atom_site_fract_y
 _atom_site_fract_z
 _atom_site_occupancy
  Li  Li0  1  0.10704979  0.76544916  0.40340120  1
  Li  Li1  1  0.39295021  0.26544916  0.09659880  1
  Li  Li2  1  0.60704979  0.73455084  0.90340120  1
  Li  Li3  1  0.89295021  0.23455084  0.59659880  1
  Fe  Fe4  1  0.10548027  0.90022330  0.11364793  1
  Fe  Fe5  1  0.01880269  0.88842813  0.64508813  1
  Fe  Fe6  1  0.51880269  0.61157187  0.14508813  1
  Fe  Fe7  1  0.39451973  0.40022330  0.38635207  1
  Fe  Fe8  1  0.60548027  0.59977670  0.61364793  1
  Fe  Fe9  1  0.48119731  0.38842813  0.85491187  1
  Fe  Fe10  1  0.98119731  0.11157187  0.35491187  1
  Fe  Fe11  1  0.89451973  0.09977670  0.88635207  1
  C  C12  1  0.22484913  0.60893916  0.03707852  1
  C  C13  1  0.27515087  0.10893916  0.46292148  1
  C  C14  1  0.24068033  0.58721035  0.58732029  1
  C  C15  1  0.25931967  0.08721035  0.91267971  1
  C  C16  1  0.74068033  0.91278965  0.08732029  1
  C  C17  1  0.75931967  0.41278965  0.41267971  1
  C  C18  1  0.72484913  0.89106084  0.53707852  1
  C  C19  1  0.77515087  0.39106084  0.96292148  1
  O  O20  1  0.06138603  0.66516235  0.07574752  1
  O  O21  1  0.10429649  0.91618985  0.27213410  1
  O  O22  1  0.27018493  0.08139452  0.02445007  1
  O  O23  1  0.35401324  0.72051577  0.03812663  1
  O  O24  1  0.14598676  0.22051577  0.46187337  1
  O  O25  1  0.12851178  0.67132493  0.66868501  1
  O  O26  1  0.22981507  0.58139452  0.47554993  1
  O  O27  1  0.39570351  0.41618985  0.22786590  1
  O  O28  1  0.23652856  0.95821066  0.49751909  1
  O  O29  1  0.13144723  0.99856282  0.88919707  1
  O  O30  1  0.36855277  0.49856282  0.61080293  1
  O  O31  1  0.43861397  0.16516235  0.42425248  1
  O  O32  1  0.62851178  0.82867507  0.16868501  1
  O  O33  1  0.26347144  0.45821066  0.00248091  1
  O  O34  1  0.73652856  0.54178934  0.99751909  1
  O  O35  1  0.37148822  0.17132493  0.83131499  1
  O  O36  1  0.56138603  0.83483765  0.57574752  1
  O  O37  1  0.63144723  0.50143718  0.38919707  1
  O  O38  1  0.86855277  0.00143718  0.11080293  1
  O  O39  1  0.76347144  0.04178934  0.50248091  1
  O  O40  1  0.60429649  0.58381015  0.77213410  1
  O  O41  1  0.77018493  0.41860548  0.52445007  1
  O  O42  1  0.87148822  0.32867507  0.33131499  1
  O  O43  1  0.85401324  0.77948423  0.53812663  1
  O  O44  1  0.64598676  0.27948423  0.96187337  1
  O  O45  1  0.72981507  0.91860548  0.97554993  1
  O  O46  1  0.89570351  0.08381015  0.72786590  1
  O  O47  1  0.93861397  0.33483765  0.92425248  1
