# generated using pymatgen
data_Li2Mn4O5F3
_symmetry_space_group_name_H-M   'P 1'
_cell_length_a   6.12788380
_cell_length_b   6.12788380
_cell_length_c   6.15440033
_cell_angle_alpha   57.39949001
_cell_angle_beta   93.49218332
_cell_angle_gamma   121.33670415
_symmetry_Int_Tables_number   1
_chemical_formula_structural   Li2Mn4O5F3
_chemical_formula_sum   'Li2 Mn4 O5 F3'
_cell_volume   158.38170865
_cell_formula_units_Z   1
loop_
 _symmetry_equiv_pos_site_id
 _symmetry_equiv_pos_as_xyz
  1  'x, y, z'
loop_
 _atom_site_type_symbol
 _atom_site_label
 _atom_site_symmetry_multiplicity
 _atom_site_fract_x
 _atom_site_fract_y
 _atom_site_fract_z
 _atom_site_occupancy
  Li  Li0  1  0.61862692  0.25014630  0.62030538  1
  Li  Li1  1  0.12954833  0.76106771  0.62030538  1
  Mn  Mn2  1  0.61098000  0.25094197  0.13807803  1
  Mn  Mn3  1  0.01290200  0.99931682  0.98778118  1
  Mn  Mn4  1  0.24530205  0.48395817  0.27073978  1
  Mn  Mn5  1  0.62468730  0.75121695  0.62409575  1
  O  O6  1  0.83614754  0.21619852  0.38054686  1
  O  O7  1  0.40269160  0.24534182  0.35196758  1
  O  O8  1  0.84583842  0.71467810  0.86810556  1
  O  O9  1  0.41721734  0.28605602  0.86810556  1
  O  O10  1  0.40325462  0.78330560  0.38054686  1
  F  F11  1  0.87467512  0.72600638  0.39931950  1
  F  F12  1  0.85525057  0.25959815  0.88515129  1
  F  F13  1  0.37287819  0.77216850  0.85495331  1
