# generated using pymatgen
data_Co3(O2F)2
_symmetry_space_group_name_H-M   'P 1'
_cell_length_a   6.81921150
_cell_length_b   5.44007014
_cell_length_c   5.45362832
_cell_angle_alpha   77.30492253
_cell_angle_beta   74.83508386
_cell_angle_gamma   74.57289959
_symmetry_Int_Tables_number   1
_chemical_formula_structural   Co3(O2F)2
_chemical_formula_sum   'Co6 O8 F4'
_cell_volume   185.76429685
_cell_formula_units_Z   2
loop_
 _symmetry_equiv_pos_site_id
 _symmetry_equiv_pos_as_xyz
  1  'x, y, z'
loop_
 _atom_site_type_symbol
 _atom_site_label
 _atom_site_symmetry_multiplicity
 _atom_site_fract_x
 _atom_site_fract_y
 _atom_site_fract_z
 _atom_site_occupancy
  Co  Co0  1  0.83333300  0.66666700  0.66666700  1
  Co  Co1  1  0.33333300  0.66666700  0.66666700  1
  Co  Co2  1  0.66555327  0.36979004  0.29314718  1
  Co  Co3  1  0.16101522  0.34461900  0.33442450  1
  Co  Co4  1  0.50565178  0.98871400  -0.00109150  1
  Co  Co5  1  0.00111373  0.96354296  0.04018582  1
  O  O6  1  0.63152249  0.57357968  0.55300835  1
  O  O7  1  0.29693133  0.88501697  0.90847361  1
  O  O8  1  0.96026884  0.23607552  0.23243598  1
  O  O9  1  0.36973567  0.44831703  0.42486039  1
  O  O10  1  0.03514451  0.75975332  0.78032465  1
  O  O11  1  0.70639816  0.09725748  0.10089702  1
  O  O12  1  0.67018284  0.64809153  0.00572457  1
  O  O13  1  0.99648416  0.68524147  0.32760843  1
  F  F14  1  0.34356276  0.34596997  0.96648802  1
  F  F15  1  0.66798514  0.03721014  0.62295818  1
  F  F16  1  0.32310424  0.98736403  0.36684498  1
  F  F17  1  0.99868186  0.29612286  0.71037582  1
