# generated using pymatgen
data_Co3(OF2)2
_symmetry_space_group_name_H-M   'P 1'
_cell_length_a   7.06475621
_cell_length_b   5.65109265
_cell_length_c   5.64606461
_cell_angle_alpha   73.11683593
_cell_angle_beta   73.54943363
_cell_angle_gamma   73.78529005
_symmetry_Int_Tables_number   1
_chemical_formula_structural   Co3(OF2)2
_chemical_formula_sum   'Co6 O4 F8'
_cell_volume   202.04407968
_cell_formula_units_Z   2
loop_
 _symmetry_equiv_pos_site_id
 _symmetry_equiv_pos_as_xyz
  1  'x, y, z'
loop_
 _atom_site_type_symbol
 _atom_site_label
 _atom_site_symmetry_multiplicity
 _atom_site_fract_x
 _atom_site_fract_y
 _atom_site_fract_z
 _atom_site_occupancy
  Co  Co0  1  0.84149152  0.67533532  0.69085142  1
  Co  Co1  1  0.31531010  0.64076096  0.65678115  1
  Co  Co2  1  0.66869524  0.35840863  0.31615000  1
  Co  Co3  1  0.16629429  0.33274637  0.32894222  1
  Co  Co4  1  0.50883009  0.97108064  0.00563647  1
  Co  Co5  1  0.00223653  0.00548750  0.00966777  1
  O  O6  1  0.95586906  0.25372701  0.24126145  1
  O  O7  1  0.37914793  0.42576950  0.40851425  1
  O  O8  1  0.02814427  0.76982373  0.77985087  1
  O  O9  1  0.66748775  0.63611452  0.03771413  1
  F  F10  1  0.33645539  0.34222215  0.96390093  1
  F  F11  1  0.66479245  0.04350784  0.62750715  1
  F  F12  1  0.63504884  0.57786383  0.57180661  1
  F  F13  1  0.30608756  0.88949044  0.88738588  1
  F  F14  1  0.69508006  0.10674670  0.10226278  1
  F  F15  1  0.32825759  0.96110728  0.35634558  1
  F  F16  1  0.00271480  0.30823149  0.69930408  1
  F  F17  1  0.99805755  0.70157507  0.31611526  1
