# generated using pymatgen
data_Mn6O5F7
_symmetry_space_group_name_H-M   'P 1'
_cell_length_a   5.36521102
_cell_length_b   5.28192791
_cell_length_c   14.83199619
_cell_angle_alpha   91.76796859
_cell_angle_beta   93.87400921
_cell_angle_gamma   91.58135963
_symmetry_Int_Tables_number   1
_chemical_formula_structural   Mn6O5F7
_chemical_formula_sum   'Mn12 O10 F14'
_cell_volume   418.97312479
_cell_formula_units_Z   2
loop_
 _symmetry_equiv_pos_site_id
 _symmetry_equiv_pos_as_xyz
  1  'x, y, z'
loop_
 _atom_site_type_symbol
 _atom_site_label
 _atom_site_symmetry_multiplicity
 _atom_site_fract_x
 _atom_site_fract_y
 _atom_site_fract_z
 _atom_site_occupancy
  Mn  Mn0  1  0.02641522  0.01517561  0.99814796  1
  Mn  Mn1  1  0.84318745  0.52042147  0.16997652  1
  Mn  Mn2  1  0.10733286  0.01325080  0.33493478  1
  Mn  Mn3  1  0.05332741  0.46972304  0.50709285  1
  Mn  Mn4  1  0.01503859  0.05710537  0.66785112  1
  Mn  Mn5  1  0.05239866  0.56018961  0.82089122  1
  Mn  Mn6  1  0.51937845  0.02336152  0.16664848  1
  Mn  Mn7  1  0.38418650  0.47840244  0.01211000  1
  Mn  Mn8  1  0.50830955  0.38400609  0.65850739  1
  Mn  Mn9  1  0.56223487  0.00691295  0.50680823  1
  Mn  Mn10  1  0.46705020  0.58778369  0.32622370  1
  Mn  Mn11  1  0.41130126  0.08347879  0.83804582  1
  O  O12  1  0.30186257  0.16013065  0.58062921  1
  O  O13  1  0.33106424  0.81851698  0.41530136  1
  O  O14  1  0.16448460  0.29264335  0.91160197  1
  O  O15  1  0.18619975  0.86848591  0.76172079  1
  O  O16  1  0.30754707  0.17669408  0.07576377  1
  O  O17  1  0.30849932  0.85463952  0.24871445  1
  O  O18  1  0.21302730  0.34647729  0.73586674  1
  O  O19  1  0.78553094  0.25734022  0.58856736  1
  O  O20  1  0.59090754  0.35351404  0.23502081  1
  O  O21  1  0.58438003  0.68710320  0.09998990  1
  F  F22  1  0.08290893  0.35309252  0.25457691  1
  F  F23  1  0.06584393  0.66512232  0.07792401  1
  F  F24  1  0.37149128  0.66268005  0.58091026  1
  F  F25  1  0.36193117  0.77785522  0.93137710  1
  F  F26  1  0.33682318  0.31539963  0.41084570  1
  F  F27  1  0.64309259  0.26583857  0.92316988  1
  F  F28  1  0.79554968  0.58971043  0.40623611  1
  F  F29  1  0.71705059  0.58553000  0.74306027  1
  F  F30  1  0.86431358  0.09493480  0.42585438  1
  F  F31  1  0.80657610  0.16162940  0.09487012  1
  F  F32  1  0.68116508  0.08916823  0.75100652  1
  F  F33  1  0.87834676  0.78446402  0.58247523  1
  F  F34  1  0.86905579  0.76913042  0.90452864  1
  F  F35  1  0.80218496  0.87008878  0.25275047  1
