# generated using pymatgen
data_MnCr3O8
_symmetry_space_group_name_H-M   'P 1'
_cell_length_a   5.83705471
_cell_length_b   5.88945537
_cell_length_c   8.88549499
_cell_angle_alpha   89.99794816
_cell_angle_beta   90.00107493
_cell_angle_gamma   120.29741711
_symmetry_Int_Tables_number   1
_chemical_formula_structural   MnCr3O8
_chemical_formula_sum   'Mn2 Cr6 O16'
_cell_volume   263.73743067
_cell_formula_units_Z   2
loop_
 _symmetry_equiv_pos_site_id
 _symmetry_equiv_pos_as_xyz
  1  'x, y, z'
loop_
 _atom_site_type_symbol
 _atom_site_label
 _atom_site_symmetry_multiplicity
 _atom_site_fract_x
 _atom_site_fract_y
 _atom_site_fract_z
 _atom_site_occupancy
  Mn  Mn0  1  0.32625538  0.66314900  0.48337737  1
  Mn  Mn1  1  0.67374505  0.33689420  0.98337749  1
  Cr  Cr2  1  0.16324719  0.83248511  0.20222849  1
  Cr  Cr3  1  0.16316752  0.33077870  0.20223059  1
  Cr  Cr4  1  0.65692969  0.82841606  0.21855968  1
  Cr  Cr5  1  0.34307183  0.17148619  0.71855990  1
  Cr  Cr6  1  0.83675311  0.66923661  0.70222895  1
  Cr  Cr7  1  0.83683358  0.16761294  0.70223142  1
  O  O8  1  0.16120695  0.82284159  0.60482263  1
  O  O9  1  0.04955497  0.52477995  0.33677462  1
  O  O10  1  0.34546155  0.67276130  0.09809976  1
  O  O11  1  0.98990220  0.99494848  0.31069106  1
  O  O12  1  0.01009781  0.00504612  0.81069075  1
  O  O13  1  0.16125125  0.33837638  0.60482274  1
  O  O14  1  0.47180908  0.95015995  0.34316454  1
  O  O15  1  0.47176305  0.52162794  0.34317277  1
  O  O16  1  0.34594262  0.17302138  0.10991604  1
  O  O17  1  0.65405678  0.82707862  0.60991613  1
  O  O18  1  0.52819048  0.47834901  0.84316442  1
  O  O19  1  0.52823641  0.04986454  0.84317279  1
  O  O20  1  0.65453780  0.32729937  0.59809971  1
  O  O21  1  0.83879241  0.66163488  0.10482280  1
  O  O22  1  0.95044478  0.47522485  0.83677458  1
  O  O23  1  0.83874851  0.17712484  0.10482276  1
