# generated using pymatgen
data_Co3(O2F)2
_symmetry_space_group_name_H-M   'P 1'
_cell_length_a   4.57248350
_cell_length_b   7.48844504
_cell_length_c   5.41296752
_cell_angle_alpha   95.53761680
_cell_angle_beta   95.18241929
_cell_angle_gamma   85.33103066
_symmetry_Int_Tables_number   1
_chemical_formula_structural   Co3(O2F)2
_chemical_formula_sum   'Co6 O8 F4'
_cell_volume   183.23063881
_cell_formula_units_Z   2
loop_
 _symmetry_equiv_pos_site_id
 _symmetry_equiv_pos_as_xyz
  1  'x, y, z'
loop_
 _atom_site_type_symbol
 _atom_site_label
 _atom_site_symmetry_multiplicity
 _atom_site_fract_x
 _atom_site_fract_y
 _atom_site_fract_z
 _atom_site_occupancy
  Co  Co0  1  0.45844379  0.98481402  0.52675604  1
  Co  Co1  1  0.54159468  0.34857225  0.80668985  1
  Co  Co2  1  0.49995753  0.66663905  0.16657084  1
  Co  Co3  1  0.00010580  0.66672925  0.66668364  1
  Co  Co4  1  0.99081471  0.33246308  0.34227192  1
  Co  Co5  1  0.00921210  0.00082442  0.99097191  1
  O  O6  1  0.82285350  0.44742232  0.62440561  1
  O  O7  1  0.69229393  0.76817260  0.46780410  1
  O  O8  1  0.69621993  0.10192516  0.79196705  1
  O  O9  1  0.69536154  0.43771064  0.13063204  1
  O  O10  1  0.30779265  0.56515955  0.86553662  1
  O  O11  1  0.30369386  0.23143150  0.54139894  1
  O  O12  1  0.30467460  0.89561590  0.20268168  1
  O  O13  1  0.17711593  0.88586602  0.70891214  1
  F  F14  1  0.80802422  0.75429592  0.94852509  1
  F  F15  1  0.80900550  0.09402202  0.28441316  1
  F  F16  1  0.19085497  0.23927845  0.04902969  1
  F  F17  1  0.19198076  0.57905785  0.38475168  1
