# generated using pymatgen
data_Co6O5F7
_symmetry_space_group_name_H-M   'P 1'
_cell_length_a   4.66867575
_cell_length_b   7.63470939
_cell_length_c   5.58399670
_cell_angle_alpha   94.31338148
_cell_angle_beta   93.18797691
_cell_angle_gamma   87.16075956
_symmetry_Int_Tables_number   1
_chemical_formula_structural   Co6O5F7
_chemical_formula_sum   'Co6 O5 F7'
_cell_volume   197.95929909
_cell_formula_units_Z   1
loop_
 _symmetry_equiv_pos_site_id
 _symmetry_equiv_pos_as_xyz
  1  'x, y, z'
loop_
 _atom_site_type_symbol
 _atom_site_label
 _atom_site_symmetry_multiplicity
 _atom_site_fract_x
 _atom_site_fract_y
 _atom_site_fract_z
 _atom_site_occupancy
  Co  Co0  1  0.50857647  0.99941068  0.51099199  1
  Co  Co1  1  0.48918861  0.33118181  0.82537301  1
  Co  Co2  1  0.53054553  0.67852334  0.14610303  1
  Co  Co3  1  0.99712383  0.66664018  0.67480462  1
  Co  Co4  1  0.02697389  0.32880542  0.34486409  1
  Co  Co5  1  0.95919022  0.00019809  0.98738772  1
  O  O6  1  0.79798201  0.76817292  0.96737327  1
  O  O7  1  0.69806293  0.77546262  0.46926897  1
  O  O8  1  0.68665344  0.10386402  0.79885830  1
  O  O9  1  0.29959792  0.55985233  0.85946140  1
  O  O10  1  0.32186402  0.22414864  0.54489270  1
  F  F11  1  0.80747294  0.43452461  0.63079627  1
  F  F12  1  0.80247344  0.10023486  0.29679345  1
  F  F13  1  0.69337493  0.42546929  0.12733677  1
  F  F14  1  0.29285107  0.90828908  0.20747798  1
  F  F15  1  0.19062547  0.22364709  0.03547513  1
  F  F16  1  0.19428353  0.90000835  0.71143452  1
  F  F17  1  0.20315975  0.57156766  0.36130777  1
