# generated using pymatgen
data_V6O5F8
_symmetry_space_group_name_H-M   'P 1'
_cell_length_a   4.97214164
_cell_length_b   31.02273776
_cell_length_c   5.10341401
_cell_angle_alpha   90.00000000
_cell_angle_beta   90.00000000
_cell_angle_gamma   88.11773744
_symmetry_Int_Tables_number   1
_chemical_formula_structural   V6O5F8
_chemical_formula_sum   'V24 O20 F32'
_cell_volume   786.77403691
_cell_formula_units_Z   4
loop_
 _symmetry_equiv_pos_site_id
 _symmetry_equiv_pos_as_xyz
  1  'x, y, z'
loop_
 _atom_site_type_symbol
 _atom_site_label
 _atom_site_symmetry_multiplicity
 _atom_site_fract_x
 _atom_site_fract_y
 _atom_site_fract_z
 _atom_site_occupancy
  V  V0  1  0.29413856  0.00064702  0.74508695  1
  V  V1  1  0.29413856  0.50064702  0.75491305  1
  V  V2  1  0.29068329  0.25656246  0.28647272  1
  V  V3  1  0.29068329  0.75656246  0.21352728  1
  V  V4  1  0.27106916  0.66169007  0.79455470  1
  V  V5  1  0.30746940  0.33916421  0.73171580  1
  V  V6  1  0.30746940  0.83916421  0.76828420  1
  V  V7  1  0.27106916  0.16169007  0.70544530  1
  V  V8  1  0.29141365  0.08139777  0.29120609  1
  V  V9  1  0.29141365  0.58139777  0.20879391  1
  V  V10  1  0.30339683  0.41843907  0.29344586  1
  V  V11  1  0.30339683  0.91843907  0.20655414  1
  V  V12  1  0.69660317  0.08156093  0.79344586  1
  V  V13  1  0.70858635  0.91860223  0.70879391  1
  V  V14  1  0.70858635  0.41860223  0.79120609  1
  V  V15  1  0.69660317  0.58156093  0.70655414  1
  V  V16  1  0.69253060  0.16083579  0.23171580  1
  V  V17  1  0.72893084  0.83830993  0.29455470  1
  V  V18  1  0.69253060  0.66083579  0.26828420  1
  V  V19  1  0.72893084  0.33830993  0.20544530  1
  V  V20  1  0.70931671  0.74343754  0.71352728  1
  V  V21  1  0.70931671  0.24343754  0.78647272  1
  V  V22  1  0.70586144  0.49935298  0.24508695  1
  V  V23  1  0.70586144  0.99935298  0.25491305  1
  O  O24  1  0.48540495  0.29114208  -0.00025281  1
  O  O25  1  0.48540495  0.79114208  0.50025281  1
  O  O26  1  0.47282520  0.87705120  0.49642789  1
  O  O27  1  0.44987569  0.62623637  0.49838445  1
  O  O28  1  0.47282520  0.37705120  0.00357211  1
  O  O29  1  0.44987569  0.12623637  0.00161555  1
  O  O30  1  0.48012206  0.54160712  0.47175050  1
  O  O31  1  0.47951202  0.95896748  0.47034815  1
  O  O32  1  0.48012206  0.04160712  0.02824850  1
  O  O33  1  0.47951202  0.45896748  0.02965185  1
  O  O34  1  0.52048798  0.54103252  0.97034815  1
  O  O35  1  0.52048798  0.04103252  0.52965185  1
  O  O36  1  0.51987794  0.45839288  0.52824850  1
  O  O37  1  0.51987794  0.95839288  0.97175150  1
  O  O38  1  0.55012431  0.87376363  0.99838445  1
  O  O39  1  0.55012431  0.37376363  0.50161555  1
  O  O40  1  0.52717480  0.62294880  0.99642789  1
  O  O41  1  0.52717480  0.12294880  0.50357211  1
  O  O42  1  0.51459505  0.20885792  0.49974719  1
  O  O43  1  0.51459505  0.70885792  0.00025281  1
  F  F44  1  0.03337652  0.03487787  0.38569775  1
  F  F45  1  0.02796425  0.46459515  0.38666259  1
  F  F46  1  0.03337652  0.53487787  0.11430225  1
  F  F47  1  0.02796425  0.96459515  0.11333741  1
  F  F48  1  0.05428325  0.10690321  0.62972549  1
  F  F49  1  0.07040699  0.39241739  0.62280327  1
  F  F50  1  0.05428325  0.60690321  0.87027451  1
  F  F51  1  0.07040699  0.89241739  0.87719673  1
  F  F52  1  0.04835489  0.17610671  0.38174672  1
  F  F53  1  0.11027968  0.31757074  0.37905071  1
  F  F54  1  0.11027968  0.81757074  0.12094929  1
  F  F55  1  0.04835489  0.67610671  0.11825328  1
  F  F56  1  0.06769801  0.24972478  0.62673863  1
  F  F57  1  0.06769801  0.74972478  0.87326137  1
  F  F58  1  0.41853634  0.70913458  0.49394493  1
  F  F59  1  0.41853634  0.20913458  0.00605507  1
  F  F60  1  0.58146366  0.29086542  0.50605507  1
  F  F61  1  0.58146366  0.79086542  0.99394493  1
  F  F62  1  0.93230199  0.75027522  0.37326137  1
  F  F63  1  0.93230199  0.25027522  0.12673863  1
  F  F64  1  0.88972032  0.18242926  0.87905071  1
  F  F65  1  0.95164511  0.82389329  0.61825328  1
  F  F66  1  0.95164511  0.32389329  0.88174672  1
  F  F67  1  0.88972032  0.68242926  0.62094929  1
  F  F68  1  0.92959301  0.60758261  0.37719673  1
  F  F69  1  0.92959301  0.10758261  0.12280327  1
  F  F70  1  0.94571675  0.89309679  0.37027451  1
  F  F71  1  0.94571675  0.39309679  0.12972549  1
  F  F72  1  0.96662348  0.46512213  0.88569775  1
  F  F73  1  0.97203575  0.03540485  0.88666259  1
  F  F74  1  0.97203575  0.53540485  0.61333741  1
  F  F75  1  0.96662348  0.96512213  0.61430225  1
