# generated using pymatgen
data_Li5V2Cr2O8
_symmetry_space_group_name_H-M   'P 1'
_cell_length_a   6.08710775
_cell_length_b   6.08710737
_cell_length_c   6.06987907
_cell_angle_alpha   89.39721588
_cell_angle_beta   120.11611000
_cell_angle_gamma   120.67427942
_symmetry_Int_Tables_number   1
_chemical_formula_structural   Li5V2Cr2O8
_chemical_formula_sum   'Li5 V2 Cr2 O8'
_cell_volume   157.95708316
_cell_formula_units_Z   1
loop_
 _symmetry_equiv_pos_site_id
 _symmetry_equiv_pos_as_xyz
  1  'x, y, z'
loop_
 _atom_site_type_symbol
 _atom_site_label
 _atom_site_symmetry_multiplicity
 _atom_site_fract_x
 _atom_site_fract_y
 _atom_site_fract_z
 _atom_site_occupancy
  Li  Li0  1  0.99995651  0.00000235  0.99995986  1
  Li  Li1  1  -0.00000729  -0.00001544  0.49996269  1
  Li  Li2  1  0.49997813  0.49996998  0.49996269  1
  Li  Li3  1  0.35619728  0.06633572  0.42253200  1
  Li  Li4  1  0.64380445  0.93368169  0.57748715  1
  V  V5  1  0.49996478  0.50007179  0.00003557  1
  V  V6  1  0.00003652  0.50003039  0.50006690  1
  Cr  Cr7  1  0.00010735  0.50003010  -0.00003147  1
  Cr  Cr8  1  0.49993843  -0.00013982  -0.00003147  1
  O  O9  1  0.48420732  0.74695205  0.23116037  1
  O  O10  1  0.01863379  0.74970215  0.76833594  1
  O  O11  1  0.49751169  0.24812283  0.22560011  1
  O  O12  1  0.97747728  0.72808842  0.22560011  1
  O  O13  1  0.02248245  0.27188205  0.77439746  1
  O  O14  1  0.50251541  0.75191501  0.77439746  1
  O  O15  1  0.98143483  0.25034003  0.23177487  1
  O  O16  1  0.51575707  0.25302569  0.76878276  1
