# generated using pymatgen
data_Mn12O7F17
_symmetry_space_group_name_H-M   'P 1'
_cell_length_a   5.34716579
_cell_length_b   5.39899325
_cell_length_c   15.22232261
_cell_angle_alpha   95.36893177
_cell_angle_beta   89.99975805
_cell_angle_gamma   87.17671515
_symmetry_Int_Tables_number   1
_chemical_formula_structural   Mn12O7F17
_chemical_formula_sum   'Mn12 O7 F17'
_cell_volume   436.99423667
_cell_formula_units_Z   1
loop_
 _symmetry_equiv_pos_site_id
 _symmetry_equiv_pos_as_xyz
  1  'x, y, z'
loop_
 _atom_site_type_symbol
 _atom_site_label
 _atom_site_symmetry_multiplicity
 _atom_site_fract_x
 _atom_site_fract_y
 _atom_site_fract_z
 _atom_site_occupancy
  Mn  Mn0  1  0.99821195  0.95702770  0.99001956  1
  Mn  Mn1  1  0.01784657  0.40242849  0.17816231  1
  Mn  Mn2  1  0.99120185  0.89452621  0.32985688  1
  Mn  Mn3  1  0.95477261  0.46195271  0.51072804  1
  Mn  Mn4  1  0.00086187  0.94120690  0.66775865  1
  Mn  Mn5  1  0.10823161  0.49838859  0.83463644  1
  Mn  Mn6  1  0.50455740  0.07579767  0.16389159  1
  Mn  Mn7  1  0.50481614  0.51847842  0.01254887  1
  Mn  Mn8  1  0.43268014  0.54235469  0.66529334  1
  Mn  Mn9  1  0.49412445  0.10498992  0.50184602  1
  Mn  Mn10  1  0.49440931  0.54006997  0.32376824  1
  Mn  Mn11  1  0.47165579  0.94482617  0.84058711  1
  O  O12  1  0.22258029  0.75733903  0.75602035  1
  O  O13  1  0.32693297  0.33494338  0.11001745  1
  O  O14  1  0.16851561  0.60898701  0.26889590  1
  O  O15  1  0.16870409  0.66964981  0.59404699  1
  O  O16  1  0.28978313  0.70456148  0.91956702  1
  O  O17  1  0.63491880  0.36294043  0.57448096  1
  O  O18  1  0.69948453  0.31910302  0.23446668  1
  F  F19  1  0.18859979  0.11327046  0.25730399  1
  F  F20  1  0.26076561  0.85145038  0.09662302  1
  F  F21  1  0.16116683  0.16440883  0.57785188  1
  F  F22  1  0.34032464  0.86001546  0.41496049  1
  F  F23  1  0.15193452  0.21682470  0.90909285  1
  F  F24  1  0.43061170  0.27893026  0.75784563  1
  F  F25  1  0.31830497  0.35839795  0.43031941  1
  F  F26  1  0.64116672  0.18114452  0.92780728  1
  F  F27  1  0.73563688  0.81050947  0.07422318  1
  F  F28  1  0.80909863  0.63453911  0.39918462  1
  F  F29  1  0.70008042  0.77330225  0.72969795  1
  F  F30  1  0.82519282  0.14816398  0.41898861  1
  F  F31  1  0.84895460  0.29790815  0.06920392  1
  F  F32  1  0.94105875  0.26668736  0.74673554  1
  F  F33  1  0.70438582  0.87168160  0.56479237  1
  F  F34  1  0.79682425  0.69448884  0.89840108  1
  F  F35  1  0.66160392  0.83870805  0.25037478  1
