# generated using pymatgen
data_Li8Fe(O2F)2
_symmetry_space_group_name_H-M   'P 1'
_cell_length_a   5.64959145
_cell_length_b   5.79923980
_cell_length_c   10.89588944
_cell_angle_alpha   89.99986469
_cell_angle_beta   89.99997656
_cell_angle_gamma   120.88037427
_symmetry_Int_Tables_number   1
_chemical_formula_structural   Li8Fe(O2F)2
_chemical_formula_sum   'Li16 Fe2 O8 F4'
_cell_volume   306.37966330
_cell_formula_units_Z   2
loop_
 _symmetry_equiv_pos_site_id
 _symmetry_equiv_pos_as_xyz
  1  'x, y, z'
loop_
 _atom_site_type_symbol
 _atom_site_label
 _atom_site_symmetry_multiplicity
 _atom_site_fract_x
 _atom_site_fract_y
 _atom_site_fract_z
 _atom_site_occupancy
  Li  Li0  1  0.99998391  0.68485869  0.77632668  1
  Li  Li1  1  0.00000730  0.56892885  0.12340524  1
  Li  Li2  1  0.99998756  0.43106026  0.62340943  1
  Li  Li3  1  0.00000983  0.31515243  0.27632398  1
  Li  Li4  1  0.32966108  0.66102423  0.40294954  1
  Li  Li5  1  0.32964973  0.66864804  0.90296450  1
  Li  Li6  1  0.29906185  0.30528408  0.76346302  1
  Li  Li7  1  0.37632949  0.38242963  0.13778076  1
  Li  Li8  1  0.62367371  0.61756842  0.63778471  1
  Li  Li9  1  0.29908966  0.99378753  0.26346573  1
  Li  Li10  1  0.70092238  0.69470207  0.26346144  1
  Li  Li11  1  0.37626441  0.99387113  0.63778405  1
  Li  Li12  1  0.67032898  0.33898130  0.90295583  1
  Li  Li13  1  0.67033303  0.33135364  0.40295708  1
  Li  Li14  1  0.62370783  0.00612228  0.13778526  1
  Li  Li15  1  0.70090056  0.00620703  0.76346401  1
  Fe  Fe16  1  0.99999529  0.95658861  0.01051623  1
  Fe  Fe17  1  0.99997205  0.04341494  0.51049514  1
  O  O18  1  0.00000976  0.65178424  0.95150261  1
  O  O19  1  0.99997423  0.34824514  0.45149597  1
  O  O20  1  0.34015166  0.67243917  0.21765480  1
  O  O21  1  0.00002922  0.02602524  0.18433444  1
  O  O22  1  0.99996066  0.97397515  0.68430849  1
  O  O23  1  0.34011652  0.66772750  0.71767492  1
  O  O24  1  0.65983678  0.32755176  0.71765885  1
  O  O25  1  0.65987829  0.33226850  0.21766925  1
  F  F26  1  0.33143571  0.34239445  0.94796002  1
  F  F27  1  0.33141688  0.98904466  0.44796477  1
  F  F28  1  0.66853939  0.65759941  0.44794989  1
  F  F29  1  0.66857326  0.01096460  0.94797237  1
