# generated using pymatgen
data_Li5NiO3F2
_symmetry_space_group_name_H-M   'P 1'
_cell_length_a   3.92971345
_cell_length_b   5.07872270
_cell_length_c   5.86265625
_cell_angle_alpha   72.67216598
_cell_angle_beta   90.05523710
_cell_angle_gamma   67.25237734
_symmetry_Int_Tables_number   1
_chemical_formula_structural   Li5NiO3F2
_chemical_formula_sum   'Li5 Ni1 O3 F2'
_cell_volume   102.10805149
_cell_formula_units_Z   1
loop_
 _symmetry_equiv_pos_site_id
 _symmetry_equiv_pos_as_xyz
  1  'x, y, z'
loop_
 _atom_site_type_symbol
 _atom_site_label
 _atom_site_symmetry_multiplicity
 _atom_site_fract_x
 _atom_site_fract_y
 _atom_site_fract_z
 _atom_site_occupancy
  Li  Li0  1  0.67312218  0.65518660  0.87293763  1
  Li  Li1  1  0.69708656  0.61610677  0.30035922  1
  Li  Li2  1  0.30395295  0.39477558  0.69542153  1
  Li  Li3  1  0.32721313  0.35021661  0.12449205  1
  Li  Li4  1  0.99496972  0.00570592  0.49963209  1
  Ni  Ni5  1  0.00147083  0.00359331  0.99803917  1
  O  O6  1  0.13779250  0.72778975  0.82134434  1
  O  O7  1  0.86341804  0.27895276  0.17594053  1
  O  O8  1  0.50096873  0.00522715  0.99472829  1
  F  F9  1  0.18038532  0.64908185  0.34360193  1
  F  F10  1  0.82314404  0.36010570  0.65152721  1
