# generated using pymatgen
data_Na5CrO4
_symmetry_space_group_name_H-M   'P 1'
_cell_length_a   10.77020735
_cell_length_b   6.02218749
_cell_length_c   17.96886516
_cell_angle_alpha   90.00000000
_cell_angle_beta   90.00000000
_cell_angle_gamma   90.00000000
_symmetry_Int_Tables_number   1
_chemical_formula_structural   Na5CrO4
_chemical_formula_sum   'Na40 Cr8 O32'
_cell_volume   1165.46433122
_cell_formula_units_Z   8
loop_
 _symmetry_equiv_pos_site_id
 _symmetry_equiv_pos_as_xyz
  1  'x, y, z'
loop_
 _atom_site_type_symbol
 _atom_site_label
 _atom_site_symmetry_multiplicity
 _atom_site_fract_x
 _atom_site_fract_y
 _atom_site_fract_z
 _atom_site_occupancy
  Na  Na0  1  0.07203751  0.08287803  0.43640017  1
  Na  Na1  1  0.07203751  0.41712197  0.93640017  1
  Na  Na2  1  0.07408577  0.59689696  0.75248155  1
  Na  Na3  1  0.07408577  0.90310304  0.25248155  1
  Na  Na4  1  0.16181120  0.91849147  0.00157498  1
  Na  Na5  1  0.16181120  0.58150853  0.50157498  1
  Na  Na6  1  0.17691312  0.10679572  0.82692660  1
  Na  Na7  1  0.17691312  0.39320428  0.32692660  1
  Na  Na8  1  0.19519111  0.59426444  0.13888989  1
  Na  Na9  1  0.19519111  0.90573556  0.63888989  1
  Na  Na10  1  0.30480889  0.09426444  0.13888989  1
  Na  Na11  1  0.30480889  0.40573556  0.63888989  1
  Na  Na12  1  0.32308688  0.60679572  0.82692660  1
  Na  Na13  1  0.32308688  0.89320428  0.32692660  1
  Na  Na14  1  0.33818880  0.41849147  0.00157498  1
  Na  Na15  1  0.33818880  0.08150853  0.50157498  1
  Na  Na16  1  0.42591423  0.40310304  0.25248155  1
  Na  Na17  1  0.42591423  0.09689696  0.75248155  1
  Na  Na18  1  0.42796249  0.91712197  0.93640017  1
  Na  Na19  1  0.42796249  0.58287803  0.43640017  1
  Na  Na20  1  0.57203751  0.08287803  0.06359983  1
  Na  Na21  1  0.57203751  0.41712197  0.56359983  1
  Na  Na22  1  0.57408577  0.90310304  0.24751845  1
  Na  Na23  1  0.57408577  0.59689696  0.74751845  1
  Na  Na24  1  0.66181120  0.58150853  0.99842502  1
  Na  Na25  1  0.66181120  0.91849147  0.49842502  1
  Na  Na26  1  0.67691312  0.39320428  0.17307340  1
  Na  Na27  1  0.67691312  0.10679572  0.67307340  1
  Na  Na28  1  0.69519111  0.59426444  0.36111011  1
  Na  Na29  1  0.69519111  0.90573556  0.86111011  1
  Na  Na30  1  0.80480889  0.09426444  0.36111011  1
  Na  Na31  1  0.80480889  0.40573556  0.86111011  1
  Na  Na32  1  0.82308688  0.60679572  0.67307340  1
  Na  Na33  1  0.82308688  0.89320428  0.17307340  1
  Na  Na34  1  0.83818880  0.41849147  0.49842502  1
  Na  Na35  1  0.83818880  0.08150853  0.99842502  1
  Na  Na36  1  0.92591423  0.09689696  0.74751845  1
  Na  Na37  1  0.92591423  0.40310304  0.24751845  1
  Na  Na38  1  0.92796249  0.91712197  0.56359983  1
  Na  Na39  1  0.92796249  0.58287803  0.06359983  1
  Cr  Cr40  1  0.04021048  0.17587866  0.12201764  1
  Cr  Cr41  1  0.04021048  0.32412134  0.62201764  1
  Cr  Cr42  1  0.45978952  0.67587866  0.12201764  1
  Cr  Cr43  1  0.45978952  0.82412134  0.62201764  1
  Cr  Cr44  1  0.54021048  0.17587866  0.37798236  1
  Cr  Cr45  1  0.54021048  0.32412134  0.87798236  1
  Cr  Cr46  1  0.95978952  0.67587866  0.37798236  1
  Cr  Cr47  1  0.95978952  0.82412134  0.87798236  1
  O  O48  1  0.03040488  0.85979091  0.12015210  1
  O  O49  1  0.03040488  0.64020909  0.62015210  1
  O  O50  1  0.13056176  0.27049606  0.20886167  1
  O  O51  1  0.13056176  0.22950394  0.70886167  1
  O  O52  1  0.14496734  0.30985741  0.04876527  1
  O  O53  1  0.14496734  0.19014259  0.54876527  1
  O  O54  1  0.13625128  0.75051694  0.37537996  1
  O  O55  1  0.13625128  0.74948306  0.87537996  1
  O  O56  1  0.36374872  0.25051694  0.37537996  1
  O  O57  1  0.36374872  0.24948306  0.87537996  1
  O  O58  1  0.35503266  0.80985741  0.04876527  1
  O  O59  1  0.35503266  0.69014259  0.54876527  1
  O  O60  1  0.36943824  0.72950394  0.70886167  1
  O  O61  1  0.36943824  0.77049606  0.20886167  1
  O  O62  1  0.46959512  0.35979091  0.12015210  1
  O  O63  1  0.46959512  0.14020909  0.62015210  1
  O  O64  1  0.53040488  0.85979091  0.37984790  1
  O  O65  1  0.53040488  0.64020909  0.87984790  1
  O  O66  1  0.63056176  0.22950394  0.79113833  1
  O  O67  1  0.63056176  0.27049606  0.29113833  1
  O  O68  1  0.64496734  0.19014259  0.95123473  1
  O  O69  1  0.64496734  0.30985741  0.45123473  1
  O  O70  1  0.63625128  0.75051694  0.12462004  1
  O  O71  1  0.63625128  0.74948306  0.62462004  1
  O  O72  1  0.86374872  0.24948306  0.62462004  1
  O  O73  1  0.86374872  0.25051694  0.12462004  1
  O  O74  1  0.85503266  0.80985741  0.45123473  1
  O  O75  1  0.85503266  0.69014259  0.95123473  1
  O  O76  1  0.86943824  0.72950394  0.79113833  1
  O  O77  1  0.86943824  0.77049606  0.29113833  1
  O  O78  1  0.96959512  0.35979091  0.37984790  1
  O  O79  1  0.96959512  0.14020909  0.87984790  1
