# generated using pymatgen
data_LiFe2OF3
_symmetry_space_group_name_H-M   'P 1'
_cell_length_a   10.64647682
_cell_length_b   6.30506811
_cell_length_c   5.23378159
_cell_angle_alpha   90.00000000
_cell_angle_beta   87.61159252
_cell_angle_gamma   90.00000000
_symmetry_Int_Tables_number   1
_chemical_formula_structural   LiFe2OF3
_chemical_formula_sum   'Li4 Fe8 O4 F12'
_cell_volume   351.02160451
_cell_formula_units_Z   4
loop_
 _symmetry_equiv_pos_site_id
 _symmetry_equiv_pos_as_xyz
  1  'x, y, z'
loop_
 _atom_site_type_symbol
 _atom_site_label
 _atom_site_symmetry_multiplicity
 _atom_site_fract_x
 _atom_site_fract_y
 _atom_site_fract_z
 _atom_site_occupancy
  Li  Li0  1  0.16801110  0.50000000  0.02263696  1
  Li  Li1  1  0.32471462  0.00000000  0.96169472  1
  Li  Li2  1  0.69701437  0.00000000  0.08540822  1
  Li  Li3  1  0.82661491  0.50000000  0.93783337  1
  Fe  Fe4  1  0.99038155  0.00000000  0.49035381  1
  Fe  Fe5  1  0.00868183  0.50000000  0.50257652  1
  Fe  Fe6  1  0.25983838  0.25419948  0.48600740  1
  Fe  Fe7  1  0.25983838  0.74580052  0.48600740  1
  Fe  Fe8  1  0.49875653  0.00000000  0.49546251  1
  Fe  Fe9  1  0.51093999  0.50000000  0.97008898  1
  Fe  Fe10  1  0.73566464  0.25805503  0.52354936  1
  Fe  Fe11  1  0.73566464  0.74194497  0.52354936  1
  O  O12  1  0.17602477  0.50000000  0.66181416  1
  O  O13  1  0.33922121  0.00000000  0.31775421  1
  O  O14  1  0.66922786  0.50000000  0.74274148  1
  O  O15  1  0.81789704  0.00000000  0.35395204  1
  F  F16  1  0.08780412  0.25789887  0.25288350  1
  F  F17  1  0.08780412  0.74210113  0.25288350  1
  F  F18  1  0.15368779  0.00000000  0.70586951  1
  F  F19  1  0.33854496  0.50000000  0.19275329  1
  F  F20  1  0.41138556  0.23294123  0.76957450  1
  F  F21  1  0.41138556  0.76705877  0.76957450  1
  F  F22  1  0.59220169  0.23782193  0.23587897  1
  F  F23  1  0.59220169  0.76217807  0.23587897  1
  F  F24  1  0.64247467  0.00000000  0.75042533  1
  F  F25  1  0.84184601  0.50000000  0.29087240  1
  F  F26  1  0.91108601  0.26976269  0.74098701  1
  F  F27  1  0.91108601  0.73023731  0.74098701  1
