# generated using pymatgen
data_Li2VO3F
_symmetry_space_group_name_H-M   'P 1'
_cell_length_a   5.77496631
_cell_length_b   5.77474749
_cell_length_c   9.43470407
_cell_angle_alpha   72.40549768
_cell_angle_beta   70.75737295
_cell_angle_gamma   88.14103600
_symmetry_Int_Tables_number   1
_chemical_formula_structural   Li2VO3F
_chemical_formula_sum   'Li8 V4 O12 F4'
_cell_volume   282.37271670
_cell_formula_units_Z   4
loop_
 _symmetry_equiv_pos_site_id
 _symmetry_equiv_pos_as_xyz
  1  'x, y, z'
loop_
 _atom_site_type_symbol
 _atom_site_label
 _atom_site_symmetry_multiplicity
 _atom_site_fract_x
 _atom_site_fract_y
 _atom_site_fract_z
 _atom_site_occupancy
  Li  Li0  1  0.05251693  0.54459793  0.63427710  1
  Li  Li1  1  0.29341012  0.80180108  0.13393245  1
  Li  Li2  1  0.05068154  0.05104046  0.64015926  1
  Li  Li3  1  0.32132504  0.31320810  0.13423112  1
  Li  Li4  1  0.56425143  0.57275842  0.63396498  1
  Li  Li5  1  0.80884497  0.30905961  0.14014766  1
  Li  Li6  1  0.67880557  0.66497223  0.87502971  1
  Li  Li7  1  0.95997110  0.44617569  0.37503511  1
  V  V8  1  0.42035739  0.88121662  0.38668333  1
  V  V9  1  0.23201244  0.19302882  0.88672050  1
  V  V10  1  0.78665446  0.82795438  0.09867413  1
  V  V11  1  0.57321280  0.11473810  0.59869914  1
  O  O12  1  0.06720308  0.06567942  0.09622899  1
  O  O13  1  0.20219918  0.69665167  0.38297654  1
  O  O14  1  0.33809243  0.83664819  0.59621001  1
  O  O15  1  0.30823079  0.29004610  0.64791484  1
  O  O16  1  0.59312755  0.59612466  0.10775920  1
  O  O17  1  0.56215115  0.04372437  0.14791726  1
  O  O18  1  0.42867601  0.96344614  0.85217705  1
  O  O19  1  0.42026422  0.41487215  0.88305451  1
  O  O20  1  0.68440566  0.71899337  0.35224067  1
  O  O21  1  0.66222075  0.17578167  0.39790705  1
  O  O22  1  0.79597247  0.29913937  0.60780591  1
  O  O23  1  0.92628520  0.93983710  0.89789762  1
  F  F24  1  0.03938132  0.56907706  0.14487882  1
  F  F25  1  0.21310964  0.17717349  0.36421301  1
  F  F26  1  0.78606143  0.81564244  0.64493461  1
  F  F27  1  0.95852234  0.42265334  0.86434043  1
