# generated using pymatgen
data_Li4Mn3OF8
_symmetry_space_group_name_H-M   'P 1'
_cell_length_a   10.50760504
_cell_length_b   10.58325851
_cell_length_c   5.19491700
_cell_angle_alpha   90.42479284
_cell_angle_beta   91.05794964
_cell_angle_gamma   82.09637546
_symmetry_Int_Tables_number   1
_chemical_formula_structural   Li4Mn3OF8
_chemical_formula_sum   'Li12 Mn9 O3 F24'
_cell_volume   572.10701371
_cell_formula_units_Z   3
loop_
 _symmetry_equiv_pos_site_id
 _symmetry_equiv_pos_as_xyz
  1  'x, y, z'
loop_
 _atom_site_type_symbol
 _atom_site_label
 _atom_site_symmetry_multiplicity
 _atom_site_fract_x
 _atom_site_fract_y
 _atom_site_fract_z
 _atom_site_occupancy
  Li  Li0  1  0.20891639  0.99613579  0.49954527  1
  Li  Li1  1  0.00959879  0.79710320  0.49501237  1
  Li  Li2  1  0.12968375  0.53517744  0.42933297  1
  Li  Li3  1  0.45902003  0.86964593  0.42125825  1
  Li  Li4  1  0.38988423  0.61137715  0.38065286  1
  Li  Li5  1  0.26657143  0.27002671  0.47036796  1
  Li  Li6  1  0.73234926  0.73266999  0.46871066  1
  Li  Li7  1  0.61855794  0.38154075  0.38473771  1
  Li  Li8  1  0.53143706  0.13056744  0.43791846  1
  Li  Li9  1  0.87165089  0.46553039  0.44253208  1
  Li  Li10  1  0.79179664  0.00778693  0.50525337  1
  Li  Li11  1  0.98837412  0.20390913  0.50571611  1
  Mn  Mn12  1  0.20445478  0.74927015  0.98796478  1
  Mn  Mn13  1  0.09488550  0.33404947  0.96220762  1
  Mn  Mn14  1  0.65994315  0.90219104  0.95454832  1
  Mn  Mn15  1  0.38286794  0.40444672  0.93054626  1
  Mn  Mn16  1  0.99949646  0.98881141  0.00219446  1
  Mn  Mn17  1  0.61135191  0.60382388  0.90773387  1
  Mn  Mn18  1  0.33807973  0.10426586  0.95420185  1
  Mn  Mn19  1  0.90758663  0.67935534  0.97280149  1
  Mn  Mn20  1  0.75563638  0.24083572  0.95360896  1
  O  O21  1  0.02526071  0.80326774  0.13881262  1
  O  O22  1  0.71992420  0.72640137  0.11066012  1
  O  O23  1  0.27542188  0.27865532  0.11456227  1
  F  F24  1  0.11754462  0.89231877  0.68408040  1
  F  F25  1  0.19760553  0.00060461  0.14164402  1
  F  F26  1  0.06025544  0.64772324  0.68609193  1
  F  F27  1  0.36682554  0.96828695  0.66645542  1
  F  F28  1  0.99843448  0.49894584  0.19132566  1
  F  F29  1  0.24758515  0.56686331  0.17854898  1
  F  F30  1  0.37278429  0.76786637  0.20489096  1
  F  F31  1  0.41282348  0.58446962  0.73649870  1
  F  F32  1  0.57868252  0.77890333  0.64946249  1
  F  F33  1  0.21141202  0.41783346  0.66220909  1
  F  F34  1  0.51159990  0.50366745  0.19357163  1
  F  F35  1  0.15758891  0.16273341  0.63649341  1
  F  F36  1  0.84113256  0.84298704  0.63727502  1
  F  F37  1  0.78474058  0.58594880  0.66481285  1
  F  F38  1  0.41969597  0.23165627  0.66285280  1
  F  F39  1  0.62794269  0.38376928  0.74431480  1
  F  F40  1  0.59684741  0.23263581  0.19753839  1
  F  F41  1  0.77170560  0.39159626  0.20991642  1
  F  F42  1  0.50092848  0.99748115  0.18494474  1
  F  F43  1  0.94412049  0.35263161  0.69417654  1
  F  F44  1  0.64281148  0.05208056  0.69016027  1
  F  F45  1  0.79739023  0.02074795  0.14840895  1
  F  F46  1  0.98041934  0.19094867  0.14716104  1
  F  F47  1  0.88637050  0.11045437  0.70152381  1
