# generated using pymatgen
data_LiMn5O5F
_symmetry_space_group_name_H-M   'P 1'
_cell_length_a   3.48851913
_cell_length_b   3.48765796
_cell_length_c   15.96954294
_cell_angle_alpha   89.99999939
_cell_angle_beta   90.00395427
_cell_angle_gamma   119.99183838
_symmetry_Int_Tables_number   1
_chemical_formula_structural   LiMn5O5F
_chemical_formula_sum   'Li1 Mn5 O5 F1'
_cell_volume   168.28051128
_cell_formula_units_Z   1
loop_
 _symmetry_equiv_pos_site_id
 _symmetry_equiv_pos_as_xyz
  1  'x, y, z'
loop_
 _atom_site_type_symbol
 _atom_site_label
 _atom_site_symmetry_multiplicity
 _atom_site_fract_x
 _atom_site_fract_y
 _atom_site_fract_z
 _atom_site_occupancy
  Li  Li0  1  0.66665312  0.33337656  0.84103891  1
  Mn  Mn1  1  0.33334248  0.66672124  0.32918479  1
  Mn  Mn2  1  0.33344006  0.66677003  0.99288735  1
  Mn  Mn3  1  0.33330719  0.66670359  0.66448661  1
  Mn  Mn4  1  0.66670819  0.33340410  0.49726300  1
  Mn  Mn5  1  0.66673960  0.33341980  0.16079596  1
  O  O6  1  0.33333160  0.66671580  0.46430922  1
  O  O7  1  0.33334878  0.66672489  0.12783214  1
  O  O8  1  0.66671428  0.33340714  0.29579327  1
  O  O9  1  0.66646395  0.33328148  0.95920128  1
  O  O10  1  0.66667319  0.33338660  0.63272525  1
  F  F11  1  0.33327656  0.66668778  0.79751422  1
