# generated using pymatgen
data_CrOF
_symmetry_space_group_name_H-M   'P 1'
_cell_length_a   7.74625146
_cell_length_b   11.84908172
_cell_length_c   3.06260621
_cell_angle_alpha   90.00000000
_cell_angle_beta   90.00000000
_cell_angle_gamma   96.28758293
_symmetry_Int_Tables_number   1
_chemical_formula_structural   CrOF
_chemical_formula_sum   'Cr8 O8 F8'
_cell_volume   279.41334860
_cell_formula_units_Z   8
loop_
 _symmetry_equiv_pos_site_id
 _symmetry_equiv_pos_as_xyz
  1  'x, y, z'
loop_
 _atom_site_type_symbol
 _atom_site_label
 _atom_site_symmetry_multiplicity
 _atom_site_fract_x
 _atom_site_fract_y
 _atom_site_fract_z
 _atom_site_occupancy
  Cr  Cr0  1  0.14357571  0.86242315  0.75000000  1
  Cr  Cr1  1  0.16807137  0.51546382  0.25000000  1
  Cr  Cr2  1  0.21448518  0.28437958  0.75000000  1
  Cr  Cr3  1  0.61365379  0.92221660  0.75000000  1
  Cr  Cr4  1  0.38634621  0.07778340  0.25000000  1
  Cr  Cr5  1  0.78551482  0.71562042  0.25000000  1
  Cr  Cr6  1  0.83192863  0.48453618  0.75000000  1
  Cr  Cr7  1  0.85642429  0.13757685  0.25000000  1
  O  O8  1  0.06216335  0.42180508  0.75000000  1
  O  O9  1  0.37197366  0.95760324  0.75000000  1
  O  O10  1  0.10208237  0.20408653  0.25000000  1
  O  O11  1  0.60728593  0.81757631  0.25000000  1
  O  O12  1  0.39271407  0.18242369  0.75000000  1
  O  O13  1  0.89791763  0.79591347  0.75000000  1
  O  O14  1  0.62802634  0.04239676  0.25000000  1
  O  O15  1  0.93783665  0.57819492  0.25000000  1
  F  F16  1  0.10404013  0.96311891  0.25000000  1
  F  F17  1  0.19625540  0.76929412  0.25000000  1
  F  F18  1  0.28233147  0.59856405  0.75000000  1
  F  F19  1  0.33427065  0.39071673  0.25000000  1
  F  F20  1  0.66572935  0.60928327  0.75000000  1
  F  F21  1  0.71766853  0.40143595  0.25000000  1
  F  F22  1  0.80374460  0.23070588  0.75000000  1
  F  F23  1  0.89595987  0.03688109  0.75000000  1
