# generated using pymatgen
data_Li2NiO2F
_symmetry_space_group_name_H-M   'P 1'
_cell_length_a   5.02086226
_cell_length_b   9.16389895
_cell_length_c   5.02047785
_cell_angle_alpha   99.99976985
_cell_angle_beta   71.09299540
_cell_angle_gamma   78.72573313
_symmetry_Int_Tables_number   1
_chemical_formula_structural   Li2NiO2F
_chemical_formula_sum   'Li8 Ni4 O8 F4'
_cell_volume   207.20533714
_cell_formula_units_Z   4
loop_
 _symmetry_equiv_pos_site_id
 _symmetry_equiv_pos_as_xyz
  1  'x, y, z'
loop_
 _atom_site_type_symbol
 _atom_site_label
 _atom_site_symmetry_multiplicity
 _atom_site_fract_x
 _atom_site_fract_y
 _atom_site_fract_z
 _atom_site_occupancy
  Li  Li0  1  0.99507263  0.99466485  0.49097950  1
  Li  Li1  1  0.58158793  0.83206570  0.40651397  1
  Li  Li2  1  0.16466152  0.66973791  0.34768672  1
  Li  Li3  1  0.74132564  0.49544633  0.27220795  1
  Li  Li4  1  0.24598105  0.49483727  0.74173105  1
  Li  Li5  1  0.32661586  0.33292705  0.16898327  1
  Li  Li6  1  0.42566468  0.17122364  0.58952583  1
  Li  Li7  1  0.52667460  0.99509551  0.98698014  1
  Ni  Ni8  1  0.09424091  0.83431805  0.90730203  1
  Ni  Ni9  1  0.65872571  0.67228074  0.82541856  1
  Ni  Ni10  1  0.82350743  0.33426354  0.67781629  1
  Ni  Ni11  1  0.90342472  0.17219655  0.08063361  1
  O  O12  1  0.34633392  0.82443233  0.12028030  1
  O  O13  1  0.86121668  0.82588251  0.68159159  1
  O  O14  1  0.39991116  0.67449167  0.61799827  1
  O  O15  1  0.95375092  0.50042001  0.55014543  1
  O  O16  1  0.60536402  0.32575660  0.43686020  1
  O  O17  1  0.04595873  0.32472210  0.92045682  1
  O  O18  1  0.69387869  0.17446201  0.82438370  1
  O  O19  1  0.80053871  0.00008782  0.20300963  1
  F  F20  1  0.89436908  0.66492063  0.10031107  1
  F  F21  1  0.46568245  0.50110689  0.03068997  1
  F  F22  1  0.18483671  0.16486424  0.30800642  1
  F  F23  1  0.28007325  0.00095303  0.71461767  1
