# generated using pymatgen
data_Li4VO3F2
_symmetry_space_group_name_H-M   'P 1'
_cell_length_a   5.15706058
_cell_length_b   7.69525679
_cell_length_c   5.17197172
_cell_angle_alpha   104.63058850
_cell_angle_beta   99.20402645
_cell_angle_gamma   108.50321270
_symmetry_Int_Tables_number   1
_chemical_formula_structural   Li4VO3F2
_chemical_formula_sum   'Li8 V2 O6 F4'
_cell_volume   181.76516332
_cell_formula_units_Z   2
loop_
 _symmetry_equiv_pos_site_id
 _symmetry_equiv_pos_as_xyz
  1  'x, y, z'
loop_
 _atom_site_type_symbol
 _atom_site_label
 _atom_site_symmetry_multiplicity
 _atom_site_fract_x
 _atom_site_fract_y
 _atom_site_fract_z
 _atom_site_occupancy
  Li  Li0  1  0.19800699  0.68841938  0.60666887  1
  Li  Li1  1  0.04004517  0.50740368  0.99845518  1
  Li  Li2  1  0.02329733  0.01028604  0.51577626  1
  Li  Li3  1  0.42016998  0.91162669  0.18744318  1
  Li  Li4  1  0.40565609  0.40533623  0.69416721  1
  Li  Li5  1  0.58205603  0.59246682  0.28463321  1
  Li  Li6  1  0.57400051  0.10428763  0.77899716  1
  Li  Li7  1  0.79654046  0.30386130  0.41118750  1
  V  V8  1  0.19181614  0.19162705  0.14038930  1
  V  V9  1  0.78480087  0.78350096  0.89235762  1
  O  O10  1  0.17744470  0.96765300  0.86393406  1
  O  O11  1  0.19302938  0.42699659  0.31658464  1
  O  O12  1  0.43270845  0.66484570  0.95051943  1
  O  O13  1  0.39343456  0.15208257  0.43760477  1
  O  O14  1  0.81698641  0.57730675  0.66920220  1
  O  O15  1  0.81876981  0.03605401  0.14395038  1
  F  F16  1  0.98649087  0.24943569  0.75230325  1
  F  F17  1  0.59259828  0.84394243  0.56519834  1
  F  F18  1  0.58336211  0.34021491  0.05597008  1
  F  F19  1  0.98878485  0.74265158  0.23465835  1
