# generated using pymatgen
data_Li3Fe2(CO4)2
_symmetry_space_group_name_H-M   'P 1'
_cell_length_a   6.89109549
_cell_length_b   5.14882780
_cell_length_c   11.17013323
_cell_angle_alpha   89.99702518
_cell_angle_beta   100.92370760
_cell_angle_gamma   89.99916914
_symmetry_Int_Tables_number   1
_chemical_formula_structural   Li3Fe2(CO4)2
_chemical_formula_sum   'Li6 Fe4 C4 O16'
_cell_volume   389.14689751
_cell_formula_units_Z   2
loop_
 _symmetry_equiv_pos_site_id
 _symmetry_equiv_pos_as_xyz
  1  'x, y, z'
loop_
 _atom_site_type_symbol
 _atom_site_label
 _atom_site_symmetry_multiplicity
 _atom_site_fract_x
 _atom_site_fract_y
 _atom_site_fract_z
 _atom_site_occupancy
  Li  Li0  1  0.12620257  0.34644109  0.78716194  1
  Li  Li1  1  0.12619104  0.15355945  0.28715780  1
  Li  Li2  1  0.78677452  0.67590732  0.92994236  1
  Li  Li3  1  0.78677414  0.82409255  0.42993618  1
  Li  Li4  1  0.87481185  0.85813046  0.71523013  1
  Li  Li5  1  0.87480451  0.64187929  0.21521034  1
  Fe  Fe6  1  0.50948711  0.12967187  0.84365560  1
  Fe  Fe7  1  0.48683828  0.64577343  0.65631892  1
  Fe  Fe8  1  0.50948015  0.37036768  0.34365344  1
  Fe  Fe9  1  0.48677032  0.85424574  0.15632968  1
  C  C10  1  0.20031728  0.80427466  0.92421017  1
  C  C11  1  0.20030566  0.69571351  0.42421193  1
  C  C12  1  0.79583722  0.32866664  0.57077547  1
  C  C13  1  0.79585179  0.17129983  0.07076273  1
  O  O14  1  0.04687871  0.69746072  0.85729821  1
  O  O15  1  0.04685990  0.80253064  0.35729941  1
  O  O16  1  0.25608759  0.03606039  0.89346627  1
  O  O17  1  0.25608568  0.46393698  0.39346448  1
  O  O18  1  0.29532468  0.81079219  0.51890993  1
  O  O19  1  0.37888274  0.37287052  0.74082104  1
  O  O20  1  0.29533780  0.68917416  0.01891230  1
  O  O21  1  0.37888405  0.12716735  0.24083386  1
  O  O22  1  0.64309112  0.85679226  0.78844068  1
  O  O23  1  0.71171808  0.30505648  0.97366776  1
  O  O24  1  0.64308848  0.64323440  0.28843331  1
  O  O25  1  0.71171561  0.19495202  0.47366458  1
  O  O26  1  0.75681469  0.58003657  0.57327727  1
  O  O27  1  0.75689197  0.91992958  0.07326407  1
  O  O28  1  0.90740438  0.21488705  0.65800831  1
  O  O29  1  0.90740205  0.28509518  0.15801585  1
