# generated using pymatgen
data_V2F7
_symmetry_space_group_name_H-M   'P 1'
_cell_length_a   8.29578460
_cell_length_b   12.79913691
_cell_length_c   4.75438248
_cell_angle_alpha   90.00000000
_cell_angle_beta   90.00000000
_cell_angle_gamma   92.58503646
_symmetry_Int_Tables_number   1
_chemical_formula_structural   V2F7
_chemical_formula_sum   'V8 F28'
_cell_volume   504.30131206
_cell_formula_units_Z   4
loop_
 _symmetry_equiv_pos_site_id
 _symmetry_equiv_pos_as_xyz
  1  'x, y, z'
loop_
 _atom_site_type_symbol
 _atom_site_label
 _atom_site_symmetry_multiplicity
 _atom_site_fract_x
 _atom_site_fract_y
 _atom_site_fract_z
 _atom_site_occupancy
  V  V0  1  0.17046796  0.97417009  0.77778943  1
  V  V1  1  0.16208485  0.54185473  0.24866280  1
  V  V2  1  0.33144302  0.17862186  0.26867825  1
  V  V3  1  0.44472195  0.39019718  0.77646338  1
  V  V4  1  0.55527805  0.60980282  0.27646338  1
  V  V5  1  0.66855698  0.82137814  0.76867825  1
  V  V6  1  0.83791515  0.45814527  0.74866280  1
  V  V7  1  0.82953204  0.02582991  0.27778943  1
  F  F8  1  0.01487233  0.44570177  0.47869974  1
  F  F9  1  0.14639041  0.85894642  0.97632168  1
  F  F10  1  0.01552990  0.04316138  0.03988614  1
  F  F11  1  0.12836900  0.64992944  0.48145860  1
  F  F12  1  0.16322539  0.22303754  0.08692703  1
  F  F13  1  0.29555769  0.91424979  0.52831522  1
  F  F14  1  0.26480874  0.42903575  0.01347791  1
  F  F15  1  0.19811603  0.10692717  0.55331145  1
  F  F16  1  0.32237688  0.30412893  0.50616054  1
  F  F17  1  0.35586868  0.63175109  0.07933974  1
  F  F18  1  0.39791204  0.51227060  0.50574263  1
  F  F19  1  0.49442550  0.86103107  0.94671380  1
  F  F20  1  0.32658827  0.05173422  0.02148573  1
  F  F21  1  0.52972877  0.73558967  0.51220496  1
  F  F22  1  0.47027123  0.26441033  0.01220496  1
  F  F23  1  0.67341173  0.94826578  0.52148573  1
  F  F24  1  0.50557450  0.13896893  0.44671380  1
  F  F25  1  0.60208796  0.48772940  0.00574263  1
  F  F26  1  0.64413132  0.36824891  0.57933974  1
  F  F27  1  0.67762312  0.69587107  0.00616054  1
  F  F28  1  0.80188397  0.89307283  0.05331145  1
  F  F29  1  0.73519126  0.57096425  0.51347791  1
  F  F30  1  0.70444231  0.08575021  0.02831522  1
  F  F31  1  0.83677461  0.77696246  0.58692703  1
  F  F32  1  0.87163100  0.35007056  0.98145860  1
  F  F33  1  0.98447010  0.95683862  0.53988614  1
  F  F34  1  0.85360959  0.14105358  0.47632168  1
  F  F35  1  0.98512767  0.55429823  0.97869974  1
