# generated using pymatgen
data_Li2V(CO3)2
_symmetry_space_group_name_H-M   'P 1'
_cell_length_a   7.92454759
_cell_length_b   7.92444496
_cell_length_c   9.04340577
_cell_angle_alpha   73.72622349
_cell_angle_beta   73.72552301
_cell_angle_gamma   106.78240256
_symmetry_Int_Tables_number   1
_chemical_formula_structural   Li2V(CO3)2
_chemical_formula_sum   'Li8 V4 C8 O24'
_cell_volume   479.94473563
_cell_formula_units_Z   4
loop_
 _symmetry_equiv_pos_site_id
 _symmetry_equiv_pos_as_xyz
  1  'x, y, z'
loop_
 _atom_site_type_symbol
 _atom_site_label
 _atom_site_symmetry_multiplicity
 _atom_site_fract_x
 _atom_site_fract_y
 _atom_site_fract_z
 _atom_site_occupancy
  Li  Li0  1  0.86399001  0.24934049  0.93410634  1
  Li  Li1  1  0.54016351  0.27675867  0.63330706  1
  Li  Li2  1  0.59108972  0.66643501  0.48211909  1
  Li  Li3  1  0.41644442  0.84109342  0.98211678  1
  Li  Li4  1  0.52330121  0.30382422  0.14571710  1
  Li  Li5  1  0.05382595  0.77329680  0.64571837  1
  Li  Li6  1  0.99932958  0.11397604  0.43411159  1
  Li  Li7  1  0.02676054  0.79017213  0.13329576  1
  V  V8  1  0.24808233  0.24135250  0.00311497  1
  V  V9  1  0.99135333  0.49809036  0.50310066  1
  V  V10  1  0.74894447  0.74416916  0.99958872  1
  V  V11  1  0.49416251  0.99894051  0.49959823  1
  C  C12  1  0.71303456  0.06603653  0.74042873  1
  C  C13  1  0.67850229  0.52714501  0.77182320  1
  C  C14  1  0.81602488  0.96302134  0.24044113  1
  C  C15  1  0.27713797  0.92849234  0.27183642  1
  C  C16  1  0.78471610  0.43272719  0.26725691  1
  C  C17  1  0.18272467  0.03471299  0.76725259  1
  C  C18  1  0.21440220  0.55926574  0.73813706  1
  C  C19  1  0.30926037  0.46441127  0.23815954  1
  O  O20  1  0.86934080  0.18211919  0.61272241  1
  O  O21  1  0.71072114  0.01271250  0.89173090  1
  O  O22  1  0.93211538  0.11934120  0.11272911  1
  O  O23  1  0.94195127  0.52478798  0.27727311  1
  O  O24  1  0.77278349  0.68623598  0.77681929  1
  O  O25  1  0.70644985  0.51680491  0.62367589  1
  O  O26  1  0.56423709  0.37527601  0.90509284  1
  O  O27  1  0.63871794  0.30419578  0.40067118  1
  O  O28  1  0.76933782  0.47379936  0.12311488  1
  O  O29  1  0.76270571  0.96070500  0.39173782  1
  O  O30  1  0.75207278  0.80027185  0.22536686  1
  O  O31  1  0.43623274  0.02277971  0.27682840  1
  O  O32  1  0.55027585  0.00207807  0.72537011  1
  O  O33  1  0.27477985  0.19194223  0.77729233  1
  O  O34  1  0.22380236  0.01935084  0.62311338  1
  O  O35  1  0.23471198  0.50111269  0.87575225  1
  O  O36  1  0.35611524  0.69147994  0.60257365  1
  O  O37  1  0.44148708  0.60611347  0.10256536  1
  O  O38  1  0.25113194  0.48473062  0.37573436  1
  O  O39  1  0.24008810  0.29444401  0.23136404  1
  O  O40  1  0.04445001  0.49009120  0.73135070  1
  O  O41  1  0.05418680  0.88870275  0.90066545  1
  O  O42  1  0.12527847  0.81424212  0.40509224  1
  O  O43  1  0.26680972  0.95644386  0.12367719  1
