# generated using pymatgen
data_LiV3O5F3
_symmetry_space_group_name_H-M   'P 1'
_cell_length_a   6.66311893
_cell_length_b   3.79006378
_cell_length_c   12.24968704
_cell_angle_alpha   90.00000000
_cell_angle_beta   75.88490282
_cell_angle_gamma   90.00000000
_symmetry_Int_Tables_number   1
_chemical_formula_structural   LiV3O5F3
_chemical_formula_sum   'Li2 V6 O10 F6'
_cell_volume   300.00931893
_cell_formula_units_Z   2
loop_
 _symmetry_equiv_pos_site_id
 _symmetry_equiv_pos_as_xyz
  1  'x, y, z'
loop_
 _atom_site_type_symbol
 _atom_site_label
 _atom_site_symmetry_multiplicity
 _atom_site_fract_x
 _atom_site_fract_y
 _atom_site_fract_z
 _atom_site_occupancy
  Li  Li0  1  0.18587705  0.75000000  0.30080553  1
  Li  Li1  1  0.80902021  0.25000000  0.68759794  1
  V  V2  1  0.13547987  0.25000000  0.05915052  1
  V  V3  1  0.31627528  0.25000000  0.53800145  1
  V  V4  1  0.24422339  0.25000000  0.81191311  1
  V  V5  1  0.73504097  0.75000000  0.20112566  1
  V  V6  1  0.68381804  0.75000000  0.46121961  1
  V  V7  1  0.88991845  0.75000000  0.91593667  1
  O  O8  1  0.03866900  0.75000000  0.08036470  1
  O  O9  1  0.14371544  0.25000000  0.67356470  1
  O  O10  1  0.19411024  0.75000000  0.82692913  1
  O  O11  1  0.49465675  0.75000000  0.27837562  1
  O  O12  1  0.38439231  0.75000000  0.51756027  1
  O  O13  1  0.35151131  0.25000000  0.95001114  1
  O  O14  1  0.61412094  0.25000000  0.48086863  1
  O  O15  1  0.86415985  0.75000000  0.32981767  1
  O  O16  1  0.77568967  0.75000000  0.81101261  1
  O  O17  1  0.96956800  0.25000000  0.93504996  1
  F  F18  1  0.20928947  0.25000000  0.19806263  1
  F  F19  1  0.17304107  0.25000000  0.42549537  1
  F  F20  1  0.65804478  0.75000000  0.05194844  1
  F  F21  1  0.50741032  0.25000000  0.71423727  1
  F  F22  1  0.79692216  0.25000000  0.17528288  1
  F  F23  1  0.82504645  0.75000000  0.57566649  1
