# generated using pymatgen
data_Li4Mn3OF8
_symmetry_space_group_name_H-M   'P 1'
_cell_length_a   5.71474564
_cell_length_b   24.52011618
_cell_length_c   5.24942912
_cell_angle_alpha   90.00000000
_cell_angle_beta   90.00000000
_cell_angle_gamma   90.00000000
_symmetry_Int_Tables_number   1
_chemical_formula_structural   Li4Mn3OF8
_chemical_formula_sum   'Li16 Mn12 O4 F32'
_cell_volume   735.58269666
_cell_formula_units_Z   4
loop_
 _symmetry_equiv_pos_site_id
 _symmetry_equiv_pos_as_xyz
  1  'x, y, z'
loop_
 _atom_site_type_symbol
 _atom_site_label
 _atom_site_symmetry_multiplicity
 _atom_site_fract_x
 _atom_site_fract_y
 _atom_site_fract_z
 _atom_site_occupancy
  Li  Li0  1  0.19018480  0.18057418  0.98422843  1
  Li  Li1  1  0.19018480  0.31942582  0.98422843  1
  Li  Li2  1  0.24234971  0.97022018  0.55514014  1
  Li  Li3  1  0.24234971  0.52977982  0.55514014  1
  Li  Li4  1  0.25765029  0.02977982  0.05514014  1
  Li  Li5  1  0.25765029  0.47022118  0.05514014  1
  Li  Li6  1  0.30981520  0.68057418  0.48422843  1
  Li  Li7  1  0.30981520  0.81942582  0.48422843  1
  Li  Li8  1  0.65166915  0.18689862  0.52365058  1
  Li  Li9  1  0.65166915  0.31310138  0.52365058  1
  Li  Li10  1  0.73597153  0.53141134  0.92934397  1
  Li  Li11  1  0.73597153  0.96858866  0.92934397  1
  Li  Li12  1  0.76402847  0.03141134  0.42934397  1
  Li  Li13  1  0.76402847  0.46858866  0.42934397  1
  Li  Li14  1  0.84833085  0.68689862  0.02365058  1
  Li  Li15  1  0.84833085  0.81310138  0.02365058  1
  Mn  Mn16  1  0.12985550  0.25000000  0.45367253  1
  Mn  Mn17  1  0.23264601  0.61478178  0.98593432  1
  Mn  Mn18  1  0.23264601  0.88521822  0.98593432  1
  Mn  Mn19  1  0.26735399  0.11478178  0.48593432  1
  Mn  Mn20  1  0.26735399  0.38521822  0.48593432  1
  Mn  Mn21  1  0.37014450  0.75000000  0.95367253  1
  Mn  Mn22  1  0.56498658  0.25000000  0.09108387  1
  Mn  Mn23  1  0.74015551  0.60876912  0.49143960  1
  Mn  Mn24  1  0.74015551  0.89123088  0.49143960  1
  Mn  Mn25  1  0.75984449  0.10876912  0.99143960  1
  Mn  Mn26  1  0.75984449  0.39123088  0.99143960  1
  Mn  Mn27  1  0.93501342  0.75000000  0.59108387  1
  O  O28  1  0.35368808  0.30996598  0.30918884  1
  O  O29  1  0.35368808  0.19003402  0.30918884  1
  O  O30  1  0.14631192  0.80996598  0.80918884  1
  O  O31  1  0.14631192  0.69003402  0.80918884  1
  F  F32  1  0.00733618  0.64784628  0.29188624  1
  F  F33  1  0.00733618  0.85215372  0.29188624  1
  F  F34  1  0.98271979  0.57016665  0.74531277  1
  F  F35  1  0.98271979  0.92983335  0.74531277  1
  F  F36  1  0.24159634  0.75000000  0.33900095  1
  F  F37  1  0.23702814  0.54045712  0.19913434  1
  F  F38  1  0.23702814  0.95954288  0.19913434  1
  F  F39  1  0.26297186  0.04045712  0.69913434  1
  F  F40  1  0.26297186  0.45954288  0.69913434  1
  F  F41  1  0.25840266  0.25000000  0.83900095  1
  F  F42  1  0.51728021  0.07016665  0.24531277  1
  F  F43  1  0.51728021  0.42983335  0.24531277  1
  F  F44  1  0.49266382  0.14784628  0.79188624  1
  F  F45  1  0.49266382  0.35215372  0.79188624  1
  F  F46  1  0.50328341  0.85403603  0.23106253  1
  F  F47  1  0.50328341  0.64596397  0.23106253  1
  F  F48  1  0.48484748  0.57287977  0.73953200  1
  F  F49  1  0.48484748  0.92712023  0.73953200  1
  F  F50  1  0.73357492  0.75000000  0.17870126  1
  F  F51  1  0.73900801  0.53699320  0.28055959  1
  F  F52  1  0.73900801  0.96300680  0.28055959  1
  F  F53  1  0.84250876  0.19016488  0.20235683  1
  F  F54  1  0.84250876  0.30983512  0.20235683  1
  F  F55  1  0.65749124  0.69016488  0.70235683  1
  F  F56  1  0.65749124  0.80983512  0.70235683  1
  F  F57  1  0.76099199  0.03699320  0.78055959  1
  F  F58  1  0.76099199  0.46300680  0.78055959  1
  F  F59  1  0.76642508  0.25000000  0.67870126  1
  F  F60  1  0.01515252  0.07287977  0.23953200  1
  F  F61  1  0.01515252  0.42712023  0.23953200  1
  F  F62  1  0.99671659  0.14596397  0.73106253  1
  F  F63  1  0.99671659  0.35403603  0.73106253  1
