# generated using pymatgen
data_Li3V2(O2F)2
_symmetry_space_group_name_H-M   'P 1'
_cell_length_a   5.95862852
_cell_length_b   5.21634787
_cell_length_c   14.93876468
_cell_angle_alpha   90.76523054
_cell_angle_beta   90.75004028
_cell_angle_gamma   90.96686174
_symmetry_Int_Tables_number   1
_chemical_formula_structural   Li3V2(O2F)2
_chemical_formula_sum   'Li12 V8 O16 F8'
_cell_volume   464.18216151
_cell_formula_units_Z   4
loop_
 _symmetry_equiv_pos_site_id
 _symmetry_equiv_pos_as_xyz
  1  'x, y, z'
loop_
 _atom_site_type_symbol
 _atom_site_label
 _atom_site_symmetry_multiplicity
 _atom_site_fract_x
 _atom_site_fract_y
 _atom_site_fract_z
 _atom_site_occupancy
  Li  Li0  1  0.02331246  0.31655401  0.17161065  1
  Li  Li1  1  0.00011192  0.33997205  0.66832028  1
  Li  Li2  1  0.00463955  0.68677490  0.30881080  1
  Li  Li3  1  0.25470494  0.84594158  0.66700971  1
  Li  Li4  1  0.24320220  0.87245854  0.17219908  1
  Li  Li5  1  0.24954375  0.49165566  0.04369523  1
  Li  Li6  1  0.49525759  0.02664912  0.03312084  1
  Li  Li7  1  0.49193329  0.62266875  0.29176842  1
  Li  Li8  1  0.75945836  0.85175652  0.15549305  1
  Li  Li9  1  0.74341534  0.84496697  0.66667854  1
  Li  Li10  1  0.75165979  0.48320621  0.03815753  1
  Li  Li11  1  0.72552930  0.16048326  0.29130176  1
  V  V12  1  0.99903978  0.00319887  0.49878006  1
  V  V13  1  0.00067830  0.67091594  0.83770374  1
  V  V14  1  0.25251985  0.50006536  0.50268503  1
  V  V15  1  0.25438465  0.17521238  0.83141205  1
  V  V16  1  0.49836957  -0.00031963  0.49674182  1
  V  V17  1  0.50045901  0.66107712  0.82772847  1
  V  V18  1  0.74905802  0.49847460  0.50561903  1
  V  V19  1  0.75186628  0.16480523  0.83149450  1
  O  O20  1  0.97867429  0.33842016  0.43847002  1
  O  O21  1  0.00730213  0.34217986  0.89767995  1
  O  O22  1  0.01320350  0.00405714  0.75757655  1
  O  O23  1  0.00314063  0.67134187  0.57807121  1
  O  O24  1  0.24403128  0.82571681  0.43443515  1
  O  O25  1  0.24316123  0.83389995  0.89465708  1
  O  O26  1  0.23778067  0.49602797  0.75958283  1
  O  O27  1  0.23046170  0.15499006  0.57267402  1
  O  O28  1  0.50384208  0.33815888  0.43701334  1
  O  O29  1  0.48367985  0.31843550  0.89952595  1
  O  O30  1  0.49800151  0.99589782  0.75780218  1
  O  O31  1  0.52115047  0.67635861  0.57424059  1
  O  O32  1  0.77086991  0.82658743  0.43449085  1
  O  O33  1  0.74990006  0.83212286  0.89575464  1
  O  O34  1  0.77020257  0.51058114  0.76048864  1
  O  O35  1  0.75775615  0.16666081  0.57294711  1
  F  F36  1  0.98052744  0.99781495  0.24386813  1
  F  F37  1  0.99612408  0.64022280  0.09251534  1
  F  F38  1  0.22567993  0.53000162  0.24537880  1
  F  F39  1  0.24724209  0.16258163  0.08676370  1
  F  F40  1  0.51468596  0.94505889  0.24410527  1
  F  F41  1  0.50649917  0.68644809  0.06920417  1
  F  F42  1  0.76462548  0.49401540  0.26173437  1
  F  F43  1  0.75231588  0.16256730  0.08402252  1
