# generated using pymatgen
data_Li6FeO5F
_symmetry_space_group_name_H-M   'P 1'
_cell_length_a   5.53055193
_cell_length_b   5.62061648
_cell_length_c   10.54690045
_cell_angle_alpha   88.61354212
_cell_angle_beta   89.86866550
_cell_angle_gamma   60.90644814
_symmetry_Int_Tables_number   1
_chemical_formula_structural   Li6FeO5F
_chemical_formula_sum   'Li12 Fe2 O10 F2'
_cell_volume   286.38483053
_cell_formula_units_Z   2
loop_
 _symmetry_equiv_pos_site_id
 _symmetry_equiv_pos_as_xyz
  1  'x, y, z'
loop_
 _atom_site_type_symbol
 _atom_site_label
 _atom_site_symmetry_multiplicity
 _atom_site_fract_x
 _atom_site_fract_y
 _atom_site_fract_z
 _atom_site_occupancy
  Li  Li0  1  0.02142807  0.31976834  0.76244391  1
  Li  Li1  1  0.34332107  0.33029487  0.92904316  1
  Li  Li2  1  0.31526783  0.32545345  0.43235556  1
  Li  Li3  1  0.26065953  0.71656718  0.76402121  1
  Li  Li4  1  0.66330012  0.97597014  0.74225574  1
  Li  Li5  1  0.61544145  0.38131697  0.63577723  1
  Li  Li6  1  0.36540413  0.96183915  0.25232822  1
  Li  Li7  1  0.66324164  0.32495969  0.25927412  1
  Li  Li8  1  0.65294622  0.66551957  0.93231866  1
  Li  Li9  1  0.67466607  0.65803753  0.42546916  1
  Li  Li10  1  0.00588348  0.37920782  0.13730096  1
  Li  Li11  1  0.01006618  0.72333460  0.25660427  1
  Fe  Fe12  1  0.99135650  0.00150428  0.00080066  1
  Fe  Fe13  1  0.00073141  0.99827588  0.50078700  1
  O  O14  1  0.01409831  0.02877737  0.17132089  1
  O  O15  1  0.97204147  0.03884042  0.67058460  1
  O  O16  1  0.31741239  0.97319260  0.44543234  1
  O  O17  1  0.00531577  0.70065688  0.43841625  1
  O  O18  1  0.34944323  0.34025579  0.73393698  1
  O  O19  1  0.28537846  0.69359935  0.95141408  1
  O  O20  1  0.67954966  0.30239080  0.45576140  1
  O  O21  1  0.71243751  0.64367186  0.23496018  1
  O  O22  1  0.99197895  0.31714658  0.95638905  1
  O  O23  1  0.70317378  0.99432363  0.92656049  1
  F  F24  1  0.31904000  0.33393110  0.23367207  1
  F  F25  1  0.65233878  0.64454115  0.73310380  1
