# generated using pymatgen
data_Li2FeOF3
_symmetry_space_group_name_H-M   'P 1'
_cell_length_a   5.29003369
_cell_length_b   5.80708961
_cell_length_c   9.84287252
_cell_angle_alpha   90.00000000
_cell_angle_beta   82.76339999
_cell_angle_gamma   90.00000000
_symmetry_Int_Tables_number   1
_chemical_formula_structural   Li2FeOF3
_chemical_formula_sum   'Li8 Fe4 O4 F12'
_cell_volume   299.96153982
_cell_formula_units_Z   4
loop_
 _symmetry_equiv_pos_site_id
 _symmetry_equiv_pos_as_xyz
  1  'x, y, z'
loop_
 _atom_site_type_symbol
 _atom_site_label
 _atom_site_symmetry_multiplicity
 _atom_site_fract_x
 _atom_site_fract_y
 _atom_site_fract_z
 _atom_site_occupancy
  Li  Li0  1  0.49441109  0.40264251  0.25933769  1
  Li  Li1  1  0.73815260  0.62310481  0.01272398  1
  Li  Li2  1  0.49441109  0.59735749  0.75933769  1
  Li  Li3  1  0.73815260  0.37689519  0.51272398  1
  Li  Li4  1  0.96958823  0.12788902  0.24621740  1
  Li  Li5  1  0.00868952  0.63000666  0.24656927  1
  Li  Li6  1  0.96958823  0.87211098  0.74621740  1
  Li  Li7  1  0.00868952  0.36999334  0.74656927  1
  Fe  Fe8  1  0.25684157  0.86377436  0.99801783  1
  Fe  Fe9  1  0.25684157  0.13622564  0.49801783  1
  Fe  Fe10  1  0.74177068  0.10665447  0.99862829  1
  Fe  Fe11  1  0.74177068  0.89334553  0.49862829  1
  O  O12  1  0.59618016  0.12993886  0.39719751  1
  O  O13  1  0.92267083  0.88972287  0.10322759  1
  O  O14  1  0.59618016  0.87006114  0.89719751  1
  O  O15  1  0.92267083  0.11027713  0.60322759  1
  F  F16  1  0.13997990  0.35658158  0.35880370  1
  F  F17  1  0.08951222  0.89244084  0.37431639  1
  F  F18  1  0.39268382  0.12592585  0.11013356  1
  F  F19  1  0.35721473  0.62582842  0.12672557  1
  F  F20  1  0.13997990  0.64341842  0.85880370  1
  F  F21  1  0.08951222  0.10755916  0.87431639  1
  F  F22  1  0.39268382  0.87407415  0.61013356  1
  F  F23  1  0.35721473  0.37417158  0.62672557  1
  F  F24  1  0.68415047  0.62111321  0.38100785  1
  F  F25  1  0.82728418  0.36837096  0.13397437  1
  F  F26  1  0.68415047  0.37888679  0.88100785  1
  F  F27  1  0.82728418  0.63162904  0.63397437  1
