# generated using pymatgen
data_Li3V3O3F5
_symmetry_space_group_name_H-M   'P 1'
_cell_length_a   6.08282329
_cell_length_b   6.18892697
_cell_length_c   6.02346171
_cell_angle_alpha   119.40190113
_cell_angle_beta   90.28663307
_cell_angle_gamma   59.33577118
_symmetry_Int_Tables_number   1
_chemical_formula_structural   Li3V3O3F5
_chemical_formula_sum   'Li3 V3 O3 F5'
_cell_volume   160.56140733
_cell_formula_units_Z   1
loop_
 _symmetry_equiv_pos_site_id
 _symmetry_equiv_pos_as_xyz
  1  'x, y, z'
loop_
 _atom_site_type_symbol
 _atom_site_label
 _atom_site_symmetry_multiplicity
 _atom_site_fract_x
 _atom_site_fract_y
 _atom_site_fract_z
 _atom_site_occupancy
  Li  Li0  1  0.03095505  0.97940912  0.98962604  1
  Li  Li1  1  0.12999017  0.23029216  0.61451017  1
  Li  Li2  1  0.22995865  0.52848366  0.26417402  1
  V  V3  1  0.62481324  0.25103641  0.62611044  1
  V  V4  1  0.61284170  0.75040423  0.61389565  1
  V  V5  1  0.61438900  0.75000318  0.13611248  1
  O  O6  1  0.42665977  0.72927305  0.86379178  1
  O  O7  1  0.82819924  0.77465407  0.38925183  1
  O  O8  1  0.39050396  0.76788321  0.38264266  1
  F  F9  1  0.37635559  0.23426636  0.37709839  1
  F  F10  1  0.37705119  0.23525474  0.85765157  1
  F  F11  1  0.87271183  0.26840416  0.87682658  1
  F  F12  1  0.86983461  0.26748320  0.39107930  1
  F  F13  1  0.86573499  0.73315345  0.86722906  1
