# generated using pymatgen
data_Li5VF8
_symmetry_space_group_name_H-M   'P 1'
_cell_length_a   7.62155447
_cell_length_b   7.74482768
_cell_length_c   10.54361322
_cell_angle_alpha   90.00000000
_cell_angle_beta   105.50828751
_cell_angle_gamma   90.00000000
_symmetry_Int_Tables_number   1
_chemical_formula_structural   Li5VF8
_chemical_formula_sum   'Li20 V4 F32'
_cell_volume   599.70528144
_cell_formula_units_Z   4
loop_
 _symmetry_equiv_pos_site_id
 _symmetry_equiv_pos_as_xyz
  1  'x, y, z'
loop_
 _atom_site_type_symbol
 _atom_site_label
 _atom_site_symmetry_multiplicity
 _atom_site_fract_x
 _atom_site_fract_y
 _atom_site_fract_z
 _atom_site_occupancy
  Li  Li0  1  0.02435268  0.81706997  0.54465114  1
  Li  Li1  1  0.13203123  0.22180545  0.70471333  1
  Li  Li2  1  0.21214334  0.57346257  0.80302618  1
  Li  Li3  1  0.02435268  0.68293003  0.04465114  1
  Li  Li4  1  0.13203123  0.27819455  0.20471333  1
  Li  Li5  1  0.21214334  0.92653743  0.30302618  1
  Li  Li6  1  0.44673060  0.83544821  0.74670192  1
  Li  Li7  1  0.56127671  0.65440707  0.97819133  1
  Li  Li8  1  0.43872329  0.15440707  0.52180867  1
  Li  Li9  1  0.55326940  0.33544821  0.75329808  1
  Li  Li10  1  0.44673060  0.66455179  0.24670192  1
  Li  Li11  1  0.56127671  0.84559293  0.47819133  1
  Li  Li12  1  0.43872329  0.34559293  0.02180867  1
  Li  Li13  1  0.55326940  0.16455179  0.25329808  1
  Li  Li14  1  0.78785666  0.07346257  0.69697382  1
  Li  Li15  1  0.86796877  0.72180545  0.79528667  1
  Li  Li16  1  0.97564732  0.31706997  0.95534886  1
  Li  Li17  1  0.78785666  0.42653743  0.19697382  1
  Li  Li18  1  0.86796877  0.77819455  0.29528667  1
  Li  Li19  1  0.97564732  0.18293003  0.45534886  1
  V  V20  1  0.27552547  0.98092526  0.99173831  1
  V  V21  1  0.27552547  0.51907474  0.49173831  1
  V  V22  1  0.72447453  0.48092526  0.50826169  1
  V  V23  1  0.72447453  0.01907474  0.00826169  1
  F  F24  1  0.01225842  0.53707462  0.87871455  1
  F  F25  1  0.02682162  0.89077411  0.90482548  1
  F  F26  1  0.15647774  0.19129529  0.88524091  1
  F  F27  1  0.01225842  0.96292538  0.37871455  1
  F  F28  1  0.02682162  0.60922589  0.40482548  1
  F  F29  1  0.33197690  0.76885876  0.90005151  1
  F  F30  1  0.23881796  0.68071055  0.63862786  1
  F  F31  1  0.15647774  0.30870471  0.38524091  1
  F  F32  1  0.31896978  0.30269608  0.62423065  1
  F  F33  1  0.45071087  0.45958530  0.86863829  1
  F  F34  1  0.45940971  0.06419081  0.88863031  1
  F  F35  1  0.33197690  0.73114124  0.40005151  1
  F  F36  1  0.23881796  0.81928945  0.13862786  1
  F  F37  1  0.31896978  0.19730392  0.12423065  1
  F  F38  1  0.45071087  0.04041470  0.36863829  1
  F  F39  1  0.54059029  0.56419081  0.61136969  1
  F  F40  1  0.45940971  0.43580919  0.38863031  1
  F  F41  1  0.54928913  0.95958530  0.63136171  1
  F  F42  1  0.68103022  0.80269608  0.87576935  1
  F  F43  1  0.76118204  0.18071055  0.86137214  1
  F  F44  1  0.66802310  0.26885876  0.59994849  1
  F  F45  1  0.54059029  0.93580919  0.11136969  1
  F  F46  1  0.54928913  0.54041470  0.13136171  1
  F  F47  1  0.68103022  0.69730392  0.37576935  1
  F  F48  1  0.84352226  0.69129529  0.61475909  1
  F  F49  1  0.76118204  0.31928945  0.36137214  1
  F  F50  1  0.66802310  0.23114124  0.09994849  1
  F  F51  1  0.97317838  0.39077411  0.59517452  1
  F  F52  1  0.98774158  0.03707462  0.62128545  1
  F  F53  1  0.84352226  0.80870471  0.11475909  1
  F  F54  1  0.97317838  0.10922589  0.09517452  1
  F  F55  1  0.98774158  0.46292538  0.12128545  1
