# generated using pymatgen
data_Sb(PO3)4
_symmetry_space_group_name_H-M   'P 1'
_cell_length_a   9.69471803
_cell_length_b   13.53346296
_cell_length_c   7.28038881
_cell_angle_alpha   90.00000000
_cell_angle_beta   87.82397650
_cell_angle_gamma   90.00000000
_symmetry_Int_Tables_number   1
_chemical_formula_structural   Sb(PO3)4
_chemical_formula_sum   'Sb4 P16 O48'
_cell_volume   954.52082662
_cell_formula_units_Z   4
loop_
 _symmetry_equiv_pos_site_id
 _symmetry_equiv_pos_as_xyz
  1  'x, y, z'
loop_
 _atom_site_type_symbol
 _atom_site_label
 _atom_site_symmetry_multiplicity
 _atom_site_fract_x
 _atom_site_fract_y
 _atom_site_fract_z
 _atom_site_occupancy
  Sb  Sb0  1  0.07587675  0.78733833  0.47086937  1
  Sb  Sb1  1  0.42412325  0.28733833  0.02913063  1
  Sb  Sb2  1  0.57587675  0.71266167  0.97086937  1
  Sb  Sb3  1  0.92412325  0.21266167  0.52913063  1
  P  P4  1  0.19832299  0.58878574  0.31156942  1
  P  P5  1  0.19721213  0.37468929  0.37857198  1
  P  P6  1  0.21837223  0.91182341  0.71478256  1
  P  P7  1  0.23880238  0.12309895  0.59776314  1
  P  P8  1  0.26119762  0.62309895  0.90223686  1
  P  P9  1  0.30278787  0.87468929  0.12142802  1
  P  P10  1  0.30167701  0.08878574  0.18843058  1
  P  P11  1  0.28162777  0.41182341  0.78521744  1
  P  P12  1  0.71837223  0.58817659  0.21478256  1
  P  P13  1  0.69832299  0.91121426  0.81156942  1
  P  P14  1  0.69721213  0.12531071  0.87857198  1
  P  P15  1  0.73880238  0.37690105  0.09776314  1
  P  P16  1  0.76119762  0.87690105  0.40223686  1
  P  P17  1  0.78162777  0.08817659  0.28521744  1
  P  P18  1  0.80278787  0.62531071  0.62142802  1
  P  P19  1  0.80167701  0.41121426  0.68843058  1
  O  O20  1  0.07079448  0.65820178  0.30000617  1
  O  O21  1  0.06203147  0.90433698  0.68638307  1
  O  O22  1  0.08969802  0.29492718  0.36386602  1
  O  O23  1  0.08645578  0.14906873  0.64779962  1
  O  O24  1  0.12812986  0.47884567  0.33220474  1
  O  O25  1  0.16966066  0.86126388  0.23510538  1
  O  O26  1  0.15419331  0.69632858  0.86643892  1
  O  O27  1  0.20184135  0.11160676  0.04842855  1
  O  O28  1  0.23818761  0.38499283  0.58580450  1
  O  O29  1  0.20797265  0.34684413  0.92781900  1
  O  O30  1  0.23431412  0.08109677  0.39174817  1
  O  O31  1  0.22959818  0.52281216  0.79276680  1
  O  O32  1  0.26568588  0.58109677  0.10825183  1
  O  O33  1  0.27040182  0.02281216  0.70723320  1
  O  O34  1  0.29815865  0.61160676  0.45157145  1
  O  O35  1  0.29202735  0.84684413  0.57218100  1
  O  O36  1  0.26181239  0.88499283  0.91419550  1
  O  O37  1  0.33033934  0.36126388  0.26489462  1
  O  O38  1  0.37187014  0.97884567  0.16779526  1
  O  O39  1  0.34580669  0.19632858  0.63356108  1
  O  O40  1  0.41030198  0.79492718  0.13613398  1
  O  O41  1  0.42920552  0.15820178  0.19999383  1
  O  O42  1  0.41354422  0.64906873  0.85220038  1
  O  O43  1  0.43796853  0.40433698  0.81361693  1
  O  O44  1  0.56203147  0.59566302  0.18638307  1
  O  O45  1  0.58645578  0.35093127  0.14779962  1
  O  O46  1  0.57079448  0.84179822  0.80000617  1
  O  O47  1  0.58969802  0.20507282  0.86386602  1
  O  O48  1  0.65419331  0.80367142  0.36643892  1
  O  O49  1  0.62812986  0.02115433  0.83220474  1
  O  O50  1  0.66966066  0.63873612  0.73510538  1
  O  O51  1  0.73818761  0.11500717  0.08580450  1
  O  O52  1  0.70797265  0.15315587  0.42781900  1
  O  O53  1  0.70184135  0.38839324  0.54842855  1
  O  O54  1  0.72959818  0.97718784  0.29276680  1
  O  O55  1  0.73431412  0.41890323  0.89174817  1
  O  O56  1  0.77040182  0.47718784  0.20723320  1
  O  O57  1  0.76568588  0.91890323  0.60825183  1
  O  O58  1  0.79202735  0.65315587  0.07218100  1
  O  O59  1  0.76181239  0.61500717  0.41419550  1
  O  O60  1  0.79815865  0.88839324  0.95157145  1
  O  O61  1  0.84580669  0.30367142  0.13356108  1
  O  O62  1  0.83033934  0.13873612  0.76489462  1
  O  O63  1  0.87187014  0.52115433  0.66779526  1
  O  O64  1  0.91354422  0.85093127  0.35220038  1
  O  O65  1  0.91030198  0.70507282  0.63613398  1
  O  O66  1  0.93796853  0.09566302  0.31361693  1
  O  O67  1  0.92920552  0.34179822  0.69999383  1
