# generated using pymatgen
data_Li8Co(O2F)2
_symmetry_space_group_name_H-M   'P 1'
_cell_length_a   5.61544208
_cell_length_b   5.67257312
_cell_length_c   10.84689189
_cell_angle_alpha   89.99877254
_cell_angle_beta   90.00084791
_cell_angle_gamma   120.33732010
_symmetry_Int_Tables_number   1
_chemical_formula_structural   Li8Co(O2F)2
_chemical_formula_sum   'Li16 Co2 O8 F4'
_cell_volume   298.20419320
_cell_formula_units_Z   2
loop_
 _symmetry_equiv_pos_site_id
 _symmetry_equiv_pos_as_xyz
  1  'x, y, z'
loop_
 _atom_site_type_symbol
 _atom_site_label
 _atom_site_symmetry_multiplicity
 _atom_site_fract_x
 _atom_site_fract_y
 _atom_site_fract_z
 _atom_site_occupancy
  Li  Li0  1  0.99999064  0.68841830  0.77323866  1
  Li  Li1  1  0.99999601  0.59768799  0.12809304  1
  Li  Li2  1  0.99998795  0.40229052  0.62809541  1
  Li  Li3  1  0.99999569  0.31156846  0.27324146  1
  Li  Li4  1  0.32484316  0.65470560  0.40348280  1
  Li  Li5  1  0.32481591  0.67013186  0.90348507  1
  Li  Li6  1  0.30435040  0.30686142  0.76389302  1
  Li  Li7  1  0.37271115  0.37834800  0.13750616  1
  Li  Li8  1  0.62727879  0.62166706  0.63750114  1
  Li  Li9  1  0.30434869  0.99750084  0.26389733  1
  Li  Li10  1  0.69564858  0.69315341  0.26389608  1
  Li  Li11  1  0.37270621  0.99436940  0.63749812  1
  Li  Li12  1  0.67515715  0.34530582  0.90348237  1
  Li  Li13  1  0.67516148  0.32986686  0.40348544  1
  Li  Li14  1  0.62727698  0.00563556  0.13750410  1
  Li  Li15  1  0.69562302  0.00250125  0.76389653  1
  Co  Co16  1  0.00000368  0.02831764  0.50386266  1
  Co  Co17  1  0.99998567  0.97166548  0.00386817  1
  O  O18  1  0.99998788  0.66283071  0.95148634  1
  O  O19  1  0.00000353  0.33716188  0.45148763  1
  O  O20  1  0.33810258  0.67167177  0.21913026  1
  O  O21  1  0.99999928  0.01360732  0.18127556  1
  O  O22  1  0.99998399  0.98640187  0.68127193  1
  O  O23  1  0.33809223  0.66643782  0.71913262  1
  O  O24  1  0.66188387  0.32833545  0.71912577  1
  O  O25  1  0.66189468  0.33356570  0.21913289  1
  F  F26  1  0.33573527  0.34362615  0.94986695  1
  F  F27  1  0.33575908  0.99211662  0.44986772  1
  F  F28  1  0.66423731  0.65636481  0.44986712  1
  F  F29  1  0.66423813  0.00788345  0.94986765  1
