# generated using pymatgen
data_LiFe3OF5
_symmetry_space_group_name_H-M   'P 1'
_cell_length_a   5.94209254
_cell_length_b   5.94209212
_cell_length_c   7.60411364
_cell_angle_alpha   71.77959826
_cell_angle_beta   108.22039598
_cell_angle_gamma   107.07642853
_symmetry_Int_Tables_number   1
_chemical_formula_structural   LiFe3OF5
_chemical_formula_sum   'Li2 Fe6 O2 F10'
_cell_volume   236.46278034
_cell_formula_units_Z   2
loop_
 _symmetry_equiv_pos_site_id
 _symmetry_equiv_pos_as_xyz
  1  'x, y, z'
loop_
 _atom_site_type_symbol
 _atom_site_label
 _atom_site_symmetry_multiplicity
 _atom_site_fract_x
 _atom_site_fract_y
 _atom_site_fract_z
 _atom_site_occupancy
  Li  Li0  1  0.63639480  0.88442893  0.12347571  1
  Li  Li1  1  0.11557107  0.36360520  0.12347571  1
  Fe  Fe2  1  0.32633635  0.67366365  0.82331554  1
  Fe  Fe3  1  0.00072016  0.99927984  0.48716727  1
  Fe  Fe4  1  0.66334151  0.33665849  0.66417659  1
  Fe  Fe5  1  0.64813480  0.35186520  0.17261779  1
  Fe  Fe6  1  0.28830241  0.71169760  0.33756755  1
  Fe  Fe7  1  0.04288107  0.95711893  0.98668658  1
  O  O8  1  0.06461074  0.93538926  0.26816607  1
  O  O9  1  0.26899534  0.73100466  0.04629451  1
  F  F10  1  0.29997973  0.29536347  0.98900805  1
  F  F11  1  0.70463653  0.70002027  0.98900805  1
  F  F12  1  0.76202096  0.23797904  0.97892708  1
  F  F13  1  0.42772335  0.57227665  0.63157610  1
  F  F14  1  0.95265691  0.62342881  0.66304944  1
  F  F15  1  0.37657119  0.04734309  0.66304944  1
  F  F16  1  0.90282903  0.09717097  0.69172884  1
  F  F17  1  0.62175058  0.98712955  0.32934585  1
  F  F18  1  0.01287045  0.37824942  0.32934585  1
  F  F19  1  0.54854202  0.45145798  0.36187499  1
