# generated using pymatgen
data_Li4VF8
_symmetry_space_group_name_H-M   'P 1'
_cell_length_a   9.47623125
_cell_length_b   9.45151359
_cell_length_c   5.66736645
_cell_angle_alpha   90.00000000
_cell_angle_beta   90.00000000
_cell_angle_gamma   90.00000000
_symmetry_Int_Tables_number   1
_chemical_formula_structural   Li4VF8
_chemical_formula_sum   'Li16 V4 F32'
_cell_volume   507.59613707
_cell_formula_units_Z   4
loop_
 _symmetry_equiv_pos_site_id
 _symmetry_equiv_pos_as_xyz
  1  'x, y, z'
loop_
 _atom_site_type_symbol
 _atom_site_label
 _atom_site_symmetry_multiplicity
 _atom_site_fract_x
 _atom_site_fract_y
 _atom_site_fract_z
 _atom_site_occupancy
  Li  Li0  1  0.10914338  0.57812760  0.12243379  1
  Li  Li1  1  0.10914338  0.92187240  0.12243379  1
  Li  Li2  1  0.13101441  0.56384869  0.61288757  1
  Li  Li3  1  0.13101441  0.93615131  0.61288757  1
  Li  Li4  1  0.36898559  0.06384869  0.11288757  1
  Li  Li5  1  0.36898559  0.43615131  0.11288757  1
  Li  Li6  1  0.39085662  0.07812760  0.62243379  1
  Li  Li7  1  0.39085662  0.42187240  0.62243379  1
  Li  Li8  1  0.60914338  0.57812760  0.37756621  1
  Li  Li9  1  0.60914338  0.92187240  0.37756621  1
  Li  Li10  1  0.63101441  0.56384869  0.88711243  1
  Li  Li11  1  0.63101441  0.93615131  0.88711243  1
  Li  Li12  1  0.86898559  0.06384869  0.38711243  1
  Li  Li13  1  0.86898559  0.43615131  0.38711243  1
  Li  Li14  1  0.89085662  0.07812760  0.87756621  1
  Li  Li15  1  0.89085662  0.42187240  0.87756621  1
  V  V16  1  0.13382792  0.25000000  0.37215849  1
  V  V17  1  0.36617208  0.75000000  0.87215849  1
  V  V18  1  0.63382792  0.25000000  0.12784151  1
  V  V19  1  0.86617208  0.75000000  0.62784151  1
  F  F20  1  0.02312468  0.12039058  0.15909156  1
  F  F21  1  0.02312468  0.37960942  0.15909156  1
  F  F22  1  0.02807047  0.12530897  0.59308704  1
  F  F23  1  0.02807047  0.37469103  0.59308704  1
  F  F24  1  0.22472013  0.75000000  0.11509058  1
  F  F25  1  0.23466958  0.75000000  0.61830710  1
  F  F26  1  0.23701952  0.03723168  0.37080358  1
  F  F27  1  0.23701952  0.46276832  0.37080358  1
  F  F28  1  0.26298048  0.53723168  0.87080358  1
  F  F29  1  0.26298048  0.96276832  0.87080358  1
  F  F30  1  0.26533042  0.25000000  0.11830710  1
  F  F31  1  0.27527987  0.25000000  0.61509058  1
  F  F32  1  0.47192953  0.62530897  0.09308704  1
  F  F33  1  0.47192953  0.87469103  0.09308704  1
  F  F34  1  0.47687532  0.62039058  0.65909156  1
  F  F35  1  0.47687532  0.87960942  0.65909156  1
  F  F36  1  0.52312468  0.12039058  0.34090844  1
  F  F37  1  0.52312468  0.37960942  0.34090844  1
  F  F38  1  0.52807047  0.12530897  0.90691296  1
  F  F39  1  0.52807047  0.37469103  0.90691296  1
  F  F40  1  0.72472013  0.75000000  0.38490942  1
  F  F41  1  0.73466958  0.75000000  0.88169290  1
  F  F42  1  0.73701952  0.03723168  0.12919642  1
  F  F43  1  0.73701952  0.46276832  0.12919642  1
  F  F44  1  0.76298048  0.53723168  0.62919642  1
  F  F45  1  0.76298048  0.96276832  0.62919642  1
  F  F46  1  0.76533042  0.25000000  0.38169290  1
  F  F47  1  0.77527987  0.25000000  0.88490942  1
  F  F48  1  0.97192953  0.62530897  0.40691296  1
  F  F49  1  0.97192953  0.87469103  0.40691296  1
  F  F50  1  0.97687532  0.62039058  0.84090844  1
  F  F51  1  0.97687532  0.87960942  0.84090844  1
