# generated using pymatgen
data_Li11Ti12(NiO8)4
_symmetry_space_group_name_H-M   'P 1'
_cell_length_a   8.42582378
_cell_length_b   8.42395678
_cell_length_c   8.42511130
_cell_angle_alpha   90.09310694
_cell_angle_beta   89.90386126
_cell_angle_gamma   89.90146280
_symmetry_Int_Tables_number   1
_chemical_formula_structural   Li11Ti12(NiO8)4
_chemical_formula_sum   'Li11 Ti12 Ni4 O32'
_cell_volume   598.00156380
_cell_formula_units_Z   1
loop_
 _symmetry_equiv_pos_site_id
 _symmetry_equiv_pos_as_xyz
  1  'x, y, z'
loop_
 _atom_site_type_symbol
 _atom_site_label
 _atom_site_symmetry_multiplicity
 _atom_site_fract_x
 _atom_site_fract_y
 _atom_site_fract_z
 _atom_site_occupancy
  Li  Li0  1  0.49816856  0.00157873  0.50160844  1
  Li  Li1  1  0.12506670  0.12330528  0.12675448  1
  Li  Li2  1  0.87351053  0.12338814  0.87466601  1
  Li  Li3  1  0.12710283  0.37698313  0.37513836  1
  Li  Li4  1  0.87345262  0.37507345  0.62315169  1
  Li  Li5  1  0.37645527  0.37490523  0.12668267  1
  Li  Li6  1  0.62495232  0.37304832  0.87702656  1
  Li  Li7  1  0.12487388  0.62651508  0.62342872  1
  Li  Li8  1  0.37660614  0.62664428  0.87495412  1
  Li  Li9  1  0.75168277  0.74839394  0.24819925  1
  Li  Li10  1  0.12293569  0.87509551  0.87272673  1
  Ti  Ti11  1  0.86560653  0.11576158  0.37521384  1
  Ti  Ti12  1  0.12760236  0.11790277  0.62002189  1
  Ti  Ti13  1  0.38224090  0.11971536  0.87227840  1
  Ti  Ti14  1  0.86821294  0.37741932  0.13016218  1
  Ti  Ti15  1  0.62256149  0.37491517  0.37289042  1
  Ti  Ti16  1  0.38015271  0.37257186  0.61833532  1
  Ti  Ti17  1  0.12242570  0.63022481  0.13219369  1
  Ti  Ti18  1  0.87004526  0.63216635  0.87752556  1
  Ti  Ti19  1  0.62516754  0.63425058  0.61557473  1
  Ti  Ti20  1  0.12517673  0.87299616  0.37717991  1
  Ti  Ti21  1  0.38419796  0.87502791  0.13416437  1
  Ti  Ti22  1  0.62693627  0.87720787  0.87506284  1
  Ni  Ni23  1  0.62511465  0.12072669  0.12923266  1
  Ni  Ni24  1  0.12477297  0.37497498  0.87499411  1
  Ni  Ni25  1  0.37928915  0.62932540  0.37494268  1
  Ni  Ni26  1  0.87025434  0.87495315  0.62021279  1
  O  O27  1  0.89513123  0.12717757  0.61120881  1
  O  O28  1  0.10942630  0.11604524  0.38279575  1
  O  O29  1  0.37300989  0.11100808  0.10471212  1
  O  O30  1  0.61708902  0.11428946  0.88524570  1
  O  O31  1  0.87714702  0.14502147  0.13934075  1
  O  O32  1  0.64010979  0.13897347  0.37367659  1
  O  O33  1  0.36394142  0.13600236  0.63576030  1
  O  O34  1  0.13629742  0.12506481  0.85849685  1
  O  O35  1  0.63297682  0.36468464  0.13615032  1
  O  O36  1  0.86610527  0.35942031  0.36736657  1
  O  O37  1  0.14150237  0.36359410  0.62477155  1
  O  O38  1  0.37493617  0.35864559  0.86353467  1
  O  O39  1  0.11348832  0.39131967  0.12524500  1
  O  O40  1  0.87469376  0.38640227  0.89157559  1
  O  O41  1  0.61726350  0.39057811  0.61630322  1
  O  O42  1  0.38602388  0.38543209  0.38298102  1
  O  O43  1  0.10848497  0.62501684  0.88625374  1
  O  O44  1  0.88583764  0.61405140  0.11394405  1
  O  O45  1  0.62365697  0.61100944  0.39011459  1
  O  O46  1  0.38927520  0.60492657  0.62714286  1
  O  O47  1  0.13523325  0.63583804  0.36710208  1
  O  O48  1  0.35478293  0.63898125  0.12284807  1
  O  O49  1  0.63280185  0.63400637  0.85944076  1
  O  O50  1  0.86112279  0.62279649  0.64500336  1
  O  O51  1  0.36087921  0.87352836  0.35993142  1
  O  O52  1  0.14061114  0.86746241  0.13385115  1
  O  O53  1  0.86429146  0.86708879  0.86469447  1
  O  O54  1  0.62643522  0.86005265  0.63903535  1
  O  O55  1  0.88911071  0.88994773  0.37642690  1
  O  O56  1  0.11470670  0.88293161  0.61441019  1
  O  O57  1  0.38380034  0.88258024  0.89053092  1
  O  O58  1  0.60994360  0.87643151  0.11085087  1
