# generated using pymatgen
data_Na5Mn11O24
_symmetry_space_group_name_H-M   'P 1'
_cell_length_a   6.00285765
_cell_length_b   6.13623210
_cell_length_c   14.84363489
_cell_angle_alpha   87.19077247
_cell_angle_beta   90.00000000
_cell_angle_gamma   60.71643921
_symmetry_Int_Tables_number   1
_chemical_formula_structural   Na5Mn11O24
_chemical_formula_sum   'Na5 Mn11 O24'
_cell_volume   476.13954617
_cell_formula_units_Z   1
loop_
 _symmetry_equiv_pos_site_id
 _symmetry_equiv_pos_as_xyz
  1  'x, y, z'
loop_
 _atom_site_type_symbol
 _atom_site_label
 _atom_site_symmetry_multiplicity
 _atom_site_fract_x
 _atom_site_fract_y
 _atom_site_fract_z
 _atom_site_occupancy
  Na  Na0  1  0.84955203  0.80089494  0.30162667  1
  Na  Na1  1  0.50361868  0.49276264  0.37619991  1
  Na  Na2  1  0.49654454  0.50690992  0.62349933  1
  Na  Na3  1  0.14908916  0.20182269  0.69605507  1
  Na  Na4  1  0.17358607  0.15282787  0.95675628  1
  Mn  Mn5  1  0.33661963  0.82676074  0.16135294  1
  Mn  Mn6  1  0.49995232  0.50009635  0.00177838  1
  Mn  Mn7  1  0.83874275  0.32335888  0.16383488  1
  Mn  Mn8  1  0.33789837  0.32335888  0.16383488  1
  Mn  Mn9  1  0.18197259  0.13605481  0.33204514  1
  Mn  Mn10  1  0.81751004  0.86497993  0.66692003  1
  Mn  Mn11  1  0.50025131  0.99957967  0.49946717  1
  Mn  Mn12  1  0.00016903  0.99957967  0.49946717  1
  Mn  Mn13  1  0.15808682  0.67902636  0.83648282  1
  Mn  Mn14  1  0.66288682  0.67902636  0.83648282  1
  Mn  Mn15  1  0.66369859  0.17260281  0.83932734  1
  O  O16  1  0.21851482  0.63682872  0.08513705  1
  O  O17  1  0.64465546  0.63682872  0.08513705  1
  O  O18  1  0.64156263  0.21687474  0.08837954  1
  O  O19  1  0.50711778  0.48576444  0.22733567  1
  O  O20  1  0.31937138  0.86125723  0.42769389  1
  O  O21  1  0.82270875  0.85458250  0.44478914  1
  O  O22  1  0.16399997  0.17200006  0.09907757  1
  O  O23  1  0.03727569  0.42544962  0.23965965  1
  O  O24  1  0.46210260  0.00272827  0.23603774  1
  O  O25  1  0.09912194  0.75531956  0.59944727  1
  O  O26  1  0.64555850  0.75531956  0.59944727  1
  O  O27  1  0.03517013  0.00272827  0.23603774  1
  O  O28  1  0.96497222  0.99976056  0.76552983  1
  O  O29  1  0.53526723  0.99976056  0.76552983  1
  O  O30  1  0.35458874  0.24469684  0.40072399  1
  O  O31  1  0.90071442  0.24469684  0.40072399  1
  O  O32  1  0.96230551  0.57538898  0.76125114  1
  O  O33  1  0.83541928  0.82916144  0.90444287  1
  O  O34  1  0.17794326  0.14411249  0.55428332  1
  O  O35  1  0.49248804  0.51502391  0.77250021  1
  O  O36  1  0.68097613  0.13804875  0.57183654  1
  O  O37  1  0.36008966  0.77982168  0.91093894  1
  O  O38  1  0.77862690  0.36543588  0.91363247  1
  O  O39  1  0.35593722  0.36543588  0.91363247  1
