# generated using pymatgen
data_KFeO2
_symmetry_space_group_name_H-M   'P 1'
_cell_length_a   6.62830197
_cell_length_b   6.62830199
_cell_length_c   8.38709978
_cell_angle_alpha   54.02605255
_cell_angle_beta   125.97394853
_cell_angle_gamma   151.72342323
_symmetry_Int_Tables_number   1
_chemical_formula_structural   KFeO2
_chemical_formula_sum   'K2 Fe2 O4'
_cell_volume   138.88762473
_cell_formula_units_Z   2
loop_
 _symmetry_equiv_pos_site_id
 _symmetry_equiv_pos_as_xyz
  1  'x, y, z'
loop_
 _atom_site_type_symbol
 _atom_site_label
 _atom_site_symmetry_multiplicity
 _atom_site_fract_x
 _atom_site_fract_y
 _atom_site_fract_z
 _atom_site_occupancy
  K  K0  1  0.17166477  0.82833523  0.68439349  1
  K  K1  1  0.82833523  0.17166477  0.31560651  1
  Fe  Fe2  1  0.02297194  0.97702806  0.18025250  1
  Fe  Fe3  1  0.97702806  0.02297194  0.81974750  1
  O  O4  1  0.13086902  0.86913098  0.09257675  1
  O  O5  1  0.46087645  0.53912355  0.67725241  1
  O  O6  1  0.53912355  0.46087645  0.32274759  1
  O  O7  1  0.86913098  0.13086902  0.90742325  1
