# generated using pymatgen
data_ZnPH5C2N4O3
_symmetry_space_group_name_H-M   'P 1'
_cell_length_a   9.12857087
_cell_length_b   9.12857087
_cell_length_c   10.54255294
_cell_angle_alpha   70.27155374
_cell_angle_beta   109.72844626
_cell_angle_gamma   107.99425283
_symmetry_Int_Tables_number   1
_chemical_formula_structural   ZnPH5C2N4O3
_chemical_formula_sum   'Zn4 P4 H20 C8 N16 O12'
_cell_volume   759.33393396
_cell_formula_units_Z   4
loop_
 _symmetry_equiv_pos_site_id
 _symmetry_equiv_pos_as_xyz
  1  'x, y, z'
loop_
 _atom_site_type_symbol
 _atom_site_label
 _atom_site_symmetry_multiplicity
 _atom_site_fract_x
 _atom_site_fract_y
 _atom_site_fract_z
 _atom_site_occupancy
  Zn  Zn0  1  0.55735995  0.72162247  0.54456547  1
  Zn  Zn1  1  0.72162247  0.55735995  0.95543453  1
  Zn  Zn2  1  0.27837753  0.44264005  0.04456547  1
  Zn  Zn3  1  0.44264005  0.27837753  0.45543453  1
  P  P4  1  0.39097945  0.66695258  0.77875151  1
  P  P5  1  0.33304742  0.60902055  0.27875151  1
  P  P6  1  0.66695258  0.39097945  0.72124849  1
  P  P7  1  0.60902055  0.33304742  0.22124849  1
  H  H8  1  0.08487125  0.85749415  0.59520582  1
  H  H9  1  0.33980813  0.80765788  0.75207185  1
  H  H10  1  0.14250585  0.91512875  0.09520582  1
  H  H11  1  0.70447047  0.91210241  0.89660041  1
  H  H12  1  0.12567231  0.38598242  0.70579726  1
  H  H13  1  0.19234212  0.66019187  0.25207185  1
  H  H14  1  0.20099080  0.42897409  0.56274942  1
  H  H15  1  0.08789759  0.29552953  0.39660041  1
  H  H16  1  0.61401758  0.87432769  0.20579726  1
  H  H17  1  0.42897409  0.20099080  0.93725058  1
  H  H18  1  0.57102591  0.79900920  0.06274942  1
  H  H19  1  0.38598242  0.12567231  0.79420274  1
  H  H20  1  0.91210241  0.70447047  0.60339959  1
  H  H21  1  0.79900920  0.57102591  0.43725058  1
  H  H22  1  0.80765788  0.33980813  0.74792815  1
  H  H23  1  0.87432769  0.61401758  0.29420274  1
  H  H24  1  0.29552953  0.08789759  0.10339959  1
  H  H25  1  0.85749415  0.08487125  0.90479418  1
  H  H26  1  0.66019187  0.19234212  0.24792815  1
  H  H27  1  0.91512875  0.14250585  0.40479418  1
  C  C28  1  0.03720487  0.79505432  0.89731807  1
  C  C29  1  0.20494568  0.96279613  0.39731807  1
  C  C30  1  0.00617884  0.24514818  0.56881842  1
  C  C31  1  0.24514818  0.00617884  0.93118158  1
  C  C32  1  0.75485182  0.99382116  0.06881842  1
  C  C33  1  0.99382116  0.75485182  0.43118158  1
  C  C34  1  0.79505432  0.03720487  0.60268193  1
  C  C35  1  0.96279613  0.20494568  0.10268193  1
  N  N36  1  0.15338004  0.90073198  0.85569522  1
  N  N37  1  0.09926802  0.84661996  0.35569522  1
  N  N38  1  0.77599269  0.99634327  0.94810960  1
  N  N39  1  0.11875706  0.36083472  0.61665849  1
  N  N40  1  0.69509366  0.92761281  0.57082499  1
  N  N41  1  0.00365673  0.22400731  0.44810960  1
  N  N42  1  0.92761281  0.69509366  0.92917501  1
  N  N43  1  0.63916528  0.88124294  0.11665849  1
  N  N44  1  0.36083472  0.11875706  0.88334151  1
  N  N45  1  0.07238719  0.30490634  0.07082499  1
  N  N46  1  0.99634327  0.77599269  0.55189040  1
  N  N47  1  0.30490634  0.07238719  0.42917501  1
  N  N48  1  0.88124294  0.63916528  0.38334151  1
  N  N49  1  0.22400731  0.00365673  0.05189040  1
  N  N50  1  0.90073198  0.15338004  0.64430478  1
  N  N51  1  0.84661996  0.09926802  0.14430478  1
  O  O52  1  0.26952663  0.52856098  0.84533703  1
  O  O53  1  0.56092713  0.69501695  0.87765134  1
  O  O54  1  0.38521719  0.64810336  0.63754568  1
  O  O55  1  0.47143902  0.73047337  0.34533703  1
  O  O56  1  0.30498305  0.43907287  0.37765134  1
  O  O57  1  0.35189664  0.61478281  0.13754568  1
  O  O58  1  0.64810336  0.38521719  0.86245432  1
  O  O59  1  0.69501695  0.56092713  0.62234866  1
  O  O60  1  0.52856098  0.26952663  0.65466297  1
  O  O61  1  0.61478281  0.35189664  0.36245432  1
  O  O62  1  0.43907287  0.30498305  0.12234866  1
  O  O63  1  0.73047337  0.47143902  0.15466297  1
