# generated using pymatgen
data_Li3TiSiO5
_symmetry_space_group_name_H-M   'P 1'
_cell_length_a   5.01078687
_cell_length_b   5.45107928
_cell_length_c   15.85207979
_cell_angle_alpha   90.00000000
_cell_angle_beta   90.00000000
_cell_angle_gamma   90.00000000
_symmetry_Int_Tables_number   1
_chemical_formula_structural   Li3TiSiO5
_chemical_formula_sum   'Li12 Ti4 Si4 O20'
_cell_volume   432.98682206
_cell_formula_units_Z   4
loop_
 _symmetry_equiv_pos_site_id
 _symmetry_equiv_pos_as_xyz
  1  'x, y, z'
loop_
 _atom_site_type_symbol
 _atom_site_label
 _atom_site_symmetry_multiplicity
 _atom_site_fract_x
 _atom_site_fract_y
 _atom_site_fract_z
 _atom_site_occupancy
  Li  Li0  1  0.99914449  0.66660213  0.59024710  1
  Li  Li1  1  0.99914449  0.16660213  0.90975290  1
  Li  Li2  1  0.50197930  0.33615926  0.99320661  1
  Li  Li3  1  0.50197930  0.83615926  0.50679339  1
  Li  Li4  1  0.49894668  0.32646491  0.80552822  1
  Li  Li5  1  0.49894668  0.82646491  0.69447178  1
  Li  Li6  1  0.49914449  0.33339787  0.40975290  1
  Li  Li7  1  0.49914449  0.83339787  0.09024710  1
  Li  Li8  1  0.00197930  0.66384074  0.00679339  1
  Li  Li9  1  0.00197930  0.16384074  0.49320661  1
  Li  Li10  1  0.99894668  0.17353509  0.30552822  1
  Li  Li11  1  0.99894668  0.67353509  0.19447178  1
  Ti  Ti12  1  0.99613054  0.17932138  0.69831360  1
  Ti  Ti13  1  0.99613054  0.67932138  0.80168640  1
  Ti  Ti14  1  0.49613054  0.32067862  0.19831360  1
  Ti  Ti15  1  0.49613054  0.82067862  0.30168640  1
  Si  Si16  1  0.00621293  0.16134398  0.09697526  1
  Si  Si17  1  0.00621293  0.66134398  0.40302474  1
  Si  Si18  1  0.50621293  0.33865602  0.59697526  1
  Si  Si19  1  0.50621293  0.83865602  0.90302474  1
  O  O20  1  0.09944407  0.34302072  0.80024130  1
  O  O21  1  0.09944407  0.84302072  0.69975870  1
  O  O22  1  0.10910967  0.37927640  0.39785753  1
  O  O23  1  0.10910967  0.87927640  0.10214247  1
  O  O24  1  0.11052927  0.31485299  0.01559911  1
  O  O25  1  0.11052927  0.81485299  0.48440089  1
  O  O26  1  0.10202473  0.30912518  0.18673399  1
  O  O27  1  0.10202473  0.80912518  0.31326601  1
  O  O28  1  0.17147633  0.32772627  0.60088443  1
  O  O29  1  0.17147633  0.82772627  0.89911557  1
  O  O30  1  0.59944407  0.65697928  0.19975870  1
  O  O31  1  0.59944407  0.15697928  0.30024130  1
  O  O32  1  0.60910967  0.62072360  0.60214247  1
  O  O33  1  0.60910967  0.12072360  0.89785753  1
  O  O34  1  0.61052927  0.18514701  0.51559911  1
  O  O35  1  0.61052927  0.68514701  0.98440089  1
  O  O36  1  0.60202473  0.19087482  0.68673399  1
  O  O37  1  0.60202473  0.69087482  0.81326601  1
  O  O38  1  0.67147733  0.17227373  0.10088443  1
  O  O39  1  0.67147733  0.67227373  0.39911557  1
