# generated using pymatgen
data_YZrO3
_symmetry_space_group_name_H-M   'P 1'
_cell_length_a   9.05140361
_cell_length_b   9.05700750
_cell_length_c   9.05700750
_cell_angle_alpha   109.87319857
_cell_angle_beta   109.04079383
_cell_angle_gamma   109.52558257
_symmetry_Int_Tables_number   1
_chemical_formula_structural   YZrO3
_chemical_formula_sum   'Y8 Zr8 O24'
_cell_volume   571.35653227
_cell_formula_units_Z   8
loop_
 _symmetry_equiv_pos_site_id
 _symmetry_equiv_pos_as_xyz
  1  'x, y, z'
loop_
 _atom_site_type_symbol
 _atom_site_label
 _atom_site_symmetry_multiplicity
 _atom_site_fract_x
 _atom_site_fract_y
 _atom_site_fract_z
 _atom_site_occupancy
  Y  Y0  1  0.96458401  0.24646629  0.23874241  1
  Y  Y1  1  0.53541599  0.77415839  0.28188228  1
  Y  Y2  1  0.49140200  0.27170125  0.73910903  1
  Y  Y3  1  0.25000000  0.72281469  0.47281469  1
  Y  Y4  1  0.25000000  0.22616604  0.97616604  1
  Y  Y5  1  0.25167798  0.51108811  0.72179717  1
  Y  Y6  1  0.24832202  0.97011920  0.25941014  1
  Y  Y7  1  0.00859800  0.74770603  0.78029926  1
  Zr  Zr8  1  0.48918294  0.98633663  0.01812972  1
  Zr  Zr9  1  0.79090461  0.01155820  0.76202136  1
  Zr  Zr10  1  0.70909539  0.47111675  0.22065359  1
  Zr  Zr11  1  0.75000000  0.25832020  0.50832020  1
  Zr  Zr12  1  0.75000000  0.75999380  0.00999380  1
  Zr  Zr13  1  0.96225825  0.48329635  0.99389028  1
  Zr  Zr14  1  0.53774175  0.53163203  0.52103810  1
  Zr  Zr15  1  0.01081706  0.02894678  0.49715369  1
  O  O16  1  0.00393346  0.02191802  0.25395512  1
  O  O17  1  0.96078009  0.50728412  0.24748779  1
  O  O18  1  0.78559218  0.04305653  0.51545373  1
  O  O19  1  0.71440782  0.22986154  0.25746435  1
  O  O20  1  0.96554056  0.72266776  0.00687962  1
  O  O21  1  0.47563368  0.48181104  0.23874406  1
  O  O22  1  0.49381289  0.26647492  0.47432452  1
  O  O23  1  0.79128102  0.74995523  0.28294660  1
  O  O24  1  0.70871898  0.99166558  0.95867421  1
  O  O25  1  0.77516688  0.53702626  0.50448153  1
  O  O26  1  0.72483312  0.22931464  0.76185938  1
  O  O27  1  0.49606654  0.75002166  0.01798456  1
  O  O28  1  0.25577048  0.46550694  0.45569480  1
  O  O29  1  0.24422952  0.69992531  0.20973745  1
  O  O30  1  0.50671466  0.22658523  0.97590785  1
  O  O31  1  0.53921991  0.78670771  0.54650404  1
  O  O32  1  0.26266941  0.00943957  0.03455806  1
  O  O33  1  0.23733059  0.27188865  0.74676916  1
  O  O34  1  0.53445944  0.54134006  0.75712820  1
  O  O35  1  0.02436632  0.26311038  0.00617635  1
  O  O36  1  0.24096404  0.98074353  0.51353481  1
  O  O37  1  0.25903596  0.77257077  0.73978049  1
  O  O38  1  0.00618711  0.48051163  0.77266203  1
  O  O39  1  0.99328534  0.96919319  0.71987057  1
