# generated using pymatgen
data_Zn(CoO2)2
_symmetry_space_group_name_H-M   'P 1'
_cell_length_a   5.96703242
_cell_length_b   5.96308639
_cell_length_c   5.96030974
_cell_angle_alpha   90.14541089
_cell_angle_beta   119.91944385
_cell_angle_gamma   119.85250126
_symmetry_Int_Tables_number   1
_chemical_formula_structural   Zn(CoO2)2
_chemical_formula_sum   'Zn2 Co4 O8'
_cell_volume   150.28870456
_cell_formula_units_Z   2
loop_
 _symmetry_equiv_pos_site_id
 _symmetry_equiv_pos_as_xyz
  1  'x, y, z'
loop_
 _atom_site_type_symbol
 _atom_site_label
 _atom_site_symmetry_multiplicity
 _atom_site_fract_x
 _atom_site_fract_y
 _atom_site_fract_z
 _atom_site_occupancy
  Zn  Zn0  1  0.25025605  0.12554259  0.87551021  1
  Zn  Zn1  1  0.74974446  0.87445650  0.12448837  1
  Co  Co2  1  0.50000128  0.00000061  0.50000033  1
  Co  Co3  1  0.49999905  0.49999981  0.49999952  1
  Co  Co4  1  0.00000049  0.50000003  0.00000049  1
  Co  Co5  1  -0.00000023  0.49999966  0.50000146  1
  O  O6  1  0.02127494  0.74159531  0.26028705  1
  O  O7  1  0.47885134  0.73961897  0.72032871  1
  O  O8  1  0.47958025  0.74011039  0.25911730  1
  O  O9  1  0.97905995  0.72034728  0.73898677  1
  O  O10  1  0.52042053  0.25989254  0.74088170  1
  O  O11  1  0.52115377  0.26038369  0.27966873  1
  O  O12  1  0.02093742  0.27964998  0.26101518  1
  O  O13  1  0.97872169  0.25840164  0.73971418  1
