# generated using pymatgen
data_Li8Ni(O2F)2
_symmetry_space_group_name_H-M   'P 1'
_cell_length_a   5.30799049
_cell_length_b   5.96403451
_cell_length_c   5.31865365
_cell_angle_alpha   108.40367114
_cell_angle_beta   70.58952815
_cell_angle_gamma   118.92004108
_symmetry_Int_Tables_number   1
_chemical_formula_structural   Li8Ni(O2F)2
_chemical_formula_sum   'Li8 Ni1 O4 F2'
_cell_volume   136.52751803
_cell_formula_units_Z   1
loop_
 _symmetry_equiv_pos_site_id
 _symmetry_equiv_pos_as_xyz
  1  'x, y, z'
loop_
 _atom_site_type_symbol
 _atom_site_label
 _atom_site_symmetry_multiplicity
 _atom_site_fract_x
 _atom_site_fract_y
 _atom_site_fract_z
 _atom_site_occupancy
  Li  Li0  1  0.10591483  0.32329986  0.45270764  1
  Li  Li1  1  0.55525899  0.63192728  0.20039276  1
  Li  Li2  1  0.22198742  0.64586780  0.88991104  1
  Li  Li3  1  0.33382710  0.00063424  0.30728472  1
  Li  Li4  1  0.66617290  0.99936576  0.69271528  1
  Li  Li5  1  0.77801258  0.35413220  0.11008896  1
  Li  Li6  1  0.44474101  0.36807272  0.79960724  1
  Li  Li7  1  0.89408517  0.67670014  0.54729236  1
  Ni  Ni8  1  0.00000000  0.00000000  0.00000000  1
  O  O9  1  0.36878747  0.24408875  0.11614383  1
  O  O10  1  0.04330479  0.24708031  0.79667226  1
  O  O11  1  0.95669521  0.75291969  0.20332774  1
  O  O12  1  0.63121253  0.75591125  0.88385617  1
  F  F13  1  0.29540530  0.72238813  0.52329235  1
  F  F14  1  0.70459470  0.27761187  0.47670765  1
