# generated using pymatgen
data_Sb3PO7
_symmetry_space_group_name_H-M   'P 1'
_cell_length_a   9.59397957
_cell_length_b   9.59397957
_cell_length_c   12.50392899
_cell_angle_alpha   76.19366965
_cell_angle_beta   103.80633035
_cell_angle_gamma   89.82111368
_symmetry_Int_Tables_number   1
_chemical_formula_structural   Sb3PO7
_chemical_formula_sum   'Sb18 P6 O42'
_cell_volume   1083.16890080
_cell_formula_units_Z   6
loop_
 _symmetry_equiv_pos_site_id
 _symmetry_equiv_pos_as_xyz
  1  'x, y, z'
loop_
 _atom_site_type_symbol
 _atom_site_label
 _atom_site_symmetry_multiplicity
 _atom_site_fract_x
 _atom_site_fract_y
 _atom_site_fract_z
 _atom_site_occupancy
  Sb  Sb0  1  0.43942216  0.87625035  0.95116532  1
  Sb  Sb1  1  0.12374965  0.56057784  0.95116532  1
  Sb  Sb2  1  0.48594814  0.82089198  0.62280174  1
  Sb  Sb3  1  0.17910802  0.51405186  0.62280174  1
  Sb  Sb4  1  0.82272662  0.80354296  0.82155891  1
  Sb  Sb5  1  0.19645704  0.17727338  0.82155891  1
  Sb  Sb6  1  0.22253670  0.46593877  0.27146449  1
  Sb  Sb7  1  0.53406123  0.77746330  0.27146449  1
  Sb  Sb8  1  0.81930353  0.88366696  0.50366284  1
  Sb  Sb9  1  0.11633304  0.18069647  0.50366284  1
  Sb  Sb10  1  0.83472153  0.82568584  0.16266899  1
  Sb  Sb11  1  0.17431416  0.16527847  0.16266899  1
  Sb  Sb12  1  0.48579316  0.18027514  0.67514761  1
  Sb  Sb13  1  0.81972486  0.51420684  0.67514761  1
  Sb  Sb14  1  0.87372509  0.48988112  0.37626094  1
  Sb  Sb15  1  0.51011888  0.12627491  0.37626094  1
  Sb  Sb16  1  0.83834104  0.51610965  0.07364791  1
  Sb  Sb17  1  0.48389035  0.16165896  0.07364791  1
  P  P18  1  0.16758428  0.83241572  0.71432462  1
  P  P19  1  0.17489335  0.82510665  0.08523225  1
  P  P20  1  0.50423333  0.49576667  0.53850912  1
  P  P21  1  0.47817370  0.52182630  0.12326619  1
  P  P22  1  0.85812283  0.14187717  0.64988551  1
  P  P23  1  0.82164372  0.17835628  0.27338369  1
  O  O24  1  0.07176599  0.92823401  0.60367578  1
  O  O25  1  0.07337949  0.73671174  0.78389979  1
  O  O26  1  0.26328826  0.92662051  0.78389979  1
  O  O27  1  0.07379243  0.92620757  0.11437456  1
  O  O28  1  0.27206352  0.72793648  0.68372135  1
  O  O29  1  0.16287531  0.39996414  0.77349852  1
  O  O30  1  0.60003586  0.83712469  0.77349852  1
  O  O31  1  0.26415858  0.92152913  0.00891017  1
  O  O32  1  0.07847087  0.73584142  0.00891017  1
  O  O33  1  0.27420971  0.72579029  0.19020028  1
  O  O34  1  0.59343569  0.91849778  0.44107290  1
  O  O35  1  0.08150222  0.40656431  0.44107290  1
  O  O36  1  0.40307001  0.59692999  0.43870958  1
  O  O37  1  0.50000550  0.49999450  0.66026906  1
  O  O38  1  0.08156749  0.45302082  0.11380338  1
  O  O39  1  0.54697918  0.91843251  0.11380338  1
  O  O40  1  0.77565622  0.73685638  0.66165843  1
  O  O41  1  0.26314362  0.22434378  0.66165843  1
  O  O42  1  0.36991289  0.63008711  0.02483952  1
  O  O43  1  0.41785237  0.10965323  0.90457409  1
  O  O44  1  0.89034677  0.58214763  0.90457409  1
  O  O45  1  0.75468906  0.77421819  0.30899895  1
  O  O46  1  0.22578181  0.24531094  0.30899895  1
  O  O47  1  0.47027335  0.33477925  0.52711993  1
  O  O48  1  0.66522075  0.52972665  0.52711993  1
  O  O49  1  0.39231401  0.42059512  0.20004447  1
  O  O50  1  0.57940488  0.60768599  0.20004447  1
  O  O51  1  0.27138594  0.23589866  0.02901288  1
  O  O52  1  0.76410134  0.72861406  0.02901288  1
  O  O53  1  0.42876019  0.03661049  0.57826685  1
  O  O54  1  0.96338951  0.57123981  0.57826685  1
  O  O55  1  0.75198859  0.24801141  0.66727662  1
  O  O56  1  0.57039209  0.42960791  0.07966002  1
  O  O57  1  0.38917548  0.07313070  0.23219942  1
  O  O58  1  0.92686930  0.61082452  0.23219942  1
  O  O59  1  0.76686587  0.04519756  0.57552298  1
  O  O60  1  0.95480244  0.23313413  0.57552298  1
  O  O61  1  0.66065577  0.15000777  0.27744183  1
  O  O62  1  0.84999223  0.33934423  0.27744183  1
  O  O63  1  0.95201346  0.04798654  0.75942629  1
  O  O64  1  0.84687487  0.15312513  0.16562892  1
  O  O65  1  0.91755265  0.08244735  0.38712899  1
