# generated using pymatgen
data_LiMn2F7
_symmetry_space_group_name_H-M   'P 1'
_cell_length_a   8.70268738
_cell_length_b   6.49167761
_cell_length_c   5.69896647
_cell_angle_alpha   92.62927089
_cell_angle_beta   78.69394584
_cell_angle_gamma   109.32375473
_symmetry_Int_Tables_number   1
_chemical_formula_structural   LiMn2F7
_chemical_formula_sum   'Li2 Mn4 F14'
_cell_volume   297.86630459
_cell_formula_units_Z   2
loop_
 _symmetry_equiv_pos_site_id
 _symmetry_equiv_pos_as_xyz
  1  'x, y, z'
loop_
 _atom_site_type_symbol
 _atom_site_label
 _atom_site_symmetry_multiplicity
 _atom_site_fract_x
 _atom_site_fract_y
 _atom_site_fract_z
 _atom_site_occupancy
  Li  Li0  1  0.27301018  0.58953566  0.08937450  1
  Li  Li1  1  0.72698982  0.41046434  0.91062550  1
  Mn  Mn2  1  0.16763091  0.98292937  0.29041017  1
  Mn  Mn3  1  0.30438333  0.21112509  0.77678439  1
  Mn  Mn4  1  0.69561667  0.78887491  0.22321561  1
  Mn  Mn5  1  0.83236909  0.01707063  0.70958983  1
  F  F6  1  0.14186947  0.70050252  0.35186139  1
  F  F7  1  0.07712434  0.09201495  0.69330759  1
  F  F8  1  0.25801608  0.93171735  0.93471409  1
  F  F9  1  0.19328468  0.26101484  0.17138884  1
  F  F10  1  0.29992782  0.48970398  0.75454196  1
  F  F11  1  0.48263503  0.69450826  0.17387275  1
  F  F12  1  0.35859631  0.09618916  0.42780108  1
  F  F13  1  0.64140369  0.90381084  0.57219892  1
  F  F14  1  0.51736497  0.30549174  0.82612725  1
  F  F15  1  0.70007218  0.51029602  0.24545804  1
  F  F16  1  0.80671532  0.73898516  0.82861116  1
  F  F17  1  0.74198392  0.06828265  0.06528591  1
  F  F18  1  0.92287566  0.90798505  0.30669241  1
  F  F19  1  0.85813053  0.29949748  0.64813861  1
