# generated using pymatgen
data_SiH18C2N8(OF3)2
_symmetry_space_group_name_H-M   'P 1'
_cell_length_a   6.63376490
_cell_length_b   6.74915503
_cell_length_c   8.15416750
_cell_angle_alpha   70.94472294
_cell_angle_beta   82.65556535
_cell_angle_gamma   89.36380092
_symmetry_Int_Tables_number   1
_chemical_formula_structural   SiH18C2N8(OF3)2
_chemical_formula_sum   'Si1 H18 C2 N8 O2 F6'
_cell_volume   342.06204277
_cell_formula_units_Z   1
loop_
 _symmetry_equiv_pos_site_id
 _symmetry_equiv_pos_as_xyz
  1  'x, y, z'
loop_
 _atom_site_type_symbol
 _atom_site_label
 _atom_site_symmetry_multiplicity
 _atom_site_fract_x
 _atom_site_fract_y
 _atom_site_fract_z
 _atom_site_occupancy
  Si  Si0  1  0.00000000  0.00000000  0.00000000  1
  H  H1  1  0.12760374  0.54260700  0.68890385  1
  H  H2  1  0.22606717  0.35676024  0.07428557  1
  H  H3  1  0.12521292  0.78777709  0.68836052  1
  H  H4  1  0.25101939  0.58378493  0.08463469  1
  H  H5  1  0.17211425  0.18388515  0.62481816  1
  H  H6  1  0.22888968  0.30584259  0.39594336  1
  H  H7  1  0.29867643  0.85147762  0.31894176  1
  H  H8  1  0.45804493  0.63576940  0.73824845  1
  H  H9  1  0.54913286  0.89262758  0.20819415  1
  H  H10  1  0.45086714  0.10737242  0.79180585  1
  H  H11  1  0.54195507  0.36423060  0.26175155  1
  H  H12  1  0.70132357  0.14852238  0.68105824  1
  H  H13  1  0.77111032  0.69415741  0.60405664  1
  H  H14  1  0.82788575  0.81611485  0.37518184  1
  H  H15  1  0.74898061  0.41621507  0.91536531  1
  H  H16  1  0.87478708  0.21222291  0.31163948  1
  H  H17  1  0.77393283  0.64323976  0.92571443  1
  H  H18  1  0.87239626  0.45739300  0.31109615  1
  C  C19  1  0.47582475  0.23863268  0.52648663  1
  C  C20  1  0.52417525  0.76136732  0.47351337  1
  N  N21  1  0.18548399  0.69105663  0.62189037  1
  N  N22  1  0.27609187  0.24441736  0.51667474  1
  N  N23  1  0.39632982  0.68851522  0.62343748  1
  N  N24  1  0.45148027  0.83637842  0.32047325  1
  N  N25  1  0.54851973  0.16362158  0.67952675  1
  N  N26  1  0.60367018  0.31148478  0.37656252  1
  N  N27  1  0.72390813  0.75558264  0.48332526  1
  N  N28  1  0.81451601  0.30894337  0.37810963  1
  O  O29  1  0.27357588  0.43507897  0.14539397  1
  O  O30  1  0.72642412  0.56492103  0.85460603  1
  F  F31  1  0.04811862  0.98432682  0.20620530  1
  F  F32  1  0.12961561  0.23925428  0.91398684  1
  F  F33  1  0.22324444  0.87600935  0.96842382  1
  F  F34  1  0.77675556  0.12399065  0.03157618  1
  F  F35  1  0.87038439  0.76074572  0.08601316  1
  F  F36  1  0.95188138  0.01567318  0.79379470  1
