# generated using pymatgen
data_Li3Co2(SiO4)2
_symmetry_space_group_name_H-M   'P 1'
_cell_length_a   5.24934581
_cell_length_b   5.24452635
_cell_length_c   6.47645973
_cell_angle_alpha   90.66318057
_cell_angle_beta   89.28760593
_cell_angle_gamma   88.48273157
_symmetry_Int_Tables_number   1
_chemical_formula_structural   Li3Co2(SiO4)2
_chemical_formula_sum   'Li3 Co2 Si2 O8'
_cell_volume   178.21016081
_cell_formula_units_Z   1
loop_
 _symmetry_equiv_pos_site_id
 _symmetry_equiv_pos_as_xyz
  1  'x, y, z'
loop_
 _atom_site_type_symbol
 _atom_site_label
 _atom_site_symmetry_multiplicity
 _atom_site_fract_x
 _atom_site_fract_y
 _atom_site_fract_z
 _atom_site_occupancy
  Li  Li0  1  0.82743236  0.82902789  0.50542125  1
  Li  Li1  1  0.31402936  0.67887316  0.26672693  1
  Li  Li2  1  0.17772362  0.17875115  0.50482679  1
  Co  Co3  1  0.81069214  0.80184343  0.99424747  1
  Co  Co4  1  0.19473196  0.18975274  0.99495972  1
  Si  Si5  1  0.68529030  0.30848296  0.25567349  1
  Si  Si6  1  0.32262060  0.67083186  0.74303768  1
  O  O7  1  0.81876099  0.16555595  0.04570022  1
  O  O8  1  0.72656146  0.62732043  0.23390483  1
  O  O9  1  0.81547155  0.19038979  0.45452924  1
  O  O10  1  0.63109130  0.73559882  0.76262216  1
  O  O11  1  0.37160245  0.29012323  0.24433843  1
  O  O12  1  0.20778679  0.79924031  0.53706481  1
  O  O13  1  0.27691086  0.36631863  0.75145240  1
  O  O14  1  0.18588126  0.80126065  0.96257259  1
