# generated using pymatgen
data_Li2Mn3O4F3
_symmetry_space_group_name_H-M   'P 1'
_cell_length_a   6.51801763
_cell_length_b   6.39263337
_cell_length_c   8.02856507
_cell_angle_alpha   103.86247105
_cell_angle_beta   113.35925198
_cell_angle_gamma   102.15012780
_symmetry_Int_Tables_number   1
_chemical_formula_structural   Li2Mn3O4F3
_chemical_formula_sum   'Li4 Mn6 O8 F6'
_cell_volume   280.10636013
_cell_formula_units_Z   2
loop_
 _symmetry_equiv_pos_site_id
 _symmetry_equiv_pos_as_xyz
  1  'x, y, z'
loop_
 _atom_site_type_symbol
 _atom_site_label
 _atom_site_symmetry_multiplicity
 _atom_site_fract_x
 _atom_site_fract_y
 _atom_site_fract_z
 _atom_site_occupancy
  Li  Li0  1  0.30459683  0.70080462  0.46181073  1
  Li  Li1  1  0.33305940  0.80051254  0.07224073  1
  Li  Li2  1  0.64721462  0.14707154  0.91914323  1
  Li  Li3  1  0.70270955  0.35097760  0.52561001  1
  Mn  Mn4  1  0.21537941  0.23440457  0.64840355  1
  Mn  Mn5  1  0.06267165  0.06094925  0.21999235  1
  Mn  Mn6  1  0.66293277  0.63835396  0.92861537  1
  Mn  Mn7  1  0.33843335  0.35929349  0.06441975  1
  Mn  Mn8  1  0.93817907  0.92132698  0.79010056  1
  Mn  Mn9  1  0.77369822  0.77926861  0.36008395  1
  O  O10  1  0.11843292  0.94702569  0.43272247  1
  O  O11  1  0.33195990  0.51606193  0.86740265  1
  O  O12  1  0.00482674  0.18410691  0.01650212  1
  O  O13  1  0.27419268  0.09594663  0.84487613  1
  O  O14  1  0.43344282  0.64050562  0.26413300  1
  O  O15  1  0.71330193  0.89646135  0.13991626  1
  O  O16  1  0.98367935  0.75960315  0.98309672  1
  O  O17  1  0.86226405  0.67607328  0.57112833  1
  F  F18  1  0.15867864  0.38141824  0.45192027  1
  F  F19  1  0.57611030  0.84162829  0.72808515  1
  F  F20  1  0.60136720  0.34979307  0.72851287  1
  F  F21  1  0.41233350  0.16440944  0.26894381  1
  F  F22  1  0.70731263  0.43561807  0.12964886  1
  F  F23  1  0.84322047  0.11838518  0.58269014  1
