# generated using pymatgen
data_Li4Mn3(OF3)3
_symmetry_space_group_name_H-M   'P 1'
_cell_length_a   5.66571022
_cell_length_b   6.27007346
_cell_length_c   5.85769697
_cell_angle_alpha   98.45195599
_cell_angle_beta   96.97759302
_cell_angle_gamma   99.49098551
_symmetry_Int_Tables_number   1
_chemical_formula_structural   Li4Mn3(OF3)3
_chemical_formula_sum   'Li4 Mn3 O3 F9'
_cell_volume   200.73651266
_cell_formula_units_Z   1
loop_
 _symmetry_equiv_pos_site_id
 _symmetry_equiv_pos_as_xyz
  1  'x, y, z'
loop_
 _atom_site_type_symbol
 _atom_site_label
 _atom_site_symmetry_multiplicity
 _atom_site_fract_x
 _atom_site_fract_y
 _atom_site_fract_z
 _atom_site_occupancy
  Li  Li0  1  0.11535730  0.56093415  0.31977460  1
  Li  Li1  1  0.31701864  0.14004990  0.60846032  1
  Li  Li2  1  0.60244680  0.32315827  0.14301266  1
  Li  Li3  1  0.86208342  0.40018941  0.65968744  1
  Mn  Mn4  1  0.40738658  0.67072291  0.84974266  1
  Mn  Mn5  1  0.64798081  0.85160621  0.38105812  1
  Mn  Mn6  1  0.00344299  0.99388923  0.99937367  1
  O  O7  1  0.10438065  0.73948507  0.90110887  1
  O  O8  1  0.43295333  0.80997182  0.59861854  1
  O  O9  1  0.67774825  0.87527180  0.04946430  1
  F  F10  1  0.09586906  0.97051708  0.30977510  1
  F  F11  1  0.19187735  0.42293825  0.61832581  1
  F  F12  1  0.38715238  0.56690731  0.15761920  1
  F  F13  1  0.61815777  0.46332669  0.82169266  1
  F  F14  1  0.30903747  0.13950217  0.95880435  1
  F  F15  1  0.80337238  0.60039759  0.40831058  1
  F  F16  1  0.58931577  0.15399261  0.41157247  1
  F  F17  1  0.93180793  0.28101387  0.10653198  1
  F  F18  1  0.90260910  0.03612466  0.69706667  1
