# generated using pymatgen
data_Li2Cr(Si2O5)3
_symmetry_space_group_name_H-M   'P 1'
_cell_length_a   7.33864610
_cell_length_b   7.33551025
_cell_length_c   6.70326685
_cell_angle_alpha   110.97286063
_cell_angle_beta   114.08522949
_cell_angle_gamma   97.51306862
_symmetry_Int_Tables_number   1
_chemical_formula_structural   Li2Cr(Si2O5)3
_chemical_formula_sum   'Li2 Cr1 Si6 O15'
_cell_volume   290.94272331
_cell_formula_units_Z   1
loop_
 _symmetry_equiv_pos_site_id
 _symmetry_equiv_pos_as_xyz
  1  'x, y, z'
loop_
 _atom_site_type_symbol
 _atom_site_label
 _atom_site_symmetry_multiplicity
 _atom_site_fract_x
 _atom_site_fract_y
 _atom_site_fract_z
 _atom_site_occupancy
  Li  Li0  1  0.19066184  0.17076138  0.70375854  1
  Li  Li1  1  0.80933816  0.82923862  0.29624146  1
  Cr  Cr2  1  0.00000000  0.00000000  0.00000000  1
  Si  Si3  1  0.17174135  0.60700195  0.86903271  1
  Si  Si4  1  0.20249120  0.78657412  0.35334953  1
  Si  Si5  1  0.51334145  0.69598222  0.72367913  1
  Si  Si6  1  0.48665855  0.30401778  0.27632087  1
  Si  Si7  1  0.79750880  0.21342588  0.64665047  1
  Si  Si8  1  0.82825865  0.39299805  0.13096729  1
  O  O9  1  0.05266566  0.76918161  0.82353675  1
  O  O10  1  0.98609455  0.63458934  0.31010612  1
  O  O11  1  0.14532597  0.98928097  0.33873466  1
  O  O12  1  0.37339218  0.60568356  0.82535779  1
  O  O13  1  0.39908111  0.84873116  0.62341177  1
  O  O14  1  0.26455887  0.65110100  0.15432584  1
  O  O15  1  0.25057835  0.17580971  0.04580766  1
  O  O16  1  0.50000000  0.50000000  0.50000000  1
  O  O17  1  0.74942165  0.82419029  0.95419234  1
  O  O18  1  0.73544113  0.34889900  0.84567416  1
  O  O19  1  0.60091989  0.15126884  0.37658723  1
  O  O20  1  0.62660782  0.39431644  0.17464221  1
  O  O21  1  0.85467403  0.01071903  0.66126534  1
  O  O22  1  0.01390545  0.36541066  0.68989388  1
  O  O23  1  0.94733434  0.23081839  0.17646325  1
