# generated using pymatgen
data_LiVSiO4
_symmetry_space_group_name_H-M   'P 1'
_cell_length_a   5.41912785
_cell_length_b   5.41912800
_cell_length_c   12.45697805
_cell_angle_alpha   90.00000000
_cell_angle_beta   90.00000000
_cell_angle_gamma   119.99999903
_symmetry_Int_Tables_number   1
_chemical_formula_structural   LiVSiO4
_chemical_formula_sum   'Li3 V3 Si3 O12'
_cell_volume   316.81237810
_cell_formula_units_Z   3
loop_
 _symmetry_equiv_pos_site_id
 _symmetry_equiv_pos_as_xyz
  1  'x, y, z'
loop_
 _atom_site_type_symbol
 _atom_site_label
 _atom_site_symmetry_multiplicity
 _atom_site_fract_x
 _atom_site_fract_y
 _atom_site_fract_z
 _atom_site_occupancy
  Li  Li0  1  0.00000000  0.00000000  0.00000000  1
  Li  Li1  1  0.00000000  0.00000000  0.33333300  1
  Li  Li2  1  0.00000000  0.00000000  0.66666700  1
  V  V3  1  0.00000000  0.50000000  0.83333300  1
  V  V4  1  0.50000000  0.50000000  0.16666700  1
  V  V5  1  0.50000000  0.00000000  0.50000000  1
  Si  Si6  1  0.00000000  0.50000000  0.33333300  1
  Si  Si7  1  0.50000000  0.50000000  0.66666700  1
  Si  Si8  1  0.50000000  0.00000000  0.00000000  1
  O  O9  1  0.18312488  0.78912669  0.40581097  1
  O  O10  1  0.21087331  0.81687512  0.92752203  1
  O  O11  1  0.18312488  0.39399818  0.26085603  1
  O  O12  1  0.21087331  0.39399818  0.73914397  1
  O  O13  1  0.60600182  0.81687512  0.07247797  1
  O  O14  1  0.60600182  0.78912669  0.59418903  1
  O  O15  1  0.39399818  0.21087331  0.59418903  1
  O  O16  1  0.39399818  0.18312488  0.07247797  1
  O  O17  1  0.78912669  0.60600182  0.73914397  1
  O  O18  1  0.81687512  0.60600182  0.26085603  1
  O  O19  1  0.78912669  0.18312488  0.92752203  1
  O  O20  1  0.81687512  0.21087331  0.40581097  1
