# generated using pymatgen
data_LiVSiO4
_symmetry_space_group_name_H-M   'P 1'
_cell_length_a   4.82908341
_cell_length_b   5.18554378
_cell_length_c   4.82908341
_cell_angle_alpha   62.24903590
_cell_angle_beta   90.00000000
_cell_angle_gamma   117.75096423
_symmetry_Int_Tables_number   1
_chemical_formula_structural   LiVSiO4
_chemical_formula_sum   'Li1 V1 Si1 O4'
_cell_volume   91.00748198
_cell_formula_units_Z   1
loop_
 _symmetry_equiv_pos_site_id
 _symmetry_equiv_pos_as_xyz
  1  'x, y, z'
loop_
 _atom_site_type_symbol
 _atom_site_label
 _atom_site_symmetry_multiplicity
 _atom_site_fract_x
 _atom_site_fract_y
 _atom_site_fract_z
 _atom_site_occupancy
  Li  Li0  1  0.50000000  0.00000000  0.50000000  1
  V  V1  1  0.00000000  0.00000000  0.00000000  1
  Si  Si2  1  0.75000000  0.50000000  0.75000000  1
  O  O3  1  0.42082397  0.25597135  0.05712760  1
  O  O4  1  0.68690005  0.74402865  0.42082397  1
  O  O5  1  0.83514738  0.25597135  0.68690005  1
  O  O6  1  0.05712760  0.74402865  0.83514738  1
