# generated using pymatgen
data_Gd2As4O11
_symmetry_space_group_name_H-M   'P 1'
_cell_length_a   6.70862950
_cell_length_b   6.70862950
_cell_length_c   16.42841878
_cell_angle_alpha   96.17004631
_cell_angle_beta   83.82995369
_cell_angle_gamma   132.82151518
_symmetry_Int_Tables_number   1
_chemical_formula_structural   Gd2As4O11
_chemical_formula_sum   'Gd4 As8 O22'
_cell_volume   538.56857876
_cell_formula_units_Z   2
loop_
 _symmetry_equiv_pos_site_id
 _symmetry_equiv_pos_as_xyz
  1  'x, y, z'
loop_
 _atom_site_type_symbol
 _atom_site_label
 _atom_site_symmetry_multiplicity
 _atom_site_fract_x
 _atom_site_fract_y
 _atom_site_fract_z
 _atom_site_occupancy
  Gd  Gd0  1  0.67332425  0.88019031  0.96915970  1
  Gd  Gd1  1  0.11980969  0.32667575  0.46915970  1
  Gd  Gd2  1  0.88019031  0.67332425  0.53084030  1
  Gd  Gd3  1  0.32667575  0.11980969  0.03084030  1
  As  As4  1  0.22373394  0.34899435  0.84300561  1
  As  As5  1  0.50917307  0.86375645  0.61881733  1
  As  As6  1  0.65100565  0.77626606  0.34300561  1
  As  As7  1  0.86375645  0.50917307  0.88118267  1
  As  As8  1  0.13624355  0.49082693  0.11881733  1
  As  As9  1  0.34899435  0.22373394  0.65699439  1
  As  As10  1  0.49082693  0.13624355  0.38118267  1
  As  As11  1  0.77626606  0.65100565  0.15699439  1
  O  O12  1  0.04543509  0.90666131  0.66116310  1
  O  O13  1  0.24091244  0.61950147  0.86421565  1
  O  O14  1  0.09333869  0.95456491  0.16116310  1
  O  O15  1  0.24272650  0.69738757  0.54863339  1
  O  O16  1  0.38049853  0.75908756  0.36421565  1
  O  O17  1  0.43234281  0.41122155  0.91484893  1
  O  O18  1  0.98132765  0.79218480  0.94920110  1
  O  O19  1  0.42247172  0.42247172  0.75000000  1
  O  O20  1  0.79218480  0.98132765  0.55079890  1
  O  O21  1  0.30261143  0.75727350  0.04863339  1
  O  O22  1  0.41122155  0.43234281  0.58515107  1
  O  O23  1  0.58877845  0.56765719  0.41484893  1
  O  O24  1  0.69738757  0.24272650  0.95136661  1
  O  O25  1  0.20781520  0.01867235  0.44920110  1
  O  O26  1  0.57752828  0.57752828  0.25000000  1
  O  O27  1  0.01867235  0.20781520  0.05079890  1
  O  O28  1  0.56765719  0.58877845  0.08515107  1
  O  O29  1  0.61950147  0.24091244  0.63578435  1
  O  O30  1  0.75727350  0.30261143  0.45136661  1
  O  O31  1  0.90666131  0.04543509  0.83883690  1
  O  O32  1  0.75908756  0.38049853  0.13578435  1
  O  O33  1  0.95456491  0.09333869  0.33883690  1
