# generated using pymatgen
data_Mn2Si2O7
_symmetry_space_group_name_H-M   'P 1'
_cell_length_a   4.96733148
_cell_length_b   4.96733148
_cell_length_c   12.49607789
_cell_angle_alpha   90.00000000
_cell_angle_beta   90.00000000
_cell_angle_gamma   64.74723708
_symmetry_Int_Tables_number   1
_chemical_formula_structural   Mn2Si2O7
_chemical_formula_sum   'Mn4 Si4 O14'
_cell_volume   278.86702560
_cell_formula_units_Z   2
loop_
 _symmetry_equiv_pos_site_id
 _symmetry_equiv_pos_as_xyz
  1  'x, y, z'
loop_
 _atom_site_type_symbol
 _atom_site_label
 _atom_site_symmetry_multiplicity
 _atom_site_fract_x
 _atom_site_fract_y
 _atom_site_fract_z
 _atom_site_occupancy
  Mn  Mn0  1  0.04187314  0.95812686  0.00000000  1
  Mn  Mn1  1  0.04187314  0.95812686  0.50000000  1
  Mn  Mn2  1  0.00735379  0.92166834  0.25000000  1
  Mn  Mn3  1  0.07833166  0.99264621  0.75000000  1
  Si  Si4  1  0.37812819  0.29200922  0.13283920  1
  Si  Si5  1  0.37812819  0.29200922  0.36716080  1
  Si  Si6  1  0.70799078  0.62187181  0.63283920  1
  Si  Si7  1  0.70799078  0.62187181  0.86716080  1
  O  O8  1  0.23672565  0.66005882  0.13552530  1
  O  O9  1  0.23672565  0.66005882  0.36447470  1
  O  O10  1  0.33994118  0.76327435  0.63552530  1
  O  O11  1  0.33994118  0.76327435  0.86447470  1
  O  O12  1  0.27932892  0.18994714  0.25000000  1
  O  O13  1  0.81005286  0.72067108  0.75000000  1
  O  O14  1  0.82767844  0.74184440  0.53470175  1
  O  O15  1  0.82767844  0.74184440  0.96529825  1
  O  O16  1  0.25815560  0.17232156  0.03470175  1
  O  O17  1  0.25815560  0.17232156  0.46529825  1
  O  O18  1  0.84767152  0.25376211  0.86470891  1
  O  O19  1  0.84767152  0.25376211  0.63529109  1
  O  O20  1  0.74623789  0.15232848  0.13529109  1
  O  O21  1  0.74623789  0.15232848  0.36470891  1
