# generated using pymatgen
data_LiMn(PO4)2
_symmetry_space_group_name_H-M   'P 1'
_cell_length_a   6.20689038
_cell_length_b   6.20689023
_cell_length_c   8.96646945
_cell_angle_alpha   70.23888104
_cell_angle_beta   75.21989608
_cell_angle_gamma   98.22438408
_symmetry_Int_Tables_number   1
_chemical_formula_structural   LiMn(PO4)2
_chemical_formula_sum   'Li2 Mn2 P4 O16'
_cell_volume   304.19453659
_cell_formula_units_Z   2
loop_
 _symmetry_equiv_pos_site_id
 _symmetry_equiv_pos_as_xyz
  1  'x, y, z'
loop_
 _atom_site_type_symbol
 _atom_site_label
 _atom_site_symmetry_multiplicity
 _atom_site_fract_x
 _atom_site_fract_y
 _atom_site_fract_z
 _atom_site_occupancy
  Li  Li0  1  0.16207085  0.39297910  0.49166671  1
  Li  Li1  1  0.61535419  0.34626244  0.99166671  1
  Mn  Mn2  1  0.14730100  0.89879271  0.75254390  1
  Mn  Mn3  1  0.84866340  0.10015510  0.25254390  1
  P  P4  1  0.28709040  0.98093292  0.35464361  1
  P  P5  1  0.16442347  0.35826599  0.85464361  1
  P  P6  1  0.84125488  0.64161138  0.15004838  1
  P  P7  1  0.70834024  0.00869674  0.65004838  1
  O  O8  1  0.05428335  0.78502081  0.99227627  1
  O  O9  1  0.15600906  0.11790601  0.24344515  1
  O  O10  1  0.24144256  0.72251554  0.39077073  1
  O  O11  1  0.13864784  0.60054579  0.74344515  1
  O  O12  1  0.24833718  0.05650867  0.50736503  1
  O  O13  1  0.15868300  0.22439542  0.73376546  1
  O  O14  1  0.62698132  0.56624790  0.10481194  1
  O  O15  1  0.54184012  0.10755153  0.23376546  1
  O  O16  1  0.45575365  0.93657503  0.76176886  1
  O  O17  1  0.38671372  0.36778571  0.89077073  1
  O  O18  1  0.80165611  0.78247749  0.26176886  1
  O  O19  1  0.72270292  0.95344038  0.49227627  1
  O  O20  1  0.88806222  0.40988297  0.26120097  1
  O  O21  1  0.82894116  0.26820675  0.60481194  1
  O  O22  1  0.82891506  0.85073681  0.76120097  1
  O  O23  1  0.93612630  0.24429779  0.00736503  1
