# generated using pymatgen
data_Li5SbS
_symmetry_space_group_name_H-M   'P 1'
_cell_length_a   6.25573862
_cell_length_b   8.72463703
_cell_length_c   9.07324842
_cell_angle_alpha   90.00000000
_cell_angle_beta   88.53237343
_cell_angle_gamma   90.00000000
_symmetry_Int_Tables_number   1
_chemical_formula_structural   Li5SbS
_chemical_formula_sum   'Li20 Sb4 S4'
_cell_volume   495.04681789
_cell_formula_units_Z   4
loop_
 _symmetry_equiv_pos_site_id
 _symmetry_equiv_pos_as_xyz
  1  'x, y, z'
loop_
 _atom_site_type_symbol
 _atom_site_label
 _atom_site_symmetry_multiplicity
 _atom_site_fract_x
 _atom_site_fract_y
 _atom_site_fract_z
 _atom_site_occupancy
  Li  Li0  1  0.93546668  0.74762235  0.48881594  1
  Li  Li1  1  0.22796410  0.52171041  0.99562339  1
  Li  Li2  1  0.19606060  0.29584058  0.21970028  1
  Li  Li3  1  0.28362262  0.52848529  0.47360803  1
  Li  Li4  1  0.29285690  0.25563931  0.74280752  1
  Li  Li5  1  0.27665780  0.98805798  0.50556486  1
  Li  Li6  1  0.18848640  0.75059495  0.21162961  1
  Li  Li7  1  0.27909952  0.78105580  0.73588691  1
  Li  Li8  1  0.44992068  0.02730702  0.20998343  1
  Li  Li9  1  0.22951363  0.02329477  0.96110477  1
  Li  Li10  1  0.77048637  0.52329477  0.03889523  1
  Li  Li11  1  0.55007932  0.52730702  0.79001557  1
  Li  Li12  1  0.72090048  0.28105580  0.26411309  1
  Li  Li13  1  0.81151360  0.25059495  0.78837039  1
  Li  Li14  1  0.72334220  0.48805798  0.49443514  1
  Li  Li15  1  0.70714310  0.75563931  0.25719248  1
  Li  Li16  1  0.71637738  0.02848529  0.52639197  1
  Li  Li17  1  0.80393940  0.79584058  0.78029972  1
  Li  Li18  1  0.77203590  0.02171041  0.00437661  1
  Li  Li19  1  0.06453332  0.24762235  0.51118406  1
  Sb  Sb20  1  0.01225035  0.51865913  0.72386796  1
  Sb  Sb21  1  0.50266976  0.27358862  0.00174734  1
  Sb  Sb22  1  0.49733024  0.77358862  0.99825266  1
  Sb  Sb23  1  0.98774965  0.01865913  0.27613204  1
  S  S24  1  0.02339144  0.02480958  0.72540632  1
  S  S25  1  0.47204550  0.26183621  0.48920866  1
  S  S26  1  0.52795450  0.76183621  0.51079134  1
  S  S27  1  0.97660856  0.52480958  0.27459368  1
