# generated using pymatgen
data_Li3Cr4(PO4)6
_symmetry_space_group_name_H-M   'P 1'
_cell_length_a   8.56549387
_cell_length_b   8.56549449
_cell_length_c   6.31967404
_cell_angle_alpha   74.99547357
_cell_angle_beta   105.00452020
_cell_angle_gamma   87.56465855
_symmetry_Int_Tables_number   1
_chemical_formula_structural   Li3Cr4(PO4)6
_chemical_formula_sum   'Li3 Cr4 P6 O24'
_cell_volume   429.59150624
_cell_formula_units_Z   1
loop_
 _symmetry_equiv_pos_site_id
 _symmetry_equiv_pos_as_xyz
  1  'x, y, z'
loop_
 _atom_site_type_symbol
 _atom_site_label
 _atom_site_symmetry_multiplicity
 _atom_site_fract_x
 _atom_site_fract_y
 _atom_site_fract_z
 _atom_site_occupancy
  Li  Li0  1  0.50156942  0.50102090  0.49963329  1
  Li  Li1  1  0.50102090  0.50156942  0.00036671  1
  Li  Li2  1  0.98175788  0.98175788  0.75000000  1
  Cr  Cr3  1  0.05873059  0.61700264  0.14413860  1
  Cr  Cr4  1  0.38039514  0.94102860  0.63980355  1
  Cr  Cr5  1  0.61700264  0.05873059  0.35586140  1
  Cr  Cr6  1  0.94102860  0.38039514  0.86019645  1
  P  P7  1  0.15724461  0.65074803  0.64890848  1
  P  P8  1  0.27242869  0.27242869  0.25000000  1
  P  P9  1  0.34841687  0.84262308  0.14257506  1
  P  P10  1  0.65074803  0.15724461  0.85109152  1
  P  P11  1  0.72733455  0.72733455  0.75000000  1
  P  P12  1  0.84262308  0.34841687  0.35742494  1
  O  O13  1  0.06677568  0.58223982  0.83853186  1
  O  O14  1  0.03247089  0.64309294  0.42348244  1
  O  O15  1  0.17321142  0.83298549  0.63491301  1
  O  O16  1  0.14977875  0.24948941  0.03598397  1
  O  O17  1  0.24948941  0.14977875  0.46401603  1
  O  O18  1  0.16495604  0.82247282  0.11129133  1
  O  O19  1  0.31858187  0.55245597  0.69882775  1
  O  O20  1  0.35670424  0.97114936  0.92148792  1
  O  O21  1  0.25101341  0.44708094  0.27813056  1
  O  O22  1  0.41343214  0.93203333  0.33505908  1
  O  O23  1  0.55245597  0.31858187  0.80117225  1
  O  O24  1  0.44708094  0.25101341  0.22186944  1
  O  O25  1  0.55393762  0.74879233  0.77912000  1
  O  O26  1  0.45005091  0.68141211  0.19967196  1
  O  O27  1  0.58223982  0.06677568  0.66146814  1
  O  O28  1  0.74879233  0.55393762  0.72088000  1
  O  O29  1  0.64309294  0.03247089  0.07651756  1
  O  O30  1  0.68141211  0.45005091  0.30032804  1
  O  O31  1  0.83298549  0.17321142  0.86508699  1
  O  O32  1  0.75393580  0.85504571  0.54098479  1
  O  O33  1  0.85504571  0.75393580  0.95901521  1
  O  O34  1  0.82247282  0.16495604  0.38870867  1
  O  O35  1  0.97114936  0.35670424  0.57851208  1
  O  O36  1  0.93203333  0.41343214  0.16494092  1
