# generated using pymatgen
data_Li3Mn3(BO3)4
_symmetry_space_group_name_H-M   'P 1'
_cell_length_a   5.34652560
_cell_length_b   9.07771887
_cell_length_c   9.61786990
_cell_angle_alpha   90.00000000
_cell_angle_beta   92.48114866
_cell_angle_gamma   90.00000000
_symmetry_Int_Tables_number   1
_chemical_formula_structural   Li3Mn3(BO3)4
_chemical_formula_sum   'Li6 Mn6 B8 O24'
_cell_volume   466.35855024
_cell_formula_units_Z   2
loop_
 _symmetry_equiv_pos_site_id
 _symmetry_equiv_pos_as_xyz
  1  'x, y, z'
loop_
 _atom_site_type_symbol
 _atom_site_label
 _atom_site_symmetry_multiplicity
 _atom_site_fract_x
 _atom_site_fract_y
 _atom_site_fract_z
 _atom_site_occupancy
  Li  Li0  1  0.14715042  0.98512636  0.66170221  1
  Li  Li1  1  0.18381811  0.65619051  0.62882659  1
  Li  Li2  1  0.33634703  0.17860812  0.87581707  1
  Li  Li3  1  0.64715042  0.51487364  0.16170221  1
  Li  Li4  1  0.68381811  0.84380949  0.12882659  1
  Li  Li5  1  0.83634703  0.32139188  0.37581707  1
  Mn  Mn6  1  0.13702782  0.32787182  0.12484148  1
  Mn  Mn7  1  0.17389466  0.99336267  0.11746197  1
  Mn  Mn8  1  0.36332430  0.80224672  0.37729974  1
  Mn  Mn9  1  0.63702782  0.17212818  0.62484148  1
  Mn  Mn10  1  0.67389466  0.50663733  0.61746197  1
  Mn  Mn11  1  0.86332430  0.69775328  0.87729974  1
  B  B12  1  0.17366048  0.32365883  0.62015104  1
  B  B13  1  0.16547916  0.65381645  0.12686900  1
  B  B14  1  0.33286210  0.81665431  0.89334973  1
  B  B15  1  0.33653080  0.16303604  0.35587355  1
  B  B16  1  0.66547916  0.84618355  0.62686900  1
  B  B17  1  0.67366048  0.17634117  0.12015104  1
  B  B18  1  0.83653080  0.33696396  0.85587355  1
  B  B19  1  0.83286210  0.68334569  0.39334973  1
  O  O20  1  0.06248089  0.32197278  0.92891475  1
  O  O21  1  0.08518752  0.68130541  0.41788204  1
  O  O22  1  0.19072049  0.94313502  0.92019018  1
  O  O23  1  0.19580036  0.28572695  0.31856948  1
  O  O24  1  0.25252552  0.02248107  0.31551705  1
  O  O25  1  0.21315802  0.69279922  0.84048235  1
  O  O26  1  0.27096672  0.18523298  0.65594852  1
  O  O27  1  0.31313135  0.44871404  0.61626038  1
  O  O28  1  0.29676577  0.52835487  0.13744678  1
  O  O29  1  0.29188778  0.78615093  0.16918120  1
  O  O30  1  0.41421575  0.83508171  0.58071505  1
  O  O31  1  0.41320595  0.17107514  0.08751685  1
  O  O32  1  0.58518752  0.81869459  0.91788204  1
  O  O33  1  0.56248089  0.17802722  0.42891475  1
  O  O34  1  0.69072049  0.55686498  0.42019018  1
  O  O35  1  0.69580036  0.21427305  0.81856948  1
  O  O36  1  0.75252552  0.47751893  0.81551805  1
  O  O37  1  0.71315802  0.80720078  0.34048235  1
  O  O38  1  0.77096672  0.31476702  0.15594852  1
  O  O39  1  0.79676577  0.97164513  0.63744678  1
  O  O40  1  0.79188778  0.71384907  0.66918120  1
  O  O41  1  0.81313135  0.05128596  0.11626038  1
  O  O42  1  0.91320595  0.32892486  0.58751685  1
  O  O43  1  0.91421575  0.66491829  0.08071505  1
