# generated using pymatgen
data_Ni9S10
_symmetry_space_group_name_H-M   'P 1'
_cell_length_a   5.94881895
_cell_length_b   7.79251302
_cell_length_c   6.13864648
_cell_angle_alpha   79.69851053
_cell_angle_beta   90.93614633
_cell_angle_gamma   68.85484466
_symmetry_Int_Tables_number   1
_chemical_formula_structural   Ni9S10
_chemical_formula_sum   'Ni9 S10'
_cell_volume   260.11109481
_cell_formula_units_Z   1
loop_
 _symmetry_equiv_pos_site_id
 _symmetry_equiv_pos_as_xyz
  1  'x, y, z'
loop_
 _atom_site_type_symbol
 _atom_site_label
 _atom_site_symmetry_multiplicity
 _atom_site_fract_x
 _atom_site_fract_y
 _atom_site_fract_z
 _atom_site_occupancy
  Ni  Ni0  1  0.38671715  0.21167373  0.82086347  1
  Ni  Ni1  1  0.48643569  0.01375583  0.49695884  1
  Ni  Ni2  1  0.70289325  0.58696512  0.91132493  1
  Ni  Ni3  1  0.89704794  0.21303184  0.28851755  1
  Ni  Ni4  1  0.79985548  0.40005690  0.59993404  1
  Ni  Ni5  1  0.98410737  0.99919495  0.99615000  1
  Ni  Ni6  1  0.11356002  0.78633893  0.70316727  1
  Ni  Ni7  1  0.21326917  0.58819129  0.37914419  1
  Ni  Ni8  1  0.61627841  0.80085596  0.20401834  1
  S  S9  1  0.77670903  0.09862188  0.64690059  1
  S  S10  1  0.01087780  0.29138712  0.94759236  1
  S  S11  1  0.17708599  0.30312950  0.46416740  1
  S  S12  1  0.61328873  0.10217874  0.15206606  1
  S  S13  1  0.42297788  0.49684332  0.73576095  1
  S  S14  1  0.38200385  0.90312938  0.85191454  1
  S  S15  1  0.58905578  0.50854793  0.25231345  1
  S  S16  1  0.82327778  0.70134756  0.55311293  1
  S  S17  1  0.98675572  0.69782040  0.04813649  1
  S  S18  1  0.21810396  0.89682960  0.34805660  1
