# generated using pymatgen
data_LiV2F7
_symmetry_space_group_name_H-M   'P 1'
_cell_length_a   4.91413600
_cell_length_b   4.91413558
_cell_length_c   10.64925884
_cell_angle_alpha   97.32455958
_cell_angle_beta   82.67544131
_cell_angle_gamma   97.30660170
_symmetry_Int_Tables_number   1
_chemical_formula_structural   LiV2F7
_chemical_formula_sum   'Li2 V4 F14'
_cell_volume   251.37277355
_cell_formula_units_Z   2
loop_
 _symmetry_equiv_pos_site_id
 _symmetry_equiv_pos_as_xyz
  1  'x, y, z'
loop_
 _atom_site_type_symbol
 _atom_site_label
 _atom_site_symmetry_multiplicity
 _atom_site_fract_x
 _atom_site_fract_y
 _atom_site_fract_z
 _atom_site_occupancy
  Li  Li0  1  0.64231369  0.73703755  0.98400759  1
  Li  Li1  1  0.26296245  0.35768631  0.48400759  1
  V  V2  1  0.71711822  0.26549057  0.74804316  1
  V  V3  1  0.73450943  0.28288178  0.24804316  1
  V  V4  1  0.27168441  0.72230758  0.74940337  1
  V  V5  1  0.27769242  0.72831559  0.24940337  1
  F  F6  1  0.93856959  0.56906110  0.86698662  1
  F  F7  1  0.00641865  0.48872312  0.63144746  1
  F  F8  1  0.96331425  0.96477466  0.25027567  1
  F  F9  1  0.55165047  0.94509181  0.63512467  1
  F  F10  1  0.43419321  0.48874309  0.86017712  1
  F  F11  1  0.50694197  0.99665560  0.86830084  1
  F  F12  1  0.49021280  0.43649420  0.63546149  1
  F  F13  1  0.51125691  0.56580679  0.36017712  1
  F  F14  1  0.51127688  0.99358135  0.13144746  1
  F  F15  1  0.56350580  0.50978720  0.13546149  1
  F  F16  1  0.43093890  0.06143041  0.36698662  1
  F  F17  1  0.03522534  0.03668575  0.75027567  1
  F  F18  1  0.00334440  0.49305803  0.36830084  1
  F  F19  1  0.05490819  0.44834953  0.13512467  1
