# generated using pymatgen
data_Li3Mn(OF)2
_symmetry_space_group_name_H-M   'P 1'
_cell_length_a   5.97612186
_cell_length_b   5.97612186
_cell_length_c   9.42467712
_cell_angle_alpha   70.09313280
_cell_angle_beta   109.90686720
_cell_angle_gamma   93.76747353
_symmetry_Int_Tables_number   1
_chemical_formula_structural   Li3Mn(OF)2
_chemical_formula_sum   'Li12 Mn4 O8 F8'
_cell_volume   297.08965347
_cell_formula_units_Z   4
loop_
 _symmetry_equiv_pos_site_id
 _symmetry_equiv_pos_as_xyz
  1  'x, y, z'
loop_
 _atom_site_type_symbol
 _atom_site_label
 _atom_site_symmetry_multiplicity
 _atom_site_fract_x
 _atom_site_fract_y
 _atom_site_fract_z
 _atom_site_occupancy
  Li  Li0  1  0.07027710  0.68034694  0.86732548  1
  Li  Li1  1  0.31965306  0.92972290  0.36732548  1
  Li  Li2  1  0.18383768  0.56674889  0.63112931  1
  Li  Li3  1  0.54823839  0.66889654  0.87506872  1
  Li  Li4  1  0.67884136  0.57771758  0.61873368  1
  Li  Li5  1  0.55445913  0.19452066  0.87624918  1
  Li  Li6  1  0.43325111  0.81616232  0.13112931  1
  Li  Li7  1  0.33110346  0.45176161  0.37506872  1
  Li  Li8  1  0.42228242  0.32115864  0.11873368  1
  Li  Li9  1  0.80547934  0.44554087  0.37624918  1
  Li  Li10  1  0.70226336  0.03772377  0.64345154  1
  Li  Li11  1  0.96227623  0.29773664  0.14345154  1
  Mn  Mn12  1  0.08379069  0.18039900  0.88400042  1
  Mn  Mn13  1  0.81960100  0.91620931  0.38400042  1
  Mn  Mn14  1  0.18343148  0.05115057  0.62334555  1
  Mn  Mn15  1  0.94884943  0.81656852  0.12334555  1
  O  O16  1  0.29928749  0.95420142  0.85131664  1
  O  O17  1  0.04579858  0.70071251  0.35131664  1
  O  O18  1  0.29748849  0.42152978  0.87515152  1
  O  O19  1  0.83743136  0.94681804  0.89149492  1
  O  O20  1  0.57847022  0.70251151  0.37515152  1
  O  O21  1  0.05318196  0.16256864  0.39149492  1
  O  O22  1  0.94021155  0.82675402  0.62169988  1
  O  O23  1  0.17324598  0.05978845  0.12169988  1
  F  F24  1  0.44918442  0.80305102  0.62853522  1
  F  F25  1  0.19694898  0.55081558  0.12853522  1
  F  F26  1  0.42714073  0.30378125  0.61656232  1
  F  F27  1  0.80034132  0.44329106  0.86931016  1
  F  F28  1  0.69621875  0.57285927  0.11656232  1
  F  F29  1  0.55670894  0.19965868  0.36931016  1
  F  F30  1  0.92344563  0.32274064  0.62662647  1
  F  F31  1  0.67725936  0.07655437  0.12662647  1
