# generated using pymatgen
data_Li6Mn2O5F2
_symmetry_space_group_name_H-M   'P 1'
_cell_length_a   5.87109458
_cell_length_b   5.88297559
_cell_length_c   9.91427526
_cell_angle_alpha   84.56086981
_cell_angle_beta   93.55902052
_cell_angle_gamma   61.89541305
_symmetry_Int_Tables_number   1
_chemical_formula_structural   Li6Mn2O5F2
_chemical_formula_sum   'Li12 Mn4 O10 F4'
_cell_volume   298.46809243
_cell_formula_units_Z   2
loop_
 _symmetry_equiv_pos_site_id
 _symmetry_equiv_pos_as_xyz
  1  'x, y, z'
loop_
 _atom_site_type_symbol
 _atom_site_label
 _atom_site_symmetry_multiplicity
 _atom_site_fract_x
 _atom_site_fract_y
 _atom_site_fract_z
 _atom_site_occupancy
  Li  Li0  1  0.20955816  0.86870159  0.09190951  1
  Li  Li1  1  0.47122558  0.86650531  0.60738153  1
  Li  Li2  1  0.90769079  0.89318932  0.57949013  1
  Li  Li3  1  0.67966293  0.87791529  0.09821181  1
  Li  Li4  1  0.33086714  0.58499464  0.89109284  1
  Li  Li5  1  0.08147574  0.58017243  0.39524933  1
  Li  Li6  1  0.91852426  0.41982757  0.60475067  1
  Li  Li7  1  0.66913286  0.41500536  0.10890716  1
  Li  Li8  1  0.32033707  0.12208471  0.90178819  1
  Li  Li9  1  0.09230921  0.10681068  0.42050987  1
  Li  Li10  1  0.52877442  0.13349469  0.39261847  1
  Li  Li11  1  0.79044184  0.13129841  0.90809049  1
  Mn  Mn12  1  0.79565216  0.62025321  0.88091384  1
  Mn  Mn13  1  0.55923665  0.60650282  0.37715457  1
  Mn  Mn14  1  0.44076335  0.39349718  0.62284543  1
  Mn  Mn15  1  0.20434784  0.37974679  0.11908616  1
  O  O16  1  0.50392135  0.75412672  0.97794760  1
  O  O17  1  0.73667877  0.74881583  0.47406047  1
  O  O18  1  0.25155147  0.73569992  0.51408933  1
  O  O19  1  0.63088233  0.49985854  0.74895891  1
  O  O20  1  0.98165361  0.75115237  0.99115154  1
  O  O21  1  0.01834639  0.24884763  0.00884846  1
  O  O22  1  0.36911767  0.50014146  0.25104109  1
  O  O23  1  0.74844853  0.26430008  0.48591067  1
  O  O24  1  0.26332123  0.25118417  0.52593853  1
  O  O25  1  0.49607865  0.24587328  0.02205240  1
  F  F26  1  0.10123624  0.50946675  0.76162662  1
  F  F27  1  0.89876376  0.49053325  0.23837338  1
  F  F28  1  0.63464200  0.03008205  0.74108867  1
  F  F29  1  0.36535800  0.96991795  0.25891133  1
