# generated using pymatgen
data_LiCrCO3F2
_symmetry_space_group_name_H-M   'P 1'
_cell_length_a   6.60507851
_cell_length_b   9.48367615
_cell_length_c   5.51881176
_cell_angle_alpha   90.00000000
_cell_angle_beta   90.00000000
_cell_angle_gamma   90.00000000
_symmetry_Int_Tables_number   1
_chemical_formula_structural   LiCrCO3F2
_chemical_formula_sum   'Li4 Cr4 C4 O12 F8'
_cell_volume   345.70071709
_cell_formula_units_Z   4
loop_
 _symmetry_equiv_pos_site_id
 _symmetry_equiv_pos_as_xyz
  1  'x, y, z'
loop_
 _atom_site_type_symbol
 _atom_site_label
 _atom_site_symmetry_multiplicity
 _atom_site_fract_x
 _atom_site_fract_y
 _atom_site_fract_z
 _atom_site_occupancy
  Li  Li0  1  0.25000000  0.25922839  0.71651415  1
  Li  Li1  1  0.25000000  0.24077161  0.21651415  1
  Li  Li2  1  0.75000000  0.74077161  0.28348585  1
  Li  Li3  1  0.75000000  0.75922839  0.78348585  1
  Cr  Cr4  1  0.25000000  0.62537408  0.03347542  1
  Cr  Cr5  1  0.25000000  0.87462592  0.53347542  1
  Cr  Cr6  1  0.75000000  0.12537408  0.46652458  1
  Cr  Cr7  1  0.75000000  0.37462592  0.96652458  1
  C  C8  1  0.25000000  0.55728109  0.47409005  1
  C  C9  1  0.25000000  0.94271891  0.97409005  1
  C  C10  1  0.75000000  0.05728109  0.02590995  1
  C  C11  1  0.75000000  0.44271891  0.52590995  1
  O  O12  1  0.25000000  0.03648981  0.80557614  1
  O  O13  1  0.25000000  0.46351019  0.30557614  1
  O  O14  1  0.25000000  0.53096358  0.69797181  1
  O  O15  1  0.25000000  0.96903642  0.19797181  1
  O  O16  1  0.25000000  0.81371236  0.88073693  1
  O  O17  1  0.25000000  0.68628764  0.38073693  1
  O  O18  1  0.75000000  0.03096358  0.80202819  1
  O  O19  1  0.75000000  0.18628764  0.11926307  1
  O  O20  1  0.75000000  0.31371236  0.61926307  1
  O  O21  1  0.75000000  0.46903642  0.30202819  1
  O  O22  1  0.75000000  0.53648981  0.69442386  1
  O  O23  1  0.75000000  0.96351019  0.19442386  1
  F  F24  1  0.04036548  0.16146406  0.45543153  1
  F  F25  1  0.04036548  0.33853594  0.95543153  1
  F  F26  1  0.45963452  0.16146406  0.45543153  1
  F  F27  1  0.45963452  0.33853594  0.95543153  1
  F  F28  1  0.54036548  0.83853594  0.54456847  1
  F  F29  1  0.54036548  0.66146406  0.04456847  1
  F  F30  1  0.95963452  0.66146406  0.04456847  1
  F  F31  1  0.95963452  0.83853594  0.54456847  1
