# generated using pymatgen
data_Li6MnNi3(PO4)6
_symmetry_space_group_name_H-M   'P 1'
_cell_length_a   8.47030418
_cell_length_b   8.53914167
_cell_length_c   8.54143683
_cell_angle_alpha   61.76814183
_cell_angle_beta   61.87158351
_cell_angle_gamma   61.90726674
_symmetry_Int_Tables_number   1
_chemical_formula_structural   Li6MnNi3(PO4)6
_chemical_formula_sum   'Li6 Mn1 Ni3 P6 O24'
_cell_volume   454.93204686
_cell_formula_units_Z   1
loop_
 _symmetry_equiv_pos_site_id
 _symmetry_equiv_pos_as_xyz
  1  'x, y, z'
loop_
 _atom_site_type_symbol
 _atom_site_label
 _atom_site_symmetry_multiplicity
 _atom_site_fract_x
 _atom_site_fract_y
 _atom_site_fract_z
 _atom_site_occupancy
  Li  Li0  1  0.02016123  0.01278452  0.99408104  1
  Li  Li1  1  0.74636765  0.15168279  0.35214505  1
  Li  Li2  1  0.48235612  0.50686020  0.49115773  1
  Li  Li3  1  0.27049050  0.85837186  0.64135172  1
  Li  Li4  1  0.64669094  0.27723585  0.85647070  1
  Li  Li5  1  0.85848632  0.64714225  0.27208403  1
  Mn  Mn6  1  0.85602125  0.85386946  0.85438244  1
  Ni  Ni7  1  0.13829737  0.14619341  0.14115493  1
  Ni  Ni8  1  0.35943666  0.36185492  0.35557279  1
  Ni  Ni9  1  0.64347547  0.64698268  0.64540235  1
  P  P10  1  0.05065374  0.74934863  0.45223580  1
  P  P11  1  0.45246708  0.04946942  0.74771146  1
  P  P12  1  0.74874927  0.45554659  0.04507638  1
  P  P13  1  0.24424762  0.54031794  0.95737256  1
  P  P14  1  0.54403194  0.96231646  0.24645383  1
  P  P15  1  0.95542026  0.24395239  0.53903485  1
  O  O16  1  0.12996788  0.28057139  0.50027128  1
  O  O17  1  0.28952977  0.51156424  0.12193211  1
  O  O18  1  0.03012830  0.92864630  0.27567421  1
  O  O19  1  0.54216216  0.11676621  0.29167620  1
  O  O20  1  0.24603156  0.60359457  0.42492396  1
  O  O21  1  0.01323473  0.80016260  0.62278017  1
  O  O22  1  0.26792114  0.05305170  0.91580929  1
  O  O23  1  0.45232192  0.23602610  0.58588963  1
  O  O24  1  0.60241000  0.43211653  0.24293791  1
  O  O25  1  0.20285501  0.37532284  0.97550591  1
  O  O26  1  0.07390959  0.73440804  0.94589082  1
  O  O27  1  0.36528787  0.99850226  0.21589528  1
  O  O28  1  0.62482089  0.00369339  0.80208345  1
  O  O29  1  0.91308254  0.26494536  0.05307395  1
  O  O30  1  0.80615226  0.62189030  0.00514604  1
  O  O31  1  0.39780138  0.57522563  0.76141105  1
  O  O32  1  0.57514060  0.76450829  0.39845700  1
  O  O33  1  0.73391523  0.94600691  0.07175030  1
  O  O34  1  0.95745513  0.20471652  0.37939916  1
  O  O35  1  0.76292801  0.40105934  0.57722944  1
  O  O36  1  0.47311974  0.89679823  0.68381349  1
  O  O37  1  0.94576745  0.07385316  0.73296666  1
  O  O38  1  0.67973034  0.48052794  0.89533092  1
  O  O39  1  0.89697506  0.68111279  0.47946513  1
