# generated using pymatgen
data_Li4Ti4Mn4VO18
_symmetry_space_group_name_H-M   'P 1'
_cell_length_a   9.13961176
_cell_length_b   26.53602769
_cell_length_c   2.91115024
_cell_angle_alpha   90.00000000
_cell_angle_beta   90.00000000
_cell_angle_gamma   90.00000000
_symmetry_Int_Tables_number   1
_chemical_formula_structural   Li4Ti4Mn4VO18
_chemical_formula_sum   'Li8 Ti8 Mn8 V2 O36'
_cell_volume   706.03832960
_cell_formula_units_Z   2
loop_
 _symmetry_equiv_pos_site_id
 _symmetry_equiv_pos_as_xyz
  1  'x, y, z'
loop_
 _atom_site_type_symbol
 _atom_site_label
 _atom_site_symmetry_multiplicity
 _atom_site_fract_x
 _atom_site_fract_y
 _atom_site_fract_z
 _atom_site_occupancy
  Li  Li0  1  0.19106485  0.98591861  0.00000000  1
  Li  Li1  1  0.20148546  0.17878127  0.00000000  1
  Li  Li2  1  0.29851454  0.67878127  0.00000000  1
  Li  Li3  1  0.30893515  0.48591861  0.00000000  1
  Li  Li4  1  0.69106485  0.51408139  0.00000000  1
  Li  Li5  1  0.70148546  0.32121873  0.00000000  1
  Li  Li6  1  0.79851454  0.82121873  0.00000000  1
  Li  Li7  1  0.80893515  0.01408139  0.00000000  1
  Ti  Ti8  1  0.98996556  0.10200874  0.00000000  1
  Ti  Ti9  1  0.15180585  0.80799854  0.50000000  1
  Ti  Ti10  1  0.34819415  0.30799854  0.50000000  1
  Ti  Ti11  1  0.51003444  0.60200874  0.00000000  1
  Ti  Ti12  1  0.48996556  0.39799126  0.00000000  1
  Ti  Ti13  1  0.65180585  0.69200146  0.50000000  1
  Ti  Ti14  1  0.84819415  0.19200146  0.50000000  1
  Ti  Ti15  1  0.01003444  0.89799126  0.00000000  1
  Mn  Mn16  1  0.00415688  0.30888816  0.00000000  1
  Mn  Mn17  1  0.15584177  0.58641975  0.50000000  1
  Mn  Mn18  1  0.34415823  0.08641975  0.50000000  1
  Mn  Mn19  1  0.49584312  0.80888816  0.00000000  1
  Mn  Mn20  1  0.50415688  0.19111184  0.00000000  1
  Mn  Mn21  1  0.65584177  0.91358025  0.50000000  1
  Mn  Mn22  1  0.84415823  0.41358025  0.50000000  1
  Mn  Mn23  1  0.99584312  0.69111184  0.00000000  1
  V  V24  1  0.00000000  0.50000000  0.00000000  1
  V  V25  1  0.50000000  0.00000000  0.00000000  1
  O  O26  1  0.98059721  0.42610186  0.00000000  1
  O  O27  1  0.01940279  0.57389814  0.00000000  1
  O  O28  1  0.06238726  0.94192488  0.50000000  1
  O  O29  1  0.04368198  0.15479042  0.50000000  1
  O  O30  1  0.12540317  0.66827528  0.50000000  1
  O  O31  1  0.10398193  0.76406256  0.00000000  1
  O  O32  1  0.14675766  0.49791286  0.50000000  1
  O  O33  1  0.13819373  0.29364437  0.50000000  1
  O  O34  1  0.18688179  0.85876943  0.00000000  1
  O  O35  1  0.20074662  0.08573392  0.00000000  1
  O  O36  1  0.29925338  0.58573392  0.00000000  1
  O  O37  1  0.31311821  0.35876943  0.00000000  1
  O  O38  1  0.36180627  0.79364437  0.50000000  1
  O  O39  1  0.35324234  -0.00208714  0.50000000  1
  O  O40  1  0.39601807  0.26406256  0.00000000  1
  O  O41  1  0.37459683  0.16827528  0.50000000  1
  O  O42  1  0.45631802  0.65479042  0.50000000  1
  O  O43  1  0.43761274  0.44192488  0.50000000  1
  O  O44  1  0.48059721  0.07389814  0.00000000  1
  O  O45  1  0.51940279  0.92610186  0.00000000  1
  O  O46  1  0.56238726  0.55807512  0.50000000  1
  O  O47  1  0.54368198  0.34520958  0.50000000  1
  O  O48  1  0.62540317  0.83172472  0.50000000  1
  O  O49  1  0.60398193  0.73593744  0.00000000  1
  O  O50  1  0.64675766  0.00208714  0.50000000  1
  O  O51  1  0.63819373  0.20635563  0.50000000  1
  O  O52  1  0.68688179  0.64123057  0.00000000  1
  O  O53  1  0.70074662  0.41426608  0.00000000  1
  O  O54  1  0.79925338  0.91426608  0.00000000  1
  O  O55  1  0.81311821  0.14123057  0.00000000  1
  O  O56  1  0.86180627  0.70635563  0.50000000  1
  O  O57  1  0.85324234  0.50208714  0.50000000  1
  O  O58  1  0.89601807  0.23593744  0.00000000  1
  O  O59  1  0.87459683  0.33172472  0.50000000  1
  O  O60  1  0.95631802  0.84520958  0.50000000  1
  O  O61  1  0.93761274  0.05807512  0.50000000  1
