# generated using pymatgen
data_Li2SiNiO4
_symmetry_space_group_name_H-M   'P 1'
_cell_length_a   10.20668385
_cell_length_b   4.98187617
_cell_length_c   13.31373439
_cell_angle_alpha   90.00000000
_cell_angle_beta   90.00000000
_cell_angle_gamma   90.00000000
_symmetry_Int_Tables_number   1
_chemical_formula_structural   Li2SiNiO4
_chemical_formula_sum   'Li16 Si8 Ni8 O32'
_cell_volume   676.98255836
_cell_formula_units_Z   8
loop_
 _symmetry_equiv_pos_site_id
 _symmetry_equiv_pos_as_xyz
  1  'x, y, z'
loop_
 _atom_site_type_symbol
 _atom_site_label
 _atom_site_symmetry_multiplicity
 _atom_site_fract_x
 _atom_site_fract_y
 _atom_site_fract_z
 _atom_site_occupancy
  Li  Li0  1  0.97813150  0.02139430  0.55241691  1
  Li  Li1  1  0.00487354  0.51553764  0.94403886  1
  Li  Li2  1  0.21343157  0.01038611  0.19186444  1
  Li  Li3  1  0.17940197  0.54007021  0.29231149  1
  Li  Li4  1  0.28656843  0.01038611  0.69186444  1
  Li  Li5  1  0.32059803  0.54007021  0.79231149  1
  Li  Li6  1  0.49512646  0.51553764  0.44403886  1
  Li  Li7  1  0.52186850  0.02139430  0.05241691  1
  Li  Li8  1  0.50487354  0.48446236  0.94403886  1
  Li  Li9  1  0.47813150  0.97860570  0.55241691  1
  Li  Li10  1  0.67940197  0.45992979  0.29231149  1
  Li  Li11  1  0.71343157  0.98961389  0.19186444  1
  Li  Li12  1  0.82059803  0.45992979  0.79231149  1
  Li  Li13  1  0.78656843  0.98961389  0.69186444  1
  Li  Li14  1  0.02186850  0.97860570  0.05241691  1
  Li  Li15  1  0.99512646  0.48446236  0.44403886  1
  Si  Si16  1  0.02194006  0.01500214  0.81078140  1
  Si  Si17  1  0.22903018  0.51167755  0.06865963  1
  Si  Si18  1  0.27096982  0.51167755  0.56865963  1
  Si  Si19  1  0.47805994  0.01500214  0.31078140  1
  Si  Si20  1  0.52194006  0.98499786  0.81078140  1
  Si  Si21  1  0.72903018  0.48832245  0.06865963  1
  Si  Si22  1  0.77096982  0.48832245  0.56865963  1
  Si  Si23  1  0.97805994  0.98499786  0.31078140  1
  Ni  Ni24  1  0.03437280  0.51211241  0.68029806  1
  Ni  Ni25  1  0.22143421  0.03103389  0.43617302  1
  Ni  Ni26  1  0.27856579  0.03103389  0.93617302  1
  Ni  Ni27  1  0.46562720  0.51211241  0.18029806  1
  Ni  Ni28  1  0.53437280  0.48788759  0.68029806  1
  Ni  Ni29  1  0.72143421  0.96896611  0.43617302  1
  Ni  Ni30  1  0.77856579  0.96896611  0.93617302  1
  Ni  Ni31  1  0.96562720  0.48788759  0.18029806  1
  O  O32  1  0.01870865  0.30620359  0.30876272  1
  O  O33  1  0.03973541  0.84483015  0.20871870  1
  O  O34  1  0.10719822  0.31049544  0.09624683  1
  O  O35  1  0.05058739  0.85584216  0.41126492  1
  O  O36  1  0.17911676  0.09342468  0.81250769  1
  O  O37  1  0.21243719  0.65317655  0.67085285  1
  O  O38  1  0.14802600  0.32593244  0.52469709  1
  O  O39  1  0.17008079  0.73643157  0.99086840  1
  O  O40  1  0.35197400  0.32593244  0.02469709  1
  O  O41  1  0.32991921  0.73643157  0.49086840  1
  O  O42  1  0.28756281  0.65317655  0.17085285  1
  O  O43  1  0.32088324  0.09342468  0.31250769  1
  O  O44  1  0.39280178  0.31049544  0.59624683  1
  O  O45  1  0.44941261  0.85584216  0.91126492  1
  O  O46  1  0.48129135  0.30620359  0.80876272  1
  O  O47  1  0.46026459  0.84483015  0.70871870  1
  O  O48  1  0.53973541  0.15516985  0.20871870  1
  O  O49  1  0.51870865  0.69379641  0.30876272  1
  O  O50  1  0.55058739  0.14415784  0.41126492  1
  O  O51  1  0.60719822  0.68950456  0.09624683  1
  O  O52  1  0.71243719  0.34682345  0.67085285  1
  O  O53  1  0.67911676  0.90657532  0.81250769  1
  O  O54  1  0.67008079  0.26356743  0.99086840  1
  O  O55  1  0.64802600  0.67406756  0.52469709  1
  O  O56  1  0.85197400  0.67406756  0.02469709  1
  O  O57  1  0.82991921  0.26356743  0.49086840  1
  O  O58  1  0.78756281  0.34682345  0.17085285  1
  O  O59  1  0.82088324  0.90657532  0.31250769  1
  O  O60  1  0.94941261  0.14415784  0.91126492  1
  O  O61  1  0.89280178  0.68950456  0.59624683  1
  O  O62  1  0.96026459  0.15516985  0.70871870  1
  O  O63  1  0.98129135  0.69379641  0.80876272  1
