# generated using pymatgen
data_DyHoO3
_symmetry_space_group_name_H-M   'P 1'
_cell_length_a   6.42339354
_cell_length_b   6.42348540
_cell_length_c   12.74775476
_cell_angle_alpha   89.99999661
_cell_angle_beta   90.00006477
_cell_angle_gamma   120.00098604
_symmetry_Int_Tables_number   1
_chemical_formula_structural   DyHoO3
_chemical_formula_sum   'Dy6 Ho6 O18'
_cell_volume   455.50724445
_cell_formula_units_Z   6
loop_
 _symmetry_equiv_pos_site_id
 _symmetry_equiv_pos_as_xyz
  1  'x, y, z'
loop_
 _atom_site_type_symbol
 _atom_site_label
 _atom_site_symmetry_multiplicity
 _atom_site_fract_x
 _atom_site_fract_y
 _atom_site_fract_z
 _atom_site_occupancy
  Dy  Dy0  1  0.33332297  0.66667740  0.23337792  1
  Dy  Dy1  1  -0.00000094  0.00000736  0.26473781  1
  Dy  Dy2  1  0.99999625  0.99999747  0.76473878  1
  Dy  Dy3  1  0.33331369  0.66664616  0.73338110  1
  Dy  Dy4  1  0.66666127  0.33332311  0.73338344  1
  Dy  Dy5  1  0.66667745  0.33335553  0.23337671  1
  Ho  Ho6  1  0.99997253  0.66726709  0.49659273  1
  Ho  Ho7  1  0.00001446  0.33274141  0.99658880  1
  Ho  Ho8  1  0.33269020  0.33269025  0.49659214  1
  Ho  Ho9  1  0.66728579  0.66730168  0.99658939  1
  Ho  Ho10  1  0.33271414  0.00002340  0.99658937  1
  Ho  Ho11  1  0.66727596  0.99997892  0.49658964  1
  O  O12  1  0.99998802  0.69449208  0.67035570  1
  O  O13  1  -0.00000223  0.63509897  0.32448351  1
  O  O14  1  0.99999568  0.36490044  0.82448038  1
  O  O15  1  0.99999827  0.30550437  0.17035649  1
  O  O16  1  0.33333101  0.66669483  0.02228436  1
  O  O17  1  0.99997737  0.99997536  0.46092711  1
  O  O18  1  0.33330849  0.66664614  0.52228354  1
  O  O19  1  0.00000170  0.00002213  0.96091996  1
  O  O20  1  0.30547938  0.30547290  0.67035422  1
  O  O21  1  0.36488323  0.36491950  0.32448962  1
  O  O22  1  0.30551085  0.00001782  0.17036239  1
  O  O23  1  0.63509626  0.63506995  0.82448659  1
  O  O24  1  0.69450405  0.69452047  0.17036092  1
  O  O25  1  0.36492225  0.99998922  0.82449279  1
  O  O26  1  0.66665259  0.33330649  0.52227963  1
  O  O27  1  0.66668541  0.33335895  0.02228112  1
  O  O28  1  0.63507090  0.00001306  0.32449595  1
  O  O29  1  0.69447200  0.99998652  0.67036089  1
