# generated using pymatgen
data_LiVSiO4
_symmetry_space_group_name_H-M   'P 1'
_cell_length_a   7.32625807
_cell_length_b   7.32626368
_cell_length_c   7.32625418
_cell_angle_alpha   89.99991436
_cell_angle_beta   90.00006859
_cell_angle_gamma   90.00000931
_symmetry_Int_Tables_number   1
_chemical_formula_structural   LiVSiO4
_chemical_formula_sum   'Li4 V4 Si4 O16'
_cell_volume   393.23008782
_cell_formula_units_Z   4
loop_
 _symmetry_equiv_pos_site_id
 _symmetry_equiv_pos_as_xyz
  1  'x, y, z'
loop_
 _atom_site_type_symbol
 _atom_site_label
 _atom_site_symmetry_multiplicity
 _atom_site_fract_x
 _atom_site_fract_y
 _atom_site_fract_z
 _atom_site_occupancy
  Li  Li0  1  0.25157839  0.74842175  0.24842204  1
  Li  Li1  1  0.24842199  0.25157775  0.74842168  1
  Li  Li2  1  0.75157802  0.75157779  0.75157787  1
  Li  Li3  1  0.74842223  0.24842210  0.25157782  1
  V  V4  1  0.19573136  0.69573091  0.80426771  1
  V  V5  1  0.30426920  0.30426977  0.30426782  1
  V  V6  1  0.69573277  0.80426863  0.19573316  1
  V  V7  1  0.80426663  0.19573325  0.69573182  1
  Si  Si8  1  0.03063448  0.03063404  0.03063391  1
  Si  Si9  1  0.96936553  0.53063407  0.46936516  1
  Si  Si10  1  0.46936554  0.96936540  0.53063503  1
  Si  Si11  1  0.53063481  0.46936624  0.96936646  1
  O  O12  1  0.97512862  0.61629688  0.67823111  1
  O  O13  1  0.15745590  0.15745613  0.15745599  1
  O  O14  1  0.17823103  0.52487120  0.38370270  1
  O  O15  1  0.11629777  0.82176847  0.02487050  1
  O  O16  1  0.38370218  0.17823099  0.52487041  1
  O  O17  1  0.32176899  0.47512857  0.88370272  1
  O  O18  1  0.34254333  0.84254294  0.65745650  1
  O  O19  1  0.52487080  0.38370200  0.17823182  1
  O  O20  1  0.47512879  0.88370253  0.32176882  1
  O  O21  1  0.65745607  0.34254405  0.84254396  1
  O  O22  1  0.67823202  0.97512952  0.61629733  1
  O  O23  1  0.61629788  0.67823136  0.97512999  1
  O  O24  1  0.88370299  0.32176788  0.47512878  1
  O  O25  1  0.82176924  0.02487157  0.11629732  1
  O  O26  1  0.84254279  0.65745665  0.34254303  1
  O  O27  1  0.02487065  0.11629757  0.82176853  1
