# generated using pymatgen
data_Li3VPCO7
_symmetry_space_group_name_H-M   'P 1'
_cell_length_a   8.64309811
_cell_length_b   9.71771457
_cell_length_c   6.50870476
_cell_angle_alpha   90.00000000
_cell_angle_beta   90.00000000
_cell_angle_gamma   88.01892450
_symmetry_Int_Tables_number   1
_chemical_formula_structural   Li3VPCO7
_chemical_formula_sum   'Li12 V4 P4 C4 O28'
_cell_volume   546.34691921
_cell_formula_units_Z   4
loop_
 _symmetry_equiv_pos_site_id
 _symmetry_equiv_pos_as_xyz
  1  'x, y, z'
loop_
 _atom_site_type_symbol
 _atom_site_label
 _atom_site_symmetry_multiplicity
 _atom_site_fract_x
 _atom_site_fract_y
 _atom_site_fract_z
 _atom_site_occupancy
  Li  Li0  1  0.11190416  0.38385590  0.25028964  1
  Li  Li1  1  0.11190416  0.88385590  0.24971036  1
  Li  Li2  1  0.29281150  0.11991045  0.02039944  1
  Li  Li3  1  0.29281150  0.61991045  0.47960056  1
  Li  Li4  1  0.37186931  0.38554077  0.74503277  1
  Li  Li5  1  0.37186931  0.88554077  0.75496723  1
  Li  Li6  1  0.62813069  0.11445923  0.24503277  1
  Li  Li7  1  0.62813069  0.61445923  0.25496723  1
  Li  Li8  1  0.70718850  0.38008955  0.52039944  1
  Li  Li9  1  0.70718850  0.88008955  0.97960056  1
  Li  Li10  1  0.88809584  0.11614410  0.75028964  1
  Li  Li11  1  0.88809584  0.61614410  0.74971036  1
  V  V12  1  0.24824623  0.11406856  0.51881968  1
  V  V13  1  0.24824623  0.61406856  0.98118032  1
  V  V14  1  0.75175377  0.38593144  0.01881968  1
  V  V15  1  0.75175377  0.88593144  0.48118032  1
  P  P16  1  0.40908048  0.35871328  0.25722994  1
  P  P17  1  0.40908048  0.85871328  0.24277006  1
  P  P18  1  0.59091952  0.14128672  0.75722994  1
  P  P19  1  0.59091952  0.64128672  0.74277006  1
  C  C20  1  0.05333666  0.36612957  0.76178209  1
  C  C21  1  0.05333666  0.86612957  0.73821791  1
  C  C22  1  0.94666334  0.13387043  0.26178209  1
  C  C23  1  0.94666334  0.63387043  0.23821791  1
  O  O24  1  0.07558496  0.49714402  0.78798319  1
  O  O25  1  0.08991428  0.17664471  0.26837161  1
  O  O26  1  0.07558496  0.99714402  0.71201681  1
  O  O27  1  0.16566222  0.27923637  0.73145443  1
  O  O28  1  0.08991428  0.67664471  0.23162839  1
  O  O29  1  0.16566222  0.77923637  0.76854557  1
  O  O30  1  0.31920809  0.40552182  0.05964758  1
  O  O31  1  0.31464984  0.42058574  0.43750395  1
  O  O32  1  0.31464984  0.92058574  0.06249605  1
  O  O33  1  0.31920809  0.90552182  0.44035242  1
  O  O34  1  0.42040864  0.09598152  0.75680125  1
  O  O35  1  0.40841609  0.19772089  0.27032032  1
  O  O36  1  0.42040864  0.59598152  0.74319875  1
  O  O37  1  0.40841609  0.69772089  0.22967968  1
  O  O38  1  0.59158391  0.30227911  0.77032032  1
  O  O39  1  0.57959136  0.40401848  0.25680125  1
  O  O40  1  0.59158391  0.80227911  0.72967968  1
  O  O41  1  0.57959136  0.90401848  0.24319875  1
  O  O42  1  0.68535016  0.07941426  0.93750395  1
  O  O43  1  0.68079191  0.09447818  0.55964758  1
  O  O44  1  0.68535016  0.57941426  0.56249605  1
  O  O45  1  0.68079191  0.59447818  0.94035242  1
  O  O46  1  0.83433778  0.22076363  0.23145443  1
  O  O47  1  0.91008572  0.32335529  0.76837161  1
  O  O48  1  0.83433778  0.72076363  0.26854557  1
  O  O49  1  0.92441504  0.00285598  0.28798319  1
  O  O50  1  0.91008572  0.82335529  0.73162839  1
  O  O51  1  0.92441504  0.50285598  0.21201681  1
