# generated using pymatgen
data_Li2Si4NiO10
_symmetry_space_group_name_H-M   'P 1'
_cell_length_a   6.67399168
_cell_length_b   9.96408946
_cell_length_c   14.12815868
_cell_angle_alpha   90.00000000
_cell_angle_beta   88.24783805
_cell_angle_gamma   90.00000000
_symmetry_Int_Tables_number   1
_chemical_formula_structural   Li2Si4NiO10
_chemical_formula_sum   'Li8 Si16 Ni4 O40'
_cell_volume   939.08679927
_cell_formula_units_Z   4
loop_
 _symmetry_equiv_pos_site_id
 _symmetry_equiv_pos_as_xyz
  1  'x, y, z'
loop_
 _atom_site_type_symbol
 _atom_site_label
 _atom_site_symmetry_multiplicity
 _atom_site_fract_x
 _atom_site_fract_y
 _atom_site_fract_z
 _atom_site_occupancy
  Li  Li0  1  0.09500414  0.62345845  0.93074377  1
  Li  Li1  1  0.21000291  0.41511134  0.26321159  1
  Li  Li2  1  0.28999709  0.91511134  0.23678841  1
  Li  Li3  1  0.40499586  0.12345845  0.56925623  1
  Li  Li4  1  0.59500414  0.87654155  0.43074377  1
  Li  Li5  1  0.71000291  0.08488866  0.76321159  1
  Li  Li6  1  0.78999709  0.58488866  0.73678841  1
  Li  Li7  1  0.90499586  0.37654155  0.06925623  1
  Si  Si8  1  0.98371292  0.77224282  0.36845603  1
  Si  Si9  1  0.00153522  0.05180633  0.34169503  1
  Si  Si10  1  0.24885890  0.47154424  0.66663425  1
  Si  Si11  1  0.25288923  0.23588074  0.95465098  1
  Si  Si12  1  0.24711077  0.73588074  0.54534902  1
  Si  Si13  1  0.25114110  0.97154424  0.83336575  1
  Si  Si14  1  0.48371292  0.72775718  0.86845603  1
  Si  Si15  1  0.50153522  0.44819367  0.84169503  1
  Si  Si16  1  0.49846478  0.55180633  0.15830497  1
  Si  Si17  1  0.51628708  0.27224282  0.13154397  1
  Si  Si18  1  0.74885890  0.02845576  0.16663425  1
  Si  Si19  1  0.75288923  0.26411926  0.45465098  1
  Si  Si20  1  0.74711077  0.76411926  0.04534902  1
  Si  Si21  1  0.75114110  0.52845576  0.33336575  1
  Si  Si22  1  0.99846478  0.94819367  0.65830497  1
  Si  Si23  1  0.01628708  0.22775718  0.63154397  1
  Ni  Ni24  1  0.04035141  0.63681040  0.17214986  1
  Ni  Ni25  1  0.45964859  0.13681040  0.32785014  1
  Ni  Ni26  1  0.54035141  0.86318960  0.67214986  1
  Ni  Ni27  1  0.95964859  0.36318960  0.82785014  1
  O  O28  1  0.04641174  0.95035465  0.77231988  1
  O  O29  1  0.07451684  0.80425911  0.61606216  1
  O  O30  1  0.05216639  0.32791989  0.95670237  1
  O  O31  1  0.05614950  0.50476897  0.73448775  1
  O  O32  1  0.11930829  0.07726189  0.60531971  1
  O  O33  1  0.07882259  0.77791211  0.26220793  1
  O  O34  1  0.21623576  0.32349639  0.61431947  1
  O  O35  1  0.21078308  0.08387688  0.91604384  1
  O  O36  1  0.15776443  0.72544284  0.43969385  1
  O  O37  1  0.28921692  0.58387688  0.58395616  1
  O  O38  1  0.28376424  0.82349639  0.88568053  1
  O  O39  1  0.26614390  0.52157661  0.14436533  1
  O  O40  1  0.23385610  0.02157661  0.35563467  1
  O  O41  1  0.34223557  0.22544284  0.06030615  1
  O  O42  1  0.38069171  0.57726289  0.89468029  1
  O  O43  1  0.44385050  0.00476897  0.76551225  1
  O  O44  1  0.44783361  0.82791989  0.54329763  1
  O  O45  1  0.42548316  0.30425911  0.88393784  1
  O  O46  1  0.45358826  0.45035465  0.72768012  1
  O  O47  1  0.42117741  0.27791211  0.23779207  1
  O  O48  1  0.57882259  0.72208789  0.76220793  1
  O  O49  1  0.54641174  0.54964535  0.27231988  1
  O  O50  1  0.57451684  0.69574089  0.11606216  1
  O  O51  1  0.55216639  0.17208011  0.45670237  1
  O  O52  1  0.55614950  0.99523103  0.23448775  1
  O  O53  1  0.61930829  0.42273711  0.10531971  1
  O  O54  1  0.65776443  0.77455716  0.93969385  1
  O  O55  1  0.76614390  0.97842339  0.64436533  1
  O  O56  1  0.73385610  0.47842339  0.85563467  1
  O  O57  1  0.71623576  0.17650361  0.11431947  1
  O  O58  1  0.71078308  0.41612312  0.41604384  1
  O  O59  1  0.84223557  0.27455716  0.56030615  1
  O  O60  1  0.78921692  0.91612312  0.08395616  1
  O  O61  1  0.78376424  0.67650361  0.38568053  1
  O  O62  1  0.92117741  0.22208789  0.73779207  1
  O  O63  1  0.88069171  0.92273711  0.39468029  1
  O  O64  1  0.94385050  0.49523103  0.26551225  1
  O  O65  1  0.94783361  0.67208011  0.04329763  1
  O  O66  1  0.92548316  0.19574089  0.38393784  1
  O  O67  1  0.95358826  0.04964535  0.22768012  1
