# generated using pymatgen
data_Li2Fe2Si8O19
_symmetry_space_group_name_H-M   'P 1'
_cell_length_a   4.91303275
_cell_length_b   7.18151818
_cell_length_c   12.44376756
_cell_angle_alpha   72.60159867
_cell_angle_beta   90.11791085
_cell_angle_gamma   70.12351377
_symmetry_Int_Tables_number   1
_chemical_formula_structural   Li2Fe2Si8O19
_chemical_formula_sum   'Li2 Fe2 Si8 O19'
_cell_volume   391.36726232
_cell_formula_units_Z   1
loop_
 _symmetry_equiv_pos_site_id
 _symmetry_equiv_pos_as_xyz
  1  'x, y, z'
loop_
 _atom_site_type_symbol
 _atom_site_label
 _atom_site_symmetry_multiplicity
 _atom_site_fract_x
 _atom_site_fract_y
 _atom_site_fract_z
 _atom_site_occupancy
  Li  Li0  1  0.73003633  0.60453534  0.39443396  1
  Li  Li1  1  0.33568638  0.39937481  0.60414903  1
  Fe  Fe2  1  0.76876220  0.67623025  0.58762894  1
  Fe  Fe3  1  0.45846670  0.31268685  0.41380887  1
  Si  Si4  1  0.45500898  0.76733822  0.92198556  1
  Si  Si5  1  0.87729111  0.96745688  0.17588619  1
  Si  Si6  1  0.11949831  0.84905765  0.43059508  1
  Si  Si7  1  0.30537163  0.44509628  0.82932595  1
  Si  Si8  1  0.75148947  0.55364099  0.17099499  1
  Si  Si9  1  0.97030621  0.15420364  0.57030424  1
  Si  Si10  1  0.84670043  0.03265922  0.82463723  1
  Si  Si11  1  0.22075278  0.23267114  0.07802614  1
  O  O12  1  0.15683841  0.97298755  0.89784015  1
  O  O13  1  0.72293426  0.84669142  0.88181273  1
  O  O14  1  0.96377254  0.97178979  0.30059401  1
  O  O15  1  0.45612543  0.81986152  0.45518095  1
  O  O16  1  0.42294456  0.62403359  0.84618210  1
  O  O17  1  0.07256289  0.62521954  0.46924555  1
  O  O18  1  0.09324235  0.52513621  0.71268741  1
  O  O19  1  0.85895136  0.74174202  0.18451720  1
  O  O20  1  0.15652212  0.36291100  0.94299977  1
  O  O21  1  0.51965309  0.63695489  0.05696406  1
  O  O22  1  0.60210052  0.25753028  0.81680212  1
  O  O23  1  0.62160535  0.47116068  0.28768865  1
  O  O24  1  0.69981761  0.37863686  0.53182769  1
  O  O25  1  0.04816889  0.37686031  0.15328602  1
  O  O26  1  0.27780151  0.18259230  0.54632975  1
  O  O27  1  0.93568700  0.02969080  0.69970527  1
  O  O28  1  0.90753709  0.00415216  0.49921613  1
  O  O29  1  0.56719916  0.15207300  0.11879648  1
  O  O30  1  0.12537931  0.02809782  0.10197474  1
