# generated using pymatgen
data_Mn2Si4O11
_symmetry_space_group_name_H-M   'P 1'
_cell_length_a   8.45744651
_cell_length_b   7.59371116
_cell_length_c   7.15455248
_cell_angle_alpha   109.68370271
_cell_angle_beta   103.26952334
_cell_angle_gamma   96.99711132
_symmetry_Int_Tables_number   1
_chemical_formula_structural   Mn2Si4O11
_chemical_formula_sum   'Mn4 Si8 O22'
_cell_volume   411.02788150
_cell_formula_units_Z   2
loop_
 _symmetry_equiv_pos_site_id
 _symmetry_equiv_pos_as_xyz
  1  'x, y, z'
loop_
 _atom_site_type_symbol
 _atom_site_label
 _atom_site_symmetry_multiplicity
 _atom_site_fract_x
 _atom_site_fract_y
 _atom_site_fract_z
 _atom_site_occupancy
  Mn  Mn0  1  0.38877421  0.63034178  0.86405651  1
  Mn  Mn1  1  0.38932937  0.62504946  0.36021669  1
  Mn  Mn2  1  0.61067063  0.37495054  0.63978331  1
  Mn  Mn3  1  0.61122579  0.36965822  0.13594349  1
  Si  Si4  1  0.02450870  0.38114941  0.23403563  1
  Si  Si5  1  0.22037728  0.20947862  0.95163057  1
  Si  Si6  1  0.21491879  0.21394035  0.51988868  1
  Si  Si7  1  0.60515524  0.98095675  0.77704950  1
  Si  Si8  1  0.39484476  0.01904325  0.22295050  1
  Si  Si9  1  0.78508121  0.78605965  0.48011132  1
  Si  Si10  1  0.77962272  0.79052138  0.04836943  1
  Si  Si11  1  0.97549130  0.61885059  0.76596437  1
  O  O12  1  0.15989017  0.57823286  0.80414466  1
  O  O13  1  0.05487743  0.26140496  0.38919493  1
  O  O14  1  0.16343834  0.58112047  0.32394457  1
  O  O15  1  0.05289304  0.24082282  0.01715346  1
  O  O16  1  0.17815409  0.15883195  0.70631898  1
  O  O17  1  0.27866550  0.03399312  0.37953512  1
  O  O18  1  0.37495861  0.40246953  0.60674487  1
  O  O19  1  0.44549875  0.79589088  0.65867805  1
  O  O20  1  0.43233164  0.80278275  0.15530754  1
  O  O21  1  0.29353876  0.03717972  0.00664893  1
  O  O22  1  0.37427084  0.40594101  0.08663047  1
  O  O23  1  0.62572916  0.59405899  0.91336953  1
  O  O24  1  0.70646124  0.96282028  0.99335107  1
  O  O25  1  0.56766836  0.19721725  0.84469246  1
  O  O26  1  0.55450125  0.20410912  0.34132195  1
  O  O27  1  0.62504139  0.59753047  0.39325513  1
  O  O28  1  0.72133450  0.96600688  0.62046488  1
  O  O29  1  0.82184591  0.84116805  0.29368102  1
  O  O30  1  0.94710696  0.75917718  0.98284654  1
  O  O31  1  0.83656166  0.41887953  0.67605543  1
  O  O32  1  0.94512257  0.73859504  0.61080507  1
  O  O33  1  0.84010983  0.42176714  0.19585534  1
