# generated using pymatgen
data_Li3Mn2(SiO4)2
_symmetry_space_group_name_H-M   'P 1'
_cell_length_a   6.65329301
_cell_length_b   5.43371773
_cell_length_c   4.92467752
_cell_angle_alpha   89.19393020
_cell_angle_beta   89.65865984
_cell_angle_gamma   88.90583932
_symmetry_Int_Tables_number   1
_chemical_formula_structural   Li3Mn2(SiO4)2
_chemical_formula_sum   'Li3 Mn2 Si2 O8'
_cell_volume   177.98455362
_cell_formula_units_Z   1
loop_
 _symmetry_equiv_pos_site_id
 _symmetry_equiv_pos_as_xyz
  1  'x, y, z'
loop_
 _atom_site_type_symbol
 _atom_site_label
 _atom_site_symmetry_multiplicity
 _atom_site_fract_x
 _atom_site_fract_y
 _atom_site_fract_z
 _atom_site_occupancy
  Li  Li0  1  0.99941243  0.81395172  0.50012745  1
  Li  Li1  1  0.49977119  0.18873423  0.99998204  1
  Li  Li2  1  0.75813808  0.65771348  0.99498793  1
  Mn  Mn3  1  0.02002698  0.17802159  0.99824387  1
  Mn  Mn4  1  0.49829659  0.82974895  0.48785696  1
  Si  Si5  1  0.25070312  0.67345141  0.01124774  1
  Si  Si6  1  0.75431606  0.32246642  0.50300717  1
  O  O7  1  0.04091065  0.81038355  0.89907614  1
  O  O8  1  0.24861327  0.70707322  0.34202596  1
  O  O9  1  0.25840219  0.38396662  0.93126374  1
  O  O10  1  0.45852065  0.81518385  0.89916621  1
  O  O11  1  0.55894138  0.17666156  0.39617989  1
  O  O12  1  0.75773621  0.31851712  0.84018058  1
  O  O13  1  0.75099246  0.61359912  0.39804953  1
  O  O14  1  0.95755376  0.17245915  0.39506579  1
