# generated using pymatgen
data_K2CaCu(NO2)6
_symmetry_space_group_name_H-M   'P 1'
_cell_length_a   7.36898156
_cell_length_b   7.36898156
_cell_length_c   7.56374019
_cell_angle_alpha   119.08067375
_cell_angle_beta   119.08067372
_cell_angle_gamma   90.12760427
_symmetry_Int_Tables_number   1
_chemical_formula_structural   K2CaCu(NO2)6
_chemical_formula_sum   'K2 Ca1 Cu1 N6 O12'
_cell_volume   298.01567429
_cell_formula_units_Z   1
loop_
 _symmetry_equiv_pos_site_id
 _symmetry_equiv_pos_as_xyz
  1  'x, y, z'
loop_
 _atom_site_type_symbol
 _atom_site_label
 _atom_site_symmetry_multiplicity
 _atom_site_fract_x
 _atom_site_fract_y
 _atom_site_fract_z
 _atom_site_occupancy
  N  N0  1  0.19868150  0.80131850  0.00000000  1
  N  N1  1  0.80131850  0.19868150  0.00000000  1
  N  N2  1  0.77949252  0.77949252  0.55898504  1
  N  N3  1  0.22050748  0.22050748  0.44101496  1
  N  N4  1  0.19872439  0.19872439  0.00000000  1
  N  N5  1  0.80127561  0.80127561  0.00000000  1
  O  O6  1  0.64060655  0.64060655  0.80414899  1
  O  O7  1  0.35939345  0.35939345  0.19585101  1
  O  O8  1  0.16354243  0.16354243  0.80414899  1
  O  O9  1  0.82014416  0.61487291  0.43501708  1
  O  O10  1  0.61487291  0.82014416  0.43501708  1
  O  O11  1  0.38512709  0.17985584  0.56498292  1
  O  O12  1  0.63549461  0.15786843  0.00000000  1
  O  O13  1  0.15786843  0.63549461  0.00000000  1
  O  O14  1  0.84213157  0.36450539  0.00000000  1
  O  O15  1  0.36450539  0.84213157  0.00000000  1
  O  O16  1  0.17985584  0.38512709  0.56498292  1
  O  O17  1  0.83645757  0.83645757  0.19585101  1
  K  K18  1  0.25000000  0.75000000  0.50000000  1
  K  K19  1  0.75000000  0.25000000  0.50000000  1
  Ca  Ca20  1  0.50000000  0.50000000  0.00000000  1
  Cu  Cu21  1  0.00000000  0.00000000  0.00000000  1
