# generated using pymatgen
data_Mg6CuSb
_symmetry_space_group_name_H-M   'P 1'
_cell_length_a   6.22366406
_cell_length_b   6.49392771
_cell_length_c   4.88635652
_cell_angle_alpha   90.00000000
_cell_angle_beta   90.00000000
_cell_angle_gamma   121.44720375
_symmetry_Int_Tables_number   1
_chemical_formula_structural   Mg6CuSb
_chemical_formula_sum   'Mg6 Cu1 Sb1'
_cell_volume   168.48044932
_cell_formula_units_Z   1
loop_
 _symmetry_equiv_pos_site_id
 _symmetry_equiv_pos_as_xyz
  1  'x, y, z'
loop_
 _atom_site_type_symbol
 _atom_site_label
 _atom_site_symmetry_multiplicity
 _atom_site_fract_x
 _atom_site_fract_y
 _atom_site_fract_z
 _atom_site_occupancy
  Mg  Mg0  1  0.67274148  0.33453240  0.25000000  1
  Mg  Mg1  1  0.67274148  0.83820808  0.25000000  1
  Mg  Mg2  1  0.32553628  0.18281820  0.75000000  1
  Mg  Mg3  1  0.32553628  0.64271908  0.75000000  1
  Mg  Mg4  1  0.84022474  0.17011287  0.75000000  1
  Mg  Mg5  1  0.82376514  0.66188307  0.75000000  1
  Cu  Cu6  1  0.16698458  0.33349179  0.25000000  1
  Sb  Sb7  1  0.17247002  0.83623451  0.25000000  1
