# generated using pymatgen
data_LiFe2(PO4)2
_symmetry_space_group_name_H-M   'P 1'
_cell_length_a   7.48661037
_cell_length_b   7.57657153
_cell_length_c   9.52521842
_cell_angle_alpha   91.65242500
_cell_angle_beta   89.74852433
_cell_angle_gamma   59.97204824
_symmetry_Int_Tables_number   1
_chemical_formula_structural   LiFe2(PO4)2
_chemical_formula_sum   'Li3 Fe6 P6 O24'
_cell_volume   467.47435653
_cell_formula_units_Z   3
loop_
 _symmetry_equiv_pos_site_id
 _symmetry_equiv_pos_as_xyz
  1  'x, y, z'
loop_
 _atom_site_type_symbol
 _atom_site_label
 _atom_site_symmetry_multiplicity
 _atom_site_fract_x
 _atom_site_fract_y
 _atom_site_fract_z
 _atom_site_occupancy
  Li  Li0  1  0.05617008  0.75655774  0.75159612  1
  Li  Li1  1  0.24681801  0.94047963  0.25090483  1
  Li  Li2  1  0.74941294  0.20958474  0.75995891  1
  Fe  Fe3  1  0.06027410  0.39060102  0.96691519  1
  Fe  Fe4  1  0.53745860  0.05191467  0.97250190  1
  Fe  Fe5  1  0.40442154  0.54045869  0.98253547  1
  Fe  Fe6  1  0.46172227  0.59507203  0.47745482  1
  Fe  Fe7  1  0.60836001  0.95414225  0.45272781  1
  Fe  Fe8  1  0.93281969  0.45012426  0.46833062  1
  P  P9  1  0.00027119  0.00371458  0.50532266  1
  P  P10  1  0.99969637  0.00349178  0.00594872  1
  P  P11  1  0.31781052  0.33841426  0.66969285  1
  P  P12  1  0.32704675  0.33288380  0.27485663  1
  P  P13  1  0.67669303  0.65556253  0.77355490  1
  P  P14  1  0.67504798  0.67390149  0.17402735  1
  O  O15  1  0.98615806  0.00537024  0.66414345  1
  O  O16  1  0.00474358  0.00704602  0.16265290  1
  O  O17  1  0.10642384  0.12556691  0.94651367  1
  O  O18  1  0.13698226  0.31964165  0.61056142  1
  O  O19  1  0.10571119  0.47172921  0.33179469  1
  O  O20  1  0.39707200  0.10952820  0.31866501  1
  O  O21  1  0.32034721  0.33748231  0.10722831  1
  O  O22  1  0.31999923  0.32853973  0.83655808  1
  O  O23  1  0.12715379  0.78307904  0.93779174  1
  O  O24  1  0.29585081  0.54443868  0.63334046  1
  O  O25  1  0.52673725  0.15642535  0.61191142  1
  O  O26  1  0.22412852  0.88512941  0.44567727  1
  O  O27  1  0.47701649  0.39637177  0.33045331  1
  O  O28  1  0.46654376  0.68919180  0.14215900  1
  O  O29  1  0.77741009  0.10683792  0.94385518  1
  O  O30  1  0.61536861  0.50045054  0.81994883  1
  O  O31  1  0.52430139  0.87466188  0.81721499  1
  O  O32  1  0.68796672  0.64636915  0.60313388  1
  O  O33  1  0.68215495  0.67582612  0.34569933  1
  O  O34  1  0.88925809  0.22640762  0.45007036  1
  O  O35  1  0.85671468  0.47073463  0.11541146  1
  O  O36  1  0.68913887  0.85507314  0.12508228  1
  O  O37  1  0.89801207  0.59247681  0.82468577  1
  O  O38  1  0.87859047  0.89908339  0.44448938  1
