# generated using pymatgen
data_Ba2Y7Cl25
_symmetry_space_group_name_H-M   'P 1'
_cell_length_a   7.46252065
_cell_length_b   9.37255271
_cell_length_c   39.38465607
_cell_angle_alpha   90.00000000
_cell_angle_beta   90.87837307
_cell_angle_gamma   90.00000000
_symmetry_Int_Tables_number   1
_chemical_formula_structural   Ba2Y7Cl25
_chemical_formula_sum   'Ba4 Y14 Cl50'
_cell_volume   2754.35210323
_cell_formula_units_Z   2
loop_
 _symmetry_equiv_pos_site_id
 _symmetry_equiv_pos_as_xyz
  1  'x, y, z'
loop_
 _atom_site_type_symbol
 _atom_site_label
 _atom_site_symmetry_multiplicity
 _atom_site_fract_x
 _atom_site_fract_y
 _atom_site_fract_z
 _atom_site_occupancy
  Ba  Ba0  1  0.02609499  0.81698957  0.21534228  1
  Ba  Ba1  1  0.47390501  0.31698957  0.28465772  1
  Ba  Ba2  1  0.52609499  0.68301043  0.71534228  1
  Ba  Ba3  1  0.97390501  0.18301043  0.78465772  1
  Y  Y4  1  0.01685328  0.02223297  0.65998919  1
  Y  Y5  1  0.99710604  0.33075291  0.44574501  1
  Y  Y6  1  0.00000000  0.50000000  0.00000000  1
  Y  Y7  1  0.00399036  0.16683049  0.10733030  1
  Y  Y8  1  0.48314672  0.52223297  0.84001081  1
  Y  Y9  1  0.49710604  0.16924709  0.94574501  1
  Y  Y10  1  0.49600964  0.66683049  0.39266970  1
  Y  Y11  1  0.50000000  0.00000000  0.50000000  1
  Y  Y12  1  0.50399036  0.33316951  0.60733030  1
  Y  Y13  1  0.50289396  0.83075291  0.05425499  1
  Y  Y14  1  0.51685328  0.47776703  0.15998919  1
  Y  Y15  1  0.99600964  0.83316951  0.89266970  1
  Y  Y16  1  0.00289396  0.66924709  0.55425499  1
  Y  Y17  1  0.98314672  0.97776703  0.34001081  1
  Cl  Cl18  1  0.99001525  0.66617572  0.94655357  1
  Cl  Cl19  1  0.00000000  0.50000000  0.50000000  1
  Cl  Cl20  1  0.01092672  0.16912802  0.39070438  1
  Cl  Cl21  1  0.00679190  0.06168715  0.16883707  1
  Cl  Cl22  1  0.03173662  0.21213751  0.71001719  1
  Cl  Cl23  1  0.17996802  0.40300025  0.82079299  1
  Cl  Cl24  1  0.21589332  0.03026243  0.91948806  1
  Cl  Cl25  1  0.22871764  0.84809446  0.52474517  1
  Cl  Cl26  1  0.22470914  0.51109981  0.41544598  1
  Cl  Cl27  1  0.22959133  0.68384945  0.02813175  1
  Cl  Cl28  1  0.20104031  0.19809042  0.62166464  1
  Cl  Cl29  1  0.13923177  0.15294908  0.29560494  1
  Cl  Cl30  1  0.21362056  0.36805209  0.13536559  1
  Cl  Cl31  1  0.29895969  0.69809042  0.87833536  1
  Cl  Cl32  1  0.28637944  0.86805209  0.36463441  1
  Cl  Cl33  1  0.36076823  0.65294908  0.20439506  1
  Cl  Cl34  1  0.27128236  0.34809446  0.97525483  1
  Cl  Cl35  1  0.28410668  0.53026243  0.58051194  1
  Cl  Cl36  1  0.27040967  0.18384945  0.47186825  1
  Cl  Cl37  1  0.27529086  0.01109981  0.08455402  1
  Cl  Cl38  1  0.32003198  0.90300025  0.67920701  1
  Cl  Cl39  1  0.46826338  0.71213751  0.78998281  1
  Cl  Cl40  1  0.49320810  0.56168715  0.33116293  1
  Cl  Cl41  1  0.48907328  0.66912802  0.10929562  1
  Cl  Cl42  1  0.50998475  0.16617572  0.55344643  1
  Cl  Cl43  1  0.49001525  0.83382428  0.44655357  1
  Cl  Cl44  1  0.50000000  0.00000000  0.00000000  1
  Cl  Cl45  1  0.51092672  0.33087198  0.89070438  1
  Cl  Cl46  1  0.50679190  0.43831285  0.66883707  1
  Cl  Cl47  1  0.53173662  0.28786249  0.21001719  1
  Cl  Cl48  1  0.67996802  0.09699975  0.32079299  1
  Cl  Cl49  1  0.72470914  0.98890019  0.91544598  1
  Cl  Cl50  1  0.72959133  0.81615055  0.52813175  1
  Cl  Cl51  1  0.71589332  0.46973757  0.41948806  1
  Cl  Cl52  1  0.72871764  0.65190554  0.02474517  1
  Cl  Cl53  1  0.63923177  0.34705092  0.79560494  1
  Cl  Cl54  1  0.71362056  0.13194791  0.63536559  1
  Cl  Cl55  1  0.70104031  0.30190958  0.12166464  1
  Cl  Cl56  1  0.78637944  0.63194791  0.86463441  1
  Cl  Cl57  1  0.86076823  0.84705092  0.70439506  1
  Cl  Cl58  1  0.79895969  0.80190958  0.37833536  1
  Cl  Cl59  1  0.77040867  0.31615055  0.97186825  1
  Cl  Cl60  1  0.77529086  0.48890019  0.58455402  1
  Cl  Cl61  1  0.77128236  0.15190554  0.47525383  1
  Cl  Cl62  1  0.78410668  0.96973757  0.08051194  1
  Cl  Cl63  1  0.82003198  0.59699975  0.17920701  1
  Cl  Cl64  1  0.96826338  0.78786249  0.28998281  1
  Cl  Cl65  1  0.99320810  0.93831285  0.83116293  1
  Cl  Cl66  1  0.98907328  0.83087198  0.60929562  1
  Cl  Cl67  1  0.00998475  0.33382428  0.05344643  1
