# generated using pymatgen
data_La2Ce2O7
_symmetry_space_group_name_H-M   'P 1'
_cell_length_a   8.43410790
_cell_length_b   14.67696145
_cell_length_c   6.00678068
_cell_angle_alpha   90.00000000
_cell_angle_beta   90.00000000
_cell_angle_gamma   98.47177806
_symmetry_Int_Tables_number   1
_chemical_formula_structural   La2Ce2O7
_chemical_formula_sum   'La8 Ce8 O28'
_cell_volume   735.44848166
_cell_formula_units_Z   4
loop_
 _symmetry_equiv_pos_site_id
 _symmetry_equiv_pos_as_xyz
  1  'x, y, z'
loop_
 _atom_site_type_symbol
 _atom_site_label
 _atom_site_symmetry_multiplicity
 _atom_site_fract_x
 _atom_site_fract_y
 _atom_site_fract_z
 _atom_site_occupancy
  La  La0  1  0.23426114  0.91732744  0.77175271  1
  La  La1  1  0.14072275  0.56087442  0.33221405  1
  La  La2  1  0.28377112  0.12391306  0.25125857  1
  La  La3  1  0.35769080  0.40537921  0.75105607  1
  La  La4  1  0.64230920  0.59462079  0.25105607  1
  La  La5  1  0.71622888  0.87608694  0.75125857  1
  La  La6  1  0.85927725  0.43912558  0.83221405  1
  La  La7  1  0.76573886  0.08267256  0.27175271  1
  Ce  Ce8  1  0.07491392  0.31547495  0.27070287  1
  Ce  Ce9  1  0.02935797  0.11531333  0.76587378  1
  Ce  Ce10  1  0.41565908  0.67827330  0.78049604  1
  Ce  Ce11  1  0.47132727  0.87928562  0.26813697  1
  Ce  Ce12  1  0.52867273  0.12071438  0.76813697  1
  Ce  Ce13  1  0.58434092  0.32172670  0.28049604  1
  Ce  Ce14  1  0.97064203  0.88468667  0.26587378  1
  Ce  Ce15  1  0.92508608  0.68452505  0.77070287  1
  O  O16  1  0.00214015  0.17002686  0.42507017  1
  O  O17  1  0.08786397  0.41879599  0.55291194  1
  O  O18  1  0.17455459  0.68848606  0.64679688  1
  O  O19  1  0.22422121  0.89237247  0.38179615  1
  O  O20  1  0.13108751  0.43467648  0.05523182  1
  O  O21  1  0.07248291  0.02097677  0.05570130  1
  O  O22  1  0.13890008  0.22374019  0.98441626  1
  O  O23  1  0.37550813  0.61302636  0.10191382  1
  O  O24  1  0.42178369  0.82957570  0.92432170  1
  O  O25  1  0.32375555  0.29854469  0.41524091  1
  O  O26  1  0.27092413  0.07861050  0.64533479  1
  O  O27  1  0.40579903  0.54859135  0.56951214  1
  O  O28  1  0.55727995  0.97777155  0.55386939  1
  O  O29  1  0.52729870  0.77368112  0.49473266  1
  O  O30  1  0.47270130  0.22631888  0.99473266  1
  O  O31  1  0.44272005  0.02222845  0.05386939  1
  O  O32  1  0.59420097  0.45140865  0.06951214  1
  O  O33  1  0.72907587  0.92138950  0.14533479  1
  O  O34  1  0.67624445  0.70145531  0.91524091  1
  O  O35  1  0.57821631  0.17042430  0.42432170  1
  O  O36  1  0.62449187  0.38697364  0.60191382  1
  O  O37  1  0.86109992  0.77625981  0.48441626  1
  O  O38  1  0.92751709  0.97902323  0.55570130  1
  O  O39  1  0.86891249  0.56532352  0.55523182  1
  O  O40  1  0.77577879  0.10762753  0.88179615  1
  O  O41  1  0.82544541  0.31151394  0.14679688  1
  O  O42  1  0.91213603  0.58120401  0.05291194  1
  O  O43  1  0.99785985  0.82997314  0.92507017  1
