# generated using pymatgen
data_Y2Hg2O5
_symmetry_space_group_name_H-M   'P 1'
_cell_length_a   11.86287588
_cell_length_b   13.40216006
_cell_length_c   3.57498269
_cell_angle_alpha   90.00000000
_cell_angle_beta   90.00000000
_cell_angle_gamma   90.00000000
_symmetry_Int_Tables_number   1
_chemical_formula_structural   Y2Hg2O5
_chemical_formula_sum   'Y8 Hg8 O20'
_cell_volume   568.37992462
_cell_formula_units_Z   4
loop_
 _symmetry_equiv_pos_site_id
 _symmetry_equiv_pos_as_xyz
  1  'x, y, z'
loop_
 _atom_site_type_symbol
 _atom_site_label
 _atom_site_symmetry_multiplicity
 _atom_site_fract_x
 _atom_site_fract_y
 _atom_site_fract_z
 _atom_site_occupancy
  Y  Y0  1  0.03139529  0.33024270  0.23592095  1
  Y  Y1  1  0.21891004  0.99781778  0.23956794  1
  Y  Y2  1  0.28108996  0.49781778  0.73956794  1
  Y  Y3  1  0.46860471  0.83024270  0.73592095  1
  Y  Y4  1  0.53139529  0.33024270  0.26407905  1
  Y  Y5  1  0.71891004  0.99781778  0.26043206  1
  Y  Y6  1  0.78108996  0.49781778  0.76043206  1
  Y  Y7  1  0.96860471  0.83024270  0.76407905  1
  Hg  Hg8  1  0.00347598  0.59916558  0.30000233  1
  Hg  Hg9  1  0.24610441  0.72863883  0.19961480  1
  Hg  Hg10  1  0.25389559  0.22863883  0.69961480  1
  Hg  Hg11  1  0.49652402  0.09916558  0.80000233  1
  Hg  Hg12  1  0.50347598  0.59916558  0.19999767  1
  Hg  Hg13  1  0.74610441  0.72863883  0.30038520  1
  Hg  Hg14  1  0.75389559  0.22863883  0.80038520  1
  Hg  Hg15  1  0.99652402  0.09916558  0.69999767  1
  O  O16  1  0.06283193  0.76705155  0.26087657  1
  O  O17  1  0.09996448  0.95392472  0.74626720  1
  O  O18  1  0.12534357  0.16402964  0.23772848  1
  O  O19  1  0.14995756  0.37379253  0.73801754  1
  O  O20  1  0.18688849  0.56047268  0.24177153  1
  O  O21  1  0.31311151  0.06047268  0.74177153  1
  O  O22  1  0.35004244  0.87379253  0.23801754  1
  O  O23  1  0.37465643  0.66402964  0.73772848  1
  O  O24  1  0.40003552  0.45392472  0.24626720  1
  O  O25  1  0.43716807  0.26705155  0.76087657  1
  O  O26  1  0.56283193  0.76705155  0.23912343  1
  O  O27  1  0.59996448  0.95392472  0.75373280  1
  O  O28  1  0.62534357  0.16402964  0.26227152  1
  O  O29  1  0.64995756  0.37379253  0.76198246  1
  O  O30  1  0.68688849  0.56047268  0.25822847  1
  O  O31  1  0.81311151  0.06047268  0.75822847  1
  O  O32  1  0.85004244  0.87379253  0.26198246  1
  O  O33  1  0.87465643  0.66402964  0.76227152  1
  O  O34  1  0.90003552  0.45392472  0.25373280  1
  O  O35  1  0.93716807  0.26705155  0.73912343  1
