# generated using pymatgen
data_Ba2YCl7
_symmetry_space_group_name_H-M   'P 1'
_cell_length_a   12.96505724
_cell_length_b   7.63610788
_cell_length_c   15.38446559
_cell_angle_alpha   90.00000000
_cell_angle_beta   90.00000000
_cell_angle_gamma   90.00000000
_symmetry_Int_Tables_number   1
_chemical_formula_structural   Ba2YCl7
_chemical_formula_sum   'Ba8 Y4 Cl28'
_cell_volume   1523.10172002
_cell_formula_units_Z   4
loop_
 _symmetry_equiv_pos_site_id
 _symmetry_equiv_pos_as_xyz
  1  'x, y, z'
loop_
 _atom_site_type_symbol
 _atom_site_label
 _atom_site_symmetry_multiplicity
 _atom_site_fract_x
 _atom_site_fract_y
 _atom_site_fract_z
 _atom_site_occupancy
  Ba  Ba0  1  0.25673549  0.25000000  0.45551908  1
  Ba  Ba1  1  0.25907082  0.25000000  0.74368831  1
  Ba  Ba2  1  0.24092918  0.75000000  0.24368831  1
  Ba  Ba3  1  0.24326451  0.75000000  0.95551908  1
  Ba  Ba4  1  0.75673549  0.25000000  0.04448092  1
  Ba  Ba5  1  0.75907082  0.25000000  0.75631169  1
  Ba  Ba6  1  0.74092918  0.75000000  0.25631169  1
  Ba  Ba7  1  0.74326451  0.75000000  0.54448092  1
  Y  Y8  1  0.94093856  0.25000000  0.30641943  1
  Y  Y9  1  0.55906144  0.75000000  0.80641943  1
  Y  Y10  1  0.44093856  0.25000000  0.19358057  1
  Y  Y11  1  0.05906144  0.75000000  0.69358057  1
  Cl  Cl12  1  0.09419035  0.75000000  0.09868715  1
  Cl  Cl13  1  0.09670628  0.02810232  0.34247035  1
  Cl  Cl14  1  0.09670628  0.47189768  0.34247035  1
  Cl  Cl15  1  0.10904701  0.96793346  0.82347879  1
  Cl  Cl16  1  0.10904701  0.53206654  0.82347879  1
  Cl  Cl17  1  0.16973303  0.52231885  0.60176524  1
  Cl  Cl18  1  0.16973303  0.97768115  0.60176524  1
  Cl  Cl19  1  0.33026697  0.02231885  0.10176524  1
  Cl  Cl20  1  0.33026697  0.47768115  0.10176524  1
  Cl  Cl21  1  0.39095299  0.03206654  0.32347879  1
  Cl  Cl22  1  0.39095299  0.46793346  0.32347879  1
  Cl  Cl23  1  0.40329372  0.97189768  0.84247035  1
  Cl  Cl24  1  0.40329372  0.52810232  0.84247035  1
  Cl  Cl25  1  0.40580965  0.25000000  0.59868715  1
  Cl  Cl26  1  0.59419035  0.75000000  0.40131285  1
  Cl  Cl27  1  0.59670628  0.02810232  0.15752965  1
  Cl  Cl28  1  0.59670628  0.47189768  0.15752965  1
  Cl  Cl29  1  0.60904701  0.96793346  0.67652121  1
  Cl  Cl30  1  0.60904701  0.53206654  0.67652121  1
  Cl  Cl31  1  0.66973303  0.97768115  0.89823476  1
  Cl  Cl32  1  0.66973303  0.52231885  0.89823476  1
  Cl  Cl33  1  0.83026697  0.47768115  0.39823476  1
  Cl  Cl34  1  0.83026697  0.02231885  0.39823476  1
  Cl  Cl35  1  0.89095299  0.46793346  0.17652121  1
  Cl  Cl36  1  0.89095299  0.03206654  0.17652121  1
  Cl  Cl37  1  0.90329372  0.52810232  0.65752965  1
  Cl  Cl38  1  0.90329372  0.97189768  0.65752965  1
  Cl  Cl39  1  0.90580965  0.25000000  0.90131285  1
