# generated using pymatgen
data_Li2BiBO4
_symmetry_space_group_name_H-M   'P 1'
_cell_length_a   6.85174766
_cell_length_b   10.33408173
_cell_length_c   4.82420872
_cell_angle_alpha   90.00000000
_cell_angle_beta   90.00000000
_cell_angle_gamma   90.00000000
_symmetry_Int_Tables_number   1
_chemical_formula_structural   Li2BiBO4
_chemical_formula_sum   'Li8 Bi4 B4 O16'
_cell_volume   341.58543272
_cell_formula_units_Z   4
loop_
 _symmetry_equiv_pos_site_id
 _symmetry_equiv_pos_as_xyz
  1  'x, y, z'
loop_
 _atom_site_type_symbol
 _atom_site_label
 _atom_site_symmetry_multiplicity
 _atom_site_fract_x
 _atom_site_fract_y
 _atom_site_fract_z
 _atom_site_occupancy
  Li  Li0  1  0.99539178  0.33968775  0.21538879  1
  Li  Li1  1  0.99539178  0.83968775  0.28461121  1
  Li  Li2  1  0.50460822  0.33968775  0.21538879  1
  Li  Li3  1  0.50460822  0.83968775  0.28461121  1
  Li  Li4  1  0.49539178  0.16031225  0.71538879  1
  Li  Li5  1  0.49539178  0.66031225  0.78461121  1
  Li  Li6  1  0.00460822  0.66031225  0.78461121  1
  Li  Li7  1  0.00460822  0.16031225  0.71538879  1
  Bi  Bi8  1  0.25000000  0.39831933  0.73257854  1
  Bi  Bi9  1  0.25000000  0.89831933  0.76742146  1
  Bi  Bi10  1  0.75000000  0.10168067  0.23257854  1
  Bi  Bi11  1  0.75000000  0.60168067  0.26742146  1
  B  B12  1  0.25000000  0.09839891  0.22645237  1
  B  B13  1  0.25000000  0.59839891  0.27354763  1
  B  B14  1  0.75000000  0.40160109  0.72645237  1
  B  B15  1  0.75000000  0.90160109  0.77354763  1
  O  O16  1  0.07404376  0.16316524  0.32649616  1
  O  O17  1  0.07404376  0.66316524  0.17350384  1
  O  O18  1  0.25000000  0.09958801  0.90346462  1
  O  O19  1  0.25000000  0.45233481  0.19479629  1
  O  O20  1  0.25000000  0.95233481  0.30520371  1
  O  O21  1  0.25000000  0.59958801  0.59653538  1
  O  O22  1  0.42595624  0.16316524  0.32649616  1
  O  O23  1  0.42595624  0.66316524  0.17350384  1
  O  O24  1  0.57404376  0.83683476  0.67350384  1
  O  O25  1  0.57404376  0.33683476  0.82649616  1
  O  O26  1  0.75000000  0.04766519  0.69479629  1
  O  O27  1  0.75000000  0.40041199  0.40346462  1
  O  O28  1  0.75000000  0.54766519  0.80520371  1
  O  O29  1  0.75000000  0.90041199  0.09653538  1
  O  O30  1  0.92595624  0.33683476  0.82649616  1
  O  O31  1  0.92595624  0.83683476  0.67350384  1
