# generated using pymatgen
data_LiBiB2O5
_symmetry_space_group_name_H-M   'P 1'
_cell_length_a   7.32450086
_cell_length_b   10.03066850
_cell_length_c   6.45870092
_cell_angle_alpha   90.00000000
_cell_angle_beta   69.24545278
_cell_angle_gamma   90.00000000
_symmetry_Int_Tables_number   1
_chemical_formula_structural   LiBiB2O5
_chemical_formula_sum   'Li4 Bi4 B8 O20'
_cell_volume   443.72554899
_cell_formula_units_Z   4
loop_
 _symmetry_equiv_pos_site_id
 _symmetry_equiv_pos_as_xyz
  1  'x, y, z'
loop_
 _atom_site_type_symbol
 _atom_site_label
 _atom_site_symmetry_multiplicity
 _atom_site_fract_x
 _atom_site_fract_y
 _atom_site_fract_z
 _atom_site_occupancy
  Li  Li0  1  0.22336195  0.80379306  0.28386974  1
  Li  Li1  1  0.22336195  0.69620694  0.78386974  1
  Li  Li2  1  0.77663805  0.30379306  0.21613026  1
  Li  Li3  1  0.77663805  0.19620694  0.71613026  1
  Bi  Bi4  1  0.23241001  0.45109483  0.26902449  1
  Bi  Bi5  1  0.23241001  0.04890517  0.76902449  1
  Bi  Bi6  1  0.76758999  0.95109483  0.23097551  1
  Bi  Bi7  1  0.76758999  0.54890517  0.73097551  1
  B  B8  1  0.11084829  0.14461929  0.27273766  1
  B  B9  1  0.11084829  0.35538071  0.77273766  1
  B  B10  1  0.45900841  0.09261185  0.23739672  1
  B  B11  1  0.54099159  0.59261185  0.26260328  1
  B  B12  1  0.45900841  0.40738815  0.73739672  1
  B  B13  1  0.54099159  0.90738815  0.76260328  1
  B  B14  1  0.88915171  0.64461929  0.22726234  1
  B  B15  1  0.88915171  0.85538071  0.72726234  1
  O  O16  1  0.04328958  0.71017708  0.09450133  1
  O  O17  1  0.09863240  0.04168402  0.13076471  1
  O  O18  1  0.04328958  0.78982292  0.59450133  1
  O  O19  1  0.09863240  0.45831598  0.63076471  1
  O  O20  1  0.30205773  0.17980522  0.26597472  1
  O  O21  1  0.36132953  0.64555532  0.28842462  1
  O  O22  1  0.30205773  0.32019478  0.76597472  1
  O  O23  1  0.43925865  0.95624770  0.25936557  1
  O  O24  1  0.36132953  0.85444468  0.78842462  1
  O  O25  1  0.56074135  0.45624770  0.24063443  1
  O  O26  1  0.43925865  0.54375230  0.75936557  1
  O  O27  1  0.63867047  0.14555532  0.21157538  1
  O  O28  1  0.56074135  0.04375230  0.74063443  1
  O  O29  1  0.69794227  0.67980522  0.23402528  1
  O  O30  1  0.63867047  0.35444468  0.71157538  1
  O  O31  1  0.69794227  0.82019478  0.73402528  1
  O  O32  1  0.90136760  0.54168402  0.36923529  1
  O  O33  1  0.95671042  0.21017708  0.40549867  1
  O  O34  1  0.90136760  0.95831598  0.86923529  1
  O  O35  1  0.95671042  0.28982292  0.90549867  1
