# generated using pymatgen
data_PtO3
_symmetry_space_group_name_H-M   'P 1'
_cell_length_a   5.02747828
_cell_length_b   7.21006471
_cell_length_c   7.03956862
_cell_angle_alpha   90.00874708
_cell_angle_beta   135.56237643
_cell_angle_gamma   89.94749970
_symmetry_Int_Tables_number   1
_chemical_formula_structural   PtO3
_chemical_formula_sum   'Pt4 O12'
_cell_volume   178.65503694
_cell_formula_units_Z   4
loop_
 _symmetry_equiv_pos_site_id
 _symmetry_equiv_pos_as_xyz
  1  'x, y, z'
loop_
 _atom_site_type_symbol
 _atom_site_label
 _atom_site_symmetry_multiplicity
 _atom_site_fract_x
 _atom_site_fract_y
 _atom_site_fract_z
 _atom_site_occupancy
  Pt  Pt0  1  0.50008898  0.49894382  0.00053623  1
  Pt  Pt1  1  0.50040660  0.99883751  0.00052146  1
  Pt  Pt2  1  0.50005283  0.49854661  0.50047731  1
  Pt  Pt3  1  0.50076902  0.99838489  0.50070188  1
  O  O4  1  0.00327296  0.57733122  0.85142368  1
  O  O5  1  0.99702564  0.07564025  0.14933831  1
  O  O6  1  0.29638520  0.24903675  0.84150709  1
  O  O7  1  0.29845701  0.57585610  0.64781612  1
  O  O8  1  0.38298875  0.74847681  0.34035854  1
  O  O9  1  0.29999151  0.92133926  0.64851315  1
  O  O10  1  0.70014355  0.42126360  0.35236653  1
  O  O11  1  0.70421406  0.74866948  0.15958945  1
  O  O12  1  0.61755803  0.24849829  0.66064978  1
  O  O13  1  0.70175299  0.07544823  0.35312983  1
  O  O14  1  0.99664049  0.42170569  0.14898072  1
  O  O15  1  0.00446639  0.92109350  0.85245493  1
