# generated using pymatgen
data_Li2ErPCO7
_symmetry_space_group_name_H-M   'P 1'
_cell_length_a   9.08848440
_cell_length_b   6.73949818
_cell_length_c   4.90761580
_cell_angle_alpha   90.00000000
_cell_angle_beta   86.65094382
_cell_angle_gamma   90.00000000
_symmetry_Int_Tables_number   1
_chemical_formula_structural   Li2ErPCO7
_chemical_formula_sum   'Li4 Er2 P2 C2 O14'
_cell_volume   300.08704324
_cell_formula_units_Z   2
loop_
 _symmetry_equiv_pos_site_id
 _symmetry_equiv_pos_as_xyz
  1  'x, y, z'
loop_
 _atom_site_type_symbol
 _atom_site_label
 _atom_site_symmetry_multiplicity
 _atom_site_fract_x
 _atom_site_fract_y
 _atom_site_fract_z
 _atom_site_occupancy
  Li  Li0  1  0.20066879  0.48641590  0.20301840  1
  Li  Li1  1  0.20066879  0.01358410  0.20301840  1
  Li  Li2  1  0.79933121  0.51358410  0.79698160  1
  Li  Li3  1  0.79933121  0.98641590  0.79698160  1
  Er  Er4  1  0.36347096  0.75000000  0.74288824  1
  Er  Er5  1  0.63652904  0.25000000  0.25711176  1
  P  P6  1  0.40722338  0.25000000  0.72466358  1
  P  P7  1  0.59277662  0.75000000  0.27533642  1
  C  C8  1  0.06349659  0.75000000  0.74213731  1
  C  C9  1  0.93650341  0.25000000  0.25786269  1
  O  O10  1  0.07557739  0.25000000  0.27225189  1
  O  O11  1  0.12817920  0.75000000  0.97510552  1
  O  O12  1  0.15470008  0.75000000  0.52094779  1
  O  O13  1  0.33354877  0.06416432  0.85398466  1
  O  O14  1  0.33354877  0.43583568  0.85398466  1
  O  O15  1  0.42255383  0.75000000  0.23237305  1
  O  O16  1  0.39694730  0.25000000  0.40948082  1
  O  O17  1  0.60305270  0.75000000  0.59051918  1
  O  O18  1  0.57744617  0.25000000  0.76762695  1
  O  O19  1  0.66645123  0.56416432  0.14601534  1
  O  O20  1  0.66645123  0.93583568  0.14601534  1
  O  O21  1  0.84529992  0.25000000  0.47905221  1
  O  O22  1  0.87182080  0.25000000  0.02489448  1
  O  O23  1  0.92442261  0.75000000  0.72774811  1
