# generated using pymatgen
data_BaY4Cl14
_symmetry_space_group_name_H-M   'P 1'
_cell_length_a   7.46696318
_cell_length_b   9.37137456
_cell_length_c   43.69849794
_cell_angle_alpha   90.00000000
_cell_angle_beta   90.00000000
_cell_angle_gamma   90.00000000
_symmetry_Int_Tables_number   1
_chemical_formula_structural   BaY4Cl14
_chemical_formula_sum   'Ba4 Y16 Cl56'
_cell_volume   3057.83336621
_cell_formula_units_Z   4
loop_
 _symmetry_equiv_pos_site_id
 _symmetry_equiv_pos_as_xyz
  1  'x, y, z'
loop_
 _atom_site_type_symbol
 _atom_site_label
 _atom_site_symmetry_multiplicity
 _atom_site_fract_x
 _atom_site_fract_y
 _atom_site_fract_z
 _atom_site_occupancy
  Ba  Ba0  1  0.22638763  0.26809636  0.71660330  1
  Ba  Ba1  1  0.27361237  0.73190364  0.21660330  1
  Ba  Ba2  1  0.72638763  0.23190364  0.28339670  1
  Ba  Ba3  1  0.77361237  0.76809636  0.78339670  1
  Y  Y4  1  0.24506194  0.91500232  0.62113144  1
  Y  Y5  1  0.24440246  0.58111382  0.52360450  1
  Y  Y6  1  0.23572682  0.89347037  0.33030027  1
  Y  Y7  1  0.24440145  0.24565497  0.42582276  1
  Y  Y8  1  0.25559855  0.75434503  0.92582276  1
  Y  Y9  1  0.26427318  0.10652963  0.83030027  1
  Y  Y10  1  0.25559754  0.41888618  0.02360450  1
  Y  Y11  1  0.25493806  0.08499768  0.12113144  1
  Y  Y12  1  0.74506194  0.58499768  0.37886856  1
  Y  Y13  1  0.74440246  0.91888618  0.47639550  1
  Y  Y14  1  0.73572682  0.60652963  0.66969973  1
  Y  Y15  1  0.74440145  0.25434503  0.57417724  1
  Y  Y16  1  0.75559855  0.74565497  0.07417724  1
  Y  Y17  1  0.76427318  0.39347037  0.16969973  1
  Y  Y18  1  0.75559754  0.08111382  0.97639550  1
  Y  Y19  1  0.75493806  0.41500232  0.87886856  1
  Cl  Cl20  1  0.03840639  0.71918593  0.64860552  1
  Cl  Cl21  1  0.04569590  0.72073270  0.36489482  1
  Cl  Cl22  1  0.11907293  0.91359993  0.79311700  1
  Cl  Cl23  1  0.01709837  0.06944369  0.45363437  1
  Cl  Cl24  1  0.01916153  0.39933346  0.55066643  1
  Cl  Cl25  1  0.03491638  0.88917844  0.09681830  1
  Cl  Cl26  1  0.02802486  0.23544436  0.99785825  1
  Cl  Cl27  1  0.03092534  0.57358970  0.89725419  1
  Cl  Cl28  1  0.06957427  0.50410295  0.18756899  1
  Cl  Cl29  1  0.23188494  0.71064260  0.28422553  1
  Cl  Cl30  1  0.25605620  0.08055101  0.37700821  1
  Cl  Cl31  1  0.24512531  0.41783611  0.47413628  1
  Cl  Cl32  1  0.23878323  0.74516415  0.57265602  1
  Cl  Cl33  1  0.23939902  0.98002199  0.17653837  1
  Cl  Cl34  1  0.26060098  0.01997801  0.67653837  1
  Cl  Cl35  1  0.26121677  0.25483585  0.07265602  1
  Cl  Cl36  1  0.25487469  0.58216389  0.97413628  1
  Cl  Cl37  1  0.24394380  0.91944899  0.87700821  1
  Cl  Cl38  1  0.26811506  0.28935740  0.78422553  1
  Cl  Cl39  1  0.43042573  0.49589705  0.68756899  1
  Cl  Cl40  1  0.46907466  0.42641030  0.39725419  1
  Cl  Cl41  1  0.47197514  0.76455564  0.49785825  1
  Cl  Cl42  1  0.46508362  0.11082156  0.59681830  1
  Cl  Cl43  1  0.48083847  0.60066654  0.05066643  1
  Cl  Cl44  1  0.48290163  0.93055631  0.95363437  1
  Cl  Cl45  1  0.38092707  0.08640007  0.29311700  1
  Cl  Cl46  1  0.45430410  0.27926730  0.86489482  1
  Cl  Cl47  1  0.46159361  0.28081407  0.14860552  1
  Cl  Cl48  1  0.53840639  0.78081407  0.35139448  1
  Cl  Cl49  1  0.54569590  0.77926730  0.63510518  1
  Cl  Cl50  1  0.61907293  0.58640007  0.20688300  1
  Cl  Cl51  1  0.51709837  0.43055631  0.54636563  1
  Cl  Cl52  1  0.51916153  0.10066654  0.44933357  1
  Cl  Cl53  1  0.53491638  0.61082156  0.90318170  1
  Cl  Cl54  1  0.52802486  0.26455564  0.00214175  1
  Cl  Cl55  1  0.53092534  0.92641030  0.10274581  1
  Cl  Cl56  1  0.56957427  0.99589705  0.81243101  1
  Cl  Cl57  1  0.73188494  0.78935740  0.71577447  1
  Cl  Cl58  1  0.75605620  0.41944899  0.62299179  1
  Cl  Cl59  1  0.74512531  0.08216389  0.52586372  1
  Cl  Cl60  1  0.73878323  0.75483585  0.42734398  1
  Cl  Cl61  1  0.73939902  0.51997801  0.82346163  1
  Cl  Cl62  1  0.76060098  0.48002199  0.32346163  1
  Cl  Cl63  1  0.76121677  0.24516415  0.92734398  1
  Cl  Cl64  1  0.75487469  0.91783611  0.02586372  1
  Cl  Cl65  1  0.74394380  0.58055101  0.12299179  1
  Cl  Cl66  1  0.76811506  0.21064260  0.21577447  1
  Cl  Cl67  1  0.93042573  0.00410295  0.31243101  1
  Cl  Cl68  1  0.96907466  0.07358970  0.60274581  1
  Cl  Cl69  1  0.97197514  0.73544436  0.50214175  1
  Cl  Cl70  1  0.96508362  0.38917844  0.40318170  1
  Cl  Cl71  1  0.98083847  0.89933346  0.94933357  1
  Cl  Cl72  1  0.98290163  0.56944369  0.04636563  1
  Cl  Cl73  1  0.88092707  0.41359993  0.70688300  1
  Cl  Cl74  1  0.95430410  0.22073270  0.13510518  1
  Cl  Cl75  1  0.96159361  0.21918593  0.85139448  1
