# generated using pymatgen
data_HfFeO3
_symmetry_space_group_name_H-M   'P 1'
_cell_length_a   5.03794619
_cell_length_b   5.33040426
_cell_length_c   8.77719975
_cell_angle_alpha   90.03560351
_cell_angle_beta   90.02771197
_cell_angle_gamma   89.99225223
_symmetry_Int_Tables_number   1
_chemical_formula_structural   HfFeO3
_chemical_formula_sum   'Hf4 Fe4 O12'
_cell_volume   235.70539099
_cell_formula_units_Z   4
loop_
 _symmetry_equiv_pos_site_id
 _symmetry_equiv_pos_as_xyz
  1  'x, y, z'
loop_
 _atom_site_type_symbol
 _atom_site_label
 _atom_site_symmetry_multiplicity
 _atom_site_fract_x
 _atom_site_fract_y
 _atom_site_fract_z
 _atom_site_occupancy
  Hf  Hf0  1  0.04456169  0.92955664  0.74991476  1
  Hf  Hf1  1  0.45550546  0.42957226  0.75004284  1
  Hf  Hf2  1  0.54450015  0.57042732  0.24995870  1
  Hf  Hf3  1  0.95544307  0.07044541  0.25008455  1
  Fe  Fe4  1  0.99996727  0.50001296  0.00001096  1
  Fe  Fe5  1  0.00001700  0.49999036  0.49999790  1
  Fe  Fe6  1  0.49996814  0.99997481  0.00001522  1
  Fe  Fe7  1  0.50000971  0.00001472  0.49998241  1
  O  O8  1  0.17780987  0.40577157  0.24997814  1
  O  O9  1  0.19492969  0.20076738  0.60070559  1
  O  O10  1  0.19482491  0.20108260  0.89932847  1
  O  O11  1  0.30521464  0.70066343  0.60061449  1
  O  O12  1  0.30508057  0.70118169  0.89922890  1
  O  O13  1  0.32216247  0.90578583  0.25001590  1
  O  O14  1  0.67784306  0.09421507  0.74997966  1
  O  O15  1  0.69491909  0.29881475  0.10077309  1
  O  O16  1  0.69479346  0.29934156  0.39938285  1
  O  O17  1  0.80517695  0.79892307  0.10067406  1
  O  O18  1  0.80507910  0.79922872  0.39929204  1
  O  O19  1  0.82219372  0.59422983  0.75001947  1
