# generated using pymatgen
data_Li4V2C4SO16
_symmetry_space_group_name_H-M   'P 1'
_cell_length_a   9.51097000
_cell_length_b   9.48717742
_cell_length_c   9.51097000
_cell_angle_alpha   61.04069440
_cell_angle_beta   88.04893725
_cell_angle_gamma   118.95930560
_symmetry_Int_Tables_number   1
_chemical_formula_structural   Li4V2C4SO16
_chemical_formula_sum   'Li8 V4 C8 S2 O32'
_cell_volume   615.27405656
_cell_formula_units_Z   2
loop_
 _symmetry_equiv_pos_site_id
 _symmetry_equiv_pos_as_xyz
  1  'x, y, z'
loop_
 _atom_site_type_symbol
 _atom_site_label
 _atom_site_symmetry_multiplicity
 _atom_site_fract_x
 _atom_site_fract_y
 _atom_site_fract_z
 _atom_site_occupancy
  Li  Li0  1  0.91181738  0.25000000  0.33818262  1
  Li  Li1  1  0.68442731  0.75000000  0.06557269  1
  Li  Li2  1  0.91138825  0.25000000  0.91138825  1
  Li  Li3  1  0.33861175  0.25000000  0.33861175  1
  Li  Li4  1  0.91228016  0.82456032  0.33771984  1
  Li  Li5  1  0.33818262  0.25000000  0.91181738  1
  Li  Li6  1  0.33771984  0.67543968  0.91228016  1
  Li  Li7  1  0.06557269  0.75000000  0.68442731  1
  V  V8  1  0.49771373  -0.00004720  0.99943297  1
  V  V9  1  0.50223906  -0.00004720  0.50061424  1
  V  V10  1  0.50061424  0.50004720  0.50223906  1
  V  V11  1  0.99943297  0.50004720  0.49771373  1
  C  C12  1  0.71772149  0.06660522  0.71124358  1
  C  C13  1  0.72215220  0.43339478  0.34888373  1
  C  C14  1  0.34888373  0.06660522  0.72215220  1
  C  C15  1  0.71124358  0.43339478  0.71772149  1
  C  C16  1  0.29066210  0.56321814  0.27880063  1
  C  C17  1  0.65798023  0.93678186  0.27255604  1
  C  C18  1  0.27255604  0.56321814  0.65798023  1
  C  C19  1  0.27880063  0.93678186  0.29066210  1
  S  S20  1  0.12500000  0.25000000  0.12500000  1
  S  S21  1  0.87500000  0.75000000  0.87500000  1
  O  O22  1  0.65939323  0.05739093  0.12653257  1
  O  O23  1  0.85614186  0.20933315  0.58187748  1
  O  O24  1  0.70878837  0.29066685  0.35319129  1
  O  O25  1  0.39799670  0.05739093  0.31607649  1
  O  O26  1  0.86145236  0.56065016  0.35150520  1
  O  O27  1  0.31727677  0.37698936  0.05933133  1
  O  O28  1  0.06367931  0.12301064  0.05971259  1
  O  O29  1  0.70282262  0.04616699  0.85797289  1
  O  O30  1  0.59586012  0.45383301  0.34334437  1
  O  O31  1  0.34334437  0.04616699  0.59586012  1
  O  O32  1  0.85797289  0.45383301  0.70282262  1
  O  O33  1  0.05933133  0.12301064  0.31727677  1
  O  O34  1  0.05971259  0.37698936  0.06367931  1
  O  O35  1  0.66586762  0.79532512  0.29373102  1
  O  O36  1  0.41094386  0.70467488  0.12945651  1
  O  O37  1  0.69919781  0.56065016  0.58784464  1
  O  O38  1  0.31607649  0.44260907  0.39799670  1
  O  O39  1  0.35319129  0.20933315  0.70878837  1
  O  O40  1  0.58187748  0.29066685  0.85614186  1
  O  O41  1  0.94411779  0.62652455  0.92976412  1
  O  O42  1  0.94371133  0.87347545  0.68240676  1
  O  O43  1  0.14379558  0.53663637  0.30803798  1
  O  O44  1  0.65532564  0.96336363  0.39284180  1
  O  O45  1  0.30803798  0.96336363  0.14379558  1
  O  O46  1  0.39284180  0.53663637  0.65532564  1
  O  O47  1  0.92976412  0.87347545  0.94411779  1
  O  O48  1  0.68240676  0.62652455  0.94371133  1
  O  O49  1  0.12653257  0.44260907  0.65939323  1
  O  O50  1  0.58784464  0.93934984  0.69919781  1
  O  O51  1  0.29373102  0.70467488  0.66586762  1
  O  O52  1  0.12945651  0.79532512  0.41094386  1
  O  O53  1  0.35150520  0.93934984  0.86145236  1
