# generated using pymatgen
data_Li4Ti4MnCr4O18
_symmetry_space_group_name_H-M   'P 1'
_cell_length_a   9.18216381
_cell_length_b   24.78126071
_cell_length_c   2.94891322
_cell_angle_alpha   90.00004121
_cell_angle_beta   90.00011643
_cell_angle_gamma   89.99803688
_symmetry_Int_Tables_number   1
_chemical_formula_structural   Li4Ti4MnCr4O18
_chemical_formula_sum   'Li8 Ti8 Mn2 Cr8 O36'
_cell_volume   671.01221381
_cell_formula_units_Z   2
loop_
 _symmetry_equiv_pos_site_id
 _symmetry_equiv_pos_as_xyz
  1  'x, y, z'
loop_
 _atom_site_type_symbol
 _atom_site_label
 _atom_site_symmetry_multiplicity
 _atom_site_fract_x
 _atom_site_fract_y
 _atom_site_fract_z
 _atom_site_occupancy
  Li  Li0  1  0.19386427  0.98829081  0.99999862  1
  Li  Li1  1  0.20104438  0.19042088  -0.00000018  1
  Li  Li2  1  0.29880108  0.69046682  0.00000008  1
  Li  Li3  1  0.30614528  0.48828969  0.00000165  1
  Li  Li4  1  0.69385790  0.51171061  0.00000085  1
  Li  Li5  1  0.70114414  0.30951971  0.00000157  1
  Li  Li6  1  0.79896570  0.80956105  0.00000088  1
  Li  Li7  1  0.80618635  0.01173588  0.00000100  1
  Ti  Ti8  1  0.99935854  0.10075613  0.99999762  1
  Ti  Ti9  1  0.15973780  0.80611976  0.50000273  1
  Ti  Ti10  1  0.34027798  0.30614876  0.50000085  1
  Ti  Ti11  1  0.50071421  0.60072126  0.00000360  1
  Ti  Ti12  1  0.49925960  0.39927750  0.99999678  1
  Ti  Ti13  1  0.65972183  0.69385317  0.50000133  1
  Ti  Ti14  1  0.84026477  0.19389607  0.50000077  1
  Ti  Ti15  1  0.00066740  0.89925598  0.00000065  1
  Mn  Mn16  1  -0.00006533  0.49996019  -0.00000154  1
  Mn  Mn17  1  0.49999503  0.00002010  0.00000312  1
  Cr  Cr18  1  0.00117585  0.31196104  0.99997219  1
  Cr  Cr19  1  0.15344028  0.58512502  0.49998353  1
  Cr  Cr20  1  0.34672044  0.08514163  0.49999151  1
  Cr  Cr21  1  0.49885011  0.81187300  0.00000504  1
  Cr  Cr22  1  0.50113866  0.18810043  -0.00000650  1
  Cr  Cr23  1  0.65331136  0.91487925  0.50000500  1
  Cr  Cr24  1  0.84650568  0.41484653  0.50000115  1
  Cr  Cr25  1  0.99882153  0.68809284  0.00000421  1
  O  O26  1  0.99010793  0.42174840  0.00000603  1
  O  O27  1  0.00987215  0.57818377  0.99999621  1
  O  O28  1  0.06522469  0.94333236  0.50000508  1
  O  O29  1  0.04301030  0.15732325  0.50000035  1
  O  O30  1  0.13156441  0.66408469  0.49999960  1
  O  O31  1  0.10792942  0.75577841  0.00000179  1
  O  O32  1  0.14216595  0.50278466  0.50000364  1
  O  O33  1  0.13581228  0.29024657  0.49999147  1
  O  O34  1  0.18851508  0.85589068  0.00000342  1
  O  O35  1  0.19816560  0.08041119  0.99999403  1
  O  O36  1  0.30195704  0.58036299  -0.00000160  1
  O  O37  1  0.31147146  0.35592882  0.00000091  1
  O  O38  1  0.36418462  0.79017174  0.50000332  1
  O  O39  1  0.35783518  0.00282709  0.50000019  1
  O  O40  1  0.39207564  0.25581542  0.00000350  1
  O  O41  1  0.36839580  0.16411808  0.50000182  1
  O  O42  1  0.45703100  0.65728570  0.50000650  1
  O  O43  1  0.43476440  0.44337312  0.49999224  1
  O  O44  1  0.49030936  0.07822605  0.99999529  1
  O  O45  1  0.50974850  0.92179892  0.00000541  1
  O  O46  1  0.56524896  0.55663555  0.50000271  1
  O  O47  1  0.54295922  0.34271553  0.49999202  1
  O  O48  1  0.63156162  0.83589009  0.50001071  1
  O  O49  1  0.60794670  0.74418543  0.00000339  1
  O  O50  1  0.64222150  0.99718590  0.50000477  1
  O  O51  1  0.63579733  0.20982440  0.50000403  1
  O  O52  1  0.68853859  0.64408081  0.00000301  1
  O  O53  1  0.69803926  0.41962234  0.99999197  1
  O  O54  1  0.80188543  0.91959288  -0.00000155  1
  O  O55  1  0.81151812  0.14411793  0.00000210  1
  O  O56  1  0.86418718  0.70978024  0.50000376  1
  O  O57  1  0.85777687  0.49717278  0.50000857  1
  O  O58  1  0.89208786  0.24422945  0.00000238  1
  O  O59  1  0.86836598  0.33589626  0.49999392  1
  O  O60  1  0.95701571  0.84267964  0.50000449  1
  O  O61  1  0.93480499  0.05667472  0.49999803  1
