# generated using pymatgen
data_Li4Cr3FeO8
_symmetry_space_group_name_H-M   'P 1'
_cell_length_a   5.11695651
_cell_length_b   5.89366572
_cell_length_c   5.10348547
_cell_angle_alpha   90.00506726
_cell_angle_beta   80.45897735
_cell_angle_gamma   73.26346686
_symmetry_Int_Tables_number   1
_chemical_formula_structural   Li4Cr3FeO8
_chemical_formula_sum   'Li4 Cr3 Fe1 O8'
_cell_volume   145.16402999
_cell_formula_units_Z   1
loop_
 _symmetry_equiv_pos_site_id
 _symmetry_equiv_pos_as_xyz
  1  'x, y, z'
loop_
 _atom_site_type_symbol
 _atom_site_label
 _atom_site_symmetry_multiplicity
 _atom_site_fract_x
 _atom_site_fract_y
 _atom_site_fract_z
 _atom_site_occupancy
  Li  Li0  1  0.00289926  0.99840798  0.99984860  1
  Li  Li1  1  0.99711740  0.25159253  0.50014439  1
  Li  Li2  1  0.00107832  0.50060088  0.99691856  1
  Li  Li3  1  0.99892783  0.74940262  0.50306935  1
  Cr  Cr4  1  0.49996667  0.12503362  0.75000135  1
  Cr  Cr5  1  0.50016344  0.37691994  0.24983855  1
  Cr  Cr6  1  0.49980823  0.87308179  0.25018022  1
  Fe  Fe7  1  0.49998895  0.62500477  0.74999871  1
  O  O8  1  0.27222345  0.18205600  0.12199188  1
  O  O9  1  0.72779530  0.06792301  0.37800688  1
  O  O10  1  0.27602758  0.43541006  0.62304216  1
  O  O11  1  0.72494620  0.32312832  0.87644333  1
  O  O12  1  0.27492221  0.68115660  0.11448696  1
  O  O13  1  0.72508260  0.56883172  0.38551503  1
  O  O14  1  0.27505897  0.92687457  0.62355550  1
  O  O15  1  0.72399358  0.81457659  0.87695854  1
