# generated using pymatgen
data_LiV3CrO8
_symmetry_space_group_name_H-M   'P 1'
_cell_length_a   5.35117995
_cell_length_b   6.03318439
_cell_length_c   10.56729125
_cell_angle_alpha   106.90530118
_cell_angle_beta   84.40512786
_cell_angle_gamma   72.65559464
_symmetry_Int_Tables_number   1
_chemical_formula_structural   LiV3CrO8
_chemical_formula_sum   'Li2 V6 Cr2 O16'
_cell_volume   305.17451092
_cell_formula_units_Z   2
loop_
 _symmetry_equiv_pos_site_id
 _symmetry_equiv_pos_as_xyz
  1  'x, y, z'
loop_
 _atom_site_type_symbol
 _atom_site_label
 _atom_site_symmetry_multiplicity
 _atom_site_fract_x
 _atom_site_fract_y
 _atom_site_fract_z
 _atom_site_occupancy
  Li  Li0  1  0.99511536  0.63023875  0.75306166  1
  Li  Li1  1  0.00278299  0.87811096  0.25201837  1
  V  V2  1  0.46150436  0.07337620  0.88154252  1
  V  V3  1  0.53152387  0.17005575  0.61960874  1
  V  V4  1  0.45340986  0.32282511  0.37664313  1
  V  V5  1  0.54904174  0.42569607  0.11996323  1
  V  V6  1  0.48371601  0.57217051  0.87772700  1
  V  V7  1  0.51297205  0.68318940  0.61843900  1
  Cr  Cr8  1  0.49672258  0.81325417  0.37577705  1
  Cr  Cr9  1  0.51247433  0.93414880  0.12335569  1
  O  O10  1  0.28666393  0.08241410  0.31299489  1
  O  O11  1  0.30819564  0.20913816  0.05785856  1
  O  O12  1  0.30185358  0.33496512  0.80072747  1
  O  O13  1  0.29800671  0.45345924  0.56518369  1
  O  O14  1  0.30220722  0.57941670  0.29983777  1
  O  O15  1  0.30962665  0.70129416  0.06129041  1
  O  O16  1  0.28439130  0.82673749  0.80716174  1
  O  O17  1  0.31430051  0.96232776  0.56891343  1
  O  O18  1  0.70062179  0.05043090  0.43793522  1
  O  O19  1  0.70244423  0.17008037  0.19971892  1
  O  O20  1  0.69443748  0.29186886  0.93914775  1
  O  O21  1  0.70316433  0.42718676  0.69753582  1
  O  O22  1  0.68391610  0.53606058  0.44283297  1
  O  O23  1  0.71785983  0.66778794  0.18723914  1
  O  O24  1  0.69308320  0.79150239  0.92646319  1
  O  O25  1  0.69996636  0.91225973  0.69702365  1
