# generated using pymatgen
data_Li4Cr3FeO8
_symmetry_space_group_name_H-M   'P 1'
_cell_length_a   5.08914016
_cell_length_b   5.89912835
_cell_length_c   5.87859677
_cell_angle_alpha   60.11260316
_cell_angle_beta   90.00066328
_cell_angle_gamma   73.28439008
_symmetry_Int_Tables_number   1
_chemical_formula_structural   Li4Cr3FeO8
_chemical_formula_sum   'Li4 Cr3 Fe1 O8'
_cell_volume   144.34756324
_cell_formula_units_Z   1
loop_
 _symmetry_equiv_pos_site_id
 _symmetry_equiv_pos_as_xyz
  1  'x, y, z'
loop_
 _atom_site_type_symbol
 _atom_site_label
 _atom_site_symmetry_multiplicity
 _atom_site_fract_x
 _atom_site_fract_y
 _atom_site_fract_z
 _atom_site_occupancy
  Li  Li0  1  0.00252998  0.99864434  0.00067555  1
  Li  Li1  1  0.99747112  0.00135328  0.49932319  1
  Li  Li2  1  0.49999652  0.00000031  0.24999817  1
  Li  Li3  1  0.50000365  0.99999902  0.75000083  1
  Cr  Cr4  1  -0.00000078  0.49999900  0.00185898  1
  Cr  Cr5  1  -0.00000009  0.50000206  0.49813949  1
  Cr  Cr6  1  0.50000022  0.49999955  0.75000240  1
  Fe  Fe7  1  0.50000074  0.49999880  0.25000180  1
  O  O8  1  0.24627101  0.27472076  0.36265078  1
  O  O9  1  0.24170834  0.27348851  0.86326675  1
  O  O10  1  0.73957506  0.27502596  0.11601773  1
  O  O11  1  0.26042575  0.72497488  0.38398341  1
  O  O12  1  0.26042488  0.72496837  0.89102953  1
  O  O13  1  0.75372650  0.72527974  0.13734686  1
  O  O14  1  0.73957595  0.27503145  0.60897326  1
  O  O15  1  0.75829116  0.72651396  0.63673127  1
