# generated using pymatgen
data_Li4Fe5CoO12
_symmetry_space_group_name_H-M   'P 1'
_cell_length_a   5.16024765
_cell_length_b   5.11453268
_cell_length_c   10.21389282
_cell_angle_alpha   89.56103086
_cell_angle_beta   89.18717066
_cell_angle_gamma   59.66861357
_symmetry_Int_Tables_number   1
_chemical_formula_structural   Li4Fe5CoO12
_chemical_formula_sum   'Li4 Fe5 Co1 O12'
_cell_volume   232.64553451
_cell_formula_units_Z   1
loop_
 _symmetry_equiv_pos_site_id
 _symmetry_equiv_pos_as_xyz
  1  'x, y, z'
loop_
 _atom_site_type_symbol
 _atom_site_label
 _atom_site_symmetry_multiplicity
 _atom_site_fract_x
 _atom_site_fract_y
 _atom_site_fract_z
 _atom_site_occupancy
  Li  Li0  1  0.13009918  0.52128430  0.75218807  1
  Li  Li1  1  0.34224044  0.53451332  0.24530374  1
  Li  Li2  1  0.64098115  0.50222735  0.75086246  1
  Li  Li3  1  0.86055327  0.49540021  0.24718451  1
  Fe  Fe4  1  0.16684928  0.66878557  0.49937864  1
  Fe  Fe5  1  0.66366967  0.67343284  0.99927170  1
  Fe  Fe6  1  0.33589022  0.32669582  0.99947201  1
  Fe  Fe7  1  0.83653067  0.32960214  0.49940009  1
  Fe  Fe8  1  0.50602304  0.99072750  0.49869705  1
  Co  Co9  1  -0.00104871  0.00060483  0.99896375  1
  O  O10  1  0.01082855  0.67263333  0.10455859  1
  O  O11  1  0.31445998  0.67373219  0.89417634  1
  O  O12  1  0.17741682  0.35164760  0.39109254  1
  O  O13  1  0.52225786  0.65044637  0.38716609  1
  O  O14  1  0.47357941  0.35125620  0.60733085  1
  O  O15  1  0.17241243  0.97922546  0.59678344  1
  O  O16  1  0.82987550  0.65063078  0.61120519  1
  O  O17  1  0.68259864  0.32571882  0.10433801  1
  O  O18  1  0.30361352  0.00029820  0.09585699  1
  O  O19  1  0.99183290  0.32616082  0.89345292  1
  O  O20  1  0.69298607  0.00251705  0.90315393  1
  O  O21  1  0.85205815  0.97923429  0.40151608  1
