# generated using pymatgen
data_LiVBO4
_symmetry_space_group_name_H-M   'P 1'
_cell_length_a   10.10121556
_cell_length_b   6.06722117
_cell_length_c   4.38560594
_cell_angle_alpha   90.01644126
_cell_angle_beta   90.00389523
_cell_angle_gamma   90.00164607
_symmetry_Int_Tables_number   1
_chemical_formula_structural   LiVBO4
_chemical_formula_sum   'Li4 V4 B4 O16'
_cell_volume   268.77758842
_cell_formula_units_Z   4
loop_
 _symmetry_equiv_pos_site_id
 _symmetry_equiv_pos_as_xyz
  1  'x, y, z'
loop_
 _atom_site_type_symbol
 _atom_site_label
 _atom_site_symmetry_multiplicity
 _atom_site_fract_x
 _atom_site_fract_y
 _atom_site_fract_z
 _atom_site_occupancy
  Li  Li0  1  0.22345888  0.75001378  0.48051008  1
  Li  Li1  1  0.27646543  0.24992714  0.98049100  1
  Li  Li2  1  0.72353534  0.75007215  0.01951012  1
  Li  Li3  1  0.77653948  0.24998826  0.51948706  1
  V  V4  1  0.00000508  0.00000684  0.99999114  1
  V  V5  1  0.00000422  0.50001129  0.00000633  1
  V  V6  1  0.49999853  0.99999736  0.49998843  1
  V  V7  1  0.50000337  0.49998608  0.49999029  1
  B  B8  1  0.08278263  0.25006829  0.40674209  1
  B  B9  1  0.41717795  0.75006042  0.90668955  1
  B  B10  1  0.58281839  0.24993339  0.09331492  1
  B  B11  1  0.91721600  0.74992669  0.59325744  1
  O  O12  1  0.06113259  0.74994026  0.74722337  1
  O  O13  1  0.07463128  0.25002497  0.73510705  1
  O  O14  1  0.14216564  0.45170231  0.27111243  1
  O  O15  1  0.14215837  0.04837639  0.27098892  1
  O  O16  1  0.35781619  0.54836810  0.77088608  1
  O  O17  1  0.35780580  0.95168550  0.77101838  1
  O  O18  1  0.42534532  0.75002041  0.23505353  1
  O  O19  1  0.43887274  0.24992252  0.24723366  1
  O  O20  1  0.56112125  0.75007375  0.75277174  1
  O  O21  1  0.57464879  0.24997085  0.76494749  1
  O  O22  1  0.64218645  0.04831135  0.22899076  1
  O  O23  1  0.64217712  0.45163187  0.22911782  1
  O  O24  1  0.85784260  0.54830174  0.72889291  1
  O  O25  1  0.85784308  0.95162841  0.72901144  1
  O  O26  1  0.92537388  0.74998359  0.26489134  1
  O  O27  1  0.93887362  0.25006629  0.25277464  1
