# generated using pymatgen
data_Li5Mn2(PO4)3
_symmetry_space_group_name_H-M   'P 1'
_cell_length_a   8.50623965
_cell_length_b   9.40693219
_cell_length_c   8.53336679
_cell_angle_alpha   116.82887863
_cell_angle_beta   60.93637736
_cell_angle_gamma   116.45485847
_symmetry_Int_Tables_number   1
_chemical_formula_structural   Li5Mn2(PO4)3
_chemical_formula_sum   'Li10 Mn4 P6 O24'
_cell_volume   509.69744958
_cell_formula_units_Z   2
loop_
 _symmetry_equiv_pos_site_id
 _symmetry_equiv_pos_as_xyz
  1  'x, y, z'
loop_
 _atom_site_type_symbol
 _atom_site_label
 _atom_site_symmetry_multiplicity
 _atom_site_fract_x
 _atom_site_fract_y
 _atom_site_fract_z
 _atom_site_occupancy
  Li  Li0  1  0.97579199  0.82695665  0.23211900  1
  Li  Li1  1  0.20877871  0.92223774  0.73824147  1
  Li  Li2  1  0.65436263  0.84536278  0.92310012  1
  Li  Li3  1  0.24094638  0.63365459  0.54510999  1
  Li  Li4  1  0.68439727  0.62193563  0.35300141  1
  Li  Li5  1  0.31560273  0.37806437  0.64699859  1
  Li  Li6  1  0.75905362  0.36634541  0.45489001  1
  Li  Li7  1  0.34563637  0.15463722  0.07689988  1
  Li  Li8  1  0.79122129  0.07776226  0.26175853  1
  Li  Li9  1  0.02420801  0.17304335  0.76788100  1
  Mn  Mn10  1  0.14051788  0.44875873  0.14239828  1
  Mn  Mn11  1  0.35412116  0.03569416  0.34159690  1
  Mn  Mn12  1  0.64587884  0.96430584  0.65840310  1
  Mn  Mn13  1  0.85948212  0.55124127  0.85760172  1
  P  P14  1  0.05114012  0.25411350  0.45546084  1
  P  P15  1  0.54885837  0.74229405  0.24882594  1
  P  P16  1  0.26121606  0.76246140  0.94237566  1
  P  P17  1  0.73878394  0.23753860  0.05762434  1
  P  P18  1  0.45114163  0.25770595  0.75117406  1
  P  P19  1  0.94885988  0.74588650  0.54453916  1
  O  O20  1  0.24779781  0.92919896  0.11104550  1
  O  O21  1  0.15770782  0.62099795  0.02964947  1
  O  O22  1  0.94753127  0.56660926  0.41055330  1
  O  O23  1  0.15320552  0.86642742  0.51946493  1
  O  O24  1  0.14928155  0.25672176  0.24992476  1
  O  O25  1  0.57433362  0.90039544  0.21041516  1
  O  O26  1  0.15249384  0.74778481  0.82774088  1
  O  O27  1  0.39392249  0.59414700  0.19238983  1
  O  O28  1  0.15511298  0.19346871  0.51324896  1
  O  O29  1  0.50176475  0.77319097  0.46221078  1
  O  O30  1  0.74723807  0.70942713  0.14904019  1
  O  O31  1  0.46677027  0.76637763  0.81078359  1
  O  O32  1  0.53322973  0.23362237  0.18921641  1
  O  O33  1  0.25276193  0.29057287  0.85095981  1
  O  O34  1  0.49823525  0.22680903  0.53778922  1
  O  O35  1  0.84488702  0.80653129  0.48675104  1
  O  O36  1  0.60607751  0.40585300  0.80761017  1
  O  O37  1  0.84750616  0.25221519  0.17225912  1
  O  O38  1  0.42566638  0.09960456  0.78958484  1
  O  O39  1  0.85071845  0.74327824  0.75007524  1
  O  O40  1  0.84679448  0.13357258  0.48053507  1
  O  O41  1  0.05246873  0.43339074  0.58944670  1
  O  O42  1  0.84229218  0.37900205  0.97035053  1
  O  O43  1  0.75220219  0.07080104  0.88895450  1
