# generated using pymatgen
data_Li3FePCO7
_symmetry_space_group_name_H-M   'P 1'
_cell_length_a   5.03354485
_cell_length_b   6.42224910
_cell_length_c   8.93847198
_cell_angle_alpha   90.23467929
_cell_angle_beta   92.37843255
_cell_angle_gamma   89.90498642
_symmetry_Int_Tables_number   1
_chemical_formula_structural   Li3FePCO7
_chemical_formula_sum   'Li6 Fe2 P2 C2 O14'
_cell_volume   288.69944607
_cell_formula_units_Z   2
loop_
 _symmetry_equiv_pos_site_id
 _symmetry_equiv_pos_as_xyz
  1  'x, y, z'
loop_
 _atom_site_type_symbol
 _atom_site_label
 _atom_site_symmetry_multiplicity
 _atom_site_fract_x
 _atom_site_fract_y
 _atom_site_fract_z
 _atom_site_occupancy
  Li  Li0  1  0.00718776  0.47961725  0.29488276  1
  Li  Li1  1  0.00249799  0.02273631  0.29580692  1
  Li  Li2  1  0.63711162  0.53922269  0.73070731  1
  Li  Li3  1  0.63427149  0.96770406  0.72899171  1
  Li  Li4  1  0.30210243  0.46534188  0.97050702  1
  Li  Li5  1  0.30079008  0.03325365  0.97465558  1
  Fe  Fe6  1  0.59828855  0.75029266  0.37575109  1
  Fe  Fe7  1  0.05253791  0.24959515  0.65375008  1
  P  P8  1  0.50651874  0.25090237  0.45533884  1
  P  P9  1  0.12834332  0.74981776  0.60283523  1
  C  C10  1  0.86183552  0.24950964  0.00616437  1
  C  C11  1  0.55054911  0.74994842  0.08008375  1
  O  O12  1  0.78198708  0.74933375  0.14564399  1
  O  O13  1  0.33809078  0.75279950  0.15993429  1
  O  O14  1  0.96725350  0.25003513  0.13992266  1
  O  O15  1  0.63354548  0.05832465  0.38595396  1
  O  O16  1  0.62998559  0.44202073  0.38348931  1
  O  O17  1  0.03386740  0.74866494  0.43621101  1
  O  O18  1  0.19711235  0.24932182  0.43237567  1
  O  O19  1  0.43774648  0.75155219  0.61240999  1
  O  O20  1  0.56390002  0.25312879  0.63172103  1
  O  O21  1  0.02079135  0.55783184  0.68704133  1
  O  O22  1  0.01744407  0.94195032  0.68689850  1
  O  O23  1  0.51168872  0.74817522  0.93252590  1
  O  O24  1  0.03441883  0.24955967  0.89776237  1
  O  O25  1  0.60910784  0.24854661  0.97399334  1
