# generated using pymatgen
data_Li4V2(SiO4)3
_symmetry_space_group_name_H-M   'P 1'
_cell_length_a   8.92950981
_cell_length_b   8.92950981
_cell_length_c   8.47640702
_cell_angle_alpha   58.16797205
_cell_angle_beta   121.83202795
_cell_angle_gamma   119.99416442
_symmetry_Int_Tables_number   1
_chemical_formula_structural   Li4V2(SiO4)3
_chemical_formula_sum   'Li8 V4 Si6 O24'
_cell_volume   464.27117888
_cell_formula_units_Z   2
loop_
 _symmetry_equiv_pos_site_id
 _symmetry_equiv_pos_as_xyz
  1  'x, y, z'
loop_
 _atom_site_type_symbol
 _atom_site_label
 _atom_site_symmetry_multiplicity
 _atom_site_fract_x
 _atom_site_fract_y
 _atom_site_fract_z
 _atom_site_occupancy
  Li  Li0  1  0.25044877  0.83519846  0.75102310  1
  Li  Li1  1  0.16480154  0.74955123  0.25102310  1
  Li  Li2  1  0.00000000  0.50000000  0.00000000  1
  Li  Li3  1  0.66458338  0.66458338  0.75000000  1
  Li  Li4  1  0.33541662  0.33541662  0.25000000  1
  Li  Li5  1  0.83519846  0.25044877  0.74897690  1
  Li  Li6  1  0.50000000  0.00000000  0.50000000  1
  Li  Li7  1  0.74955123  0.16480154  0.24897690  1
  V  V8  1  0.63915863  0.86104737  0.91695441  1
  V  V9  1  0.13895263  0.36084137  0.41695441  1
  V  V10  1  0.86104737  0.63915863  0.58304559  1
  V  V11  1  0.36084137  0.13895263  0.08304559  1
  Si  Si12  1  0.24993205  0.53934039  0.74976676  1
  Si  Si13  1  0.96076205  0.96076205  0.75000000  1
  Si  Si14  1  0.46065961  0.75006795  0.24976676  1
  Si  Si15  1  0.53934039  0.24993205  0.75023324  1
  Si  Si16  1  0.03923795  0.03923795  0.25000000  1
  Si  Si17  1  0.75006795  0.46065961  0.25023324  1
  O  O18  1  0.13242300  0.99074438  0.95253286  1
  O  O19  1  0.00925562  0.86757700  0.45253286  1
  O  O20  1  0.08853919  0.55903315  0.77210793  1
  O  O21  1  0.41149930  0.74259341  0.72796573  1
  O  O22  1  0.31093273  0.36763480  0.95253263  1
  O  O23  1  0.18904541  0.50951989  0.54727393  1
  O  O24  1  0.75744878  0.94105104  0.72782744  1
  O  O25  1  0.44096685  0.91146081  0.27210793  1
  O  O26  1  0.25740659  0.58850070  0.22796573  1
  O  O27  1  0.63236520  0.68906727  0.45253263  1
  O  O28  1  0.49048011  0.81095459  0.04727393  1
  O  O29  1  0.94105104  0.75744878  0.77217256  1
  O  O30  1  0.05894896  0.24255122  0.22782744  1
  O  O31  1  0.50951989  0.18904541  0.95272607  1
  O  O32  1  0.36763480  0.31093273  0.54746737  1
  O  O33  1  0.74259341  0.41149930  0.77203427  1
  O  O34  1  0.55903315  0.08853919  0.72789207  1
  O  O35  1  0.24255122  0.05894896  0.27217256  1
  O  O36  1  0.81095459  0.49048011  0.45272607  1
  O  O37  1  0.68906727  0.63236520  0.04746737  1
  O  O38  1  0.58850070  0.25740659  0.27203427  1
  O  O39  1  0.91146081  0.44096685  0.22789207  1
  O  O40  1  0.99074438  0.13242300  0.54746714  1
  O  O41  1  0.86757700  0.00925562  0.04746714  1
