# generated using pymatgen
data_Na2VBPO7
_symmetry_space_group_name_H-M   'P 1'
_cell_length_a   9.16356626
_cell_length_b   6.51227803
_cell_length_c   5.43455992
_cell_angle_alpha   90.00000000
_cell_angle_beta   87.20278513
_cell_angle_gamma   90.00000000
_symmetry_Int_Tables_number   1
_chemical_formula_structural   Na2VBPO7
_chemical_formula_sum   'Na4 V2 B2 P2 O14'
_cell_volume   323.92470636
_cell_formula_units_Z   2
loop_
 _symmetry_equiv_pos_site_id
 _symmetry_equiv_pos_as_xyz
  1  'x, y, z'
loop_
 _atom_site_type_symbol
 _atom_site_label
 _atom_site_symmetry_multiplicity
 _atom_site_fract_x
 _atom_site_fract_y
 _atom_site_fract_z
 _atom_site_occupancy
  Na  Na0  1  0.20948288  0.99595135  0.23285898  1
  Na  Na1  1  0.20948288  0.50404865  0.23285898  1
  Na  Na2  1  0.79051712  0.49595135  0.76714102  1
  Na  Na3  1  0.79051712  0.00404865  0.76714102  1
  V  V4  1  0.34180164  0.75000000  0.77683450  1
  V  V5  1  0.65819836  0.25000000  0.22316550  1
  B  B6  1  0.07863682  0.75000000  0.73448807  1
  B  B7  1  0.92136318  0.25000000  0.26551193  1
  P  P8  1  0.43857891  0.25000000  0.73588656  1
  P  P9  1  0.56142109  0.75000000  0.26411344  1
  O  O10  1  0.05918536  0.25000000  0.31477470  1
  O  O11  1  0.14791516  0.75000000  0.95682327  1
  O  O12  1  0.20148449  0.75000000  0.54608224  1
  O  O13  1  0.34582760  0.05850882  0.80600378  1
  O  O14  1  0.34582760  0.44149118  0.80600378  1
  O  O15  1  0.42045297  0.75000000  0.11547673  1
  O  O16  1  0.48287372  0.25000000  0.45594711  1
  O  O17  1  0.51712628  0.75000000  0.54405289  1
  O  O18  1  0.57954703  0.25000000  0.88452327  1
  O  O19  1  0.65417240  0.55850882  0.19399622  1
  O  O20  1  0.65417240  0.94149118  0.19399622  1
  O  O21  1  0.79851551  0.25000000  0.45391776  1
  O  O22  1  0.85208484  0.25000000  0.04317673  1
  O  O23  1  0.94081464  0.75000000  0.68522530  1
