# generated using pymatgen
data_Rb2Ni2O3
_symmetry_space_group_name_H-M   'P 1'
_cell_length_a   11.71083648
_cell_length_b   6.15385500
_cell_length_c   7.96898725
_cell_angle_alpha   90.00001337
_cell_angle_beta   90.04055097
_cell_angle_gamma   90.00005733
_symmetry_Int_Tables_number   1
_chemical_formula_structural   Rb2Ni2O3
_chemical_formula_sum   'Rb8 Ni8 O12'
_cell_volume   574.29918372
_cell_formula_units_Z   4
loop_
 _symmetry_equiv_pos_site_id
 _symmetry_equiv_pos_as_xyz
  1  'x, y, z'
loop_
 _atom_site_type_symbol
 _atom_site_label
 _atom_site_symmetry_multiplicity
 _atom_site_fract_x
 _atom_site_fract_y
 _atom_site_fract_z
 _atom_site_occupancy
  Rb  Rb0  1  0.06266387  0.25000125  0.87136936  1
  Rb  Rb1  1  0.12458750  0.74999959  0.50598311  1
  Rb  Rb2  1  0.37542117  0.24999902  0.00559372  1
  Rb  Rb3  1  0.43728405  0.75000002  0.37167086  1
  Rb  Rb4  1  0.56259310  0.25000035  0.62849832  1
  Rb  Rb5  1  0.62460222  0.74999908  0.99394749  1
  Rb  Rb6  1  0.87541996  0.25000068  0.49444590  1
  Rb  Rb7  1  0.93736719  0.75000020  0.12837269  1
  Ni  Ni8  1  0.14749673  0.24999946  0.28409104  1
  Ni  Ni9  1  0.22590249  0.75000008  0.08997195  1
  Ni  Ni10  1  0.27405196  0.25000027  0.58965750  1
  Ni  Ni11  1  0.35274977  0.74999961  0.78376712  1
  Ni  Ni12  1  0.64741965  0.24999962  0.21580581  1
  Ni  Ni13  1  0.72598319  0.74999990  0.40992215  1
  Ni  Ni14  1  0.77407677  0.25000052  0.91032065  1
  Ni  Ni15  1  0.85281497  0.74999979  0.71628194  1
  O  O16  1  0.12285510  0.24999983  0.51502799  1
  O  O17  1  0.14870830  -0.00048317  0.15641505  1
  O  O18  1  0.14870846  0.50048215  0.15641459  1
  O  O19  1  0.35131044  0.00052041  0.65647907  1
  O  O20  1  0.35131063  0.49948061  0.65647893  1
  O  O21  1  0.37695150  0.74999989  0.01524588  1
  O  O22  1  0.62296014  0.25000027  0.98501096  1
  O  O23  1  0.64862610  -0.00052437  0.34364511  1
  O  O24  1  0.64862588  0.50052362  0.34364481  1
  O  O25  1  0.85123642  0.49949034  0.84356477  1
  O  O26  1  0.85123653  0.00051068  0.84356542  1
  O  O27  1  0.87703590  0.75000025  0.48480781  1
