# generated using pymatgen
data_Li4Cr3FeO8
_symmetry_space_group_name_H-M   'P 1'
_cell_length_a   5.12507918
_cell_length_b   5.88290659
_cell_length_c   10.60638015
_cell_angle_alpha   106.11181960
_cell_angle_beta   85.45337035
_cell_angle_gamma   73.30519038
_symmetry_Int_Tables_number   1
_chemical_formula_structural   Li4Cr3FeO8
_chemical_formula_sum   'Li8 Cr6 Fe2 O16'
_cell_volume   289.85005702
_cell_formula_units_Z   2
loop_
 _symmetry_equiv_pos_site_id
 _symmetry_equiv_pos_as_xyz
  1  'x, y, z'
loop_
 _atom_site_type_symbol
 _atom_site_label
 _atom_site_symmetry_multiplicity
 _atom_site_fract_x
 _atom_site_fract_y
 _atom_site_fract_z
 _atom_site_occupancy
  Li  Li0  1  0.99701195  0.12681924  0.75061586  1
  Li  Li1  1  0.00217140  0.99874117  0.99982048  1
  Li  Li2  1  0.00341702  0.24780891  0.49946558  1
  Li  Li3  1  0.99737689  0.37661244  0.25013252  1
  Li  Li4  1  0.00015335  0.62468388  0.75086338  1
  Li  Li5  1  0.00070374  0.49977621  0.99873085  1
  Li  Li6  1  0.99988959  0.75057533  0.49903865  1
  Li  Li7  1  0.99924825  0.87501767  0.25135291  1
  Cr  Cr8  1  0.49999559  0.06255650  0.87517064  1
  Cr  Cr9  1  0.50005692  0.18751262  0.62498794  1
  Cr  Cr10  1  0.49992880  0.31246215  0.37484877  1
  Cr  Cr11  1  0.49999614  0.43942719  0.12502465  1
  Cr  Cr12  1  0.50010498  0.68746900  0.62494422  1
  Cr  Cr13  1  0.49988517  0.93558874  0.12504713  1
  Fe  Fe14  1  0.50005840  0.56247383  0.87491688  1
  Fe  Fe15  1  0.49997723  0.81250322  0.37505920  1
  O  O16  1  0.27540780  0.08337595  0.31154309  1
  O  O17  1  0.72383253  0.03491763  0.43853500  1
  O  O18  1  0.27620533  0.34008363  0.81143566  1
  O  O19  1  0.72456417  0.29159383  0.93854689  1
  O  O20  1  0.72655378  0.16286533  0.18926159  1
  O  O21  1  0.27331696  0.21217465  0.06082630  1
  O  O22  1  0.27335994  0.46182453  0.56043645  1
  O  O23  1  0.72470577  0.41459616  0.69176297  1
  O  O24  1  0.27597813  0.59036047  0.31139375  1
  O  O25  1  0.72444389  0.54131786  0.43842781  1
  O  O26  1  0.27559543  0.83364662  0.81145032  1
  O  O27  1  0.72387426  0.78469575  0.93865252  1
  O  O28  1  0.27512261  0.71017535  0.05800873  1
  O  O29  1  0.27544597  0.96037877  0.55815696  1
  O  O30  1  0.72491467  0.66476009  0.19199549  1
  O  O31  1  0.72670435  0.91320630  0.68954882  1
