# generated using pymatgen
data_Li5MnO4
_symmetry_space_group_name_H-M   'P 1'
_cell_length_a   12.80422241
_cell_length_b   12.80422241
_cell_length_c   4.70173660
_cell_angle_alpha   90.00000000
_cell_angle_beta   90.00000000
_cell_angle_gamma   90.00000000
_symmetry_Int_Tables_number   1
_chemical_formula_structural   Li5MnO4
_chemical_formula_sum   'Li40 Mn8 O32'
_cell_volume   770.84083646
_cell_formula_units_Z   8
loop_
 _symmetry_equiv_pos_site_id
 _symmetry_equiv_pos_as_xyz
  1  'x, y, z'
loop_
 _atom_site_type_symbol
 _atom_site_label
 _atom_site_symmetry_multiplicity
 _atom_site_fract_x
 _atom_site_fract_y
 _atom_site_fract_z
 _atom_site_occupancy
  Li  Li0  1  0.98599524  0.01400476  0.25000000  1
  Li  Li1  1  0.01400476  0.98599524  0.75000000  1
  Li  Li2  1  0.98599524  0.48599524  0.25000000  1
  Li  Li3  1  0.01400476  0.51400476  0.75000000  1
  Li  Li4  1  0.10976045  0.35684869  0.80650162  1
  Li  Li5  1  0.10976045  0.14315131  0.80650162  1
  Li  Li6  1  0.12191831  0.62191831  0.25000000  1
  Li  Li7  1  0.12191831  0.87808169  0.25000000  1
  Li  Li8  1  0.14315131  0.10976045  0.30650162  1
  Li  Li9  1  0.14315131  0.39023955  0.30650162  1
  Li  Li10  1  0.25000000  0.25000000  0.35797771  1
  Li  Li11  1  0.25000000  0.75000000  0.75000000  1
  Li  Li12  1  0.25000000  0.75000000  0.25000000  1
  Li  Li13  1  0.25000000  0.25000000  0.85797771  1
  Li  Li14  1  0.35684869  0.10976045  0.30650162  1
  Li  Li15  1  0.35684869  0.39023955  0.30650162  1
  Li  Li16  1  0.37808169  0.62191831  0.25000000  1
  Li  Li17  1  0.37808169  0.87808169  0.25000000  1
  Li  Li18  1  0.39023955  0.14315131  0.80650162  1
  Li  Li19  1  0.39023955  0.35684869  0.80650162  1
  Li  Li20  1  0.51400476  0.48599524  0.25000000  1
  Li  Li21  1  0.48599524  0.51400476  0.75000000  1
  Li  Li22  1  0.51400476  0.01400476  0.25000000  1
  Li  Li23  1  0.48599524  0.98599524  0.75000000  1
  Li  Li24  1  0.60976045  0.64315131  0.19349838  1
  Li  Li25  1  0.60976045  0.85684869  0.19349838  1
  Li  Li26  1  0.62191831  0.12191831  0.75000000  1
  Li  Li27  1  0.62191831  0.37808169  0.75000000  1
  Li  Li28  1  0.64315131  0.60976045  0.69349838  1
  Li  Li29  1  0.64315131  0.89023955  0.69349838  1
  Li  Li30  1  0.75000000  0.25000000  0.25000000  1
  Li  Li31  1  0.75000000  0.25000000  0.75000000  1
  Li  Li32  1  0.75000000  0.75000000  0.14202229  1
  Li  Li33  1  0.75000000  0.75000000  0.64202229  1
  Li  Li34  1  0.85684869  0.60976045  0.69349838  1
  Li  Li35  1  0.85684869  0.89023955  0.69349838  1
  Li  Li36  1  0.87808169  0.12191831  0.75000000  1
  Li  Li37  1  0.87808169  0.37808169  0.75000000  1
  Li  Li38  1  0.89023955  0.64315131  0.19349838  1
  Li  Li39  1  0.89023955  0.85684869  0.19349838  1
  Mn  Mn40  1  0.02115888  0.75000000  0.71261304  1
  Mn  Mn41  1  0.25000000  0.52115888  0.78738696  1
  Mn  Mn42  1  0.25000000  0.97884112  0.78738696  1
  Mn  Mn43  1  0.47884112  0.75000000  0.71261304  1
  Mn  Mn44  1  0.52115888  0.25000000  0.28738696  1
  Mn  Mn45  1  0.75000000  0.02115888  0.21261304  1
  Mn  Mn46  1  0.75000000  0.47884112  0.21261304  1
  Mn  Mn47  1  0.97884112  0.25000000  0.28738696  1
  O  O48  1  0.00621303  0.12502690  0.51221664  1
  O  O49  1  0.00621303  0.37497310  0.51221664  1
  O  O50  1  0.12502690  0.00621303  0.01221664  1
  O  O51  1  0.12502690  0.49378697  0.01221664  1
  O  O52  1  0.12840461  0.25000000  0.09546403  1
  O  O53  1  0.12623612  0.75000000  0.00169450  1
  O  O54  1  0.25000000  0.12840461  0.59546403  1
  O  O55  1  0.25000000  0.62623612  0.49830550  1
  O  O56  1  0.25000000  0.87376388  0.49830550  1
  O  O57  1  0.25000000  0.37159539  0.59546403  1
  O  O58  1  0.37376388  0.75000000  0.00169450  1
  O  O59  1  0.37159539  0.25000000  0.09546403  1
  O  O60  1  0.37497310  0.49378697  0.01221664  1
  O  O61  1  0.37497310  0.00621303  0.01221664  1
  O  O62  1  0.49378697  0.12502690  0.51221664  1
  O  O63  1  0.49378697  0.37497310  0.51221664  1
  O  O64  1  0.50621303  0.62502690  0.48778336  1
  O  O65  1  0.50621303  0.87497310  0.48778336  1
  O  O66  1  0.62502690  0.99378697  0.98778336  1
  O  O67  1  0.62502690  0.50621303  0.98778336  1
  O  O68  1  0.62840461  0.75000000  0.90453597  1
  O  O69  1  0.62623612  0.25000000  0.99830550  1
  O  O70  1  0.75000000  0.12623612  0.50169450  1
  O  O71  1  0.75000000  0.37376388  0.50169450  1
  O  O72  1  0.75000000  0.62840461  0.40453597  1
  O  O73  1  0.75000000  0.87159539  0.40453597  1
  O  O74  1  0.87376388  0.25000000  0.99830550  1
  O  O75  1  0.87159539  0.75000000  0.90453597  1
  O  O76  1  0.87497310  0.99378697  0.98778336  1
  O  O77  1  0.87497310  0.50621303  0.98778336  1
  O  O78  1  0.99378697  0.62502690  0.48778336  1
  O  O79  1  0.99378697  0.87497310  0.48778336  1
