# generated using pymatgen
data_Li4Ti3Cr2Co3O16
_symmetry_space_group_name_H-M   'P 1'
_cell_length_a   5.85414239
_cell_length_b   5.89559431
_cell_length_c   9.57533431
_cell_angle_alpha   90.00281858
_cell_angle_beta   90.45090659
_cell_angle_gamma   120.21899575
_symmetry_Int_Tables_number   1
_chemical_formula_structural   Li4Ti3Cr2Co3O16
_chemical_formula_sum   'Li4 Ti3 Cr2 Co3 O16'
_cell_volume   285.55824935
_cell_formula_units_Z   1
loop_
 _symmetry_equiv_pos_site_id
 _symmetry_equiv_pos_as_xyz
  1  'x, y, z'
loop_
 _atom_site_type_symbol
 _atom_site_label
 _atom_site_symmetry_multiplicity
 _atom_site_fract_x
 _atom_site_fract_y
 _atom_site_fract_z
 _atom_site_occupancy
  Li  Li0  1  0.33876078  0.66967443  0.89041563  1
  Li  Li1  1  0.97829112  0.98913068  0.99412607  1
  Li  Li2  1  0.98692370  0.99317234  0.49838428  1
  Li  Li3  1  0.67282077  0.33625800  0.39674932  1
  Ti  Ti4  1  0.17332586  0.83461518  0.21448716  1
  Ti  Ti5  1  0.17293765  0.33860396  0.21440606  1
  Ti  Ti6  1  0.34430689  0.17222206  0.71681727  1
  Cr  Cr7  1  0.33564109  0.66769795  0.48546110  1
  Cr  Cr8  1  0.67195349  0.33606844  0.98246408  1
  Co  Co9  1  0.66171855  0.83069965  0.21200654  1
  Co  Co10  1  0.83638795  0.66376351  0.70936866  1
  Co  Co11  1  0.83651340  0.17289871  0.70929847  1
  O  O12  1  0.16833761  0.83875559  0.60092566  1
  O  O13  1  0.03995807  0.51996149  0.33693396  1
  O  O14  1  0.33517458  0.66754143  0.10538605  1
  O  O15  1  0.99240455  0.99616133  0.31041338  1
  O  O16  1  0.99745543  -0.00098117  0.80777133  1
  O  O17  1  0.16812412  0.32928641  0.60069356  1
  O  O18  1  0.47713852  0.96143348  0.34194319  1
  O  O19  1  0.47722187  0.51562756  0.34184979  1
  O  O20  1  0.32993091  0.16496394  0.10476266  1
  O  O21  1  0.66631382  0.83310110  0.60621689  1
  O  O22  1  0.51445250  0.47575968  0.84148838  1
  O  O23  1  0.51457930  0.03910449  0.84158929  1
  O  O24  1  0.66147255  0.33068309  0.60148097  1
  O  O25  1  0.84283429  0.67151836  0.10292305  1
  O  O26  1  0.96234421  0.48134367  0.83652434  1
  O  O27  1  0.84267544  0.17123461  0.10295184  1
