# generated using pymatgen
data_LaMgI5
_symmetry_space_group_name_H-M   'P 1'
_cell_length_a   8.81197094
_cell_length_b   15.40372404
_cell_length_c   11.94243389
_cell_angle_alpha   90.00000000
_cell_angle_beta   87.89580875
_cell_angle_gamma   90.00000000
_symmetry_Int_Tables_number   1
_chemical_formula_structural   LaMgI5
_chemical_formula_sum   'La4 Mg4 I20'
_cell_volume   1619.93911671
_cell_formula_units_Z   4
loop_
 _symmetry_equiv_pos_site_id
 _symmetry_equiv_pos_as_xyz
  1  'x, y, z'
loop_
 _atom_site_type_symbol
 _atom_site_label
 _atom_site_symmetry_multiplicity
 _atom_site_fract_x
 _atom_site_fract_y
 _atom_site_fract_z
 _atom_site_occupancy
  La  La0  1  0.01287292  0.60526851  0.58963833  1
  La  La1  1  0.49492012  0.21084814  0.10976148  1
  La  La2  1  0.50507988  0.71084814  0.89023852  1
  La  La3  1  0.98712708  0.10526851  0.41036167  1
  Mg  Mg4  1  0.03089380  0.15829707  0.05508219  1
  Mg  Mg5  1  0.47789051  0.54553119  0.59779536  1
  Mg  Mg6  1  0.52210949  0.04553119  0.40220464  1
  Mg  Mg7  1  0.96910620  0.65829707  0.94491781  1
  I  I8  1  0.00673264  0.73786642  0.40964188  1
  I  I9  1  0.01883684  0.50574851  0.83219250  1
  I  I10  1  0.14738941  0.25240673  0.23914898  1
  I  I11  1  0.24889377  0.47024396  0.48270111  1
  I  I12  1  0.27043071  0.19214327  0.90743359  1
  I  I13  1  0.25957461  0.00627830  0.52252552  1
  I  I14  1  0.22377676  0.69536809  0.06269346  1
  I  I15  1  0.34665707  0.71059748  0.64017324  1
  I  I16  1  0.47814719  0.00688605  0.18287144  1
  I  I17  1  0.46187253  0.90101629  0.86496034  1
  I  I18  1  0.53812747  0.40101629  0.13503966  1
  I  I19  1  0.52185281  0.50688605  0.81712856  1
  I  I20  1  0.65334293  0.21059748  0.35982676  1
  I  I21  1  0.77622324  0.19536809  0.93730654  1
  I  I22  1  0.74042539  0.50627830  0.47747448  1
  I  I23  1  0.72956929  0.69214327  0.09256641  1
  I  I24  1  0.75110623  0.97024396  0.51729889  1
  I  I25  1  0.85261059  0.75240673  0.76085102  1
  I  I26  1  0.98116316  0.00574851  0.16780750  1
  I  I27  1  0.99326736  0.23786642  0.59035812  1
