# generated using pymatgen
data_Mo9HS18
_symmetry_space_group_name_H-M   'P 1'
_cell_length_a   3.16808934
_cell_length_b   13.20517870
_cell_length_c   43.29767905
_cell_angle_alpha   90.00000000
_cell_angle_beta   89.99989605
_cell_angle_gamma   90.00000000
_symmetry_Int_Tables_number   1
_chemical_formula_structural   Mo9HS18
_chemical_formula_sum   'Mo18 H2 S36'
_cell_volume   1811.36645089
_cell_formula_units_Z   2
loop_
 _symmetry_equiv_pos_site_id
 _symmetry_equiv_pos_as_xyz
  1  'x, y, z'
loop_
 _atom_site_type_symbol
 _atom_site_label
 _atom_site_symmetry_multiplicity
 _atom_site_fract_x
 _atom_site_fract_y
 _atom_site_fract_z
 _atom_site_occupancy
  Mo  Mo0  1  0.00002462  0.12900000  0.29829091  1
  Mo  Mo1  1  0.00007445  0.62900000  0.12778512  1
  Mo  Mo2  1  0.50007783  0.62900000  0.19164773  1
  Mo  Mo3  1  0.00003459  0.12900000  0.17005453  1
  Mo  Mo4  1  0.00006766  0.62900000  0.25551406  1
  Mo  Mo5  1  0.50006237  0.62900000  0.06397100  1
  Mo  Mo6  1  0.00006076  0.62900000  0.38328110  1
  Mo  Mo7  1  0.00003974  0.12900000  0.04201813  1
  Mo  Mo8  1  0.00002771  0.12900000  0.42633742  1
  Mo  Mo9  1  0.50002785  0.12900000  0.36227881  1
  Mo  Mo10  1  0.50005620  0.62900000  0.44739458  1
  Mo  Mo11  1  0.50002770  0.12900000  0.23416124  1
  Mo  Mo12  1  0.00005740  0.62900000  0.50775424  1
  Mo  Mo13  1  0.50004291  0.12900000  0.10606073  1
  Mo  Mo14  1  0.50006894  0.62900000  0.31939436  1
  Mo  Mo15  1  0.00006383  0.62900000  0.99992762  1
  Mo  Mo16  1  0.50004985  0.12900000  0.98122241  1
  Mo  Mo17  1  0.50001964  0.12900000  0.48772469  1
  H  H18  1  0.00001579  0.22575060  0.54328325  1
  H  H19  1  0.00001579  0.03224940  0.54328325  1
  S  S20  1  0.50006568  0.51450032  0.97762833  1
  S  S21  1  0.50002392  0.24756020  0.31972992  1
  S  S22  1  0.00005644  0.74716355  0.42587654  1
  S  S23  1  0.00004475  0.24758328  0.12741942  1
  S  S24  1  0.50003685  0.24735543  0.06346461  1
  S  S25  1  0.50007352  0.51024631  0.10638464  1
  S  S26  1  0.50002392  0.01043980  0.31972992  1
  S  S27  1  0.00001698  0.24926541  0.51264655  1
  S  S28  1  0.00004475  0.01041672  0.12741942  1
  S  S29  1  0.00008386  0.74765293  0.17025626  1
  S  S30  1  0.50002726  0.25077551  0.44717184  1
  S  S31  1  0.50007352  0.74775369  0.10638464  1
  S  S32  1  0.50006568  0.74349968  0.97762833  1
  S  S33  1  0.50006307  0.51039728  0.36192012  1
  S  S34  1  0.00005644  0.51083645  0.42587654  1
  S  S35  1  0.50007129  0.74765546  0.23412416  1
  S  S36  1  0.00001698  0.00873459  0.51264655  1
  S  S37  1  0.50006103  0.50759355  0.49064505  1
  S  S38  1  0.00002554  0.24749979  0.25562189  1
  S  S39  1  0.50003409  0.24753566  0.19147974  1
  S  S40  1  0.00002784  0.24740578  0.38367274  1
  S  S41  1  0.00004758  0.00824394  0.99881667  1
  S  S42  1  0.50006103  0.75040645  0.49064505  1
  S  S43  1  0.50007129  0.51034454  0.23412416  1
  S  S44  1  0.50006307  0.74760272  0.36192012  1
  S  S45  1  0.00006110  0.51048579  0.04240458  1
  S  S46  1  0.00008386  0.51034707  0.17025626  1
  S  S47  1  0.00002554  0.01050021  0.25562189  1
  S  S48  1  0.50003685  0.01064457  0.06346461  1
  S  S49  1  0.00007141  0.74764152  0.29801436  1
  S  S50  1  0.50003409  0.01046434  0.19147974  1
  S  S51  1  0.00007141  0.51035848  0.29801436  1
  S  S52  1  0.00002784  0.01059422  0.38367274  1
  S  S53  1  0.50002726  0.00722449  0.44717184  1
  S  S54  1  0.00004758  0.24975606  0.99881667  1
  S  S55  1  0.00006110  0.74751421  0.04240458  1
