# generated using pymatgen
data_Li5Cu5(SnO6)2
_symmetry_space_group_name_H-M   'P 1'
_cell_length_a   5.18039917
_cell_length_b   5.18039872
_cell_length_c   9.99936557
_cell_angle_alpha   88.85384032
_cell_angle_beta   91.14615709
_cell_angle_gamma   65.69891016
_symmetry_Int_Tables_number   1
_chemical_formula_structural   Li5Cu5(SnO6)2
_chemical_formula_sum   'Li5 Cu5 Sn2 O12'
_cell_volume   244.40507742
_cell_formula_units_Z   1
loop_
 _symmetry_equiv_pos_site_id
 _symmetry_equiv_pos_as_xyz
  1  'x, y, z'
loop_
 _atom_site_type_symbol
 _atom_site_label
 _atom_site_symmetry_multiplicity
 _atom_site_fract_x
 _atom_site_fract_y
 _atom_site_fract_z
 _atom_site_occupancy
  Li  Li0  1  0.16594149  0.67786854  0.50456688  1
  Li  Li1  1  0.30931087  0.85295464  0.99033628  1
  Li  Li2  1  0.67786854  0.16594149  0.99543312  1
  Li  Li3  1  0.85295464  0.30931087  0.50966372  1
  Li  Li4  1  0.90612059  0.90612059  0.75000000  1
  Cu  Cu5  1  0.08224318  0.08224318  0.25000000  1
  Cu  Cu6  1  0.98897847  0.52094628  0.99548740  1
  Cu  Cu7  1  0.52094628  0.98897847  0.50451260  1
  Cu  Cu8  1  0.41426072  0.41426072  0.25000000  1
  Cu  Cu9  1  0.58701863  0.58701863  0.75000000  1
  Sn  Sn10  1  0.24666873  0.24666873  0.75000000  1
  Sn  Sn11  1  0.74843641  0.74843641  0.25000000  1
  O  O12  1  0.97336178  0.22231096  0.88988456  1
  O  O13  1  0.22231096  0.97336178  0.61011544  1
  O  O14  1  0.09566663  0.40490668  0.34949366  1
  O  O15  1  0.40490668  0.09566663  0.15050634  1
  O  O16  1  0.29901484  0.54969181  0.86756723  1
  O  O17  1  0.54969181  0.29901484  0.63243277  1
  O  O18  1  0.46361588  0.68668423  0.37334408  1
  O  O19  1  0.68668423  0.46361588  0.12665592  1
  O  O20  1  0.58028211  0.90114874  0.85493135  1
  O  O21  1  0.90114874  0.58028211  0.64506865  1
  O  O22  1  0.81188726  0.01067750  0.38657466  1
  O  O23  1  0.01067750  0.81188726  0.11342534  1
