# generated using pymatgen
data_LiVBO4
_symmetry_space_group_name_H-M   'P 1'
_cell_length_a   8.03759606
_cell_length_b   8.03759563
_cell_length_c   8.03759554
_cell_angle_alpha   106.60051823
_cell_angle_beta   106.60052374
_cell_angle_gamma   106.60051447
_symmetry_Int_Tables_number   1
_chemical_formula_structural   LiVBO4
_chemical_formula_sum   'Li6 V6 B6 O24'
_cell_volume   437.06517194
_cell_formula_units_Z   6
loop_
 _symmetry_equiv_pos_site_id
 _symmetry_equiv_pos_as_xyz
  1  'x, y, z'
loop_
 _atom_site_type_symbol
 _atom_site_label
 _atom_site_symmetry_multiplicity
 _atom_site_fract_x
 _atom_site_fract_y
 _atom_site_fract_z
 _atom_site_occupancy
  Li  Li0  1  0.08453303  0.47556166  0.23606814  1
  Li  Li1  1  0.52443834  0.76393186  0.91546697  1
  Li  Li2  1  0.76393186  0.91546697  0.52443834  1
  Li  Li3  1  0.23606814  0.08453303  0.47556166  1
  Li  Li4  1  0.47556166  0.23606814  0.08453303  1
  Li  Li5  1  0.91546697  0.52443834  0.76393186  1
  V  V6  1  0.13714292  0.85250847  0.70243591  1
  V  V7  1  0.29756409  0.86285708  0.14749153  1
  V  V8  1  0.14749153  0.29756409  0.86285708  1
  V  V9  1  0.85250847  0.70243591  0.13714292  1
  V  V10  1  0.70243591  0.13714292  0.85250847  1
  V  V11  1  0.86285708  0.14749153  0.29756409  1
  B  B12  1  0.38350587  0.76875962  0.54544554  1
  B  B13  1  0.23124038  0.45455446  0.61649413  1
  B  B14  1  0.45455446  0.61649413  0.23124038  1
  B  B15  1  0.54544554  0.38350587  0.76875962  1
  B  B16  1  0.76875962  0.54544554  0.38350587  1
  B  B17  1  0.61649413  0.23124038  0.45455446  1
  O  O18  1  0.29385465  0.95098334  0.95178639  1
  O  O19  1  0.04821361  0.70614535  0.04901666  1
  O  O20  1  0.26225618  0.87873357  0.54847416  1
  O  O21  1  0.45152584  0.73774382  0.12126643  1
  O  O22  1  0.58690937  0.90844767  0.65493120  1
  O  O23  1  0.34549904  0.66447880  0.34752763  1
  O  O24  1  0.12126643  0.45152584  0.73774382  1
  O  O25  1  0.33552120  0.65247237  0.65450096  1
  O  O26  1  0.09155233  0.34506880  0.41309063  1
  O  O27  1  0.34506880  0.41309063  0.09155233  1
  O  O28  1  0.65247237  0.65450096  0.33552120  1
  O  O29  1  0.04901666  0.04821361  0.70614535  1
  O  O30  1  0.95098334  0.95178639  0.29385465  1
  O  O31  1  0.34752763  0.34549904  0.66447880  1
  O  O32  1  0.65493120  0.58690937  0.90844767  1
  O  O33  1  0.90844767  0.65493120  0.58690937  1
  O  O34  1  0.66447880  0.34752763  0.34549904  1
  O  O35  1  0.87873357  0.54847416  0.26225618  1
  O  O36  1  0.65450096  0.33552120  0.65247237  1
  O  O37  1  0.41309063  0.09155233  0.34506880  1
  O  O38  1  0.54847416  0.26225618  0.87873357  1
  O  O39  1  0.73774382  0.12126643  0.45152584  1
  O  O40  1  0.95178639  0.29385465  0.95098334  1
  O  O41  1  0.70614535  0.04901666  0.04821361  1
