# generated using pymatgen
data_Li2AlVO4
_symmetry_space_group_name_H-M   'P 1'
_cell_length_a   6.44350647
_cell_length_b   11.07945890
_cell_length_c   4.99265576
_cell_angle_alpha   90.00000000
_cell_angle_beta   90.00000000
_cell_angle_gamma   90.00000000
_symmetry_Int_Tables_number   1
_chemical_formula_structural   Li2AlVO4
_chemical_formula_sum   'Li8 Al4 V4 O16'
_cell_volume   356.42851609
_cell_formula_units_Z   4
loop_
 _symmetry_equiv_pos_site_id
 _symmetry_equiv_pos_as_xyz
  1  'x, y, z'
loop_
 _atom_site_type_symbol
 _atom_site_label
 _atom_site_symmetry_multiplicity
 _atom_site_fract_x
 _atom_site_fract_y
 _atom_site_fract_z
 _atom_site_occupancy
  Li  Li0  1  0.00341016  0.83099542  0.75320910  1
  Li  Li1  1  0.24858321  0.08791819  0.75450822  1
  Li  Li2  1  0.25141679  0.58791819  0.75450822  1
  Li  Li3  1  0.49658984  0.33099542  0.75320910  1
  Li  Li4  1  0.50341016  0.66900458  0.25320910  1
  Li  Li5  1  0.74858321  0.41208181  0.25450822  1
  Li  Li6  1  0.75141679  0.91208181  0.25450822  1
  Li  Li7  1  0.99658984  0.16900458  0.25320910  1
  Al  Al8  1  0.00523887  0.66798854  0.26070932  1
  Al  Al9  1  0.49476113  0.16798854  0.26070932  1
  Al  Al10  1  0.50523887  0.83201146  0.76070932  1
  Al  Al11  1  0.99476113  0.33201146  0.76070932  1
  V  V12  1  0.24554973  0.41739216  0.25369435  1
  V  V13  1  0.25445027  0.91739216  0.25369435  1
  V  V14  1  0.74554973  0.08260784  0.75369435  1
  V  V15  1  0.75445027  0.58260784  0.75369435  1
  O  O16  1  0.00403612  0.33546424  0.11885532  1
  O  O17  1  0.01261471  0.82234935  0.15703843  1
  O  O18  1  0.26631219  0.08707518  0.15883214  1
  O  O19  1  0.22453089  0.40741772  0.64627911  1
  O  O20  1  0.27546911  0.90741772  0.64627911  1
  O  O21  1  0.23368781  0.58707518  0.15883214  1
  O  O22  1  0.48738529  0.32234935  0.15703843  1
  O  O23  1  0.49596388  0.83546424  0.11885532  1
  O  O24  1  0.50403612  0.16453576  0.61885532  1
  O  O25  1  0.51261471  0.67765065  0.65703843  1
  O  O26  1  0.76631219  0.41292482  0.65883214  1
  O  O27  1  0.72453089  0.09258228  0.14627911  1
  O  O28  1  0.77546911  0.59258228  0.14627911  1
  O  O29  1  0.73368781  0.91292482  0.65883214  1
  O  O30  1  0.98738529  0.17765065  0.65703843  1
  O  O31  1  0.99596388  0.66453576  0.61885532  1
