# generated using pymatgen
data_Li4Cr3FeO8
_symmetry_space_group_name_H-M   'P 1'
_cell_length_a   5.12331303
_cell_length_b   5.88650982
_cell_length_c   10.19457918
_cell_angle_alpha   90.05442899
_cell_angle_beta   80.45899683
_cell_angle_gamma   73.28902420
_symmetry_Int_Tables_number   1
_chemical_formula_structural   Li4Cr3FeO8
_chemical_formula_sum   'Li8 Cr6 Fe2 O16'
_cell_volume   290.00985193
_cell_formula_units_Z   2
loop_
 _symmetry_equiv_pos_site_id
 _symmetry_equiv_pos_as_xyz
  1  'x, y, z'
loop_
 _atom_site_type_symbol
 _atom_site_label
 _atom_site_symmetry_multiplicity
 _atom_site_fract_x
 _atom_site_fract_y
 _atom_site_fract_z
 _atom_site_occupancy
  Li  Li0  1  0.00033113  0.00089447  0.99854998  1
  Li  Li1  1  0.99802149  0.00147202  0.49972368  1
  Li  Li2  1  0.00000000  0.25000000  0.25000000  1
  Li  Li3  1  0.00000000  0.25000000  0.75000000  1
  Li  Li4  1  0.00197851  0.49852798  0.00027632  1
  Li  Li5  1  0.99966887  0.49910553  0.50145002  1
  Li  Li6  1  0.00000000  0.75000000  0.25000000  1
  Li  Li7  1  0.00000000  0.75000000  0.75000000  1
  Cr  Cr8  1  0.49994941  0.12592685  0.37659271  1
  Cr  Cr9  1  0.50005059  0.37407315  0.12340729  1
  Cr  Cr10  1  0.49997770  0.62404240  0.37671844  1
  Cr  Cr11  1  0.49978533  0.62355994  0.87328541  1
  Cr  Cr12  1  0.50002330  0.87595760  0.12328156  1
  Cr  Cr13  1  0.50021467  0.87644006  0.62671359  1
  Fe  Fe14  1  0.50012942  0.12563089  0.87377369  1
  Fe  Fe15  1  0.49987058  0.37436911  0.62622631  1
  O  O16  1  0.27597425  0.18154298  0.05664491  1
  O  O17  1  0.27624588  0.18444815  0.56247932  1
  O  O18  1  0.72636082  0.06850949  0.18945495  1
  O  O19  1  0.72116796  0.07403631  0.69150550  1
  O  O20  1  0.27363918  0.43149051  0.31054605  1
  O  O21  1  0.72402475  0.31845802  0.44335609  1
  O  O22  1  0.27883104  0.42596469  0.80849550  1
  O  O23  1  0.72375312  0.31555285  0.93752068  1
  O  O24  1  0.27344469  0.68147351  0.05951104  1
  O  O25  1  0.72619223  0.56813245  0.18929305  1
  O  O26  1  0.27608854  0.67775120  0.56314092  1
  O  O27  1  0.72374899  0.56538349  0.68845017  1
  O  O28  1  0.27380677  0.93186755  0.31070695  1
  O  O29  1  0.72655531  0.81852649  0.44048896  1
  O  O30  1  0.27625201  0.93461551  0.81154983  1
  O  O31  1  0.72391246  0.82224780  0.93685908  1
