# generated using pymatgen
data_Li3Al2VO6
_symmetry_space_group_name_H-M   'P 1'
_cell_length_a   5.88392612
_cell_length_b   10.19680962
_cell_length_c   8.18313264
_cell_angle_alpha   90.00000000
_cell_angle_beta   88.93943667
_cell_angle_gamma   90.00000000
_symmetry_Int_Tables_number   1
_chemical_formula_structural   Li3Al2VO6
_chemical_formula_sum   'Li12 Al8 V4 O24'
_cell_volume   490.88154672
_cell_formula_units_Z   4
loop_
 _symmetry_equiv_pos_site_id
 _symmetry_equiv_pos_as_xyz
  1  'x, y, z'
loop_
 _atom_site_type_symbol
 _atom_site_label
 _atom_site_symmetry_multiplicity
 _atom_site_fract_x
 _atom_site_fract_y
 _atom_site_fract_z
 _atom_site_occupancy
  Li  Li0  1  0.15718641  0.99486723  0.64027796  1
  Li  Li1  1  0.18283482  0.65559921  0.62316912  1
  Li  Li2  1  0.14577904  0.99863505  0.11362755  1
  Li  Li3  1  0.31716518  0.15559921  0.87683088  1
  Li  Li4  1  0.35422096  0.49863505  0.38637245  1
  Li  Li5  1  0.34281359  0.49486723  0.85972204  1
  Li  Li6  1  0.65718641  0.50513277  0.14027796  1
  Li  Li7  1  0.64577904  0.50136495  0.61362755  1
  Li  Li8  1  0.68283482  0.84440079  0.12316912  1
  Li  Li9  1  0.85422096  0.00136495  0.88637245  1
  Li  Li10  1  0.81716518  0.34440079  0.37683088  1
  Li  Li11  1  0.84281359  0.00513277  0.35972204  1
  Al  Al12  1  0.16609553  0.33482898  0.62194142  1
  Al  Al13  1  0.17253306  0.66349944  0.12616481  1
  Al  Al14  1  0.33390447  0.83482898  0.87805858  1
  Al  Al15  1  0.32746694  0.16349944  0.37383519  1
  Al  Al16  1  0.67253306  0.83650056  0.62616481  1
  Al  Al17  1  0.66609553  0.16517102  0.12194142  1
  Al  Al18  1  0.82746694  0.33650056  0.87383519  1
  Al  Al19  1  0.83390447  0.66517102  0.37805858  1
  V  V20  1  0.16085816  0.33613623  0.12601947  1
  V  V21  1  0.33914184  0.83613623  0.37398053  1
  V  V22  1  0.66085816  0.16386377  0.62601947  1
  V  V23  1  0.83914184  0.66386377  0.87398053  1
  O  O24  1  0.13652625  0.32848382  0.86844489  1
  O  O25  1  0.14822822  0.67988924  0.36168614  1
  O  O26  1  0.18686118  0.98258053  0.87721471  1
  O  O27  1  0.19510711  0.00446028  0.37176426  1
  O  O28  1  0.15911377  0.31262086  0.38217745  1
  O  O29  1  0.17168960  0.67802981  0.88851564  1
  O  O30  1  0.32831040  0.17802981  0.61148436  1
  O  O31  1  0.34088623  0.81262086  0.11782255  1
  O  O32  1  0.30489289  0.50446028  0.12823574  1
  O  O33  1  0.31313882  0.48258053  0.62278529  1
  O  O34  1  0.36347375  0.82848382  0.63155511  1
  O  O35  1  0.35177178  0.17988924  0.13831386  1
  O  O36  1  0.64822822  0.82011076  0.86168614  1
  O  O37  1  0.63652625  0.17151618  0.36844489  1
  O  O38  1  0.68686118  0.51741947  0.37721471  1
  O  O39  1  0.69510711  0.49553972  0.87176426  1
  O  O40  1  0.65911377  0.18737914  0.88217745  1
  O  O41  1  0.67168960  0.82197019  0.38851564  1
  O  O42  1  0.82831040  0.32197019  0.11148436  1
  O  O43  1  0.84088623  0.68737914  0.61782255  1
  O  O44  1  0.80489289  0.99553972  0.62823574  1
  O  O45  1  0.81313882  0.01741947  0.12278529  1
  O  O46  1  0.85177178  0.32011076  0.63831386  1
  O  O47  1  0.86347375  0.67151618  0.13155511  1
