# generated using pymatgen
data_RbFeO2
_symmetry_space_group_name_H-M   'P 1'
_cell_length_a   6.28779408
_cell_length_b   6.28779408
_cell_length_c   5.38747514
_cell_angle_alpha   69.46115032
_cell_angle_beta   110.53884968
_cell_angle_gamma   77.64447916
_symmetry_Int_Tables_number   1
_chemical_formula_structural   RbFeO2
_chemical_formula_sum   'Rb2 Fe2 O4'
_cell_volume   172.43305767
_cell_formula_units_Z   2
loop_
 _symmetry_equiv_pos_site_id
 _symmetry_equiv_pos_as_xyz
  1  'x, y, z'
loop_
 _atom_site_type_symbol
 _atom_site_label
 _atom_site_symmetry_multiplicity
 _atom_site_fract_x
 _atom_site_fract_y
 _atom_site_fract_z
 _atom_site_occupancy
  Rb  Rb0  1  0.35256200  0.35256200  0.75000000  1
  Rb  Rb1  1  0.64743800  0.64743800  0.25000000  1
  Fe  Fe2  1  0.98157355  0.98157355  0.75000000  1
  Fe  Fe3  1  0.01842645  0.01842645  0.25000000  1
  O  O4  1  0.24926292  0.93599138  0.64817704  1
  O  O5  1  0.06400862  0.75073708  0.14817704  1
  O  O6  1  0.93599138  0.24926292  0.85182296  1
  O  O7  1  0.75073708  0.06400862  0.35182296  1
