# generated using pymatgen
data_Li2AlVO4
_symmetry_space_group_name_H-M   'P 1'
_cell_length_a   11.07008977
_cell_length_b   5.08771086
_cell_length_c   6.49137228
_cell_angle_alpha   90.00006372
_cell_angle_beta   89.99993902
_cell_angle_gamma   90.00023034
_symmetry_Int_Tables_number   1
_chemical_formula_structural   Li2AlVO4
_chemical_formula_sum   'Li8 Al4 V4 O16'
_cell_volume   365.60327823
_cell_formula_units_Z   4
loop_
 _symmetry_equiv_pos_site_id
 _symmetry_equiv_pos_as_xyz
  1  'x, y, z'
loop_
 _atom_site_type_symbol
 _atom_site_label
 _atom_site_symmetry_multiplicity
 _atom_site_fract_x
 _atom_site_fract_y
 _atom_site_fract_z
 _atom_site_occupancy
  Li  Li0  1  0.08082328  0.74443506  0.86900333  1
  Li  Li1  1  0.16363010  0.19060656  0.11730182  1
  Li  Li2  1  0.33636904  0.69060776  0.61730151  1
  Li  Li3  1  0.41917579  0.24443496  0.36900389  1
  Li  Li4  1  0.58082307  0.75556336  0.86900328  1
  Li  Li5  1  0.66362977  0.30939056  0.11730173  1
  Li  Li6  1  0.83636897  0.80939162  0.61730311  1
  Li  Li7  1  0.91917607  0.25556239  0.36900257  1
  Al  Al8  1  0.08530486  0.68426342  0.36649293  1
  Al  Al9  1  0.41469623  0.18426345  0.86649263  1
  Al  Al10  1  0.58530240  0.81573702  0.36649362  1
  Al  Al11  1  0.91469543  0.31573484  0.86649427  1
  V  V12  1  0.16823367  0.18849643  0.61959507  1
  V  V13  1  0.33177172  0.68849754  0.11959572  1
  V  V14  1  0.66823039  0.31151344  0.61960039  1
  V  V15  1  0.83177381  0.81150365  0.11959479  1
  O  O16  1  0.07148722  0.24685676  0.86068506  1
  O  O17  1  0.09468951  0.33308289  0.37500142  1
  O  O18  1  0.15859859  0.80372159  0.59255932  1
  O  O19  1  0.16337215  0.79365698  0.14145608  1
  O  O20  1  0.33662595  0.29365863  0.64145561  1
  O  O21  1  0.34140058  0.30372046  0.09255982  1
  O  O22  1  0.40530969  0.83308313  0.87500323  1
  O  O23  1  0.42851155  0.74685747  0.36068396  1
  O  O24  1  0.57148948  0.25314631  0.86068274  1
  O  O25  1  0.59468937  0.16691736  0.37500415  1
  O  O26  1  0.65859912  0.69627953  0.59255929  1
  O  O27  1  0.66337212  0.70634114  0.14145686  1
  O  O28  1  0.83662729  0.20634104  0.64145442  1
  O  O29  1  0.84140102  0.19627396  0.09255949  1
  O  O30  1  0.90530980  0.66691769  0.87500417  1
  O  O31  1  0.92851196  0.75314299  0.36068971  1
