# generated using pymatgen
data_Li3V(CoO2)4
_symmetry_space_group_name_H-M   'P 1'
_cell_length_a   5.90545697
_cell_length_b   5.90545672
_cell_length_c   5.90106277
_cell_angle_alpha   91.81127600
_cell_angle_beta   61.03734740
_cell_angle_gamma   61.01786024
_symmetry_Int_Tables_number   1
_chemical_formula_structural   Li3V(CoO2)4
_chemical_formula_sum   'Li3 V1 Co4 O8'
_cell_volume   147.67287500
_cell_formula_units_Z   1
loop_
 _symmetry_equiv_pos_site_id
 _symmetry_equiv_pos_as_xyz
  1  'x, y, z'
loop_
 _atom_site_type_symbol
 _atom_site_label
 _atom_site_symmetry_multiplicity
 _atom_site_fract_x
 _atom_site_fract_y
 _atom_site_fract_z
 _atom_site_occupancy
  Li  Li0  1  0.00000000  0.00000000  0.50000000  1
  Li  Li1  1  0.50000000  0.00000000  0.50000000  1
  Li  Li2  1  0.50000000  0.50000000  0.50000000  1
  V  V3  1  0.50000000  0.50000000  0.00000000  1
  Co  Co4  1  0.00000000  0.50000000  0.50000000  1
  Co  Co5  1  0.00000000  0.00000000  0.00000000  1
  Co  Co6  1  0.50000000  0.00000000  0.00000000  1
  Co  Co7  1  0.00000000  0.50000000  0.00000000  1
  O  O8  1  0.49953777  0.26965128  0.77011351  1
  O  O9  1  0.97815790  0.25688411  0.75804262  1
  O  O10  1  0.49884149  0.73620052  0.75804262  1
  O  O11  1  0.98857079  0.74971369  0.76114290  1
  O  O12  1  0.01142921  0.25028631  0.23885710  1
  O  O13  1  0.50115851  0.26379948  0.24195738  1
  O  O14  1  0.02184210  0.74311589  0.24195738  1
  O  O15  1  0.50046223  0.73034872  0.22988649  1
