# generated using pymatgen
data_Na3CuBSO7
_symmetry_space_group_name_H-M   'P 1'
_cell_length_a   8.76833918
_cell_length_b   7.22585921
_cell_length_c   5.12741458
_cell_angle_alpha   90.00000000
_cell_angle_beta   88.90034954
_cell_angle_gamma   90.00000000
_symmetry_Int_Tables_number   1
_chemical_formula_structural   Na3CuBSO7
_chemical_formula_sum   'Na6 Cu2 B2 S2 O14'
_cell_volume   324.80692412
_cell_formula_units_Z   2
loop_
 _symmetry_equiv_pos_site_id
 _symmetry_equiv_pos_as_xyz
  1  'x, y, z'
loop_
 _atom_site_type_symbol
 _atom_site_label
 _atom_site_symmetry_multiplicity
 _atom_site_fract_x
 _atom_site_fract_y
 _atom_site_fract_z
 _atom_site_occupancy
  Na  Na0  1  0.07203256  0.25000000  0.75772263  1
  Na  Na1  1  0.24957039  0.99478210  0.24921355  1
  Na  Na2  1  0.24957039  0.50521790  0.24921355  1
  Na  Na3  1  0.75042961  0.49478210  0.75078645  1
  Na  Na4  1  0.75042961  0.00521790  0.75078645  1
  Na  Na5  1  0.92796744  0.75000000  0.24227737  1
  Cu  Cu6  1  0.33833608  0.75000000  0.77698795  1
  Cu  Cu7  1  0.66166392  0.25000000  0.22301205  1
  B  B8  1  0.06470804  0.75000000  0.73529128  1
  B  B9  1  0.93529196  0.25000000  0.26470872  1
  S  S10  1  0.41618244  0.25000000  0.70701324  1
  S  S11  1  0.58381756  0.75000000  0.29298676  1
  O  O12  1  0.08867739  0.25000000  0.28434496  1
  O  O13  1  0.14141063  0.75000000  0.97192434  1
  O  O14  1  0.16747758  0.75000000  0.52385749  1
  O  O15  1  0.32424501  0.08376685  0.77536777  1
  O  O16  1  0.32424501  0.41623315  0.77536777  1
  O  O17  1  0.45170376  0.25000000  0.41654329  1
  O  O18  1  0.43493770  0.75000000  0.15548027  1
  O  O19  1  0.56506230  0.25000000  0.84451973  1
  O  O20  1  0.54829624  0.75000000  0.58345671  1
  O  O21  1  0.67575499  0.58376685  0.22463223  1
  O  O22  1  0.67575499  0.91623315  0.22463223  1
  O  O23  1  0.83252242  0.25000000  0.47614251  1
  O  O24  1  0.85858937  0.25000000  0.02807566  1
  O  O25  1  0.91132261  0.75000000  0.71565504  1
