# generated using pymatgen
data_LiVBO4
_symmetry_space_group_name_H-M   'P 1'
_cell_length_a   8.20472671
_cell_length_b   8.20472624
_cell_length_c   8.20472672
_cell_angle_alpha   107.61398230
_cell_angle_beta   107.61398808
_cell_angle_gamma   107.61398217
_symmetry_Int_Tables_number   1
_chemical_formula_structural   LiVBO4
_chemical_formula_sum   'Li6 V6 B6 O24'
_cell_volume   452.05371573
_cell_formula_units_Z   6
loop_
 _symmetry_equiv_pos_site_id
 _symmetry_equiv_pos_as_xyz
  1  'x, y, z'
loop_
 _atom_site_type_symbol
 _atom_site_label
 _atom_site_symmetry_multiplicity
 _atom_site_fract_x
 _atom_site_fract_y
 _atom_site_fract_z
 _atom_site_occupancy
  Li  Li0  1  0.54657007  0.94248083  0.75800518  1
  Li  Li1  1  0.22154508  0.45453071  0.05519612  1
  Li  Li2  1  0.05519612  0.22154508  0.45453071  1
  Li  Li3  1  0.94248083  0.75800518  0.54657007  1
  Li  Li4  1  0.75800518  0.54657007  0.94248083  1
  Li  Li5  1  0.45453071  0.05519612  0.22154508  1
  V  V6  1  0.10449376  0.86821784  0.27926131  1
  V  V7  1  0.57351252  0.78876063  0.38549589  1
  V  V8  1  0.38549589  0.57351252  0.78876063  1
  V  V9  1  0.27926131  0.10449376  0.86821784  1
  V  V10  1  0.78876063  0.38549589  0.57351252  1
  V  V11  1  0.86821784  0.27926131  0.10449376  1
  B  B12  1  0.12861549  0.72091516  0.90405905  1
  B  B13  1  0.21365321  0.61663716  0.42635672  1
  B  B14  1  0.72091516  0.90405905  0.12861549  1
  B  B15  1  0.61663716  0.42635672  0.21365321  1
  B  B16  1  0.42635672  0.21365321  0.61663716  1
  B  B17  1  0.90405905  0.12861549  0.72091516  1
  O  O18  1  0.03974639  0.70959460  0.03726684  1
  O  O19  1  0.25016679  0.92308794  0.95909770  1
  O  O20  1  0.10901747  0.73643612  0.42386110  1
  O  O21  1  0.07416869  0.41276198  0.34016542  1
  O  O22  1  0.35401672  0.67666717  0.61979627  1
  O  O23  1  0.24443127  0.61136884  0.91703694  1
  O  O24  1  0.61136884  0.91703694  0.24443127  1
  O  O25  1  0.32212160  0.64742036  0.31185372  1
  O  O26  1  0.70963365  0.97476505  0.62981463  1
  O  O27  1  0.62981463  0.70963365  0.97476505  1
  O  O28  1  0.31185372  0.32212160  0.64742036  1
  O  O29  1  0.92308794  0.95909770  0.25016679  1
  O  O30  1  0.67666717  0.61979627  0.35401672  1
  O  O31  1  0.03726684  0.03974639  0.70959460  1
  O  O32  1  0.41276198  0.34016542  0.07416869  1
  O  O33  1  0.34016542  0.07416869  0.41276198  1
  O  O34  1  0.42386110  0.10901747  0.73643612  1
  O  O35  1  0.61979627  0.35401672  0.67666717  1
  O  O36  1  0.64742036  0.31185372  0.32212160  1
  O  O37  1  0.97476505  0.62981463  0.70963365  1
  O  O38  1  0.73643612  0.42386110  0.10901747  1
  O  O39  1  0.91703694  0.24443127  0.61136884  1
  O  O40  1  0.70959460  0.03726684  0.03974639  1
  O  O41  1  0.95909770  0.25016679  0.92308794  1
