# generated using pymatgen
data_Na4Li3(FeO4)2
_symmetry_space_group_name_H-M   'P 1'
_cell_length_a   8.30348125
_cell_length_b   8.07395304
_cell_length_c   6.44484320
_cell_angle_alpha   90.00000000
_cell_angle_beta   92.30497998
_cell_angle_gamma   90.00000000
_symmetry_Int_Tables_number   1
_chemical_formula_structural   Na4Li3(FeO4)2
_chemical_formula_sum   'Na8 Li6 Fe4 O16'
_cell_volume   431.72505755
_cell_formula_units_Z   2
loop_
 _symmetry_equiv_pos_site_id
 _symmetry_equiv_pos_as_xyz
  1  'x, y, z'
loop_
 _atom_site_type_symbol
 _atom_site_label
 _atom_site_symmetry_multiplicity
 _atom_site_fract_x
 _atom_site_fract_y
 _atom_site_fract_z
 _atom_site_occupancy
  Na  Na0  1  0.00742752  0.50630720  0.25933509  1
  Na  Na1  1  0.00939138  0.50493369  0.74045288  1
  Na  Na2  1  0.23708846  0.79238445  0.98386592  1
  Na  Na3  1  0.25031072  0.22047434  0.53325908  1
  Na  Na4  1  0.50742752  0.99369280  0.75933509  1
  Na  Na5  1  0.50939138  0.99506631  0.24045288  1
  Na  Na6  1  0.73708846  0.70761555  0.48386592  1
  Na  Na7  1  0.75031072  0.27952566  0.03325908  1
  Li  Li8  1  0.07504426  0.85119393  0.50079524  1
  Li  Li9  1  0.35502776  0.48431052  0.25391675  1
  Li  Li10  1  0.41505795  0.29724532  0.97724646  1
  Li  Li11  1  0.57504426  0.64880607  0.00079524  1
  Li  Li12  1  0.85502776  0.01568948  0.75391675  1
  Li  Li13  1  0.91505795  0.20275468  0.47724646  1
  Fe  Fe14  1  0.12727878  0.21308844  0.00300838  1
  Fe  Fe15  1  0.36390385  0.71906218  0.50534193  1
  Fe  Fe16  1  0.62727878  0.28691156  0.50300838  1
  Fe  Fe17  1  0.86390385  0.78093782  0.00534193  1
  O  O18  1  0.03257110  0.21485004  0.23966136  1
  O  O19  1  0.01456523  0.19712623  0.75959155  1
  O  O20  1  0.22824426  0.54383755  0.49112932  1
  O  O21  1  0.21252539  0.41896388  0.01237120  1
  O  O22  1  0.30115709  0.93260479  0.49814003  1
  O  O23  1  0.29411949  0.08129859  0.97895693  1
  O  O24  1  0.46444911  0.71297499  0.75308733  1
  O  O25  1  0.45951963  0.70106459  0.25265856  1
  O  O26  1  0.51456523  0.30287377  0.25959155  1
  O  O27  1  0.53257110  0.28514996  0.73966136  1
  O  O28  1  0.72824426  0.95616245  0.99112932  1
  O  O29  1  0.71252539  0.08103612  0.51237120  1
  O  O30  1  0.80115709  0.56739521  0.99814003  1
  O  O31  1  0.79411949  0.41870141  0.47895693  1
  O  O32  1  0.96444911  0.78702501  0.25308733  1
  O  O33  1  0.95951963  0.79893541  0.75265856  1
