# generated using pymatgen
data_V5Sb(PO4)6
_symmetry_space_group_name_H-M   'P 1'
_cell_length_a   8.61523252
_cell_length_b   8.76816498
_cell_length_c   8.76816567
_cell_angle_alpha   59.99999574
_cell_angle_beta   59.41102941
_cell_angle_gamma   59.41102658
_symmetry_Int_Tables_number   1
_chemical_formula_structural   V5Sb(PO4)6
_chemical_formula_sum   'V5 Sb1 P6 O24'
_cell_volume   464.13606007
_cell_formula_units_Z   1
loop_
 _symmetry_equiv_pos_site_id
 _symmetry_equiv_pos_as_xyz
  1  'x, y, z'
loop_
 _atom_site_type_symbol
 _atom_site_label
 _atom_site_symmetry_multiplicity
 _atom_site_fract_x
 _atom_site_fract_y
 _atom_site_fract_z
 _atom_site_occupancy
  V  V0  1  0.00149759  0.99950114  0.99950114  1
  V  V1  1  0.06365193  0.64544902  0.64544902  1
  V  V2  1  0.49614041  0.50128686  0.50128686  1
  V  V3  1  0.43093235  0.85635622  0.85635622  1
  V  V4  1  0.92794462  0.35735213  0.35735213  1
  Sb  Sb5  1  0.54960066  0.15013278  0.15013278  1
  P  P6  1  0.24174583  0.25229133  0.55945180  1
  P  P7  1  0.24174583  0.94651104  0.25229133  1
  P  P8  1  0.24174583  0.55945180  0.94651104  1
  P  P9  1  0.75410177  0.46086087  0.04321804  1
  P  P10  1  0.75410177  0.04321804  0.74181832  1
  P  P11  1  0.75410177  0.74181832  0.46086087  1
  O  O12  1  0.07579526  0.11038218  0.31354931  1
  O  O13  1  0.07579526  0.50027325  0.11038218  1
  O  O14  1  0.07579526  0.31354931  0.50027325  1
  O  O15  1  0.21374665  0.09678718  0.75666779  1
  O  O16  1  0.43923283  0.18053313  0.42011484  1
  O  O17  1  0.25843939  0.41225183  0.57854839  1
  O  O18  1  0.21374665  0.93279837  0.09678718  1
  O  O19  1  0.25843939  0.75076039  0.41225183  1
  O  O20  1  0.57151432  0.61035421  0.00209620  1
  O  O21  1  0.25843939  0.57854839  0.75076039  1
  O  O22  1  0.79769388  0.26178285  0.04784167  1
  O  O23  1  0.57151432  0.00209620  0.81603427  1
  O  O24  1  0.43923283  0.96011919  0.18053313  1
  O  O25  1  0.21374665  0.75666779  0.93279837  1
  O  O26  1  0.72668331  0.44242974  0.24128107  1
  O  O27  1  0.43923283  0.42011484  0.96011919  1
  O  O28  1  0.72668331  0.24128107  0.58960588  1
  O  O29  1  0.79769388  0.04784167  0.89268260  1
  O  O30  1  0.72668331  0.58960588  0.44242974  1
  O  O31  1  0.57151432  0.81603427  0.61035421  1
  O  O32  1  0.79769388  0.89268260  0.26178285  1
  O  O33  1  0.93112489  0.66397786  0.51495578  1
  O  O34  1  0.93112489  0.51495578  0.88994247  1
  O  O35  1  0.93112489  0.88994247  0.66397786  1
