# generated using pymatgen
data_Li4MnCr5O12
_symmetry_space_group_name_H-M   'P 1'
_cell_length_a   5.13010343
_cell_length_b   5.11986071
_cell_length_c   10.10318667
_cell_angle_alpha   89.92789327
_cell_angle_beta   89.85607091
_cell_angle_gamma   59.93379617
_symmetry_Int_Tables_number   1
_chemical_formula_structural   Li4MnCr5O12
_chemical_formula_sum   'Li4 Mn1 Cr5 O12'
_cell_volume   229.65811454
_cell_formula_units_Z   1
loop_
 _symmetry_equiv_pos_site_id
 _symmetry_equiv_pos_as_xyz
  1  'x, y, z'
loop_
 _atom_site_type_symbol
 _atom_site_label
 _atom_site_symmetry_multiplicity
 _atom_site_fract_x
 _atom_site_fract_y
 _atom_site_fract_z
 _atom_site_occupancy
  Li  Li0  1  0.15225678  0.50058692  0.74929998  1
  Li  Li1  1  0.34715630  0.50058692  0.25070002  1
  Li  Li2  1  0.65284370  0.49941308  0.74929998  1
  Li  Li3  1  0.84774322  0.49941308  0.25070002  1
  Mn  Mn4  1  0.00000000  0.00000000  0.00000000  1
  Cr  Cr5  1  0.16513258  0.66973383  0.50000000  1
  Cr  Cr6  1  0.66343066  0.67313869  0.00000000  1
  Cr  Cr7  1  0.33656934  0.32686131  1.00000000  1
  Cr  Cr8  1  0.83486742  0.33026617  0.50000000  1
  Cr  Cr9  1  0.50000000  0.00000000  0.50000000  1
  O  O10  1  0.00556852  0.66714051  0.10512002  1
  O  O11  1  0.32728997  0.66714051  0.89487998  1
  O  O12  1  0.16441208  0.34340966  0.39315158  1
  O  O13  1  0.50782074  0.65659034  0.39315158  1
  O  O14  1  0.49217926  0.34340966  0.60684842  1
  O  O15  1  0.16909262  1.00000000  0.59459663  1
  O  O16  1  0.83558792  0.65659034  0.60684842  1
  O  O17  1  0.67271003  0.33285949  0.10512002  1
  O  O18  1  0.32094177  1.00000000  0.09869053  1
  O  O19  1  0.99443148  0.33285949  0.89487998  1
  O  O20  1  0.67905823  0.00000000  0.90130947  1
  O  O21  1  0.83090738  0.00000000  0.40540337  1
