# generated using pymatgen
data_Li3Mn(BO3)2
_symmetry_space_group_name_H-M   'P 1'
_cell_length_a   6.12827584
_cell_length_b   8.03690344
_cell_length_c   9.81095605
_cell_angle_alpha   90.00000000
_cell_angle_beta   83.21547311
_cell_angle_gamma   90.00000000
_symmetry_Int_Tables_number   1
_chemical_formula_structural   Li3Mn(BO3)2
_chemical_formula_sum   'Li12 Mn4 B8 O24'
_cell_volume   479.82902789
_cell_formula_units_Z   4
loop_
 _symmetry_equiv_pos_site_id
 _symmetry_equiv_pos_as_xyz
  1  'x, y, z'
loop_
 _atom_site_type_symbol
 _atom_site_label
 _atom_site_symmetry_multiplicity
 _atom_site_fract_x
 _atom_site_fract_y
 _atom_site_fract_z
 _atom_site_occupancy
  Li  Li0  1  0.04737050  0.28687184  0.14483432  1
  Li  Li1  1  0.97310140  0.79490715  0.36802672  1
  Li  Li2  1  0.23017379  0.45041181  0.39824600  1
  Li  Li3  1  0.26982621  0.95041181  0.10175400  1
  Li  Li4  1  0.52689860  0.29490715  0.13197328  1
  Li  Li5  1  0.45262950  0.78687184  0.35516568  1
  Li  Li6  1  0.54737050  0.21312816  0.64483432  1
  Li  Li7  1  0.47310140  0.70509285  0.86802672  1
  Li  Li8  1  0.73017379  0.04958819  0.89824600  1
  Li  Li9  1  0.76982621  0.54958819  0.60175400  1
  Li  Li10  1  0.02689860  0.20509285  0.63197328  1
  Li  Li11  1  0.95262950  0.71312816  0.85516568  1
  Mn  Mn12  1  0.18683834  0.40783914  0.88032544  1
  Mn  Mn13  1  0.31316166  0.90783914  0.61967456  1
  Mn  Mn14  1  0.68683834  0.09216086  0.38032544  1
  Mn  Mn15  1  0.81316166  0.59216086  0.11967456  1
  B  B16  1  0.21270746  0.13811349  0.35101825  1
  B  B17  1  0.24047202  0.56981836  0.63126757  1
  B  B18  1  0.25952798  0.06981836  0.86873243  1
  B  B19  1  0.28729254  0.63811349  0.14898175  1
  B  B20  1  0.71270746  0.36188651  0.85101825  1
  B  B21  1  0.74047202  0.93018164  0.13126757  1
  B  B22  1  0.75952798  0.43018164  0.36873243  1
  B  B23  1  0.78729254  0.86188651  0.64898175  1
  O  O24  1  0.99740316  0.08915631  0.38218236  1
  O  O25  1  0.13029872  0.54529109  0.08709608  1
  O  O26  1  0.22760088  0.76780420  0.23408162  1
  O  O27  1  0.16336006  0.42289780  0.59195621  1
  O  O28  1  0.16211430  0.18633311  0.96418969  1
  O  O29  1  0.22623998  0.61419065  0.77120035  1
  O  O30  1  0.27376002  0.11419065  0.72879965  1
  O  O31  1  0.33788570  0.68633311  0.53581031  1
  O  O32  1  0.27239912  0.26780420  0.26591838  1
  O  O33  1  0.33663994  0.92289780  0.90804379  1
  O  O34  1  0.36970128  0.04529109  0.41290392  1
  O  O35  1  0.50259684  0.58915631  0.11781764  1
  O  O36  1  0.49740316  0.41084369  0.88218236  1
  O  O37  1  0.63029872  0.95470891  0.58709608  1
  O  O38  1  0.66336006  0.07710220  0.09195621  1
  O  O39  1  0.72760088  0.73219580  0.73408162  1
  O  O40  1  0.66211430  0.31366689  0.46418969  1
  O  O41  1  0.72623998  0.88580935  0.27120035  1
  O  O42  1  0.77376002  0.38580935  0.22879965  1
  O  O43  1  0.83788570  0.81366689  0.03581031  1
  O  O44  1  0.83663994  0.57710220  0.40804379  1
  O  O45  1  0.77239912  0.23219580  0.76591838  1
  O  O46  1  0.86970128  0.45470891  0.91290392  1
  O  O47  1  0.00259684  0.91084369  0.61781764  1
