# generated using pymatgen
data_Mg2FeO4
_symmetry_space_group_name_H-M   'P 1'
_cell_length_a   6.01054967
_cell_length_b   6.01056754
_cell_length_c   6.01054967
_cell_angle_alpha   119.99990166
_cell_angle_beta   90.00000000
_cell_angle_gamma   60.00009834
_symmetry_Int_Tables_number   1
_chemical_formula_structural   Mg2FeO4
_chemical_formula_sum   'Mg4 Fe2 O8'
_cell_volume   153.54304728
_cell_formula_units_Z   2
loop_
 _symmetry_equiv_pos_site_id
 _symmetry_equiv_pos_as_xyz
  1  'x, y, z'
loop_
 _atom_site_type_symbol
 _atom_site_label
 _atom_site_symmetry_multiplicity
 _atom_site_fract_x
 _atom_site_fract_y
 _atom_site_fract_z
 _atom_site_occupancy
  Mg  Mg0  1  0.37500000  0.75000000  0.37500000  1
  Mg  Mg1  1  0.87500000  0.75000000  0.37500000  1
  Mg  Mg2  1  0.37500000  0.25000000  0.87500000  1
  Mg  Mg3  1  0.37500000  0.25000000  0.37500000  1
  Fe  Fe4  1  0.75000000  0.50000000  0.75000000  1
  Fe  Fe5  1  0.00000000  0.00000000  0.00000000  1
  O  O6  1  0.62146232  0.75707636  0.62147927  1
  O  O7  1  0.62146232  0.75707636  0.13559709  1
  O  O8  1  0.12853768  0.74292364  0.12852073  1
  O  O9  1  0.12853768  0.74292364  0.61440291  1
  O  O10  1  0.61440291  0.25707636  0.12853768  1
  O  O11  1  0.12852073  0.25707636  0.12853768  1
  O  O12  1  0.62147927  0.24292364  0.62146232  1
  O  O13  1  0.13559709  0.24292364  0.62146232  1
