# generated using pymatgen
data_Li2TiCo2O5
_symmetry_space_group_name_H-M   'P 1'
_cell_length_a   6.02782459
_cell_length_b   7.94737831
_cell_length_c   4.12690511
_cell_angle_alpha   75.03589436
_cell_angle_beta   90.12651390
_cell_angle_gamma   77.01203963
_symmetry_Int_Tables_number   1
_chemical_formula_structural   Li2TiCo2O5
_chemical_formula_sum   'Li4 Ti2 Co4 O10'
_cell_volume   185.72890890
_cell_formula_units_Z   2
loop_
 _symmetry_equiv_pos_site_id
 _symmetry_equiv_pos_as_xyz
  1  'x, y, z'
loop_
 _atom_site_type_symbol
 _atom_site_label
 _atom_site_symmetry_multiplicity
 _atom_site_fract_x
 _atom_site_fract_y
 _atom_site_fract_z
 _atom_site_occupancy
  Li  Li0  1  0.88750135  0.38894245  0.81138929  1
  Li  Li1  1  0.50024253  0.00022607  0.99987677  1
  Li  Li2  1  0.11251088  0.61059558  0.18888319  1
  Li  Li3  1  0.00016933  0.99979459  0.00009118  1
  Ti  Ti4  1  0.81922389  0.79662253  0.56960041  1
  Ti  Ti5  1  0.18053884  0.20353351  0.43008779  1
  Co  Co6  1  0.61060307  0.60145312  0.20189166  1
  Co  Co7  1  0.69327624  0.19827703  0.40202404  1
  Co  Co8  1  0.38883518  0.39863682  0.79822978  1
  Co  Co9  1  0.30682996  0.80183890  0.59840198  1
  O  O10  1  0.80938671  0.80608920  0.11138908  1
  O  O11  1  0.91141637  0.38196005  0.31018205  1
  O  O12  1  0.68143374  0.21448274  0.89192651  1
  O  O13  1  0.63506333  0.61616132  0.69713928  1
  O  O14  1  0.31840789  0.78562784  0.10786141  1
  O  O15  1  0.50000564  0.99966332  0.50012350  1
  O  O16  1  0.36514998  0.38336413  0.30296826  1
  O  O17  1  0.19073832  0.19405130  0.88861602  1
  O  O18  1  0.08891467  0.61847121  0.68950794  1
  O  O19  1  0.99975311  0.00021031  0.49980984  1
