# generated using pymatgen
data_Li5Fe2Cu5O12
_symmetry_space_group_name_H-M   'P 1'
_cell_length_a   5.06209805
_cell_length_b   5.06209831
_cell_length_c   9.71302776
_cell_angle_alpha   88.85246895
_cell_angle_beta   91.14753077
_cell_angle_gamma   65.85100741
_symmetry_Int_Tables_number   1
_chemical_formula_structural   Li5Fe2Cu5O12
_chemical_formula_sum   'Li5 Fe2 Cu5 O12'
_cell_volume   226.95845118
_cell_formula_units_Z   1
loop_
 _symmetry_equiv_pos_site_id
 _symmetry_equiv_pos_as_xyz
  1  'x, y, z'
loop_
 _atom_site_type_symbol
 _atom_site_label
 _atom_site_symmetry_multiplicity
 _atom_site_fract_x
 _atom_site_fract_y
 _atom_site_fract_z
 _atom_site_occupancy
  Li  Li0  1  0.16765382  0.66464989  0.50637080  1
  Li  Li1  1  0.32349388  0.84637844  0.99502390  1
  Li  Li2  1  0.66464989  0.16765382  0.99362920  1
  Li  Li3  1  0.84637844  0.32349388  0.50497610  1
  Li  Li4  1  0.91371934  0.91371934  0.75000000  1
  Fe  Fe5  1  0.24478434  0.24478434  0.75000000  1
  Fe  Fe6  1  0.74932735  0.74932735  0.25000000  1
  Cu  Cu7  1  0.07787071  0.07787071  0.25000000  1
  Cu  Cu8  1  0.99344644  0.51497468  0.99908748  1
  Cu  Cu9  1  0.51497468  0.99344644  0.50091252  1
  Cu  Cu10  1  0.42023049  0.42023049  0.25000000  1
  Cu  Cu11  1  0.58388432  0.58388432  0.75000000  1
  O  O12  1  0.98394502  0.21293852  0.88606167  1
  O  O13  1  0.21293852  0.98394502  0.61393833  1
  O  O14  1  0.10002335  0.40172858  0.34888557  1
  O  O15  1  0.40172858  0.10002335  0.15111443  1
  O  O16  1  0.30464272  0.52524475  0.87006251  1
  O  O17  1  0.52524475  0.30464272  0.62993749  1
  O  O18  1  0.48209017  0.68244205  0.37800137  1
  O  O19  1  0.68244205  0.48209017  0.12199863  1
  O  O20  1  0.57464769  0.90646977  0.85203031  1
  O  O21  1  0.90646977  0.57464769  0.64796969  1
  O  O22  1  0.81754641  0.00786726  0.38409343  1
  O  O23  1  0.00786726  0.81754641  0.11590657  1
