# generated using pymatgen
data_Li3NbFe3O8
_symmetry_space_group_name_H-M   'P 1'
_cell_length_a   10.51213549
_cell_length_b   10.59557017
_cell_length_c   14.94196136
_cell_angle_alpha   19.49626795
_cell_angle_beta   19.51266783
_cell_angle_gamma   33.57016225
_symmetry_Int_Tables_number   1
_chemical_formula_structural   Li3NbFe3O8
_chemical_formula_sum   'Li3 Nb1 Fe3 O8'
_cell_volume   161.07499546
_cell_formula_units_Z   1
loop_
 _symmetry_equiv_pos_site_id
 _symmetry_equiv_pos_as_xyz
  1  'x, y, z'
loop_
 _atom_site_type_symbol
 _atom_site_label
 _atom_site_symmetry_multiplicity
 _atom_site_fract_x
 _atom_site_fract_y
 _atom_site_fract_z
 _atom_site_occupancy
  Li  Li0  1  0.99999868  0.49999761  0.50000290  1
  Li  Li1  1  0.49999428  0.99999653  0.50000569  1
  Li  Li2  1  0.49999923  0.49999797  0.50000110  1
  Nb  Nb3  1  -0.00000233  0.99999797  0.00000155  1
  Fe  Fe4  1  -0.00000174  0.50000610  -0.00000351  1
  Fe  Fe5  1  0.50001005  0.00000561  -0.00000637  1
  Fe  Fe6  1  0.50000300  0.50000683  -0.00000629  1
  O  O7  1  0.98277894  -0.00001773  0.27304038  1
  O  O8  1  0.02438020  0.54064857  0.21535317  1
  O  O9  1  0.51587414  0.99954668  0.24748824  1
  O  O10  1  0.01722419  0.00001682  0.72695688  1
  O  O11  1  0.48196276  0.45817811  0.29825633  1
  O  O12  1  0.97562190  0.45934891  0.78464743  1
  O  O13  1  0.48412560  0.00045199  0.75251196  1
  O  O14  1  0.51803010  0.54181804  0.70175154  1
