# generated using pymatgen
data_Li3Nb4NiO12
_symmetry_space_group_name_H-M   'P 1'
_cell_length_a   5.61782825
_cell_length_b   11.29874578
_cell_length_c   9.96005887
_cell_angle_alpha   27.69082590
_cell_angle_beta   50.09812749
_cell_angle_gamma   55.37908420
_symmetry_Int_Tables_number   1
_chemical_formula_structural   Li3Nb4NiO12
_chemical_formula_sum   'Li3 Nb4 Ni1 O12'
_cell_volume   225.37746679
_cell_formula_units_Z   1
loop_
 _symmetry_equiv_pos_site_id
 _symmetry_equiv_pos_as_xyz
  1  'x, y, z'
loop_
 _atom_site_type_symbol
 _atom_site_label
 _atom_site_symmetry_multiplicity
 _atom_site_fract_x
 _atom_site_fract_y
 _atom_site_fract_z
 _atom_site_occupancy
  Li  Li0  1  0.28497380  0.49993061  0.28655511  1
  Li  Li1  1  0.78910629  0.49998710  0.78531476  1
  Li  Li2  1  0.78466109  0.00057656  0.78761864  1
  Nb  Nb3  1  0.00310333  0.50372610  0.99833651  1
  Nb  Nb4  1  0.50347481  0.50126641  0.49825836  1
  Nb  Nb5  1  0.00446526  0.00061835  0.99945930  1
  Nb  Nb6  1  0.50090397  0.99970087  0.50269819  1
  Ni  Ni7  1  0.28848541  0.99700625  0.29351792  1
  O  O8  1  0.10435471  0.82304002  0.72312618  1
  O  O9  1  0.21825418  0.61613680  0.61790865  1
  O  O10  1  0.61056156  0.68080181  0.86074534  1
  O  O11  1  0.71972142  0.87195619  0.36426623  1
  O  O12  1  0.36228546  0.80493314  0.11020225  1
  O  O13  1  0.10991214  0.31744430  0.72276325  1
  O  O14  1  0.86220605  0.69480052  0.22164067  1
  O  O15  1  0.22275664  0.12438977  0.61165605  1
  O  O16  1  0.61089538  0.17925805  0.86050556  1
  O  O17  1  0.72317148  0.37374926  0.36026338  1
  O  O18  1  0.36543955  0.31807748  0.10152949  1
  O  O19  1  0.86086747  0.19260041  0.22323418  1
