# generated using pymatgen
data_Na2BiBSO7
_symmetry_space_group_name_H-M   'P 1'
_cell_length_a   9.67658800
_cell_length_b   7.07899930
_cell_length_c   5.52820013
_cell_angle_alpha   90.00000000
_cell_angle_beta   91.17169151
_cell_angle_gamma   90.00000000
_symmetry_Int_Tables_number   1
_chemical_formula_structural   Na2BiBSO7
_chemical_formula_sum   'Na4 Bi2 B2 S2 O14'
_cell_volume   378.60562290
_cell_formula_units_Z   2
loop_
 _symmetry_equiv_pos_site_id
 _symmetry_equiv_pos_as_xyz
  1  'x, y, z'
loop_
 _atom_site_type_symbol
 _atom_site_label
 _atom_site_symmetry_multiplicity
 _atom_site_fract_x
 _atom_site_fract_y
 _atom_site_fract_z
 _atom_site_occupancy
  Na  Na0  1  0.18156409  0.50341670  0.23975730  1
  Na  Na1  1  0.18156409  0.99658330  0.23975730  1
  Na  Na2  1  0.81843591  0.49658330  0.76024270  1
  Na  Na3  1  0.81843591  0.00341670  0.76024270  1
  Bi  Bi4  1  0.36068487  0.75000000  0.76375618  1
  Bi  Bi5  1  0.63931513  0.25000000  0.23624382  1
  B  B6  1  0.08625238  0.75000000  0.73762010  1
  B  B7  1  0.91374762  0.25000000  0.26237990  1
  S  S8  1  0.40282551  0.25000000  0.72091565  1
  S  S9  1  0.59717449  0.75000000  0.27908435  1
  O  O10  1  0.04928411  0.25000000  0.27186643  1
  O  O11  1  0.16951573  0.75000000  0.95730917  1
  O  O12  1  0.17640593  0.75000000  0.53259964  1
  O  O13  1  0.34316209  0.08134002  0.84754879  1
  O  O14  1  0.34316209  0.41865998  0.84754879  1
  O  O15  1  0.44234522  0.75000000  0.24739131  1
  O  O16  1  0.36602568  0.25000000  0.46082350  1
  O  O17  1  0.63397432  0.75000000  0.53917650  1
  O  O18  1  0.55765478  0.25000000  0.75260869  1
  O  O19  1  0.65683791  0.58134002  0.15245121  1
  O  O20  1  0.65683791  0.91865998  0.15245121  1
  O  O21  1  0.82359407  0.25000000  0.46740036  1
  O  O22  1  0.83048427  0.25000000  0.04269083  1
  O  O23  1  0.95071589  0.75000000  0.72813357  1
