# generated using pymatgen
data_Li5Fe5O12
_symmetry_space_group_name_H-M   'P 1'
_cell_length_a   5.17125517
_cell_length_b   5.12092514
_cell_length_c   10.36248697
_cell_angle_alpha   90.56758412
_cell_angle_beta   91.49899848
_cell_angle_gamma   59.68600209
_symmetry_Int_Tables_number   1
_chemical_formula_structural   Li5Fe5O12
_chemical_formula_sum   'Li5 Fe5 O12'
_cell_volume   236.81235743
_cell_formula_units_Z   1
loop_
 _symmetry_equiv_pos_site_id
 _symmetry_equiv_pos_as_xyz
  1  'x, y, z'
loop_
 _atom_site_type_symbol
 _atom_site_label
 _atom_site_symmetry_multiplicity
 _atom_site_fract_x
 _atom_site_fract_y
 _atom_site_fract_z
 _atom_site_occupancy
  Li  Li0  1  0.14910703  0.51239878  0.74991250  1
  Li  Li1  1  0.33985395  0.50969860  0.24800568  1
  Li  Li2  1  0.00045302  -0.00001223  0.99863871  1
  Li  Li3  1  0.65603632  0.49924105  0.74922462  1
  Li  Li4  1  0.83967164  0.50748559  0.24903668  1
  Fe  Fe5  1  0.16397256  0.67104908  0.49856303  1
  Fe  Fe6  1  0.66498513  0.67054820  0.99860032  1
  Fe  Fe7  1  0.33627093  0.32808091  0.99901925  1
  Fe  Fe8  1  0.83329731  0.33210090  0.49887730  1
  Fe  Fe9  1  0.50414532  -0.00927451  0.49919766  1
  O  O10  1  0.02235547  0.61896191  0.10560709  1
  O  O11  1  0.35866687  0.62007570  0.89184840  1
  O  O12  1  0.16419407  0.35670979  0.39398250  1
  O  O13  1  0.50937778  0.65539519  0.38889626  1
  O  O14  1  0.47872880  0.35493311  0.60385634  1
  O  O15  1  0.17309954  0.98474187  0.59500078  1
  O  O16  1  0.83497134  0.65353016  0.60887718  1
  O  O17  1  0.64248864  0.37990255  0.10624453  1
  O  O18  1  0.36932593  0.99832554  0.09499174  1
  O  O19  1  0.97754388  0.38056909  0.89173115  1
  O  O20  1  0.63200694  0.00076575  0.90271051  1
  O  O21  1  0.83934853  -0.01311402  0.40271477  1
