# generated using pymatgen
data_Co5BiO12
_symmetry_space_group_name_H-M   'P 1'
_cell_length_a   5.07559477
_cell_length_b   5.08605959
_cell_length_c   9.44287920
_cell_angle_alpha   90.15462888
_cell_angle_beta   90.30989460
_cell_angle_gamma   60.06804635
_symmetry_Int_Tables_number   1
_chemical_formula_structural   Co5BiO12
_chemical_formula_sum   'Co5 Bi1 O12'
_cell_volume   211.24891055
_cell_formula_units_Z   1
loop_
 _symmetry_equiv_pos_site_id
 _symmetry_equiv_pos_as_xyz
  1  'x, y, z'
loop_
 _atom_site_type_symbol
 _atom_site_label
 _atom_site_symmetry_multiplicity
 _atom_site_fract_x
 _atom_site_fract_y
 _atom_site_fract_z
 _atom_site_occupancy
  Co  Co0  1  0.16654244  0.66691512  0.50000000  1
  Co  Co1  1  0.66677177  0.66645647  0.00000000  1
  Co  Co2  1  0.33322823  0.33354353  1.00000000  1
  Co  Co3  1  0.83345756  0.33308488  0.50000000  1
  Co  Co4  1  0.50000000  0.00000000  0.50000000  1
  Bi  Bi5  1  0.00000000  0.00000000  0.00000000  1
  O  O6  1  0.00111024  0.63100380  0.10692947  1
  O  O7  1  0.36788596  0.63100380  0.89307053  1
  O  O8  1  0.16575051  0.33266808  0.40565385  1
  O  O9  1  0.49841759  0.66733192  0.40565385  1
  O  O10  1  0.50158241  0.33266808  0.59434615  1
  O  O11  1  0.16669018  0.00000000  0.59519563  1
  O  O12  1  0.83424949  0.66733192  0.59434615  1
  O  O13  1  0.63211404  0.36899620  0.10692947  1
  O  O14  1  0.37047225  0.00000000  0.10732909  1
  O  O15  1  0.99888976  0.36899620  0.89307053  1
  O  O16  1  0.62952775  1.00000000  0.89267091  1
  O  O17  1  0.83330982  1.00000000  0.40480437  1
