# generated using pymatgen
data_La2Pt2O7
_symmetry_space_group_name_H-M   'P 1'
_cell_length_a   7.96667459
_cell_length_b   13.50603586
_cell_length_c   5.65797557
_cell_angle_alpha   90.00000000
_cell_angle_beta   90.00000000
_cell_angle_gamma   98.40817435
_symmetry_Int_Tables_number   1
_chemical_formula_structural   La2Pt2O7
_chemical_formula_sum   'La8 Pt8 O28'
_cell_volume   602.24437721
_cell_formula_units_Z   4
loop_
 _symmetry_equiv_pos_site_id
 _symmetry_equiv_pos_as_xyz
  1  'x, y, z'
loop_
 _atom_site_type_symbol
 _atom_site_label
 _atom_site_symmetry_multiplicity
 _atom_site_fract_x
 _atom_site_fract_y
 _atom_site_fract_z
 _atom_site_occupancy
  La  La0  1  0.22660189  0.90557840  0.76226681  1
  La  La1  1  0.14567836  0.57314349  0.33189759  1
  La  La2  1  0.28284415  0.12933726  0.24821642  1
  La  La3  1  0.35444128  0.39608580  0.79120035  1
  La  La4  1  0.64555872  0.60391420  0.29120035  1
  La  La5  1  0.71715585  0.87066274  0.74821642  1
  La  La6  1  0.85432164  0.42685651  0.83189759  1
  La  La7  1  0.77339811  0.09442160  0.26226681  1
  Pt  Pt8  1  0.07560563  0.31272751  0.27401286  1
  Pt  Pt9  1  0.02838649  0.11038894  0.76501180  1
  Pt  Pt10  1  0.41839143  0.68532188  0.77576191  1
  Pt  Pt11  1  0.47351121  0.88849117  0.26374753  1
  Pt  Pt12  1  0.52648879  0.11150883  0.76374753  1
  Pt  Pt13  1  0.58160857  0.31467812  0.27576191  1
  Pt  Pt14  1  0.97161351  0.88961106  0.26501180  1
  Pt  Pt15  1  0.92439437  0.68727249  0.77401286  1
  O  O16  1  0.01815863  0.17992459  0.45001989  1
  O  O17  1  0.07923326  0.40777773  0.54891731  1
  O  O18  1  0.17675194  0.70610465  0.66594426  1
  O  O19  1  0.22690059  0.90666289  0.34468220  1
  O  O20  1  0.12400273  0.43158592  0.06247031  1
  O  O21  1  0.05259992  0.02130142  0.06456901  1
  O  O22  1  0.12653430  0.23271026  0.96728058  1
  O  O23  1  0.37417863  0.60247938  0.06336485  1
  O  O24  1  0.42961116  0.81994518  0.94571751  1
  O  O25  1  0.32720177  0.30861344  0.38744005  1
  O  O26  1  0.27164266  0.08756000  0.67702670  1
  O  O27  1  0.40446066  0.55975715  0.57748649  1
  O  O28  1  0.53876756  0.97773044  0.56523449  1
  O  O29  1  0.51124472  0.76517018  0.46607509  1
  O  O30  1  0.48875528  0.23482982  0.96607509  1
  O  O31  1  0.46123244  0.02226956  0.06523449  1
  O  O32  1  0.59553934  0.44024285  0.07748649  1
  O  O33  1  0.72835734  0.91244000  0.17702670  1
  O  O34  1  0.67279823  0.69138656  0.88744005  1
  O  O35  1  0.57038884  0.18005482  0.44571751  1
  O  O36  1  0.62582137  0.39752062  0.56336485  1
  O  O37  1  0.87346570  0.76728974  0.46728058  1
  O  O38  1  0.94740008  0.97869858  0.56456901  1
  O  O39  1  0.87599727  0.56841408  0.56247031  1
  O  O40  1  0.77309941  0.09333711  0.84468220  1
  O  O41  1  0.82324806  0.29389535  0.16594426  1
  O  O42  1  0.92076674  0.59222227  0.04891731  1
  O  O43  1  0.98184137  0.82007541  0.95001989  1
