# generated using pymatgen
data_SrLaI5
_symmetry_space_group_name_H-M   'P 1'
_cell_length_a   6.41181244
_cell_length_b   11.44291773
_cell_length_c   7.98041326
_cell_angle_alpha   88.63847096
_cell_angle_beta   95.42409356
_cell_angle_gamma   106.14980880
_symmetry_Int_Tables_number   1
_chemical_formula_structural   SrLaI5
_chemical_formula_sum   'Sr2 La2 I10'
_cell_volume   559.89534923
_cell_formula_units_Z   2
loop_
 _symmetry_equiv_pos_site_id
 _symmetry_equiv_pos_as_xyz
  1  'x, y, z'
loop_
 _atom_site_type_symbol
 _atom_site_label
 _atom_site_symmetry_multiplicity
 _atom_site_fract_x
 _atom_site_fract_y
 _atom_site_fract_z
 _atom_site_occupancy
  Sr  Sr0  1  0.32439943  0.64552177  0.25637268  1
  Sr  Sr1  1  0.68132529  0.35624486  0.75283927  1
  La  La2  1  0.07973064  0.15881518  0.24939168  1
  La  La3  1  0.92220124  0.84132884  0.75017488  1
  I  I4  1  0.21149059  0.92333985  0.10652871  1
  I  I5  1  0.19418940  0.39309615  0.99284773  1
  I  I6  1  0.37090253  0.73977496  0.74437484  1
  I  I7  1  0.20428870  0.39376972  0.50575149  1
  I  I8  1  0.28548501  0.07783296  0.60776022  1
  I  I9  1  0.71598782  0.92315523  0.39205081  1
  I  I10  1  0.80568768  0.60667282  0.49289943  1
  I  I11  1  0.63157769  0.26081289  0.24687718  1
  I  I12  1  0.80545116  0.60773904  0.00653339  1
  I  I13  1  0.79048381  0.07520772  0.89287069  1
