# generated using pymatgen
data_Li4Fe(PO4)2
_symmetry_space_group_name_H-M   'P 1'
_cell_length_a   4.79145519
_cell_length_b   5.43428788
_cell_length_c   6.17625707
_cell_angle_alpha   95.68355211
_cell_angle_beta   94.37620591
_cell_angle_gamma   101.91864377
_symmetry_Int_Tables_number   1
_chemical_formula_structural   Li4Fe(PO4)2
_chemical_formula_sum   'Li4 Fe1 P2 O8'
_cell_volume   155.80270768
_cell_formula_units_Z   1
loop_
 _symmetry_equiv_pos_site_id
 _symmetry_equiv_pos_as_xyz
  1  'x, y, z'
loop_
 _atom_site_type_symbol
 _atom_site_label
 _atom_site_symmetry_multiplicity
 _atom_site_fract_x
 _atom_site_fract_y
 _atom_site_fract_z
 _atom_site_occupancy
  Li  Li0  1  0.15385765  0.29117514  0.57050973  1
  Li  Li1  1  0.30431266  0.58353894  0.17407526  1
  Li  Li2  1  0.69568734  0.41646106  0.82592474  1
  Li  Li3  1  0.84614235  0.70882486  0.42949027  1
  Fe  Fe4  1  0.00000000  0.00000000  0.00000000  1
  P  P5  1  0.38293056  0.78740743  0.71543470  1
  P  P6  1  0.61706944  0.21259257  0.28456530  1
  O  O7  1  0.24267073  0.58379082  0.85846384  1
  O  O8  1  0.26243592  0.69711915  0.47649712  1
  O  O9  1  0.28384749  0.19190968  0.26118966  1
  O  O10  1  0.31367675  0.05059766  0.79181982  1
  O  O11  1  0.68632325  0.94940234  0.20818018  1
  O  O12  1  0.71615251  0.80809032  0.73881034  1
  O  O13  1  0.73756408  0.30288085  0.52350288  1
  O  O14  1  0.75732927  0.41620918  0.14153616  1
