# generated using pymatgen
data_CrNi(PO4)2
_symmetry_space_group_name_H-M   'P 1'
_cell_length_a   8.38723927
_cell_length_b   8.63881062
_cell_length_c   8.63881021
_cell_angle_alpha   60.00000115
_cell_angle_beta   59.00273554
_cell_angle_gamma   59.00273325
_symmetry_Int_Tables_number   1
_chemical_formula_structural   CrNi(PO4)2
_chemical_formula_sum   'Cr3 Ni3 P6 O24'
_cell_volume   435.81115030
_cell_formula_units_Z   3
loop_
 _symmetry_equiv_pos_site_id
 _symmetry_equiv_pos_as_xyz
  1  'x, y, z'
loop_
 _atom_site_type_symbol
 _atom_site_label
 _atom_site_symmetry_multiplicity
 _atom_site_fract_x
 _atom_site_fract_y
 _atom_site_fract_z
 _atom_site_occupancy
  Cr  Cr0  1  0.00455777  0.99848041  0.99848041  1
  Cr  Cr1  1  0.57309695  0.14230102  0.14230102  1
  Cr  Cr2  1  0.50235054  0.49921649  0.49921649  1
  Ni  Ni3  1  0.07483694  0.64172135  0.64172135  1
  Ni  Ni4  1  0.42942576  0.85685841  0.85685841  1
  Ni  Ni5  1  0.92630401  0.35789866  0.35789866  1
  P  P6  1  0.24862362  0.25121371  0.54671562  1
  P  P7  1  0.24862362  0.95344705  0.25121371  1
  P  P8  1  0.24862362  0.54671562  0.95344705  1
  P  P9  1  0.74961804  0.45210052  0.04797264  1
  P  P10  1  0.74961804  0.04797264  0.75030781  1
  P  P11  1  0.74961804  0.75030781  0.45210052  1
  O  O12  1  0.05993401  0.10326964  0.32902622  1
  O  O13  1  0.05993401  0.50777013  0.10326964  1
  O  O14  1  0.05993401  0.32902622  0.50777013  1
  O  O15  1  0.21458265  0.09761278  0.74953712  1
  O  O16  1  0.43460313  0.17369300  0.38830044  1
  O  O17  1  0.29518614  0.40083830  0.55352128  1
  O  O18  1  0.21458265  0.93826744  0.09761278  1
  O  O19  1  0.29518614  0.75045428  0.40083830  1
  O  O20  1  0.56146216  0.60166191  0.00716835  1
  O  O21  1  0.29518614  0.55352128  0.75045428  1
  O  O22  1  0.78080059  0.24458311  0.06709062  1
  O  O23  1  0.56146216  0.00716835  0.82970858  1
  O  O24  1  0.43460313  0.00340242  0.17369300  1
  O  O25  1  0.21458265  0.74953712  0.93826744  1
  O  O26  1  0.71155061  0.43607660  0.25238374  1
  O  O27  1  0.43460313  0.38830044  0.00340242  1
  O  O28  1  0.71155061  0.25238374  0.59999005  1
  O  O29  1  0.78080059  0.06709062  0.90752569  1
  O  O30  1  0.71155061  0.59999005  0.43607660  1
  O  O31  1  0.56146216  0.82970858  0.60166191  1
  O  O32  1  0.78080059  0.90752569  0.24458311  1
  O  O33  1  0.94011540  0.68043996  0.48436092  1
  O  O34  1  0.94011540  0.48436092  0.89508472  1
  O  O35  1  0.94011540  0.89508472  0.68043996  1
