# generated using pymatgen
data_Li3FeO3
_symmetry_space_group_name_H-M   'P 1'
_cell_length_a   8.86528090
_cell_length_b   8.86528090
_cell_length_c   3.64441976
_cell_angle_alpha   90.00000000
_cell_angle_beta   90.00000000
_cell_angle_gamma   90.00000000
_symmetry_Int_Tables_number   1
_chemical_formula_structural   Li3FeO3
_chemical_formula_sum   'Li12 Fe4 O12'
_cell_volume   286.42663089
_cell_formula_units_Z   4
loop_
 _symmetry_equiv_pos_site_id
 _symmetry_equiv_pos_as_xyz
  1  'x, y, z'
loop_
 _atom_site_type_symbol
 _atom_site_label
 _atom_site_symmetry_multiplicity
 _atom_site_fract_x
 _atom_site_fract_y
 _atom_site_fract_z
 _atom_site_occupancy
  Li  Li0  1  0.10298668  0.35804204  0.50000000  1
  Li  Li1  1  0.14195796  0.60298668  0.00000000  1
  Li  Li2  1  0.16617197  0.16617197  0.00000000  1
  Li  Li3  1  0.33382803  0.66617197  0.50000000  1
  Li  Li4  1  0.35804204  0.10298668  0.50000000  1
  Li  Li5  1  0.39701332  0.85804204  0.00000000  1
  Li  Li6  1  0.60298668  0.14195796  0.00000000  1
  Li  Li7  1  0.64195796  0.89701332  0.50000000  1
  Li  Li8  1  0.66617197  0.33382803  0.50000000  1
  Li  Li9  1  0.83382803  0.83382803  0.00000000  1
  Li  Li10  1  0.85804204  0.39701332  0.00000000  1
  Li  Li11  1  0.89701332  0.64195796  0.50000000  1
  Fe  Fe12  1  0.11592594  0.88407406  0.50000000  1
  Fe  Fe13  1  0.38407406  0.38407406  0.00000000  1
  Fe  Fe14  1  0.61592594  0.61592594  0.00000000  1
  Fe  Fe15  1  0.88407406  0.11592594  0.50000000  1
  O  O16  1  0.10207913  0.10207913  0.50000000  1
  O  O17  1  0.11253284  0.67693306  0.50000000  1
  O  O18  1  0.17693306  0.38746716  0.00000000  1
  O  O19  1  0.32306694  0.88746716  0.50000000  1
  O  O20  1  0.38746716  0.17693306  0.00000000  1
  O  O21  1  0.39792087  0.60207913  0.00000000  1
  O  O22  1  0.60207913  0.39792087  0.00000000  1
  O  O23  1  0.61253284  0.82306694  0.00000000  1
  O  O24  1  0.67693306  0.11253284  0.50000000  1
  O  O25  1  0.82306694  0.61253284  0.00000000  1
  O  O26  1  0.88746716  0.32306694  0.50000000  1
  O  O27  1  0.89792087  0.89792087  0.50000000  1
