# generated using pymatgen
data_Li4Mn3Nb5O16
_symmetry_space_group_name_H-M   'P 1'
_cell_length_a   6.22251338
_cell_length_b   6.09450107
_cell_length_c   10.06859305
_cell_angle_alpha   89.99994695
_cell_angle_beta   89.21207633
_cell_angle_gamma   119.32208673
_symmetry_Int_Tables_number   1
_chemical_formula_structural   Li4Mn3Nb5O16
_chemical_formula_sum   'Li4 Mn3 Nb5 O16'
_cell_volume   332.87083854
_cell_formula_units_Z   1
loop_
 _symmetry_equiv_pos_site_id
 _symmetry_equiv_pos_as_xyz
  1  'x, y, z'
loop_
 _atom_site_type_symbol
 _atom_site_label
 _atom_site_symmetry_multiplicity
 _atom_site_fract_x
 _atom_site_fract_y
 _atom_site_fract_z
 _atom_site_occupancy
  Li  Li0  1  0.34368073  0.67185379  0.90876699  1
  Li  Li1  1  0.99696973  0.99849398  0.98795972  1
  Li  Li2  1  0.00433201  0.00217616  0.48885858  1
  Li  Li3  1  0.68405252  0.34203928  0.39969280  1
  Mn  Mn4  1  0.16784202  0.82912771  0.20727457  1
  Mn  Mn5  1  0.16783738  0.33871476  0.20729267  1
  Mn  Mn6  1  0.32533354  0.16270123  0.71163921  1
  Nb  Nb7  1  0.31951136  0.65977029  0.48962364  1
  Nb  Nb8  1  0.65335105  0.82668361  0.22728891  1
  Nb  Nb9  1  0.66112650  0.33057117  0.99838036  1
  Nb  Nb10  1  0.81819270  0.63501620  0.71551310  1
  Nb  Nb11  1  0.81818885  0.18320146  0.71551265  1
  O  O12  1  0.14892036  0.80884238  0.59265534  1
  O  O13  1  0.06124767  0.53063228  0.35526082  1
  O  O14  1  0.36929757  0.68466102  0.10496495  1
  O  O15  1  0.98549444  0.99274985  0.30404359  1
  O  O16  1  0.98744976  0.99373559  0.80479019  1
  O  O17  1  0.14891712  0.34009967  0.59265598  1
  O  O18  1  0.50354907  0.97205655  0.34852282  1
  O  O19  1  0.50354385  0.53150976  0.34852188  1
  O  O20  1  0.33822396  0.16912275  0.07818438  1
  O  O21  1  0.66565209  0.83283330  0.59454203  1
  O  O22  1  0.53964273  0.49363570  0.84456717  1
  O  O23  1  0.53964208  0.04602635  0.84456634  1
  O  O24  1  0.65232231  0.32617186  0.59012726  1
  O  O25  1  0.81143104  0.65551827  0.09481169  1
  O  O26  1  0.97280940  0.48641649  0.85700821  1
  O  O27  1  0.81143816  0.15594054  0.09481415  1
