# generated using pymatgen
data_Lu2Sb2O7
_symmetry_space_group_name_H-M   'P 1'
_cell_length_a   7.50026156
_cell_length_b   7.50038875
_cell_length_c   18.28162686
_cell_angle_alpha   90.00233579
_cell_angle_beta   89.99825343
_cell_angle_gamma   119.99667791
_symmetry_Int_Tables_number   1
_chemical_formula_structural   Lu2Sb2O7
_chemical_formula_sum   'Lu12 Sb12 O42'
_cell_volume   890.67690702
_cell_formula_units_Z   6
loop_
 _symmetry_equiv_pos_site_id
 _symmetry_equiv_pos_as_xyz
  1  'x, y, z'
loop_
 _atom_site_type_symbol
 _atom_site_label
 _atom_site_symmetry_multiplicity
 _atom_site_fract_x
 _atom_site_fract_y
 _atom_site_fract_z
 _atom_site_occupancy
  Lu  Lu0  1  0.99992340  0.84878599  0.66662812  1
  Lu  Lu1  1  0.00029723  0.83243081  0.16669865  1
  Lu  Lu2  1  0.17532206  0.68166758  0.01098530  1
  Lu  Lu3  1  0.15135761  0.15131963  0.00001027  1
  Lu  Lu4  1  0.50657906  0.82516796  0.67757572  1
  Lu  Lu5  1  0.16702384  0.16710073  0.50000059  1
  Lu  Lu6  1  0.31819831  0.49379913  0.34426890  1
  Lu  Lu7  1  0.49379541  0.31820253  0.65573248  1
  Lu  Lu8  1  0.68164201  0.17528731  0.98902830  1
  Lu  Lu9  1  0.82516504  0.50656333  0.32242587  1
  Lu  Lu10  1  0.83253148  0.00035951  0.83328875  1
  Lu  Lu11  1  0.84875685  0.99988052  0.33336288  1
  Sb  Sb12  1  0.99996065  0.32425035  0.16661347  1
  Sb  Sb13  1  0.00097066  0.31484176  0.66680971  1
  Sb  Sb14  1  0.17053671  0.67161549  0.50198284  1
  Sb  Sb15  1  0.50099229  0.82944586  0.16853697  1
  Sb  Sb16  1  0.32871012  0.49911357  0.83533056  1
  Sb  Sb17  1  0.31483009  0.00102051  0.33317969  1
  Sb  Sb18  1  0.67440703  0.67446424  0.50000383  1
  Sb  Sb19  1  0.32431359  0.99988893  0.83340230  1
  Sb  Sb20  1  0.68582075  0.68581300  0.99997756  1
  Sb  Sb21  1  0.49910960  0.32870467  0.16466425  1
  Sb  Sb22  1  0.67157405  0.17056045  0.49802900  1
  Sb  Sb23  1  0.82949204  0.50106384  0.83146821  1
  O  O24  1  0.02495276  0.85348461  0.28345974  1
  O  O25  1  0.97965266  0.80224850  0.80040416  1
  O  O26  1  0.10168913  0.65886243  0.39472644  1
  O  O27  1  0.05553164  0.45116104  0.80418083  1
  O  O28  1  0.32387364  0.99120850  0.95841276  1
  O  O29  1  0.24404717  0.68750518  0.60695928  1
  O  O30  1  0.00840565  0.33249959  0.29178984  1
  O  O31  1  0.19869689  0.68304850  0.13780464  1
  O  O32  1  0.39547921  0.94500398  0.47084918  1
  O  O33  1  0.44373027  0.75589643  0.27349271  1
  O  O34  1  0.48492608  0.80117145  0.80441419  1
  O  O35  1  0.34018262  0.44154278  0.72808632  1
  O  O36  1  0.14707861  0.17159116  0.61676528  1
  O  O37  1  0.31757250  0.51605302  0.47121570  1
  O  O38  1  0.19770217  0.17796573  0.13374323  1
  O  O39  1  0.17156307  0.14704004  0.38324060  1
  O  O40  1  0.31192694  0.55569557  0.94035861  1
  O  O41  1  0.17804032  0.19769738  0.86626157  1
  O  O42  1  0.55770545  0.89850324  0.06129774  1
  O  O43  1  0.54843827  0.60413880  0.13718683  1
  O  O44  1  0.82229783  0.02021606  0.46692057  1
  O  O45  1  0.66709196  0.67570992  0.62521056  1
  O  O46  1  0.44153943  0.34013822  0.27192689  1
  O  O47  1  0.60416968  0.54848398  0.86283804  1
  O  O48  1  0.33256135  0.00845149  0.70823840  1
  O  O49  1  0.82868201  0.97539758  0.95003117  1
  O  O50  1  0.55566062  0.31196278  0.05962785  1
  O  O51  1  0.67569277  0.66708606  0.37478750  1
  O  O52  1  0.51604882  0.31759088  0.52879075  1
  O  O53  1  0.45125977  0.05557906  0.19582221  1
  O  O54  1  0.68744646  0.24406980  0.39305508  1
  O  O55  1  0.68296410  0.19870408  0.86219538  1
  O  O56  1  0.89852934  0.55771211  0.93870274  1
  O  O57  1  0.97535630  0.82867436  0.04995462  1
  O  O58  1  0.80118104  0.48489165  0.19557307  1
  O  O59  1  0.02020436  0.82232341  0.53309198  1
  O  O60  1  0.75587904  0.44373326  0.72651051  1
  O  O61  1  0.65890637  0.10172942  0.60528741  1
  O  O62  1  0.94507154  0.39542852  0.52916800  1
  O  O63  1  0.80223898  0.97964981  0.19959029  1
  O  O64  1  0.99120625  0.32384100  0.04162782  1
  O  O65  1  0.85350803  0.02495789  0.71652529  1
