# generated using pymatgen
data_H2C3
_symmetry_space_group_name_H-M   'P 1'
_cell_length_a   3.97218413
_cell_length_b   7.37220268
_cell_length_c   7.37220268
_cell_angle_alpha   107.17345728
_cell_angle_beta   98.26430989
_cell_angle_gamma   98.26430989
_symmetry_Int_Tables_number   1
_chemical_formula_structural   H2C3
_chemical_formula_sum   'H8 C12'
_cell_volume   200.12209901
_cell_formula_units_Z   4
loop_
 _symmetry_equiv_pos_site_id
 _symmetry_equiv_pos_as_xyz
  1  'x, y, z'
loop_
 _atom_site_type_symbol
 _atom_site_label
 _atom_site_symmetry_multiplicity
 _atom_site_fract_x
 _atom_site_fract_y
 _atom_site_fract_z
 _atom_site_occupancy
  H  H0  1  0.23642845  0.54698446  0.69568080  1
  H  H1  1  0.26357155  0.30431920  0.45301554  1
  H  H2  1  0.76357155  0.45301554  0.30431920  1
  H  H3  1  0.73642845  0.69568080  0.54698446  1
  H  H4  1  0.52019851  0.82926258  0.97627563  1
  H  H5  1  0.97980149  0.02372437  0.17073742  1
  H  H6  1  0.47980149  0.17073742  0.02372437  1
  H  H7  1  0.02019851  0.97627563  0.82926258  1
  C  C8  1  0.33479204  0.33463633  0.83550683  1
  C  C9  1  0.16520796  0.16449317  0.66536367  1
  C  C10  1  0.66520796  0.66536367  0.16449317  1
  C  C11  1  0.83479204  0.83550683  0.33463633  1
  C  C12  1  0.35462688  0.52432677  0.82820776  1
  C  C13  1  0.14537312  0.17179224  0.47567323  1
  C  C14  1  0.64537312  0.47567323  0.17179224  1
  C  C15  1  0.85462688  0.82820776  0.52432677  1
  C  C16  1  0.51526208  0.68489940  0.98801196  1
  C  C17  1  0.98473792  0.01198804  0.31510060  1
  C  C18  1  0.48473792  0.31510060  0.01198804  1
  C  C19  1  0.01526208  0.98801196  0.68489940  1
