# generated using pymatgen
data_LiFePO4
_symmetry_space_group_name_H-M   'P 1'
_cell_length_a   5.70745547
_cell_length_b   5.85869233
_cell_length_c   5.75051433
_cell_angle_alpha   59.37573208
_cell_angle_beta   60.24738773
_cell_angle_gamma   90.00000000
_symmetry_Int_Tables_number   1
_chemical_formula_structural   LiFePO4
_chemical_formula_sum   'Li2 Fe2 P2 O8'
_cell_volume   135.18137966
_cell_formula_units_Z   2
loop_
 _symmetry_equiv_pos_site_id
 _symmetry_equiv_pos_as_xyz
  1  'x, y, z'
loop_
 _atom_site_type_symbol
 _atom_site_label
 _atom_site_symmetry_multiplicity
 _atom_site_fract_x
 _atom_site_fract_y
 _atom_site_fract_z
 _atom_site_occupancy
  Li  Li0  1  0.00000000  0.00000000  0.00000000  1
  Li  Li1  1  0.50000000  0.00000000  0.00000000  1
  Fe  Fe2  1  0.00000000  0.00000000  0.50000000  1
  Fe  Fe3  1  0.00000000  0.50000000  0.50000000  1
  P  P4  1  0.63064570  0.38064570  0.23870960  1
  P  P5  1  0.36935430  0.61935430  0.76129040  1
  O  O6  1  0.26219978  0.29153644  0.97560044  1
  O  O7  1  0.73780022  0.26713688  0.02439956  1
  O  O8  1  0.73716430  0.26465714  0.47068572  1
  O  O9  1  0.29214998  0.26465714  0.47068572  1
  O  O10  1  0.26219978  0.73286312  0.97560044  1
  O  O11  1  0.73780022  0.70846356  0.02439956  1
  O  O12  1  0.26283570  0.73534286  0.52931428  1
  O  O13  1  0.70785002  0.73534286  0.52931428  1
