# generated using pymatgen
data_Li2VO2F3
_symmetry_space_group_name_H-M   'P 1'
_cell_length_a   7.16661896
_cell_length_b   5.39889390
_cell_length_c   9.46095111
_cell_angle_alpha   90.00000000
_cell_angle_beta   90.00000000
_cell_angle_gamma   90.00000000
_symmetry_Int_Tables_number   1
_chemical_formula_structural   Li2VO2F3
_chemical_formula_sum   'Li8 V4 O8 F12'
_cell_volume   366.06137373
_cell_formula_units_Z   4
loop_
 _symmetry_equiv_pos_site_id
 _symmetry_equiv_pos_as_xyz
  1  'x, y, z'
loop_
 _atom_site_type_symbol
 _atom_site_label
 _atom_site_symmetry_multiplicity
 _atom_site_fract_x
 _atom_site_fract_y
 _atom_site_fract_z
 _atom_site_occupancy
  Li  Li0  1  0.96802120  0.75000000  0.27295457  1
  Li  Li1  1  0.14127974  0.25000000  0.43468554  1
  Li  Li2  1  0.35872026  0.75000000  0.93468554  1
  Li  Li3  1  0.53197880  0.25000000  0.77295457  1
  Li  Li4  1  0.46802120  0.75000000  0.22704543  1
  Li  Li5  1  0.64127974  0.25000000  0.06531446  1
  Li  Li6  1  0.85872026  0.75000000  0.56531446  1
  Li  Li7  1  0.03197880  0.25000000  0.72704543  1
  V  V8  1  0.21469930  0.25000000  0.05701441  1
  V  V9  1  0.28530070  0.75000000  0.55701441  1
  V  V10  1  0.71469930  0.25000000  0.44298559  1
  V  V11  1  0.78530070  0.75000000  0.94298559  1
  O  O12  1  0.14422343  0.50794304  0.58609516  1
  O  O13  1  0.14422343  0.99205696  0.58609516  1
  O  O14  1  0.35577657  0.00794304  0.08609516  1
  O  O15  1  0.35577657  0.49205696  0.08609516  1
  O  O16  1  0.64422343  0.50794304  0.91390484  1
  O  O17  1  0.64422343  0.99205696  0.91390484  1
  O  O18  1  0.85577657  0.00794304  0.41390484  1
  O  O19  1  0.85577657  0.49205696  0.41390484  1
  F  F20  1  0.00000000  0.00000000  0.00000000  1
  F  F21  1  0.00000000  0.50000000  0.00000000  1
  F  F22  1  0.10709222  0.25000000  0.23726665  1
  F  F23  1  0.24542581  0.75000000  0.35141207  1
  F  F24  1  0.25457419  0.25000000  0.85141207  1
  F  F25  1  0.39290778  0.75000000  0.73726665  1
  F  F26  1  0.50000000  0.00000000  0.50000000  1
  F  F27  1  0.50000000  0.50000000  0.50000000  1
  F  F28  1  0.60709222  0.25000000  0.26273335  1
  F  F29  1  0.74542581  0.75000000  0.14858793  1
  F  F30  1  0.75457419  0.25000000  0.64858793  1
  F  F31  1  0.89290778  0.75000000  0.76273335  1
