# generated using pymatgen
data_V3Bi2(PO4)6
_symmetry_space_group_name_H-M   'P 1'
_cell_length_a   8.81830809
_cell_length_b   8.72928396
_cell_length_c   8.72928472
_cell_angle_alpha   60.00000458
_cell_angle_beta   60.33339251
_cell_angle_gamma   60.33339422
_symmetry_Int_Tables_number   1
_chemical_formula_structural   V3Bi2(PO4)6
_chemical_formula_sum   'V3 Bi2 P6 O24'
_cell_volume   477.52685045
_cell_formula_units_Z   1
loop_
 _symmetry_equiv_pos_site_id
 _symmetry_equiv_pos_as_xyz
  1  'x, y, z'
loop_
 _atom_site_type_symbol
 _atom_site_label
 _atom_site_symmetry_multiplicity
 _atom_site_fract_x
 _atom_site_fract_y
 _atom_site_fract_z
 _atom_site_occupancy
  V  V0  1  0.05465017  0.64845028  0.64845028  1
  V  V1  1  0.42357113  0.85880962  0.85880962  1
  V  V2  1  0.96852750  0.34382417  0.34382417  1
  Bi  Bi3  1  0.93293092  0.02235636  0.02235636  1
  Bi  Bi4  1  0.50349547  0.49883484  0.49883484  1
  P  P5  1  0.26546754  0.24768755  0.53899482  1
  P  P6  1  0.26546754  0.94784909  0.24768755  1
  P  P7  1  0.26546754  0.53899482  0.94784909  1
  P  P8  1  0.74613452  0.47639248  0.03997959  1
  P  P9  1  0.74613452  0.03997959  0.73749341  1
  P  P10  1  0.74613452  0.73749341  0.47639248  1
  O  O11  1  0.08776012  0.12166193  0.29261950  1
  O  O12  1  0.08776012  0.49795845  0.12166193  1
  O  O13  1  0.08776012  0.29261950  0.49795845  1
  O  O14  1  0.25061012  0.07659668  0.72767848  1
  O  O15  1  0.22748146  0.41337253  0.59608719  1
  O  O16  1  0.44439835  0.22720824  0.38383950  1
  O  O17  1  0.25061012  0.94511472  0.07659668  1
  O  O18  1  0.22748146  0.76305882  0.41337253  1
  O  O19  1  0.22748146  0.59608719  0.76305882  1
  O  O20  1  0.56792653  0.63798693  0.01079509  1
  O  O21  1  0.75185175  0.29425760  0.05097064  1
  O  O22  1  0.56792653  0.01079509  0.78329145  1
  O  O23  1  0.44439835  0.94455392  0.22720824  1
  O  O24  1  0.25061012  0.72767848  0.94511472  1
  O  O25  1  0.44439835  0.38383950  0.94455392  1
  O  O26  1  0.75397400  0.45283295  0.22707865  1
  O  O27  1  0.75397400  0.22707865  0.56611439  1
  O  O28  1  0.75185175  0.05097064  0.90292001  1
  O  O29  1  0.56792653  0.78329145  0.63798693  1
  O  O30  1  0.75397400  0.56611439  0.45283295  1
  O  O31  1  0.75185175  0.90292001  0.29425760  1
  O  O32  1  0.92178189  0.67330313  0.51975558  1
  O  O33  1  0.92178189  0.51975558  0.88516041  1
  O  O34  1  0.92178189  0.88516041  0.67330313  1
