# generated using pymatgen
data_Li4Fe3Ni5O16
_symmetry_space_group_name_H-M   'P 1'
_cell_length_a   5.74077504
_cell_length_b   5.75296606
_cell_length_c   9.49680279
_cell_angle_alpha   89.99706762
_cell_angle_beta   90.10244248
_cell_angle_gamma   120.06491735
_symmetry_Int_Tables_number   1
_chemical_formula_structural   Li4Fe3Ni5O16
_chemical_formula_sum   'Li4 Fe3 Ni5 O16'
_cell_volume   271.44698708
_cell_formula_units_Z   1
loop_
 _symmetry_equiv_pos_site_id
 _symmetry_equiv_pos_as_xyz
  1  'x, y, z'
loop_
 _atom_site_type_symbol
 _atom_site_label
 _atom_site_symmetry_multiplicity
 _atom_site_fract_x
 _atom_site_fract_y
 _atom_site_fract_z
 _atom_site_occupancy
  Li  Li0  1  0.34061621  0.67031303  0.88798204  1
  Li  Li1  1  0.99663068  0.99834702  0.99612924  1
  Li  Li2  1  0.99226872  0.99610909  0.49942895  1
  Li  Li3  1  0.66704087  0.33350962  0.39195918  1
  Fe  Fe4  1  0.17022307  0.83177257  0.21440780  1
  Fe  Fe5  1  0.17023207  0.33848498  0.21440159  1
  Fe  Fe6  1  0.33738375  0.16868218  0.71607690  1
  Ni  Ni7  1  0.33032748  0.66518011  0.49428774  1
  Ni  Ni8  1  0.66039467  0.83022224  0.21372318  1
  Ni  Ni9  1  0.67146970  0.33577332  0.98811550  1
  Ni  Ni10  1  0.83049736  0.66145469  0.71530324  1
  Ni  Ni11  1  0.83048154  0.16904084  0.71530418  1
  O  O12  1  0.15604501  0.84068660  0.60780902  1
  O  O13  1  0.03236064  0.51617575  0.33351228  1
  O  O14  1  0.35052881  0.67529390  0.09908124  1
  O  O15  1  0.97799581  0.98901696  0.31517433  1
  O  O16  1  0.99313726  0.99653358  0.80854278  1
  O  O17  1  0.15608117  0.31532087  0.60781796  1
  O  O18  1  0.48630532  0.96428205  0.33338431  1
  O  O19  1  0.48634386  0.52207378  0.33339125  1
  O  O20  1  0.32359335  0.16183118  0.10434268  1
  O  O21  1  0.68167365  0.84087025  0.60801076  1
  O  O22  1  0.52185814  0.48496595  0.82980958  1
  O  O23  1  0.52178745  0.03691267  0.82979548  1
  O  O24  1  0.67159693  0.33584885  0.61291317  1
  O  O25  1  0.83803694  0.68340842  0.10408070  1
  O  O26  1  0.96708888  0.48351814  0.82897604  1
  O  O27  1  0.83800065  0.15466936  0.10407684  1
