# generated using pymatgen
data_Fe6O5F7
_symmetry_space_group_name_H-M   'P 1'
_cell_length_a   7.70320676
_cell_length_b   5.69998381
_cell_length_c   5.69998381
_cell_angle_alpha   69.27722530
_cell_angle_beta   69.45618304
_cell_angle_gamma   69.45618304
_symmetry_Int_Tables_number   1
_chemical_formula_structural   Fe6O5F7
_chemical_formula_sum   'Fe6 O5 F7'
_cell_volume   211.72329459
_cell_formula_units_Z   1
loop_
 _symmetry_equiv_pos_site_id
 _symmetry_equiv_pos_as_xyz
  1  'x, y, z'
loop_
 _atom_site_type_symbol
 _atom_site_label
 _atom_site_symmetry_multiplicity
 _atom_site_fract_x
 _atom_site_fract_y
 _atom_site_fract_z
 _atom_site_occupancy
  Fe  Fe0  1  0.83333300  0.66445456  0.66887944  1
  Fe  Fe1  1  0.66421293  0.32870452  0.34083198  1
  Fe  Fe2  1  0.33333300  0.69036945  0.64296455  1
  Fe  Fe3  1  0.16059625  0.32976860  0.35186084  1
  Fe  Fe4  1  0.50607075  0.98147216  0.00356440  1
  Fe  Fe5  1  0.00245307  0.99250102  0.00462848  1
  O  O6  1  0.66441913  0.03079119  0.63706405  1
  O  O7  1  0.33333300  0.99637945  0.33695455  1
  O  O8  1  0.66751441  0.62501669  0.03718219  1
  O  O9  1  0.99915159  0.29615181  0.70831631  1
  O  O10  1  0.00224787  0.69626895  0.30254181  1
  F  F11  1  0.33333300  0.37520780  0.95812620  1
  F  F12  1  0.29508005  0.90722640  0.90456099  1
  F  F13  1  0.96059384  0.22920966  0.23330985  1
  F  F14  1  0.63869355  0.55753512  0.56318654  1
  F  F15  1  0.02797245  0.77014646  0.77579888  1
  F  F16  1  0.37158695  0.42877301  0.42610760  1
  F  F17  1  0.70607216  0.10002415  0.10412334  1
