# generated using pymatgen
data_Fe4O5F3
_symmetry_space_group_name_H-M   'P 1'
_cell_length_a   4.74062824
_cell_length_b   9.94229035
_cell_length_c   6.07288022
_cell_angle_alpha   72.29935183
_cell_angle_beta   90.10271515
_cell_angle_gamma   87.82458859
_symmetry_Int_Tables_number   1
_chemical_formula_structural   Fe4O5F3
_chemical_formula_sum   'Fe8 O10 F6'
_cell_volume   272.45725684
_cell_formula_units_Z   2
loop_
 _symmetry_equiv_pos_site_id
 _symmetry_equiv_pos_as_xyz
  1  'x, y, z'
loop_
 _atom_site_type_symbol
 _atom_site_label
 _atom_site_symmetry_multiplicity
 _atom_site_fract_x
 _atom_site_fract_y
 _atom_site_fract_z
 _atom_site_occupancy
  Fe  Fe0  1  0.49077856  0.24553025  0.62746701  1
  Fe  Fe1  1  0.48961850  0.74323048  0.87139247  1
  Fe  Fe2  1  0.54223366  0.76901965  0.37109177  1
  Fe  Fe3  1  0.52069228  0.26361670  0.11625518  1
  Fe  Fe4  1  0.00354491  0.00887886  0.49731154  1
  Fe  Fe5  1  0.97812279  0.48295671  0.75412816  1
  Fe  Fe6  1  0.03916717  0.99040079  0.00372303  1
  Fe  Fe7  1  0.93843599  0.49730633  0.26024263  1
  O  O8  1  0.78141559  0.39664074  0.55320268  1
  O  O9  1  0.79411448  0.40674195  0.04662317  1
  O  O10  1  0.84051936  0.91196443  0.29396617  1
  O  O11  1  0.69743877  0.15627693  0.41907514  1
  O  O12  1  0.67716876  0.65711823  0.17064314  1
  O  O13  1  0.68525007  0.65280578  0.67354140  1
  O  O14  1  0.32657057  0.84501662  0.07613835  1
  O  O15  1  0.31866915  0.85148142  0.57581755  1
  O  O16  1  0.30010707  0.34053574  0.83030764  1
  O  O17  1  0.19860380  0.09211950  0.70484332  1
  F  F18  1  0.81506445  0.89984581  0.80236242  1
  F  F19  1  0.71135298  0.14549187  0.92941256  1
  F  F20  1  0.28523148  0.35233827  0.32129881  1
  F  F21  1  0.18018261  0.59550829  0.95312625  1
  F  F22  1  0.21698840  0.10458926  0.19630595  1
  F  F23  1  0.16872959  0.59058438  0.45172267  1
