# generated using pymatgen
data_SnBO3
_symmetry_space_group_name_H-M   'P 1'
_cell_length_a   5.20115059
_cell_length_b   5.20115033
_cell_length_c   12.49287553
_cell_angle_alpha   83.76980001
_cell_angle_beta   96.23020209
_cell_angle_gamma   62.18260311
_symmetry_Int_Tables_number   1
_chemical_formula_structural   SnBO3
_chemical_formula_sum   'Sn4 B4 O12'
_cell_volume   292.22743223
_cell_formula_units_Z   4
loop_
 _symmetry_equiv_pos_site_id
 _symmetry_equiv_pos_as_xyz
  1  'x, y, z'
loop_
 _atom_site_type_symbol
 _atom_site_label
 _atom_site_symmetry_multiplicity
 _atom_site_fract_x
 _atom_site_fract_y
 _atom_site_fract_z
 _atom_site_occupancy
  Sn  Sn0  1  0.13976611  0.61596840  0.37421446  1
  Sn  Sn1  1  0.49280071  0.14856887  0.12998665  1
  Sn  Sn2  1  0.38403160  0.86023389  0.87421446  1
  Sn  Sn3  1  0.85143113  0.50719929  0.62998665  1
  B  B4  1  0.11721956  0.47277142  0.87785288  1
  B  B5  1  0.52225144  0.15796151  0.62835316  1
  B  B6  1  0.52722858  0.88278044  0.37785288  1
  B  B7  1  0.84203849  0.47774856  0.12835316  1
  O  O8  1  0.10823621  0.47787002  0.15457700  1
  O  O9  1  0.25940551  0.42340025  0.60618544  1
  O  O10  1  0.02498740  0.76328792  0.87222141  1
  O  O11  1  0.32980942  0.24590052  0.96158868  1
  O  O12  1  0.65727569  0.96956866  0.29745244  1
  O  O13  1  0.23671208  0.97501260  0.37222141  1
  O  O14  1  0.78248441  0.16201888  0.62131789  1
  O  O15  1  0.52212998  0.89176379  0.65457700  1
  O  O16  1  0.57659975  0.74059449  0.10618544  1
  O  O17  1  0.83798112  0.21751559  0.12131789  1
  O  O18  1  0.75409948  0.67019058  0.46158868  1
  O  O19  1  0.03043134  0.34272431  0.79745244  1
