# generated using pymatgen
data_Li3Nb2CrO6
_symmetry_space_group_name_H-M   'P 1'
_cell_length_a   16.47861618
_cell_length_b   10.49689137
_cell_length_c   10.49689128
_cell_angle_alpha   16.03936319
_cell_angle_beta   15.76627664
_cell_angle_gamma   15.76627634
_symmetry_Int_Tables_number   1
_chemical_formula_structural   Li3Nb2CrO6
_chemical_formula_sum   'Li3 Nb2 Cr1 O6'
_cell_volume   118.12591592
_cell_formula_units_Z   1
loop_
 _symmetry_equiv_pos_site_id
 _symmetry_equiv_pos_as_xyz
  1  'x, y, z'
loop_
 _atom_site_type_symbol
 _atom_site_label
 _atom_site_symmetry_multiplicity
 _atom_site_fract_x
 _atom_site_fract_y
 _atom_site_fract_z
 _atom_site_occupancy
  Li  Li0  1  0.16666700  0.50000000  0.50000000  1
  Li  Li1  1  0.52398582  0.49016279  0.49016279  1
  Li  Li2  1  0.80934818  0.50983721  0.50983721  1
  Nb  Nb3  1  0.95781713  0.03192097  0.03192097  1
  Nb  Nb4  1  0.37551587  0.96807903  0.96807903  1
  Cr  Cr5  1  0.66666700  0.00000000  0.00000000  1
  O  O6  1  0.26657408  0.24396718  0.24396718  1
  O  O7  1  0.57608956  0.24571032  0.24571032  1
  O  O8  1  0.06675892  0.75603282  0.75603282  1
  O  O9  1  0.91932619  0.25714406  0.25714406  1
  O  O10  1  0.41400681  0.74285594  0.74285594  1
  O  O11  1  0.75724344  0.75428968  0.75428968  1
