# generated using pymatgen
data_LiMnB2O5
_symmetry_space_group_name_H-M   'P 1'
_cell_length_a   7.19837475
_cell_length_b   7.19837475
_cell_length_c   9.50672139
_cell_angle_alpha   73.51549454
_cell_angle_beta   106.48450546
_cell_angle_gamma   83.44421035
_symmetry_Int_Tables_number   1
_chemical_formula_structural   LiMnB2O5
_chemical_formula_sum   'Li4 Mn4 B8 O20'
_cell_volume   442.67290230
_cell_formula_units_Z   4
loop_
 _symmetry_equiv_pos_site_id
 _symmetry_equiv_pos_as_xyz
  1  'x, y, z'
loop_
 _atom_site_type_symbol
 _atom_site_label
 _atom_site_symmetry_multiplicity
 _atom_site_fract_x
 _atom_site_fract_y
 _atom_site_fract_z
 _atom_site_occupancy
  Li  Li0  1  0.16761449  0.16761449  0.75000000  1
  Li  Li1  1  0.60817466  0.60817466  0.75000000  1
  Li  Li2  1  0.39182534  0.39182534  0.25000000  1
  Li  Li3  1  0.83238551  0.83238551  0.25000000  1
  Mn  Mn4  1  0.04603438  0.63882943  0.65213407  1
  Mn  Mn5  1  0.36117057  0.95396562  0.15213407  1
  Mn  Mn6  1  0.63882943  0.04603438  0.84786593  1
  Mn  Mn7  1  0.95396562  0.36117057  0.34786593  1
  B  B8  1  0.24343989  0.77251268  0.90295369  1
  B  B9  1  0.26452292  0.40417995  0.97684766  1
  B  B10  1  0.22748732  0.75656011  0.40295369  1
  B  B11  1  0.59582005  0.73547708  0.47684766  1
  B  B12  1  0.40417995  0.26452292  0.52315234  1
  B  B13  1  0.77251268  0.24343989  0.59704631  1
  B  B14  1  0.73547708  0.59582005  0.02315234  1
  B  B15  1  0.75656011  0.22748732  0.09704631  1
  O  O16  1  0.27547177  0.93383573  0.94767768  1
  O  O17  1  0.17246104  0.80605476  0.74634093  1
  O  O18  1  0.06616427  0.72452823  0.44767768  1
  O  O19  1  0.16647203  0.40579786  0.83052038  1
  O  O20  1  0.64846437  0.76107083  0.89676224  1
  O  O21  1  0.19394524  0.82753896  0.24634093  1
  O  O22  1  0.41818580  0.71638367  0.51321214  1
  O  O23  1  0.71638367  0.41818580  0.98678786  1
  O  O24  1  0.59420214  0.83352797  0.33052038  1
  O  O25  1  0.23892917  0.35153563  0.39676224  1
  O  O26  1  0.76107083  0.64846437  0.60323776  1
  O  O27  1  0.40579786  0.16647203  0.66947962  1
  O  O28  1  0.28361633  0.58181420  0.01321214  1
  O  O29  1  0.58181420  0.28361633  0.48678786  1
  O  O30  1  0.80605476  0.17246104  0.75365907  1
  O  O31  1  0.35153563  0.23892917  0.10323776  1
  O  O32  1  0.83352797  0.59420214  0.16947962  1
  O  O33  1  0.93383573  0.27547177  0.55232232  1
  O  O34  1  0.82753896  0.19394524  0.25365907  1
  O  O35  1  0.72452823  0.06616427  0.05232232  1
