# generated using pymatgen
data_H9C8NO2
_symmetry_space_group_name_H-M   'P 1'
_cell_length_a   7.12492493
_cell_length_b   9.85962088
_cell_length_c   11.75024362
_cell_angle_alpha   90.00000000
_cell_angle_beta   96.49232096
_cell_angle_gamma   90.00000000
_symmetry_Int_Tables_number   1
_chemical_formula_structural   H9C8NO2
_chemical_formula_sum   'H36 C32 N4 O8'
_cell_volume   820.14999813
_cell_formula_units_Z   4
loop_
 _symmetry_equiv_pos_site_id
 _symmetry_equiv_pos_as_xyz
  1  'x, y, z'
loop_
 _atom_site_type_symbol
 _atom_site_label
 _atom_site_symmetry_multiplicity
 _atom_site_fract_x
 _atom_site_fract_y
 _atom_site_fract_z
 _atom_site_occupancy
  H  H0  1  0.62457981  0.41992281  0.00327280  1
  H  H1  1  0.87542019  0.91992281  0.49672720  1
  H  H2  1  0.37542019  0.58007719  0.99672720  1
  H  H3  1  0.12457981  0.08007719  0.50327280  1
  H  H4  1  0.58708067  0.26911823  0.83549415  1
  H  H5  1  0.91291933  0.76911823  0.66450585  1
  H  H6  1  0.41291933  0.73088177  0.16450585  1
  H  H7  1  0.08708067  0.23088177  0.33549415  1
  H  H8  1  0.14462606  0.10688060  0.93063035  1
  H  H9  1  0.35537394  0.60688060  0.56936965  1
  H  H10  1  0.85537394  0.89311940  0.06936965  1
  H  H11  1  0.64462606  0.39311940  0.43063035  1
  H  H12  1  0.18527073  0.26199221  0.09659961  1
  H  H13  1  0.31472927  0.76199221  0.40340039  1
  H  H14  1  0.81472927  0.73800779  0.90340039  1
  H  H15  1  0.68527073  0.23800779  0.59659961  1
  H  H16  1  0.95459976  0.05188390  0.75860500  1
  H  H17  1  0.54540024  0.55188390  0.74139500  1
  H  H18  1  0.04540024  0.94811610  0.24139500  1
  H  H19  1  0.45459976  0.44811610  0.25860500  1
  H  H20  1  0.08152912  0.44548691  0.19205872  1
  H  H21  1  0.41847088  0.94548691  0.30794128  1
  H  H22  1  0.91847088  0.55451309  0.80794128  1
  H  H23  1  0.58152912  0.05451309  0.69205872  1
  H  H24  1  0.82751880  0.57028231  0.39284396  1
  H  H25  1  0.67248120  0.07028231  0.10715604  1
  H  H26  1  0.17248120  0.42971769  0.60715604  1
  H  H27  1  0.32751880  0.92971769  0.89284396  1
  H  H28  1  0.05224652  0.57559092  0.33746361  1
  H  H29  1  0.44775348  0.07559092  0.16253639  1
  H  H30  1  0.94775348  0.42440908  0.66253639  1
  H  H31  1  0.55224652  0.92440908  0.83746361  1
  H  H32  1  0.87297437  0.69671374  0.29397424  1
  H  H33  1  0.62702563  0.19671374  0.20602576  1
  H  H34  1  0.12702563  0.30328626  0.70602576  1
  H  H35  1  0.37297437  0.80328626  0.79397424  1
  C  C36  1  0.90743510  0.35131676  0.06280653  1
  C  C37  1  0.59256490  0.85131676  0.43719347  1
  C  C38  1  0.09256490  0.64868324  0.93719347  1
  C  C39  1  0.40743510  0.14868324  0.56280653  1
  C  C40  1  0.73898762  0.35192173  0.98827033  1
  C  C41  1  0.76101238  0.85192173  0.51172967  1
  C  C42  1  0.26101238  0.64807827  0.01172967  1
  C  C43  1  0.23898762  0.14807827  0.48827033  1
  C  C44  1  0.71740184  0.26545806  0.89379065  1
  C  C45  1  0.78259816  0.76545806  0.60620935  1
  C  C46  1  0.28259816  0.73454194  0.10620935  1
  C  C47  1  0.21740184  0.23454194  0.39379065  1
  C  C48  1  0.86226404  0.17627196  0.87186629  1
  C  C49  1  0.63773596  0.67627196  0.62813371  1
  C  C50  1  0.13773596  0.82372804  0.12813371  1
  C  C51  1  0.36226404  0.32372804  0.37186629  1
  C  C52  1  0.03104174  0.17621477  0.94591241  1
  C  C53  1  0.46895826  0.67621477  0.55408759  1
  C  C54  1  0.96895826  0.82378523  0.05408759  1
  C  C55  1  0.53104174  0.32378523  0.44591241  1
  C  C56  1  0.05311903  0.26307992  0.03980877  1
  C  C57  1  0.44688097  0.76307992  0.46019123  1
  C  C58  1  0.94688097  0.73692008  0.96019123  1
  C  C59  1  0.55311903  0.23692008  0.53980877  1
  C  C60  1  0.81619599  0.50134211  0.21885066  1
  C  C61  1  0.68380401  0.00134211  0.28114934  1
  C  C62  1  0.18380401  0.49865789  0.78114934  1
  C  C63  1  0.31619599  0.99865789  0.71885066  1
  C  C64  1  0.89960239  0.58967315  0.31665857  1
  C  C65  1  0.60039761  0.08967315  0.18334143  1
  C  C66  1  0.10039761  0.41032685  0.68334143  1
  C  C67  1  0.39960239  0.91032685  0.81665857  1
  N  N68  1  0.94242722  0.43780032  0.15902913  1
  N  N69  1  0.55757278  0.93780032  0.34097087  1
  N  N70  1  0.05757278  0.56219968  0.84097087  1
  N  N71  1  0.44242722  0.06219968  0.65902913  1
  O  O72  1  0.83309818  0.09166653  0.77914630  1
  O  O73  1  0.66690182  0.59166653  0.72085370  1
  O  O74  1  0.16690182  0.90833347  0.22085370  1
  O  O75  1  0.33309818  0.40833347  0.27914630  1
  O  O76  1  0.64078355  0.49026299  0.19440284  1
  O  O77  1  0.85921645  0.99026299  0.30559716  1
  O  O78  1  0.35921645  0.50973701  0.80559716  1
  O  O79  1  0.14078355  0.00973701  0.69440284  1
