# generated using pymatgen
data_Fe5O7F3
_symmetry_space_group_name_H-M   'P 1'
_cell_length_a   4.67802803
_cell_length_b   4.67802803
_cell_length_c   15.20995193
_cell_angle_alpha   89.92339939
_cell_angle_beta   89.92339939
_cell_angle_gamma   91.56056527
_symmetry_Int_Tables_number   1
_chemical_formula_structural   Fe5O7F3
_chemical_formula_sum   'Fe10 O14 F6'
_cell_volume   332.72970286
_cell_formula_units_Z   2
loop_
 _symmetry_equiv_pos_site_id
 _symmetry_equiv_pos_as_xyz
  1  'x, y, z'
loop_
 _atom_site_type_symbol
 _atom_site_label
 _atom_site_symmetry_multiplicity
 _atom_site_fract_x
 _atom_site_fract_y
 _atom_site_fract_z
 _atom_site_occupancy
  Fe  Fe0  1  0.00612864  0.00397834  0.00087365  1
  Fe  Fe1  1  0.96869030  0.98243615  0.20597514  1
  Fe  Fe2  1  0.01756385  0.03130970  0.39402486  1
  Fe  Fe3  1  0.99602166  0.99387136  0.59912635  1
  Fe  Fe4  1  0.01018760  0.98981240  0.80000000  1
  Fe  Fe5  1  0.54053061  0.47969875  0.09346519  1
  Fe  Fe6  1  0.52030125  0.45946939  0.50653481  1
  Fe  Fe7  1  0.49410711  0.50589289  0.30000000  1
  Fe  Fe8  1  0.47500380  0.52305292  0.70124941  1
  Fe  Fe9  1  0.47694708  0.52499620  0.89875059  1
  O  O10  1  0.19614414  0.80385586  0.30000000  1
  O  O11  1  0.17861237  0.81577244  0.69751847  1
  O  O12  1  0.18422756  0.82138763  0.90248153  1
  O  O13  1  0.30835158  0.30731942  0.99799542  1
  O  O14  1  0.32354997  0.31764523  0.40005976  1
  O  O15  1  0.29792800  0.30133009  0.60390555  1
  O  O16  1  0.29561007  0.31951207  0.79992361  1
  O  O17  1  0.69866991  0.70207200  0.99609445  1
  O  O18  1  0.68235477  0.67645003  0.19994024  1
  O  O19  1  0.69268058  0.69164842  0.60200458  1
  O  O20  1  0.68048793  0.70438993  0.80007639  1
  O  O21  1  0.81816182  0.17374625  0.09895170  1
  O  O22  1  0.82625375  0.18183818  0.50104830  1
  O  O23  1  0.79742299  0.20257701  0.30000000  1
  F  F24  1  0.19810008  0.78630114  0.10335711  1
  F  F25  1  0.21369886  0.80189992  0.49664289  1
  F  F26  1  0.30032769  0.28846694  0.19629137  1
  F  F27  1  0.71153306  0.69967231  0.40370863  1
  F  F28  1  0.79848478  0.20808178  0.89835346  1
  F  F29  1  0.79191822  0.20151522  0.70164654  1
