# generated using pymatgen
data_TiMn3O8
_symmetry_space_group_name_H-M   'P 1'
_cell_length_a   8.27541627
_cell_length_b   8.27561883
_cell_length_c   8.27549128
_cell_angle_alpha   89.99953073
_cell_angle_beta   89.99897469
_cell_angle_gamma   90.00028525
_symmetry_Int_Tables_number   1
_chemical_formula_structural   TiMn3O8
_chemical_formula_sum   'Ti4 Mn12 O32'
_cell_volume   566.74032298
_cell_formula_units_Z   4
loop_
 _symmetry_equiv_pos_site_id
 _symmetry_equiv_pos_as_xyz
  1  'x, y, z'
loop_
 _atom_site_type_symbol
 _atom_site_label
 _atom_site_symmetry_multiplicity
 _atom_site_fract_x
 _atom_site_fract_y
 _atom_site_fract_z
 _atom_site_occupancy
  Ti  Ti0  1  0.12483117  0.87503794  0.37500588  1
  Ti  Ti1  1  0.37512615  0.12490321  0.87504886  1
  Ti  Ti2  1  0.62492046  0.62492664  0.62489944  1
  Ti  Ti3  1  0.87513298  0.37502638  0.12490104  1
  Mn  Mn4  1  0.12217227  0.12780343  0.62506843  1
  Mn  Mn5  1  0.12509266  0.37781561  0.87217700  1
  Mn  Mn6  1  0.12781172  0.62507332  0.12215798  1
  Mn  Mn7  1  0.37218537  0.37493498  0.62217820  1
  Mn  Mn8  1  0.37491567  0.62219452  0.37220121  1
  Mn  Mn9  1  0.37784478  0.87219375  0.12509920  1
  Mn  Mn10  1  0.62217400  0.37219386  0.37492176  1
  Mn  Mn11  1  0.62506753  0.12218908  0.12782586  1
  Mn  Mn12  1  0.62781701  0.87491573  0.87783461  1
  Mn  Mn13  1  0.87218968  0.12509334  0.37783832  1
  Mn  Mn14  1  0.87492641  0.87783530  0.62782861  1
  Mn  Mn15  1  0.87781521  0.62781042  0.87494031  1
  O  O16  1  0.10595876  0.11415909  0.39089867  1
  O  O17  1  0.10909437  0.89404627  0.61414817  1
  O  O18  1  0.11161975  0.61162565  0.88838118  1
  O  O19  1  0.13592929  0.14405396  0.85918903  1
  O  O20  1  0.11418171  0.39090654  0.10597754  1
  O  O21  1  0.13840235  0.36160235  0.63841668  1
  O  O22  1  0.14080320  0.63591912  0.35596048  1
  O  O23  1  0.14404198  0.85919068  0.13590428  1
  O  O24  1  0.35595582  0.14082798  0.63591415  1
  O  O25  1  0.35918456  0.36408360  0.85595995  1
  O  O26  1  0.36159570  0.63841984  0.13842316  1
  O  O27  1  0.38583794  0.60911079  0.60598316  1
  O  O28  1  0.36406328  0.85595721  0.35918939  1
  O  O29  1  0.38837364  0.38839349  0.38838867  1
  O  O30  1  0.39090580  0.10596896  0.11416914  1
  O  O31  1  0.39403689  0.88584265  0.89090995  1
  O  O32  1  0.60596786  0.38585112  0.60911064  1
  O  O33  1  0.60910317  0.60598244  0.38584036  1
  O  O34  1  0.61162998  0.88838331  0.11164049  1
  O  O35  1  0.63592560  0.35595701  0.14082661  1
  O  O36  1  0.61417338  0.10910674  0.89403878  1
  O  O37  1  0.63840134  0.13842006  0.36160162  1
  O  O38  1  0.64081238  0.86408747  0.64406312  1
  O  O39  1  0.64403772  0.64082818  0.86409171  1
  O  O40  1  0.85595825  0.35918311  0.36408678  1
  O  O41  1  0.85919554  0.13591611  0.14405008  1
  O  O42  1  0.86159457  0.86159706  0.86160389  1
  O  O43  1  0.88581489  0.89089882  0.39403398  1
  O  O44  1  0.86408543  0.64406078  0.64082634  1
  O  O45  1  0.88836628  0.11162984  0.61162805  1
  O  O46  1  0.89089102  0.39403144  0.88584831  1
  O  O47  1  0.89403646  0.61414980  0.10911094  1
