# generated using pymatgen
data_Li2Fe3NiO8
_symmetry_space_group_name_H-M   'P 1'
_cell_length_a   8.40373943
_cell_length_b   8.34200820
_cell_length_c   8.40998665
_cell_angle_alpha   90.11991431
_cell_angle_beta   90.18118482
_cell_angle_gamma   89.87975929
_symmetry_Int_Tables_number   1
_chemical_formula_structural   Li2Fe3NiO8
_chemical_formula_sum   'Li8 Fe12 Ni4 O32'
_cell_volume   589.56870715
_cell_formula_units_Z   4
loop_
 _symmetry_equiv_pos_site_id
 _symmetry_equiv_pos_as_xyz
  1  'x, y, z'
loop_
 _atom_site_type_symbol
 _atom_site_label
 _atom_site_symmetry_multiplicity
 _atom_site_fract_x
 _atom_site_fract_y
 _atom_site_fract_z
 _atom_site_occupancy
  Li  Li0  1  0.12462152  0.87539857  0.37867727  1
  Li  Li1  1  0.25655657  0.75359933  0.74101167  1
  Li  Li2  1  0.24901725  0.25204429  0.24750226  1
  Li  Li3  1  0.37647240  0.12389137  0.87493041  1
  Li  Li4  1  0.62538193  0.62339308  0.62340514  1
  Li  Li5  1  0.75120017  0.75119549  0.24438859  1
  Li  Li6  1  0.75137302  0.25312193  0.74320489  1
  Li  Li7  1  0.87486444  0.37837868  0.12646581  1
  Fe  Fe8  1  0.12145144  0.62072664  0.12692225  1
  Fe  Fe9  1  0.12618668  0.37999308  0.87823844  1
  Fe  Fe10  1  0.12310899  0.12428765  0.62198678  1
  Fe  Fe11  1  0.37364228  0.87669069  0.12595845  1
  Fe  Fe12  1  0.37749038  0.62312320  0.38285348  1
  Fe  Fe13  1  0.38011909  0.37291304  0.62909962  1
  Fe  Fe14  1  0.61873674  0.87670726  0.87461339  1
  Fe  Fe15  1  0.62335445  0.12538419  0.12003950  1
  Fe  Fe16  1  0.62400785  0.37731601  0.37610108  1
  Fe  Fe17  1  0.87474264  0.62116166  0.87445569  1
  Fe  Fe18  1  0.87483711  0.87372506  0.62241899  1
  Fe  Fe19  1  0.87902976  0.12291725  0.37250437  1
  Ni  Ni20  1  0.00110980  0.49833555  0.49668905  1
  Ni  Ni21  1  0.50092725  0.50202561  0.00045594  1
  Ni  Ni22  1  0.49904788  0.99628964  0.50564738  1
  Ni  Ni23  1  0.00312176  -0.00126415  0.00345671  1
  O  O24  1  0.09652864  0.12722062  0.37926457  1
  O  O25  1  0.11049640  0.90332326  0.63247988  1
  O  O26  1  0.12227902  0.60698823  0.88151040  1
  O  O27  1  0.12334396  0.39988152  0.11145141  1
  O  O28  1  0.11248534  0.15680408  0.87209228  1
  O  O29  1  0.13427734  0.35926310  0.63416953  1
  O  O30  1  0.14760670  0.62358860  0.36764844  1
  O  O31  1  0.13818051  0.84991482  0.12288074  1
  O  O32  1  0.34995285  0.13105121  0.62198121  1
  O  O33  1  0.36525242  0.37429630  0.86209118  1
  O  O34  1  0.36142417  0.63261278  0.14280358  1
  O  O35  1  0.37908079  0.84900672  0.36891327  1
  O  O36  1  0.37563943  0.61350881  0.59938610  1
  O  O37  1  0.38426704  0.39292566  0.38298932  1
  O  O38  1  0.38943664  0.10318303  0.13174882  1
  O  O39  1  0.40110474  0.87336766  0.88647743  1
  O  O40  1  0.61061166  0.37252190  0.59764874  1
  O  O41  1  0.60357943  0.61047388  0.37316172  1
  O  O42  1  0.61561256  0.87946137  0.10281122  1
  O  O43  1  0.62963074  0.10145758  0.88690639  1
  O  O44  1  0.62059870  0.36166371  0.14643655  1
  O  O45  1  0.64447022  0.13305496  0.36457474  1
  O  O46  1  0.63386058  0.87523587  0.65251238  1
  O  O47  1  0.63557069  0.64688630  0.87579753  1
  O  O48  1  0.85706507  0.35506810  0.37601436  1
  O  O49  1  0.86377456  0.12311021  0.14531861  1
  O  O50  1  0.85962485  0.85907747  0.87148512  1
  O  O51  1  0.87911505  0.63806082  0.64058021  1
  O  O52  1  0.87108010  0.89875402  0.38827603  1
  O  O53  1  0.89007694  0.11922822  0.60621868  1
  O  O54  1  0.88533355  0.40221535  0.87558055  1
  O  O55  1  0.89823793  0.62551676  0.10783985  1
