# generated using pymatgen
data_Li11Y14Ti14(S2O5)7
_symmetry_space_group_name_H-M   'P 1'
_cell_length_a   11.31889807
_cell_length_b   12.56242927
_cell_length_c   8.90934515
_cell_angle_alpha   82.02587543
_cell_angle_beta   76.35202709
_cell_angle_gamma   83.65250110
_symmetry_Int_Tables_number   1
_chemical_formula_structural   Li11Y14Ti14(S2O5)7
_chemical_formula_sum   'Li11 Y14 Ti14 S14 O35'
_cell_volume   1215.17779301
_cell_formula_units_Z   1
loop_
 _symmetry_equiv_pos_site_id
 _symmetry_equiv_pos_as_xyz
  1  'x, y, z'
loop_
 _atom_site_type_symbol
 _atom_site_label
 _atom_site_symmetry_multiplicity
 _atom_site_fract_x
 _atom_site_fract_y
 _atom_site_fract_z
 _atom_site_occupancy
  Li  Li0  1  0.00001257  0.36159362  0.93483304  1
  Li  Li1  1  0.00006876  0.00088079  0.50946450  1
  Li  Li2  1  0.99997583  0.86162679  0.92126159  1
  Li  Li3  1  0.00000000  0.57142900  0.78571400  1
  Li  Li4  1  0.00002417  0.28123021  0.65016641  1
  Li  Li5  1  0.99998743  0.78126338  0.63659496  1
  Li  Li6  1  0.00001723  0.50095840  0.49457799  1
  Li  Li7  1  0.99996255  0.22162828  0.35468182  1
  Li  Li8  1  0.99993124  0.14197621  0.06196450  1
  Li  Li9  1  0.00003745  0.92122872  0.21674718  1
  Li  Li10  1  0.99998277  0.64189860  0.07685101  1
  Y  Y11  1  0.67366188  0.23680188  0.95106275  1
  Y  Y12  1  0.32618763  0.47641156  0.90978001  1
  Y  Y13  1  0.32643723  0.19034725  0.76426183  1
  Y  Y14  1  0.67381237  0.66644544  0.66164799  1
  Y  Y15  1  0.67356377  0.95250975  0.80716617  1
  Y  Y16  1  0.67460088  0.09470588  0.37855048  1
  Y  Y17  1  0.67395922  0.38085662  0.52013995  1
  Y  Y18  1  0.32613118  0.33414742  0.33376930  1
  Y  Y19  1  0.32633812  0.90605512  0.62036625  1
  Y  Y20  1  0.32682615  0.61977030  0.47495831  1
  Y  Y21  1  0.32539912  0.04815112  0.19287752  1
  Y  Y22  1  0.67386882  0.80870958  0.23765870  1
  Y  Y23  1  0.67317385  0.52308670  0.09647069  1
  Y  Y24  1  0.32604078  0.76200038  0.05128905  1
  Ti  Ti25  1  0.81761418  0.72704463  0.90957347  1
  Ti  Ti26  1  0.81759885  0.44186387  0.76618486  1
  Ti  Ti27  1  0.82099886  0.15470371  0.62498860  1
  Ti  Ti28  1  0.17900114  0.98815429  0.94644040  1
  Ti  Ti29  1  0.18240115  0.70099313  0.80524414  1
  Ti  Ti30  1  0.17911567  0.12916842  0.52261763  1
  Ti  Ti31  1  0.18238582  0.41581237  0.66185453  1
  Ti  Ti32  1  0.82118466  0.86809880  0.47863334  1
  Ti  Ti33  1  0.82532179  0.58387760  0.33566580  1
  Ti  Ti34  1  0.82108505  0.30035066  0.19500121  1
  Ti  Ti35  1  0.82088433  0.01368858  0.04881037  1
  Ti  Ti36  1  0.17881634  0.27475820  0.09279566  1
  Ti  Ti37  1  0.17891495  0.84250634  0.37642779  1
  Ti  Ti38  1  0.17467821  0.55898040  0.23576320  1
  S  S39  1  0.59005121  0.74378917  0.97378882  1
  S  S40  1  0.58991211  0.45755232  0.83110698  1
  S  S41  1  0.58929394  0.17291020  0.68581026  1
  S  S42  1  0.41070606  0.96994680  0.88561774  1
  S  S43  1  0.40994879  0.39906783  0.59763918  1
  S  S44  1  0.41008789  0.68530568  0.74032102  1
  S  S45  1  0.41049975  0.11434866  0.45153858  1
  S  S46  1  0.58934477  0.31324152  0.25947982  1
  S  S47  1  0.58921417  0.88826867  0.54711349  1
  S  S48  1  0.58800258  0.60078293  0.40393163  1
  S  S49  1  0.58950025  0.02850834  0.11989042  1
  S  S50  1  0.41078583  0.25458833  0.02431451  1
  S  S51  1  0.41065523  0.82961548  0.31194918  1
  S  S52  1  0.41199742  0.54207407  0.16749737  1
  O  O53  1  0.81118884  0.37170991  0.98337164  1
  O  O54  1  0.79926392  0.08581113  0.84304009  1
  O  O55  1  0.81059433  0.01243121  0.55456227  1
  O  O56  1  0.81132161  0.87093378  0.98106046  1
  O  O57  1  0.81159199  0.58492103  0.83949276  1
  O  O58  1  0.18868031  0.34477507  0.87546104  1
  O  O59  1  0.81120131  0.29885859  0.69824890  1
  O  O60  1  0.20073608  0.05704587  0.72838891  1
  O  O61  1  0.18879869  0.84399841  0.87317910  1
  O  O62  1  -0.00002599  0.71455318  0.85648806  1
  O  O63  1  0.00002599  0.42830382  0.71494094  1
  O  O64  1  0.81131969  0.79808193  0.69596696  1
  O  O65  1  0.81259402  0.51341640  0.55370047  1
  O  O66  1  0.18840801  0.55793597  0.73193624  1
  O  O67  1  0.18867839  0.27192422  0.59036854  1
  O  O68  1  0.80991737  0.22838716  0.41231831  1
  O  O69  1  0.00001426  0.14603492  0.56307051  1
  O  O70  1  0.18752271  0.48658812  0.44647007  1
  O  O71  1  0.79745222  0.44417114  0.27306641  1
  O  O72  1  0.18881116  0.77114709  0.58805636  1
  O  O73  1  0.79745177  0.72767179  0.41417743  1
  O  O74  1  0.19005747  0.20122784  0.30362076  1
  O  O75  1  0.81067179  0.15745522  0.12507648  1
  O  O76  1  -0.00001426  0.99682208  0.00835849  1
  O  O77  1  0.20254823  0.41518521  0.15725057  1
  O  O78  1  0.99995625  0.28085573  0.14013057  1
  O  O79  1  0.18932821  0.98540178  0.44635152  1
  O  O80  1  0.00000000  0.57142900  0.28571400  1
  O  O81  1  0.80994253  0.94162916  0.26780824  1
  O  O82  1  0.00004375  0.86200127  0.43129743  1
  O  O83  1  0.20254778  0.69868686  0.29836159  1
  O  O84  1  0.81247729  0.65626888  0.12495793  1
  O  O85  1  0.18940567  0.13042679  0.01686573  1
  O  O86  1  0.18740598  0.62944060  0.01772853  1
  O  O87  1  0.19008263  0.91446984  0.15911069  1
