# generated using pymatgen
data_Li7V7(P4O17)2
_symmetry_space_group_name_H-M   'P 1'
_cell_length_a   8.07074633
_cell_length_b   20.04289991
_cell_length_c   10.23694285
_cell_angle_alpha   90.00000000
_cell_angle_beta   113.50830303
_cell_angle_gamma   90.00000000
_symmetry_Int_Tables_number   1
_chemical_formula_structural   Li7V7(P4O17)2
_chemical_formula_sum   'Li14 V14 P16 O68'
_cell_volume   1518.50053441
_cell_formula_units_Z   2
loop_
 _symmetry_equiv_pos_site_id
 _symmetry_equiv_pos_as_xyz
  1  'x, y, z'
loop_
 _atom_site_type_symbol
 _atom_site_label
 _atom_site_symmetry_multiplicity
 _atom_site_fract_x
 _atom_site_fract_y
 _atom_site_fract_z
 _atom_site_occupancy
  Li  Li0  1  0.00000000  0.00000000  0.50000000  1
  Li  Li1  1  0.23427184  0.63653486  0.84889048  1
  Li  Li2  1  0.00000000  0.50000000  0.00000000  1
  Li  Li3  1  0.23427184  0.86346514  0.34889048  1
  Li  Li4  1  0.45373369  0.05021650  0.81320245  1
  Li  Li5  1  0.33153473  0.75797170  0.69356338  1
  Li  Li6  1  0.66846527  0.25797170  0.80643662  1
  Li  Li7  1  0.45373369  0.44978350  0.31320245  1
  Li  Li8  1  0.54626731  0.55021650  0.68679755  1
  Li  Li9  1  0.33153473  0.74202830  0.19356338  1
  Li  Li10  1  0.66846527  0.24202830  0.30643662  1
  Li  Li11  1  0.54626731  0.94978350  0.18679755  1
  Li  Li12  1  0.76572816  0.13653486  0.65110952  1
  Li  Li13  1  0.76572816  0.36346514  0.15110952  1
  V  V14  1  0.02638344  0.33488703  0.95246175  1
  V  V15  1  0.10308209  0.92142572  0.88786247  1
  V  V16  1  0.02638344  0.16511297  0.45246175  1
  V  V17  1  0.10308209  0.57857428  0.38786247  1
  V  V18  1  0.28174113  0.35661628  0.79774700  1
  V  V19  1  0.28174113  0.14338372  0.29774700  1
  V  V20  1  0.50000000  0.00000000  0.50000000  1
  V  V21  1  0.71825887  0.85661628  0.70225300  1
  V  V22  1  0.50000000  0.50000000  0.00000000  1
  V  V23  1  0.71825887  0.64338372  0.20225300  1
  V  V24  1  0.89691791  0.42142572  0.61213753  1
  V  V25  1  0.97361656  0.83488703  0.54753825  1
  V  V26  1  0.89691791  0.07857428  0.11213753  1
  V  V27  1  0.97361656  0.66511297  0.04753825  1
  P  P28  1  0.94584293  0.27160104  0.64560565  1
  P  P29  1  0.18423794  0.50876556  0.68245451  1
  P  P30  1  0.94584293  0.22839896  0.14560565  1
  P  P31  1  0.33622452  0.91680247  0.69474950  1
  P  P32  1  0.39142288  0.14990689  0.59324735  1
  P  P33  1  0.18423794  0.99123444  0.18245451  1
  P  P34  1  0.33622452  0.58319753  0.19474950  1
  P  P35  1  0.60857712  0.64990689  0.90675265  1
  P  P36  1  0.39142288  0.35009311  0.09324735  1
  P  P37  1  0.66377548  0.41680247  0.80525050  1
  P  P38  1  0.81576206  0.00876556  0.81754549  1
  P  P39  1  0.60857712  0.85009311  0.40675265  1
  P  P40  1  0.66377548  0.08319753  0.30525050  1
  P  P41  1  0.05415707  0.77160104  0.85439435  1
  P  P42  1  0.81576206  0.49123444  0.31754549  1
  P  P43  1  0.05415707  0.72839896  0.35439435  1
  O  O44  1  0.11471589  0.70309400  0.93191396  1
  O  O45  1  0.16380311  0.82719998  0.95754515  1
  O  O46  1  0.06024011  0.39043896  0.80709922  1
  O  O47  1  0.09814049  0.76972146  0.71802185  1
  O  O48  1  0.97670624  0.51725285  0.63333106  1
  O  O49  1  0.11471589  0.79690600  0.43191396  1
  O  O50  1  0.16380311  0.67280002  0.45754515  1
  O  O51  1  0.27561942  0.29909401  0.97207313  1
  O  O52  1  0.06024011  0.10956104  0.30709922  1
  O  O53  1  0.25788583  0.11895168  0.64958224  1
  O  O54  1  0.09814049  0.73027854  0.21802185  1
  O  O55  1  0.97670624  0.98274715  0.13333106  1
  O  O56  1  0.14999186  0.28014250  0.67592345  1
  O  O57  1  0.14772795  0.91169476  0.56477386  1
  O  O58  1  0.31661978  0.93243119  0.83563059  1
  O  O59  1  0.26702967  0.53069798  0.84212258  1
  O  O60  1  0.21203762  0.43347536  0.65505351  1
  O  O61  1  0.26674022  0.55326553  0.60029428  1
  O  O62  1  0.43524405  0.40266561  0.99450935  1
  O  O63  1  0.27561942  0.20090599  0.47207313  1
  O  O64  1  0.42246083  0.98081254  0.66252290  1
  O  O65  1  0.25788583  0.38104832  0.14958224  1
  O  O66  1  0.14999186  0.21985750  0.17592345  1
  O  O67  1  0.14772795  0.58830524  0.06477386  1
  O  O68  1  0.31661978  0.56756881  0.33563059  1
  O  O69  1  0.26702967  0.96930202  0.34212258  1
  O  O70  1  0.21203762  0.06652464  0.15505351  1
  O  O71  1  0.26674022  0.94673447  0.10029428  1
  O  O72  1  0.43524405  0.09733439  0.49450935  1
  O  O73  1  0.43433413  0.67852048  0.80066141  1
  O  O74  1  0.55145370  0.35233002  0.79432052  1
  O  O75  1  0.44854630  0.85233002  0.70567948  1
  O  O76  1  0.56566587  0.17852048  0.69933859  1
  O  O77  1  0.57753917  0.48081254  0.83747710  1
  O  O78  1  0.42246083  0.51918746  0.16252290  1
  O  O79  1  0.43433413  0.82147952  0.30066141  1
  O  O80  1  0.55145370  0.14766998  0.29432052  1
  O  O81  1  0.44854630  0.64766998  0.20567948  1
  O  O82  1  0.56566587  0.32147952  0.19933859  1
  O  O83  1  0.56475595  0.90266561  0.50549065  1
  O  O84  1  0.73325978  0.05326553  0.89970572  1
  O  O85  1  0.78796238  0.93347536  0.84494649  1
  O  O86  1  0.73297033  0.03069798  0.65787742  1
  O  O87  1  0.68338022  0.43243119  0.66436941  1
  O  O88  1  0.85227205  0.41169476  0.93522614  1
  O  O89  1  0.85000814  0.78014250  0.82407655  1
  O  O90  1  0.74211417  0.61895168  0.85041776  1
  O  O91  1  0.57753917  0.01918746  0.33747710  1
  O  O92  1  0.72438058  0.79909401  0.52792687  1
  O  O93  1  0.56475595  0.59733439  0.00549065  1
  O  O94  1  0.73325978  0.44673447  0.39970572  1
  O  O95  1  0.78796238  0.56652464  0.34494649  1
  O  O96  1  0.73297033  0.46930202  0.15787742  1
  O  O97  1  0.68338022  0.06756881  0.16436941  1
  O  O98  1  0.85227205  0.08830524  0.43522614  1
  O  O99  1  0.85000814  0.71985750  0.32407655  1
  O  O100  1  0.02329376  0.01725285  0.86666894  1
  O  O101  1  0.90185951  0.26972146  0.78197815  1
  O  O102  1  0.74211417  0.88104832  0.35041776  1
  O  O103  1  0.93975989  0.89043896  0.69290078  1
  O  O104  1  0.72438058  0.70090599  0.02792687  1
  O  O105  1  0.83619689  0.32719998  0.54245485  1
  O  O106  1  0.88528411  0.20309400  0.56808604  1
  O  O107  1  0.02329376  0.48274715  0.36666894  1
  O  O108  1  0.90185951  0.23027854  0.28197815  1
  O  O109  1  0.93975989  0.60956104  0.19290078  1
  O  O110  1  0.83619689  0.17280002  0.04245485  1
  O  O111  1  0.88528411  0.29690600  0.06808604  1
