# generated using pymatgen
data_LiV(Si3O7)2
_symmetry_space_group_name_H-M   'P 1'
_cell_length_a   12.77047103
_cell_length_b   12.77047103
_cell_length_c   7.37864117
_cell_angle_alpha   73.20820889
_cell_angle_beta   106.79179111
_cell_angle_gamma   82.43834167
_symmetry_Int_Tables_number   1
_chemical_formula_structural   LiV(Si3O7)2
_chemical_formula_sum   'Li4 V4 Si24 O56'
_cell_volume   1072.12417340
_cell_formula_units_Z   4
loop_
 _symmetry_equiv_pos_site_id
 _symmetry_equiv_pos_as_xyz
  1  'x, y, z'
loop_
 _atom_site_type_symbol
 _atom_site_label
 _atom_site_symmetry_multiplicity
 _atom_site_fract_x
 _atom_site_fract_y
 _atom_site_fract_z
 _atom_site_occupancy
  Li  Li0  1  0.75000000  0.75000000  0.00000000  1
  Li  Li1  1  0.25000000  0.25000000  0.00000000  1
  Li  Li2  1  0.00000000  0.00000000  0.50000000  1
  Li  Li3  1  0.50000000  0.50000000  0.50000000  1
  V  V4  1  0.96325635  0.53674365  0.21325635  1
  V  V5  1  0.46325635  0.03674365  0.21325635  1
  V  V6  1  0.53674365  0.96325635  0.78674365  1
  V  V7  1  0.03674365  0.46325635  0.78674365  1
  Si  Si8  1  0.87174925  0.12825075  0.05779992  1
  Si  Si9  1  0.62825075  0.37174925  0.31430242  1
  Si  Si10  1  0.33471774  0.66528226  0.07144973  1
  Si  Si11  1  0.73020288  0.57542302  0.33465461  1
  Si  Si12  1  0.42457698  0.26979712  0.33465461  1
  Si  Si13  1  0.07542302  0.23020288  0.17987375  1
  Si  Si14  1  0.76979712  0.92457698  0.17987375  1
  Si  Si15  1  0.83471774  0.16528226  0.59798576  1
  Si  Si16  1  0.52948750  0.77901805  0.21933808  1
  Si  Si17  1  0.27901805  0.02948750  0.46886862  1
  Si  Si18  1  0.22098195  0.47051250  0.21933808  1
  Si  Si19  1  0.97051250  0.72098195  0.46886862  1
  Si  Si20  1  0.02948750  0.27901805  0.53113138  1
  Si  Si21  1  0.72098195  0.97051250  0.53113138  1
  Si  Si22  1  0.47051250  0.22098195  0.78066192  1
  Si  Si23  1  0.77901805  0.52948750  0.78066192  1
  Si  Si24  1  0.16528226  0.83471774  0.40201424  1
  Si  Si25  1  0.23020288  0.07542302  0.82012625  1
  Si  Si26  1  0.26979712  0.42457698  0.66534539  1
  Si  Si27  1  0.57542302  0.73020288  0.66534539  1
  Si  Si28  1  0.92457698  0.76979712  0.82012625  1
  Si  Si29  1  0.66528226  0.33471774  0.92855027  1
  Si  Si30  1  0.37174925  0.62825075  0.68569758  1
  Si  Si31  1  0.12825075  0.87174925  0.94220008  1
  O  O32  1  0.99328112  0.13907729  0.19074711  1
  O  O33  1  0.86092271  0.00671888  0.19074711  1
  O  O34  1  0.77228361  0.22771639  0.03946828  1
  O  O35  1  0.93156150  0.69656884  0.03996767  1
  O  O36  1  0.30343116  0.06843850  0.03996767  1
  O  O37  1  0.62830383  0.37169617  0.09677924  1
  O  O38  1  0.43156150  0.19656884  0.19502499  1
  O  O39  1  0.80343116  0.56843850  0.19502499  1
  O  O40  1  0.80630802  0.05869461  0.53145077  1
  O  O41  1  0.94130539  0.19369198  0.53145077  1
  O  O42  1  0.59972789  0.01348873  0.54171858  1
  O  O43  1  0.98651127  0.40027211  0.54171858  1
  O  O44  1  0.63907729  0.49328112  0.33654228  1
  O  O45  1  0.50671888  0.36092271  0.33654228  1
  O  O46  1  0.72771639  0.27228361  0.49490107  1
  O  O47  1  0.48651127  0.90027211  0.04452058  1
  O  O48  1  0.09972789  0.51348873  0.04452058  1
  O  O49  1  0.20331158  0.15023706  0.29844323  1
  O  O50  1  0.65023706  0.70331158  0.24536872  1
  O  O51  1  0.29668842  0.34976294  0.24536872  1
  O  O52  1  0.84976294  0.79668842  0.29844323  1
  O  O53  1  0.30630802  0.55869461  0.21616365  1
  O  O54  1  0.44130539  0.69369198  0.21616365  1
  O  O55  1  0.45586907  0.19307430  0.57158640  1
  O  O56  1  0.69307430  0.95586907  0.30879163  1
  O  O57  1  0.04413093  0.30692570  0.30879163  1
  O  O58  1  0.80692570  0.54413093  0.57158640  1
  O  O59  1  0.87169617  0.12830383  0.84017158  1
  O  O60  1  0.12830383  0.87169617  0.15982842  1
  O  O61  1  0.54413093  0.80692570  0.42841360  1
  O  O62  1  0.19307430  0.45586907  0.42841360  1
  O  O63  1  0.95586907  0.69307430  0.69120837  1
  O  O64  1  0.30692570  0.04413093  0.69120837  1
  O  O65  1  0.55869461  0.30630802  0.78383635  1
  O  O66  1  0.69369198  0.44130539  0.78383635  1
  O  O67  1  0.34976294  0.29668842  0.75463128  1
  O  O68  1  0.70331158  0.65023706  0.75463128  1
  O  O69  1  0.79668842  0.84976294  0.70155677  1
  O  O70  1  0.15023706  0.20331158  0.70155677  1
  O  O71  1  0.51348873  0.09972789  0.95547942  1
  O  O72  1  0.90027211  0.48651127  0.95547942  1
  O  O73  1  0.27228361  0.72771639  0.50509893  1
  O  O74  1  0.36092271  0.50671888  0.66345772  1
  O  O75  1  0.49328112  0.63907729  0.66345772  1
  O  O76  1  0.40027211  0.98651127  0.45828142  1
  O  O77  1  0.01348873  0.59972789  0.45828142  1
  O  O78  1  0.05869461  0.80630802  0.46854923  1
  O  O79  1  0.19369198  0.94130539  0.46854923  1
  O  O80  1  0.19656884  0.43156150  0.80497501  1
  O  O81  1  0.56843850  0.80343116  0.80497501  1
  O  O82  1  0.37169617  0.62830383  0.90322076  1
  O  O83  1  0.69656884  0.93156150  0.96003233  1
  O  O84  1  0.06843850  0.30343116  0.96003233  1
  O  O85  1  0.22771639  0.77228361  0.96053172  1
  O  O86  1  0.13907729  0.99328112  0.80925289  1
  O  O87  1  0.00671888  0.86092271  0.80925289  1
