# generated using pymatgen
data_Li2Ti3SbO8
_symmetry_space_group_name_H-M   'P 1'
_cell_length_a   5.99747195
_cell_length_b   5.99705369
_cell_length_c   10.42422294
_cell_angle_alpha   90.00158140
_cell_angle_beta   89.99693993
_cell_angle_gamma   119.99887185
_symmetry_Int_Tables_number   1
_chemical_formula_structural   Li2Ti3SbO8
_chemical_formula_sum   'Li4 Ti6 Sb2 O16'
_cell_volume   324.70234233
_cell_formula_units_Z   2
loop_
 _symmetry_equiv_pos_site_id
 _symmetry_equiv_pos_as_xyz
  1  'x, y, z'
loop_
 _atom_site_type_symbol
 _atom_site_label
 _atom_site_symmetry_multiplicity
 _atom_site_fract_x
 _atom_site_fract_y
 _atom_site_fract_z
 _atom_site_occupancy
  Li  Li0  1  0.33333012  0.66670959  0.89163615  1
  Li  Li1  1  0.00003708  0.00001343  0.99454177  1
  Li  Li2  1  0.00000101  0.99997991  0.49452869  1
  Li  Li3  1  0.66669227  0.33339088  0.39163947  1
  Ti  Ti4  1  0.65841339  0.82920297  0.21853700  1
  Ti  Ti5  1  0.34170788  0.17084564  0.71857336  1
  Ti  Ti6  1  0.82917978  0.17087066  0.71858091  1
  Ti  Ti7  1  0.17080455  0.82922479  0.21854490  1
  Ti  Ti8  1  0.17079688  0.34162359  0.21855039  1
  Ti  Ti9  1  0.82916278  0.65834817  0.71858216  1
  Sb  Sb10  1  0.33328323  0.66659440  0.50405276  1
  Sb  Sb11  1  0.66660633  0.33326637  0.00405708  1
  O  O12  1  0.15462492  0.84533236  0.60634246  1
  O  O13  1  0.02502731  0.51252541  0.32143389  1
  O  O14  1  0.33336518  0.66673513  0.11194961  1
  O  O15  1  0.99991293  0.99993160  0.31290334  1
  O  O16  1  0.00002920  0.00000144  0.81290917  1
  O  O17  1  0.15468528  0.30936251  0.60630347  1
  O  O18  1  0.48748210  0.97500683  0.32132421  1
  O  O19  1  0.48745883  0.51250297  0.32139299  1
  O  O20  1  0.30927920  0.15463604  0.10634960  1
  O  O21  1  0.69074581  0.84535670  0.60633555  1
  O  O22  1  0.51253074  0.48752703  0.82134470  1
  O  O23  1  0.51252682  0.02503135  0.82139879  1
  O  O24  1  0.66666681  0.33338109  0.61191241  1
  O  O25  1  0.84536153  0.69072469  0.10638806  1
  O  O26  1  0.97496112  0.48750851  0.82138328  1
  O  O27  1  0.84532689  0.15466493  0.10634385  1
