# generated using pymatgen
data_Li10Fe3Co3(NiO8)2
_symmetry_space_group_name_H-M   'P 1'
_cell_length_a   5.87684892
_cell_length_b   5.90002112
_cell_length_c   9.71588983
_cell_angle_alpha   90.73519120
_cell_angle_beta   89.50907972
_cell_angle_gamma   120.24973467
_symmetry_Int_Tables_number   1
_chemical_formula_structural   Li10Fe3Co3(NiO8)2
_chemical_formula_sum   'Li10 Fe3 Co3 Ni2 O16'
_cell_volume   290.98851912
_cell_formula_units_Z   1
loop_
 _symmetry_equiv_pos_site_id
 _symmetry_equiv_pos_as_xyz
  1  'x, y, z'
loop_
 _atom_site_type_symbol
 _atom_site_label
 _atom_site_symmetry_multiplicity
 _atom_site_fract_x
 _atom_site_fract_y
 _atom_site_fract_z
 _atom_site_occupancy
  Li  Li0  1  0.01213949  0.99233961  0.51407493  1
  Li  Li1  1  0.99627146  0.98262437  0.01993063  1
  Li  Li2  1  0.37959084  0.18152350  0.94218343  1
  Li  Li3  1  0.18199207  0.36566904  0.44156373  1
  Li  Li4  1  0.80140903  0.57805051  0.94726460  1
  Li  Li5  1  0.81167177  0.17645522  0.94337523  1
  Li  Li6  1  0.18928490  0.77289480  0.44338047  1
  Li  Li7  1  0.67347765  0.31793747  0.71765081  1
  Li  Li8  1  0.32585285  0.64514673  0.21772924  1
  Li  Li9  1  0.61249987  0.79918990  0.43620632  1
  Fe  Fe10  1  0.17414386  0.82026848  0.71574753  1
  Fe  Fe11  1  0.66892748  0.82009690  0.71383776  1
  Fe  Fe12  1  0.82402677  0.64171224  0.21628443  1
  Co  Co13  1  0.17616983  0.32878153  0.71302329  1
  Co  Co14  1  0.32991295  0.15144566  0.21304590  1
  Co  Co15  1  0.82594350  0.15157518  0.21266109  1
  Ni  Ni16  1  0.33778594  0.66099351  0.97272224  1
  Ni  Ni17  1  0.66323001  0.32099755  0.46873254  1
  O  O18  1  0.01258158  0.00708635  0.82574951  1
  O  O19  1  0.99776307  0.99685871  0.32122636  1
  O  O20  1  0.15702093  0.30461190  0.10139336  1
  O  O21  1  0.33111049  0.15778874  0.60016675  1
  O  O22  1  0.02238999  0.49360831  0.83207225  1
  O  O23  1  0.50324345  0.00757231  0.32708160  1
  O  O24  1  0.65648920  0.30459646  0.10070958  1
  O  O25  1  0.33682413  0.64868619  0.59534665  1
  O  O26  1  0.49317245  0.49736750  0.83234598  1
  O  O27  1  0.49532184  0.46898781  0.33073716  1
  O  O28  1  0.85182855  0.15623395  0.59662039  1
  O  O29  1  0.15927690  0.82430914  0.09732040  1
  O  O30  1  0.97779307  0.46844618  0.32939330  1
  O  O31  1  0.49829632  0.97790857  0.83318564  1
  O  O32  1  0.84909365  0.66768753  0.59135907  1
  O  O33  1  0.67225011  0.82537314  0.09849885  1
