# generated using pymatgen
data_Li3Mn2(SiO4)2
_symmetry_space_group_name_H-M   'P 1'
_cell_length_a   10.90347131
_cell_length_b   4.97075754
_cell_length_c   6.63305167
_cell_angle_alpha   90.00000000
_cell_angle_beta   91.70071546
_cell_angle_gamma   90.00000000
_symmetry_Int_Tables_number   1
_chemical_formula_structural   Li3Mn2(SiO4)2
_chemical_formula_sum   'Li6 Mn4 Si4 O16'
_cell_volume   359.34316799
_cell_formula_units_Z   2
loop_
 _symmetry_equiv_pos_site_id
 _symmetry_equiv_pos_as_xyz
  1  'x, y, z'
loop_
 _atom_site_type_symbol
 _atom_site_label
 _atom_site_symmetry_multiplicity
 _atom_site_fract_x
 _atom_site_fract_y
 _atom_site_fract_z
 _atom_site_occupancy
  Li  Li0  1  0.09615101  0.70771462  0.87080221  1
  Li  Li1  1  0.32913631  0.70398675  0.61552932  1
  Li  Li2  1  0.40311687  0.20036822  0.37312592  1
  Li  Li3  1  0.59615101  0.79228538  0.87080221  1
  Li  Li4  1  0.82913631  0.79601325  0.61552932  1
  Li  Li5  1  0.90311687  0.29963178  0.37312592  1
  Mn  Mn6  1  0.09055093  0.70220467  0.35156809  1
  Mn  Mn7  1  0.41707598  0.20869217  0.87693895  1
  Mn  Mn8  1  0.59055093  0.79779533  0.35156809  1
  Mn  Mn9  1  0.91707598  0.29130783  0.87693895  1
  Si  Si10  1  0.16218269  0.19514294  0.61531938  1
  Si  Si11  1  0.33444441  0.68614186  0.12051732  1
  Si  Si12  1  0.66218269  0.30485706  0.61531938  1
  Si  Si13  1  0.83444541  0.81385814  0.12051732  1
  O  O14  1  0.08869290  0.30101978  0.41137456  1
  O  O15  1  0.08772606  0.31146943  0.80881888  1
  O  O16  1  0.16086606  0.86242677  0.61722023  1
  O  O17  1  0.19149163  0.77022756  0.11178342  1
  O  O18  1  0.30751074  0.29996291  0.62640989  1
  O  O19  1  0.35130168  0.35490162  0.11732179  1
  O  O20  1  0.40154306  0.79074820  0.33404912  1
  O  O21  1  0.40606567  0.79809387  0.91591092  1
  O  O22  1  0.58869290  0.19898022  0.41137456  1
  O  O23  1  0.58772606  0.18853057  0.80881888  1
  O  O24  1  0.66086606  0.63757323  0.61722023  1
  O  O25  1  0.69149163  0.72977244  0.11178342  1
  O  O26  1  0.80751074  0.20003709  0.62640989  1
  O  O27  1  0.85130168  0.14509838  0.11732179  1
  O  O28  1  0.90154306  0.70925180  0.33404912  1
  O  O29  1  0.90606567  0.70190613  0.91591092  1
