# generated using pymatgen
data_Ca3Mn2(SbO6)2
_symmetry_space_group_name_H-M   'P 1'
_cell_length_a   5.43479391
_cell_length_b   5.40681125
_cell_length_c   7.77199078
_cell_angle_alpha   90.00000000
_cell_angle_beta   90.00000000
_cell_angle_gamma   89.70677947
_symmetry_Int_Tables_number   1
_chemical_formula_structural   Ca3Mn2(SbO6)2
_chemical_formula_sum   'Ca3 Mn2 Sb2 O12'
_cell_volume   228.37621891
_cell_formula_units_Z   1
loop_
 _symmetry_equiv_pos_site_id
 _symmetry_equiv_pos_as_xyz
  1  'x, y, z'
loop_
 _atom_site_type_symbol
 _atom_site_label
 _atom_site_symmetry_multiplicity
 _atom_site_fract_x
 _atom_site_fract_y
 _atom_site_fract_z
 _atom_site_occupancy
  Ca  Ca0  1  0.51178377  0.55757003  0.75000000  1
  Ca  Ca1  1  0.49083999  0.44758474  0.25000000  1
  Ca  Ca2  1  0.00880853  0.95854211  0.25000000  1
  Mn  Mn3  1  0.50177808  0.99955678  0.50663369  1
  Mn  Mn4  1  0.50177808  0.99955678  0.99336631  1
  Sb  Sb5  1  0.99907399  0.49189099  0.50733093  1
  Sb  Sb6  1  0.99907399  0.49189099  0.99266907  1
  O  O7  1  0.29215295  0.70836343  0.45797245  1
  O  O8  1  0.21609841  0.21051014  0.05605433  1
  O  O9  1  0.68574001  0.30538359  0.96864867  1
  O  O10  1  0.78794913  0.79136241  0.54242688  1
  O  O11  1  0.21609841  0.21051014  0.44394567  1
  O  O12  1  0.78794913  0.79136241  0.95757312  1
  O  O13  1  0.91935063  0.51765762  0.25000000  1
  O  O14  1  0.29215295  0.70836343  0.04202755  1
  O  O15  1  0.41917719  0.98596592  0.75000000  1
  O  O16  1  0.68574001  0.30538359  0.53135133  1
  O  O17  1  0.09595171  0.46995406  0.75000000  1
  O  O18  1  0.58205004  0.00965588  0.25000000  1
