# generated using pymatgen
data_Li5Mn(SiO3)4
_symmetry_space_group_name_H-M   'P 1'
_cell_length_a   12.62281793
_cell_length_b   12.62906961
_cell_length_c   12.62645729
_cell_angle_alpha   110.09260995
_cell_angle_beta   109.89875674
_cell_angle_gamma   109.98569614
_symmetry_Int_Tables_number   1
_chemical_formula_structural   Li5Mn(SiO3)4
_chemical_formula_sum   'Li30 Mn6 Si24 O72'
_cell_volume   1518.84991715
_cell_formula_units_Z   6
loop_
 _symmetry_equiv_pos_site_id
 _symmetry_equiv_pos_as_xyz
  1  'x, y, z'
loop_
 _atom_site_type_symbol
 _atom_site_label
 _atom_site_symmetry_multiplicity
 _atom_site_fract_x
 _atom_site_fract_y
 _atom_site_fract_z
 _atom_site_occupancy
  Li  Li0  1  0.02549294  0.82779538  0.83670072  1
  Li  Li1  1  0.17355022  0.97527877  0.16486375  1
  Li  Li2  1  0.14187233  0.64002028  0.17561631  1
  Li  Li3  1  0.36213485  0.85822035  0.82496425  1
  Li  Li4  1  0.18302927  0.59753731  0.70578823  1
  Li  Li5  1  0.39957289  0.81619852  0.29427724  1
  Li  Li6  1  0.47335748  0.64157602  0.63126486  1
  Li  Li7  1  0.35794934  0.52628642  0.36800995  1
  Li  Li8  1  0.29320983  0.40245232  0.81578375  1
  Li  Li9  1  0.60050807  0.70453474  0.18231527  1
  Li  Li10  1  0.76370755  0.76334415  0.76303670  1
  Li  Li11  1  0.00020875  0.00007829  0.00058930  1
  Li  Li12  1  0.23781724  0.23786061  0.23720198  1
  Li  Li13  1  0.16386828  0.17226157  0.97495577  1
  Li  Li14  1  0.82686129  0.83608480  0.02517539  1
  Li  Li15  1  0.36922071  0.36009550  0.52698224  1
  Li  Li16  1  0.64403375  0.63290158  0.47411574  1
  Li  Li17  1  0.85831599  0.82499059  0.36162356  1
  Li  Li18  1  0.17619384  0.14268167  0.63923247  1
  Li  Li19  1  0.52649109  0.36820828  0.35717077  1
  Li  Li20  1  0.63123960  0.47332049  0.64045863  1
  Li  Li21  1  0.99922042  0.71065538  0.28879702  1
  Li  Li22  1  0.29007983  0.99976630  0.70962799  1
  Li  Li23  1  0.71167365  0.29121000  0.00233620  1
  Li  Li24  1  0.82405288  0.36087767  0.85829923  1
  Li  Li25  1  0.63857663  0.17512526  0.14239649  1
  Li  Li26  1  0.70346709  0.18107022  0.60109588  1
  Li  Li27  1  0.81591029  0.29355684  0.40288894  1
  Li  Li28  1  0.83593039  0.02505636  0.82773119  1
  Li  Li29  1  0.97482128  0.16360185  0.17303094  1
  Mn  Mn30  1  0.24230327  0.75656484  0.00000229  1
  Mn  Mn31  1  0.25720295  0.74421808  0.49923868  1
  Mn  Mn32  1  0.00001886  0.24316083  0.75743262  1
  Mn  Mn33  1  0.74306843  0.50042848  0.25650818  1
  Mn  Mn34  1  0.50037747  0.25598577  0.74341066  1
  Mn  Mn35  1  0.75734466  0.00007466  0.24319449  1
  Si  Si36  1  0.02123106  0.76095794  0.55281481  1
  Si  Si37  1  0.23964507  0.97908157  0.44559944  1
  Si  Si38  1  0.19261124  0.46585789  0.47187421  1
  Si  Si39  1  0.53518596  0.80613927  0.52800699  1
  Si  Si40  1  0.69949099  0.97340872  0.96467470  1
  Si  Si41  1  0.02686971  0.30005992  0.03561367  1
  Si  Si42  1  0.48502089  0.74634813  0.94898157  1
  Si  Si43  1  0.25411488  0.51510888  0.05225737  1
  Si  Si44  1  0.74624880  0.94815135  0.48490716  1
  Si  Si45  1  0.05193390  0.25416387  0.51560823  1
  Si  Si46  1  0.46478249  0.47135249  0.19296376  1
  Si  Si47  1  0.52748738  0.53411204  0.80651088  1
  Si  Si48  1  0.97312922  0.96474107  0.69983609  1
  Si  Si49  1  0.03571951  0.02675982  0.30061745  1
  Si  Si50  1  0.44646270  0.23858107  0.97849213  1
  Si  Si51  1  0.75969525  0.55389614  0.02104913  1
  Si  Si52  1  0.30028103  0.03523084  0.02671485  1
  Si  Si53  1  0.96370190  0.69938406  0.97290232  1
  Si  Si54  1  0.80774150  0.52810210  0.53462539  1
  Si  Si55  1  0.47177898  0.19397692  0.46497795  1
  Si  Si56  1  0.51512942  0.05147595  0.25369962  1
  Si  Si57  1  0.94736724  0.48390079  0.74582378  1
  Si  Si58  1  0.97884577  0.44715270  0.23932653  1
  Si  Si59  1  0.55459467  0.02159537  0.76079859  1
  O  O60  1  0.06734267  0.91234900  0.66343196  1
  O  O61  1  0.08702756  0.93148744  0.33632526  1
  O  O62  1  0.22214950  0.87440831  0.93460347  1
  O  O63  1  0.12432808  0.77633540  0.06496259  1
  O  O64  1  0.23913343  0.84414080  0.41525804  1
  O  O65  1  0.15830421  0.76749899  0.58211298  1
  O  O66  1  0.07278229  0.59414378  0.27771886  1
  O  O67  1  0.40797569  0.92826933  0.72299360  1
  O  O68  1  0.41035022  0.90408994  0.20213825  1
  O  O69  1  0.09525675  0.58806371  0.79797284  1
  O  O70  1  0.24973315  0.64974838  0.08806420  1
  O  O71  1  0.35020177  0.75021525  0.91394519  1
  O  O72  1  0.27226008  0.62693902  0.56788080  1
  O  O73  1  0.37415695  0.72589600  0.43217833  1
  O  O74  1  0.05348733  0.40182510  0.33503288  1
  O  O75  1  0.59959600  0.94498646  0.66551510  1
  O  O76  1  0.16286264  0.44428233  0.10535434  1
  O  O77  1  0.55445409  0.83830665  0.89560796  1
  O  O78  1  0.15091241  0.41140123  0.56326796  1
  O  O79  1  0.58922284  0.84846360  0.43681061  1
  O  O80  1  0.20218302  0.41193098  0.90511931  1
  O  O81  1  0.58893738  0.79752865  0.09525118  1
  O  O82  1  0.75092045  0.91309693  0.35087108  1
  O  O83  1  0.08749747  0.25067267  0.65012701  1
  O  O84  1  0.41107885  0.56312931  0.15137695  1
  O  O85  1  0.43654567  0.58922828  0.84886724  1
  O  O86  1  0.79228025  0.93278012  0.92119381  1
  O  O87  1  0.06561515  0.20612672  0.07821273  1
  O  O88  1  0.28578797  0.42275881  0.43369499  1
  O  O89  1  0.57773305  0.71259768  0.56552809  1
  O  O90  1  0.10503751  0.16242159  0.44507968  1
  O  O91  1  0.83755543  0.89498815  0.55549398  1
  O  O92  1  0.06506887  0.12515018  0.77696823  1
  O  O93  1  0.87526827  0.93513108  0.22305664  1
  O  O94  1  0.42030471  0.43190463  0.28481650  1
  O  O95  1  0.56377094  0.57529901  0.71161135  1
  O  O96  1  0.93403249  0.92214611  0.79373104  1
  O  O97  1  0.07896623  0.06631044  0.20732588  1
  O  O98  1  0.62580756  0.56742674  0.27449012  1
  O  O99  1  0.43202173  0.37339928  0.72855741  1
  O  O100  1  0.66558670  0.59991880  0.94516527  1
  O  O101  1  0.40155930  0.33498519  0.05344920  1
  O  O102  1  0.20743503  0.07863779  0.06709262  1
  O  O103  1  0.92141840  0.79318996  0.93385116  1
  O  O104  1  0.71544933  0.56745277  0.57853144  1
  O  O105  1  0.43572039  0.28883632  0.42378616  1
  O  O106  1  0.41673814  0.23281879  0.84194006  1
  O  O107  1  0.76170875  0.58400690  0.15628952  1
  O  O108  1  0.92699904  0.72220199  0.40642192  1
  O  O109  1  0.27743728  0.07197808  0.59202334  1
  O  O110  1  0.33583726  0.08690283  0.93199070  1
  O  O111  1  0.91193380  0.66353870  0.06773942  1
  O  O112  1  0.72191159  0.40712722  0.92782090  1
  O  O113  1  0.59283137  0.27695163  0.07269611  1
  O  O114  1  0.94755009  0.66448351  0.59819187  1
  O  O115  1  0.33298025  0.05553646  0.39907679  1
  O  O116  1  0.72740282  0.43200233  0.37374027  1
  O  O117  1  0.56711403  0.27246788  0.62566506  1
  O  O118  1  0.44508460  0.10399725  0.16136289  1
  O  O119  1  0.89435493  0.55508766  0.83716429  1
  O  O120  1  0.84908950  0.43647556  0.58890884  1
  O  O121  1  0.56255260  0.15113254  0.41026280  1
  O  O122  1  0.58514611  0.15691657  0.76287699  1
  O  O123  1  0.84248297  0.41768034  0.23387976  1
  O  O124  1  0.91253708  0.35033351  0.75069787  1
  O  O125  1  0.64932005  0.08609757  0.24985719  1
  O  O126  1  0.66413390  0.06822607  0.91271604  1
  O  O127  1  0.93263753  0.33694178  0.08774736  1
  O  O128  1  0.77713338  0.06538983  0.12506726  1
  O  O129  1  0.93507810  0.22282777  0.87532896  1
  O  O130  1  0.79772873  0.09530091  0.58894493  1
  O  O131  1  0.90480130  0.20225935  0.41177329  1
