# generated using pymatgen
data_Li3V6O13
_symmetry_space_group_name_H-M   'P 1'
_cell_length_a   6.30997806
_cell_length_b   8.00538348
_cell_length_c   10.37568228
_cell_angle_alpha   89.99802699
_cell_angle_beta   100.00691196
_cell_angle_gamma   71.51357376
_symmetry_Int_Tables_number   1
_chemical_formula_structural   Li3V6O13
_chemical_formula_sum   'Li6 V12 O26'
_cell_volume   488.65447830
_cell_formula_units_Z   2
loop_
 _symmetry_equiv_pos_site_id
 _symmetry_equiv_pos_as_xyz
  1  'x, y, z'
loop_
 _atom_site_type_symbol
 _atom_site_label
 _atom_site_symmetry_multiplicity
 _atom_site_fract_x
 _atom_site_fract_y
 _atom_site_fract_z
 _atom_site_occupancy
  Li  Li0  1  0.01063657  0.99742520  0.03109410  1
  Li  Li1  1  0.13700253  0.46558631  0.40980946  1
  Li  Li2  1  0.13765684  0.96573017  0.41264623  1
  Li  Li3  1  0.86299747  0.03441369  0.59019054  1
  Li  Li4  1  0.86234316  0.53426983  0.58735377  1
  Li  Li5  1  0.98936343  0.50257480  0.96890590  1
  V  V6  1  0.31712505  0.17166980  0.99906203  1
  V  V7  1  0.31658514  0.67078549  0.99748332  1
  V  V8  1  0.19572298  0.70090100  0.63497039  1
  V  V9  1  0.19572125  0.20120375  0.63554850  1
  V  V10  1  0.43905102  0.64024579  0.36247621  1
  V  V11  1  0.43903461  0.14022554  0.36278955  1
  V  V12  1  0.56094898  0.85975421  0.63752379  1
  V  V13  1  0.56096539  0.35977446  0.63721045  1
  V  V14  1  0.80427702  0.79909900  0.36502961  1
  V  V15  1  0.80427875  0.29879625  0.36445150  1
  V  V16  1  0.68341486  0.82921451  0.00251668  1
  V  V17  1  0.68287495  0.32833020  0.00093797  1
  O  O18  1  0.23923942  0.68943680  0.80195102  1
  O  O19  1  0.24129011  0.19094977  0.80198363  1
  O  O20  1  0.00000000  0.25000000  0.00000000  1
  O  O21  1  0.00000000  0.75000000  0.00000000  1
  O  O22  1  0.13816325  0.71572960  0.41624944  1
  O  O23  1  0.13792175  0.21526948  0.41608634  1
  O  O24  1  0.22144650  0.94459155  0.60869697  1
  O  O25  1  0.22058609  0.44494445  0.60789566  1
  O  O26  1  0.34990991  0.41178441  0.99826076  1
  O  O27  1  0.35406887  0.91262061  0.00229102  1
  O  O28  1  0.36706455  0.65964790  0.19725345  1
  O  O29  1  0.36714715  0.15746685  0.19871940  1
  O  O30  1  0.51749859  0.62079825  0.59680798  1
  O  O31  1  0.51782396  0.12039562  0.59692558  1
  O  O32  1  0.48250141  0.87920175  0.40319202  1
  O  O33  1  0.48217604  0.37960438  0.40307442  1
  O  O34  1  0.63285285  0.34253315  0.80128060  1
  O  O35  1  0.63293545  0.84035210  0.80274655  1
  O  O36  1  0.64593113  0.58737939  0.99770898  1
  O  O37  1  0.65009009  0.08821559  0.00173924  1
  O  O38  1  0.77855350  0.55540845  0.39130303  1
  O  O39  1  0.77941391  0.05505555  0.39210434  1
  O  O40  1  0.86207825  0.28473052  0.58391366  1
  O  O41  1  0.86183675  0.78427040  0.58375056  1
  O  O42  1  0.75870989  0.30905023  0.19801637  1
  O  O43  1  0.76076058  0.81056320  0.19804898  1
