# generated using pymatgen
data_VNi3Sn2(PO4)6
_symmetry_space_group_name_H-M   'P 1'
_cell_length_a   8.47112570
_cell_length_b   8.67550441
_cell_length_c   8.67550394
_cell_angle_alpha   60.00000148
_cell_angle_beta   59.19863892
_cell_angle_gamma   59.19864431
_symmetry_Int_Tables_number   1
_chemical_formula_structural   VNi3Sn2(PO4)6
_chemical_formula_sum   'V1 Ni3 Sn2 P6 O24'
_cell_volume   445.29475493
_cell_formula_units_Z   1
loop_
 _symmetry_equiv_pos_site_id
 _symmetry_equiv_pos_as_xyz
  1  'x, y, z'
loop_
 _atom_site_type_symbol
 _atom_site_label
 _atom_site_symmetry_multiplicity
 _atom_site_fract_x
 _atom_site_fract_y
 _atom_site_fract_z
 _atom_site_occupancy
  V  V0  1  0.55768616  0.14743761  0.14743761  1
  Ni  Ni1  1  0.05656879  0.64781074  0.64781074  1
  Ni  Ni2  1  0.44546776  0.85151041  0.85151041  1
  Ni  Ni3  1  0.93815358  0.35394881  0.35394881  1
  Sn  Sn4  1  0.00672713  0.99775762  0.99775762  1
  Sn  Sn5  1  0.50442044  0.49852619  0.49852619  1
  P  P6  1  0.24689048  0.25189084  0.54524424  1
  P  P7  1  0.24689048  0.95597443  0.25189084  1
  P  P8  1  0.24689048  0.54524424  0.95597443  1
  P  P9  1  0.74786909  0.45704282  0.04515458  1
  P  P10  1  0.74786909  0.04515458  0.74993452  1
  P  P11  1  0.74786909  0.74993452  0.45704282  1
  O  O12  1  0.06436703  0.10376354  0.32327650  1
  O  O13  1  0.06436703  0.50859293  0.10376354  1
  O  O14  1  0.06436703  0.32327650  0.50859293  1
  O  O15  1  0.22413695  0.09511024  0.74739355  1
  O  O16  1  0.43456646  0.17531324  0.38748476  1
  O  O17  1  0.28973340  0.40331219  0.55375749  1
  O  O18  1  0.22413695  0.93335926  0.09511024  1
  O  O19  1  0.28973340  0.75319692  0.40331219  1
  O  O20  1  0.56037704  0.60185879  0.01359844  1
  O  O21  1  0.28973340  0.55375749  0.75319692  1
  O  O22  1  0.77069293  0.24846294  0.06798461  1
  O  O23  1  0.56037704  0.01359844  0.82416472  1
  O  O24  1  0.43456646  0.00263454  0.17531324  1
  O  O25  1  0.22413695  0.74739355  0.93335926  1
  O  O26  1  0.72074067  0.43025134  0.25117305  1
  O  O27  1  0.43456646  0.38748476  0.00263454  1
  O  O28  1  0.72074067  0.25117305  0.59783495  1
  O  O29  1  0.77069293  0.06798461  0.91285952  1
  O  O30  1  0.72074067  0.59783495  0.43025134  1
  O  O31  1  0.56037704  0.82416472  0.60185879  1
  O  O32  1  0.77069293  0.91285952  0.24846294  1
  O  O33  1  0.93761733  0.68579802  0.48061452  1
  O  O34  1  0.93761733  0.48061452  0.89597013  1
  O  O35  1  0.93761733  0.89597013  0.68579802  1
