# generated using pymatgen
data_Fe4OF8
_symmetry_space_group_name_H-M   'P 1'
_cell_length_a   5.42965575
_cell_length_b   5.35946669
_cell_length_c   14.95565084
_cell_angle_alpha   89.89220286
_cell_angle_beta   89.60931994
_cell_angle_gamma   120.03350800
_symmetry_Int_Tables_number   1
_chemical_formula_structural   Fe4OF8
_chemical_formula_sum   'Fe8 O2 F16'
_cell_volume   376.76006756
_cell_formula_units_Z   2
loop_
 _symmetry_equiv_pos_site_id
 _symmetry_equiv_pos_as_xyz
  1  'x, y, z'
loop_
 _atom_site_type_symbol
 _atom_site_label
 _atom_site_symmetry_multiplicity
 _atom_site_fract_x
 _atom_site_fract_y
 _atom_site_fract_z
 _atom_site_occupancy
  Fe  Fe0  1  0.33251194  0.69355573  0.82240054  1
  Fe  Fe1  1  0.32853349  0.66647263  0.51711463  1
  Fe  Fe2  1  0.32678439  0.65504211  0.01850413  1
  Fe  Fe3  1  0.33668717  0.64646608  0.32113369  1
  Fe  Fe4  1  0.64510716  0.29329088  0.97303247  1
  Fe  Fe5  1  0.64897784  0.35265355  0.47398004  1
  Fe  Fe6  1  0.66754705  0.34768245  0.67995914  1
  Fe  Fe7  1  0.66973526  0.32299682  0.17994941  1
  O  O8  1  0.37724355  -0.04608467  0.92544801  1
  O  O9  1  0.38224425  0.41909906  0.42360247  1
  F  F10  1  0.98804956  0.62306806  0.74394879  1
  F  F11  1  0.01434312  0.63970517  0.42295514  1
  F  F12  1  0.00971082  0.37139627  0.92326548  1
  F  F13  1  0.38955966  -0.00172424  0.24801936  1
  F  F14  1  0.98675045  0.36405637  0.24349399  1
  F  F15  1  0.39134978  0.39380630  0.74726458  1
  F  F16  1  0.61776417  0.00862797  0.42366296  1
  F  F17  1  0.40881752  0.35542599  0.07827454  1
  F  F18  1  0.61442113  0.60860221  0.92376329  1
  F  F19  1  0.40662017  0.05055127  0.57866709  1
  F  F20  1  0.64353505  0.60548333  0.58350500  1
  F  F21  1  0.63282298  0.61085168  0.23945366  1
  F  F22  1  0.94394219  0.57447970  0.07915903  1
  F  F23  1  0.63807153  0.03820093  0.08488283  1
  F  F24  1  0.63233289  0.02247225  0.74008681  1
  F  F25  1  0.94233288  0.37029210  0.57984894  1
