# generated using pymatgen
data_LiVSiO4
_symmetry_space_group_name_H-M   'P 1'
_cell_length_a   10.89236511
_cell_length_b   10.89236488
_cell_length_c   12.19847491
_cell_angle_alpha   90.00000000
_cell_angle_beta   90.00000000
_cell_angle_gamma   119.99999770
_symmetry_Int_Tables_number   1
_chemical_formula_structural   LiVSiO4
_chemical_formula_sum   'Li12 V12 Si12 O48'
_cell_volume   1253.37362216
_cell_formula_units_Z   12
loop_
 _symmetry_equiv_pos_site_id
 _symmetry_equiv_pos_as_xyz
  1  'x, y, z'
loop_
 _atom_site_type_symbol
 _atom_site_label
 _atom_site_symmetry_multiplicity
 _atom_site_fract_x
 _atom_site_fract_y
 _atom_site_fract_z
 _atom_site_occupancy
  Li  Li0  1  0.00000000  0.50000000  0.00785772  1
  Li  Li1  1  0.00000000  0.50000000  0.65880928  1
  Li  Li2  1  0.00000000  0.50000000  0.33333300  1
  Li  Li3  1  0.00000000  0.00000000  0.16666700  1
  Li  Li4  1  0.00000000  0.00000000  0.50000000  1
  Li  Li5  1  0.00000000  0.00000000  0.83333300  1
  Li  Li6  1  0.50000000  0.50000000  0.34119072  1
  Li  Li7  1  0.50000000  0.50000000  0.66666700  1
  Li  Li8  1  0.50000000  0.50000000  0.99214228  1
  Li  Li9  1  0.50000000  0.00000000  0.32547528  1
  Li  Li10  1  0.50000000  0.00000000  0.00000000  1
  Li  Li11  1  0.50000000  0.00000000  0.67452472  1
  V  V12  1  1.00000000  0.74887929  0.83333300  1
  V  V13  1  0.00000000  0.25112071  0.83333300  1
  V  V14  1  0.25094334  0.74905666  0.16666700  1
  V  V15  1  0.25094334  0.50188669  0.50000000  1
  V  V16  1  0.49811331  0.74905666  0.83333300  1
  V  V17  1  0.25112071  0.25112071  0.16666700  1
  V  V18  1  0.25112071  0.00000000  0.50000000  1
  V  V19  1  0.74887929  0.74887929  0.16666700  1
  V  V20  1  0.50188669  0.25094334  0.83333300  1
  V  V21  1  0.74905666  0.49811331  0.50000000  1
  V  V22  1  0.74905666  0.25094334  0.16666700  1
  V  V23  1  0.74887929  1.00000000  0.50000000  1
  Si  Si24  1  0.00000000  0.75466933  0.33333300  1
  Si  Si25  1  0.24773854  0.75226146  0.66666700  1
  Si  Si26  1  1.00000000  0.24533067  0.33333300  1
  Si  Si27  1  0.24773854  0.49547807  0.00000000  1
  Si  Si28  1  0.24533067  0.24533067  0.66666700  1
  Si  Si29  1  0.50452193  0.75226146  0.33333300  1
  Si  Si30  1  0.24533067  1.00000000  0.00000000  1
  Si  Si31  1  0.49547807  0.24773854  0.33333300  1
  Si  Si32  1  0.75466933  0.75466933  0.66666700  1
  Si  Si33  1  0.75226146  0.50452193  0.00000000  1
  Si  Si34  1  0.75226146  0.24773854  0.66666700  1
  Si  Si35  1  0.75466933  0.00000000  0.00000000  1
  O  O36  1  0.07502313  0.88391869  0.42342055  1
  O  O37  1  0.11608131  0.92497687  0.90991245  1
  O  O38  1  0.09787483  0.69413345  0.73342626  1
  O  O39  1  0.10462093  0.70750377  0.27138883  1
  O  O40  1  0.29249623  0.89537907  0.06194417  1
  O  O41  1  0.30586655  0.90212517  0.59990674  1
  O  O42  1  0.19792823  0.61399889  0.58705397  1
  O  O43  1  0.09787483  0.40374138  0.93323974  1
  O  O44  1  0.19792823  0.58392934  0.07961303  1
  O  O45  1  0.10462093  0.39711716  0.39527817  1
  O  O46  1  0.07502313  0.19110444  0.24324545  1
  O  O47  1  0.38600111  0.80207177  0.74628003  1
  O  O48  1  0.41607066  0.80207177  0.25371997  1
  O  O49  1  0.11608131  0.19110444  0.75675455  1
  O  O50  1  0.29249623  0.39711716  0.60472183  1
  O  O51  1  0.38600111  0.58392934  0.92038697  1
  O  O52  1  0.30586655  0.40374138  0.06676026  1
  O  O53  1  0.41607066  0.61399889  0.41294603  1
  O  O54  1  0.19110444  0.11608131  0.57657945  1
  O  O55  1  0.19110444  0.07502313  0.09008755  1
  O  O56  1  0.59625862  0.90212517  0.40009326  1
  O  O57  1  0.60288284  0.89537907  0.93805583  1
  O  O58  1  0.60288284  0.70750377  0.72861117  1
  O  O59  1  0.40374138  0.30586655  0.26657374  1
  O  O60  1  0.59625862  0.69413345  0.26657374  1
  O  O61  1  0.39711716  0.29249623  0.72861117  1
  O  O62  1  0.39711716  0.10462093  0.93805583  1
  O  O63  1  0.40374138  0.09787483  0.40009326  1
  O  O64  1  0.80889556  0.92497687  0.09008755  1
  O  O65  1  0.80889556  0.88391869  0.57657945  1
  O  O66  1  0.58392934  0.38600111  0.41294603  1
  O  O67  1  0.69413345  0.59625862  0.06676026  1
  O  O68  1  0.61399889  0.41607066  0.92038697  1
  O  O69  1  0.70750377  0.60288284  0.60472183  1
  O  O70  1  0.88391869  0.80889556  0.75675455  1
  O  O71  1  0.58392934  0.19792823  0.25371997  1
  O  O72  1  0.61399889  0.19792823  0.74628003  1
  O  O73  1  0.92497687  0.80889556  0.24324545  1
  O  O74  1  0.89537907  0.60288284  0.39527817  1
  O  O75  1  0.80207177  0.41607066  0.07961303  1
  O  O76  1  0.90212517  0.59625862  0.93323974  1
  O  O77  1  0.80207177  0.38600111  0.58705397  1
  O  O78  1  0.69413345  0.09787483  0.59990674  1
  O  O79  1  0.70750377  0.10462093  0.06194417  1
  O  O80  1  0.89537907  0.29249623  0.27138883  1
  O  O81  1  0.90212517  0.30586655  0.73342626  1
  O  O82  1  0.88391869  0.07502313  0.90991245  1
  O  O83  1  0.92497687  0.11608131  0.42342055  1
