# generated using pymatgen
data_CrTe(WO6)2
_symmetry_space_group_name_H-M   'P 1'
_cell_length_a   5.33330341
_cell_length_b   10.65648743
_cell_length_c   9.33459996
_cell_angle_alpha   28.78724781
_cell_angle_beta   52.51153870
_cell_angle_gamma   57.69991320
_symmetry_Int_Tables_number   1
_chemical_formula_structural   CrTe(WO6)2
_chemical_formula_sum   'Cr1 Te1 W2 O12'
_cell_volume   202.71580365
_cell_formula_units_Z   1
loop_
 _symmetry_equiv_pos_site_id
 _symmetry_equiv_pos_as_xyz
  1  'x, y, z'
loop_
 _atom_site_type_symbol
 _atom_site_label
 _atom_site_symmetry_multiplicity
 _atom_site_fract_x
 _atom_site_fract_y
 _atom_site_fract_z
 _atom_site_occupancy
  Cr  Cr0  1  0.97547426  0.00158171  0.96667135  1
  Te  Te1  1  0.99898042  0.49976709  0.00407716  1
  W  W2  1  0.53296041  0.98797205  0.48122709  1
  W  W3  1  0.44298087  0.51030037  0.49253535  1
  O  O4  1  0.35520466  0.30056200  0.14705232  1
  O  O5  1  0.23251208  0.10199831  0.65556256  1
  O  O6  1  0.13933298  0.29463808  0.75463507  1
  O  O7  1  0.84928969  0.19893891  0.25301500  1
  O  O8  1  0.33423701  0.80834088  0.14324363  1
  O  O9  1  0.75543531  0.39349154  0.36021259  1
  O  O10  1  0.25758275  0.59890744  0.65205622  1
  O  O11  1  0.66360143  0.19244766  0.85146761  1
  O  O12  1  0.14614612  0.80361250  0.75203533  1
  O  O13  1  0.85596590  0.71667243  0.22748824  1
  O  O14  1  0.76127862  0.89371237  0.34553822  1
  O  O15  1  0.64421850  0.69705667  0.85838426  1
