# generated using pymatgen
data_VSb3(PO4)4
_symmetry_space_group_name_H-M   'P 1'
_cell_length_a   5.02308845
_cell_length_b   10.38848098
_cell_length_c   6.72039252
_cell_angle_alpha   90.00000000
_cell_angle_beta   90.00000000
_cell_angle_gamma   91.97353958
_symmetry_Int_Tables_number   1
_chemical_formula_structural   VSb3(PO4)4
_chemical_formula_sum   'V1 Sb3 P4 O16'
_cell_volume   350.47724830
_cell_formula_units_Z   1
loop_
 _symmetry_equiv_pos_site_id
 _symmetry_equiv_pos_as_xyz
  1  'x, y, z'
loop_
 _atom_site_type_symbol
 _atom_site_label
 _atom_site_symmetry_multiplicity
 _atom_site_fract_x
 _atom_site_fract_y
 _atom_site_fract_z
 _atom_site_occupancy
  V  V0  1  0.96307846  0.26974408  0.25000000  1
  Sb  Sb1  1  0.05324349  0.71633375  0.75000000  1
  Sb  Sb2  1  0.45850171  0.21937948  0.75000000  1
  Sb  Sb3  1  0.54880489  0.77651375  0.25000000  1
  P  P4  1  0.09308187  0.58637042  0.25000000  1
  P  P5  1  0.37087262  0.10885887  0.25000000  1
  P  P6  1  0.63204298  0.90745216  0.75000000  1
  P  P7  1  0.90168208  0.40098173  0.75000000  1
  O  O8  1  0.13447155  0.44210032  0.25000000  1
  O  O9  1  0.24328947  0.65725729  0.07152264  1
  O  O10  1  0.24328947  0.65725729  0.42847736  1
  O  O11  1  0.20601923  0.39676073  0.75000000  1
  O  O12  1  0.32785605  0.89739750  0.75000000  1
  O  O13  1  0.22714546  0.17843772  0.07235086  1
  O  O14  1  0.22714546  0.17843772  0.42764914  1
  O  O15  1  0.31737653  0.96428996  0.25000000  1
  O  O16  1  0.73398771  0.04735444  0.75000000  1
  O  O17  1  0.75672929  0.82646091  0.57125180  1
  O  O18  1  0.75672929  0.82646091  0.92874820  1
  O  O19  1  0.66995089  0.14356191  0.25000000  1
  O  O20  1  0.79345090  0.61000068  0.25000000  1
  O  O21  1  0.76846726  0.32413532  0.56801917  1
  O  O22  1  0.76846726  0.32413532  0.93198083  1
  O  O23  1  0.80431906  0.54031976  0.75000000  1
