# generated using pymatgen
data_Ti3MnSb2(PO4)6
_symmetry_space_group_name_H-M   'P 1'
_cell_length_a   8.89964912
_cell_length_b   8.89964992
_cell_length_c   8.89964943
_cell_angle_alpha   59.04862733
_cell_angle_beta   59.04862791
_cell_angle_gamma   59.04862646
_symmetry_Int_Tables_number   1
_chemical_formula_structural   Ti3MnSb2(PO4)6
_chemical_formula_sum   'Ti3 Mn1 Sb2 P6 O24'
_cell_volume   487.61599512
_cell_formula_units_Z   1
loop_
 _symmetry_equiv_pos_site_id
 _symmetry_equiv_pos_as_xyz
  1  'x, y, z'
loop_
 _atom_site_type_symbol
 _atom_site_label
 _atom_site_symmetry_multiplicity
 _atom_site_fract_x
 _atom_site_fract_y
 _atom_site_fract_z
 _atom_site_occupancy
  Ti  Ti0  1  0.14699409  0.14699409  0.14699409  1
  Ti  Ti1  1  0.35026572  0.35026572  0.35026572  1
  Ti  Ti2  1  0.64947370  0.64947370  0.64947370  1
  Mn  Mn3  1  0.84849525  0.84849525  0.84849525  1
  Sb  Sb4  1  0.99467221  0.99467221  0.99467221  1
  Sb  Sb5  1  0.49678293  0.49678293  0.49678293  1
  P  P6  1  0.04686978  0.75032430  0.45429592  1
  P  P7  1  0.45429592  0.04686978  0.75032430  1
  P  P8  1  0.25437417  0.53927995  0.95815543  1
  P  P9  1  0.53927995  0.95815543  0.25437417  1
  P  P10  1  0.95815543  0.25437417  0.53927995  1
  P  P11  1  0.75032430  0.45429592  0.04686978  1
  O  O12  1  0.11349845  0.31701529  0.49379931  1
  O  O13  1  0.31701529  0.49379931  0.11349845  1
  O  O14  1  0.06681343  0.91291394  0.26187729  1
  O  O15  1  0.49379931  0.11349845  0.31701529  1
  O  O16  1  0.02664462  0.79854633  0.60411907  1
  O  O17  1  0.23829035  0.58229648  0.42624679  1
  O  O18  1  0.26187729  0.06681343  0.91291394  1
  O  O19  1  0.42624679  0.23829035  0.58229648  1
  O  O20  1  0.19483989  0.38488529  0.99654186  1
  O  O21  1  0.58229648  0.42624679  0.23829035  1
  O  O22  1  0.09350822  0.73116349  0.94408303  1
  O  O23  1  0.38488529  0.99654186  0.19483989  1
  O  O24  1  0.60411907  0.02664462  0.79854633  1
  O  O25  1  0.91291394  0.26187729  0.06681343  1
  O  O26  1  0.41966213  0.55736558  0.76811380  1
  O  O27  1  0.79854633  0.60411907  0.02664462  1
  O  O28  1  0.55736558  0.76811380  0.41966213  1
  O  O29  1  0.73116349  0.94408303  0.09350822  1
  O  O30  1  0.76811380  0.41966213  0.55736558  1
  O  O31  1  0.99654186  0.19483989  0.38488529  1
  O  O32  1  0.49481894  0.88597924  0.69699472  1
  O  O33  1  0.94408303  0.09350822  0.73116349  1
  O  O34  1  0.69699472  0.49481894  0.88597924  1
  O  O35  1  0.88597924  0.69699472  0.49481894  1
