# generated using pymatgen
data_LiMnF4
_symmetry_space_group_name_H-M   'P 1'
_cell_length_a   6.36313111
_cell_length_b   6.36313111
_cell_length_c   11.38294830
_cell_angle_alpha   90.00000000
_cell_angle_beta   90.00000000
_cell_angle_gamma   86.98940355
_symmetry_Int_Tables_number   1
_chemical_formula_structural   LiMnF4
_chemical_formula_sum   'Li6 Mn6 F24'
_cell_volume   460.25307246
_cell_formula_units_Z   6
loop_
 _symmetry_equiv_pos_site_id
 _symmetry_equiv_pos_as_xyz
  1  'x, y, z'
loop_
 _atom_site_type_symbol
 _atom_site_label
 _atom_site_symmetry_multiplicity
 _atom_site_fract_x
 _atom_site_fract_y
 _atom_site_fract_z
 _atom_site_occupancy
  Li  Li0  1  0.32946781  0.67053219  0.00000000  1
  Li  Li1  1  0.32946781  0.67053219  0.50000000  1
  Li  Li2  1  0.17359590  0.17359590  0.25000000  1
  Li  Li3  1  0.82640410  0.82640410  0.75000000  1
  Li  Li4  1  0.67053219  0.32946781  0.50000000  1
  Li  Li5  1  0.67053219  0.32946781  0.00000000  1
  Mn  Mn6  1  0.85256392  0.85256392  0.07167443  1
  Mn  Mn7  1  0.85256392  0.85256392  0.42832557  1
  Mn  Mn8  1  0.42664394  0.42664394  0.75000000  1
  Mn  Mn9  1  0.14743608  0.14743608  0.92832557  1
  Mn  Mn10  1  0.14743608  0.14743608  0.57167443  1
  Mn  Mn11  1  0.57335606  0.57335606  0.25000000  1
  F  F12  1  0.06611992  0.65122240  0.07336386  1
  F  F13  1  0.06611992  0.65122240  0.42663614  1
  F  F14  1  0.34877760  0.93388008  0.92663614  1
  F  F15  1  0.34877760  0.93388008  0.57336386  1
  F  F16  1  0.37126157  0.78772398  0.25000000  1
  F  F17  1  0.21227602  0.62873843  0.75000000  1
  F  F18  1  0.92320175  0.92320175  0.59816928  1
  F  F19  1  0.37032459  0.37032459  0.25000000  1
  F  F20  1  0.92320175  0.92320175  0.90183072  1
  F  F21  1  0.79649386  0.79649386  0.25000000  1
  F  F22  1  0.62967541  0.62967541  0.75000000  1
  F  F23  1  0.07679825  0.07679825  0.09816928  1
  F  F24  1  0.20350614  0.20350614  0.75000000  1
  F  F25  1  0.37344590  0.37344590  0.56025548  1
  F  F26  1  0.62655410  0.62655410  0.06025548  1
  F  F27  1  0.07679825  0.07679825  0.40183072  1
  F  F28  1  0.62655410  0.62655410  0.43974452  1
  F  F29  1  0.37344590  0.37344590  0.93974452  1
  F  F30  1  0.78772398  0.37126157  0.25000000  1
  F  F31  1  0.62873843  0.21227602  0.75000000  1
  F  F32  1  0.93388008  0.34877760  0.57336386  1
  F  F33  1  0.93388008  0.34877760  0.92663614  1
  F  F34  1  0.65122240  0.06611992  0.07336386  1
  F  F35  1  0.65122240  0.06611992  0.42663614  1
