# generated using pymatgen
data_Ba2YI7
_symmetry_space_group_name_H-M   'P 1'
_cell_length_a   14.95875435
_cell_length_b   8.74310874
_cell_length_c   16.30212969
_cell_angle_alpha   90.00000000
_cell_angle_beta   90.00000000
_cell_angle_gamma   90.00000000
_symmetry_Int_Tables_number   1
_chemical_formula_structural   Ba2YI7
_chemical_formula_sum   'Ba8 Y4 I28'
_cell_volume   2132.09059279
_cell_formula_units_Z   4
loop_
 _symmetry_equiv_pos_site_id
 _symmetry_equiv_pos_as_xyz
  1  'x, y, z'
loop_
 _atom_site_type_symbol
 _atom_site_label
 _atom_site_symmetry_multiplicity
 _atom_site_fract_x
 _atom_site_fract_y
 _atom_site_fract_z
 _atom_site_occupancy
  Ba  Ba0  1  0.23625612  0.25000000  0.46146356  1
  Ba  Ba1  1  0.25328113  0.25000000  0.76050558  1
  Ba  Ba2  1  0.24671887  0.75000000  0.26050558  1
  Ba  Ba3  1  0.26374388  0.75000000  0.96146356  1
  Ba  Ba4  1  0.73625612  0.25000000  0.03853644  1
  Ba  Ba5  1  0.75328113  0.25000000  0.73949442  1
  Ba  Ba6  1  0.74671887  0.75000000  0.23949442  1
  Ba  Ba7  1  0.76374388  0.75000000  0.53853644  1
  Y  Y8  1  0.93760750  0.25000000  0.28836283  1
  Y  Y9  1  0.56239250  0.75000000  0.78836283  1
  Y  Y10  1  0.43760750  0.25000000  0.21163717  1
  Y  Y11  1  0.06239250  0.75000000  0.71163717  1
  I  I12  1  0.10325379  0.75000000  0.10508715  1
  I  I13  1  0.08652481  0.02266662  0.34308677  1
  I  I14  1  0.08652481  0.47733338  0.34308677  1
  I  I15  1  0.10726023  0.97381100  0.85237590  1
  I  I16  1  0.10726023  0.52618900  0.85237590  1
  I  I17  1  0.18123230  0.52937706  0.61578758  1
  I  I18  1  0.18123230  0.97062294  0.61578758  1
  I  I19  1  0.31876770  0.02937706  0.11578758  1
  I  I20  1  0.31876770  0.47062294  0.11578758  1
  I  I21  1  0.39273977  0.02618900  0.35237590  1
  I  I22  1  0.39273977  0.47381100  0.35237590  1
  I  I23  1  0.41347519  0.97733338  0.84308677  1
  I  I24  1  0.41347519  0.52266662  0.84308677  1
  I  I25  1  0.39674621  0.25000000  0.60508715  1
  I  I26  1  0.60325379  0.75000000  0.39491285  1
  I  I27  1  0.58652481  0.02266662  0.15691323  1
  I  I28  1  0.58652481  0.47733338  0.15691323  1
  I  I29  1  0.60726023  0.97381100  0.64762410  1
  I  I30  1  0.60726023  0.52618900  0.64762410  1
  I  I31  1  0.68123230  0.97062294  0.88421242  1
  I  I32  1  0.68123230  0.52937706  0.88421242  1
  I  I33  1  0.81876770  0.47062294  0.38421242  1
  I  I34  1  0.81876770  0.02937706  0.38421242  1
  I  I35  1  0.89273977  0.47381100  0.14762410  1
  I  I36  1  0.89273977  0.02618900  0.14762410  1
  I  I37  1  0.91347519  0.52266662  0.65691323  1
  I  I38  1  0.91347519  0.97733338  0.65691323  1
  I  I39  1  0.89674621  0.25000000  0.89491285  1
