# generated using pymatgen
data_Zr2N2O
_symmetry_space_group_name_H-M   'P 1'
_cell_length_a   3.27441311
_cell_length_b   5.62505197
_cell_length_c   16.65908149
_cell_angle_alpha   90.79706627
_cell_angle_beta   95.63996804
_cell_angle_gamma   106.92120305
_symmetry_Int_Tables_number   1
_chemical_formula_structural   Zr2N2O
_chemical_formula_sum   'Zr8 N8 O4'
_cell_volume   291.84254332
_cell_formula_units_Z   4
loop_
 _symmetry_equiv_pos_site_id
 _symmetry_equiv_pos_as_xyz
  1  'x, y, z'
loop_
 _atom_site_type_symbol
 _atom_site_label
 _atom_site_symmetry_multiplicity
 _atom_site_fract_x
 _atom_site_fract_y
 _atom_site_fract_z
 _atom_site_occupancy
  Zr  Zr0  1  0.67493893  0.18520074  0.16467711  1
  Zr  Zr1  1  0.66956803  0.42095184  0.91818321  1
  Zr  Zr2  1  0.65075682  0.62690800  0.67460664  1
  Zr  Zr3  1  0.33043197  0.07904816  0.58181679  1
  Zr  Zr4  1  0.32506107  0.31479926  0.33532289  1
  Zr  Zr5  1  0.98792987  0.96927518  0.00658456  1
  Zr  Zr6  1  0.34924318  0.87309200  0.82539336  1
  Zr  Zr7  1  0.01207013  0.53072482  0.49341544  1
  N  N8  1  0.62737525  0.22250635  0.03224316  1
  N  N9  1  0.37262475  0.27749365  0.46775684  1
  N  N10  1  0.70918764  0.61478325  0.80359202  1
  N  N11  1  0.67495637  0.80302954  0.54688220  1
  N  N12  1  0.98785144  0.35649984  0.61920305  1
  N  N13  1  0.01214856  0.14350016  0.88079695  1
  N  N14  1  0.29081236  0.88521675  0.69640798  1
  N  N15  1  0.32504363  0.69697046  0.95311780  1
  O  O16  1  0.69560121  0.09857843  0.29262399  1
  O  O17  1  0.30439879  0.40142157  0.20737601  1
  O  O18  1  0.03595277  0.94054879  0.13135576  1
  O  O19  1  0.96404723  0.55945121  0.36864424  1
