# generated using pymatgen
data_Mn3Cr2Cu(PO4)6
_symmetry_space_group_name_H-M   'P 1'
_cell_length_a   8.40978142
_cell_length_b   8.40978161
_cell_length_c   8.40978139
_cell_angle_alpha   61.64824084
_cell_angle_beta   61.64823651
_cell_angle_gamma   61.64823757
_symmetry_Int_Tables_number   1
_chemical_formula_structural   Mn3Cr2Cu(PO4)6
_chemical_formula_sum   'Mn3 Cr2 Cu1 P6 O24'
_cell_volume   436.11516254
_cell_formula_units_Z   1
loop_
 _symmetry_equiv_pos_site_id
 _symmetry_equiv_pos_as_xyz
  1  'x, y, z'
loop_
 _atom_site_type_symbol
 _atom_site_label
 _atom_site_symmetry_multiplicity
 _atom_site_fract_x
 _atom_site_fract_y
 _atom_site_fract_z
 _atom_site_occupancy
  Mn  Mn0  1  0.14341399  0.14341399  0.14341399  1
  Mn  Mn1  1  0.35587859  0.35587859  0.35587859  1
  Mn  Mn2  1  0.64452051  0.64452051  0.64452051  1
  Cr  Cr3  1  0.99804599  0.99804599  0.99804599  1
  Cr  Cr4  1  0.49993888  0.49993888  0.49993888  1
  Cu  Cu5  1  0.85397279  0.85397279  0.85397279  1
  P  P6  1  0.04743011  0.75108125  0.45259881  1
  P  P7  1  0.45259881  0.04743011  0.75108125  1
  P  P8  1  0.75108125  0.45259881  0.04743011  1
  P  P9  1  0.24914441  0.54624689  0.95521969  1
  P  P10  1  0.54624689  0.95521969  0.24914441  1
  P  P11  1  0.95521969  0.24914441  0.54624689  1
  O  O12  1  0.11044562  0.32117550  0.50589223  1
  O  O13  1  0.32117550  0.50589223  0.11044562  1
  O  O14  1  0.06267131  0.90469759  0.24732351  1
  O  O15  1  0.50589223  0.11044562  0.32117550  1
  O  O16  1  0.01903403  0.81765543  0.60507316  1
  O  O17  1  0.25118925  0.59088362  0.43633397  1
  O  O18  1  0.24732351  0.06267131  0.90469759  1
  O  O19  1  0.43633397  0.25118925  0.59088362  1
  O  O20  1  0.18294223  0.39058707  0.98885137  1
  O  O21  1  0.59088362  0.43633397  0.25118925  1
  O  O22  1  0.09653794  0.74941390  0.94118092  1
  O  O23  1  0.39058707  0.98885137  0.18294223  1
  O  O24  1  0.60507316  0.01903403  0.81765543  1
  O  O25  1  0.90469759  0.24732351  0.06267131  1
  O  O26  1  0.40745055  0.55970945  0.75092599  1
  O  O27  1  0.81765543  0.60507316  0.01903403  1
  O  O28  1  0.55970945  0.75092599  0.40745055  1
  O  O29  1  0.74941390  0.94118092  0.09653794  1
  O  O30  1  0.75092599  0.40745055  0.55970945  1
  O  O31  1  0.98885137  0.18294223  0.39058707  1
  O  O32  1  0.48877912  0.89105802  0.68269731  1
  O  O33  1  0.94118092  0.09653794  0.74941390  1
  O  O34  1  0.68269731  0.48877912  0.89105802  1
  O  O35  1  0.89105802  0.68269731  0.48877912  1
