# generated using pymatgen
data_Na4V2O5
_symmetry_space_group_name_H-M   'P 1'
_cell_length_a   5.57379180
_cell_length_b   10.58389060
_cell_length_c   5.58030946
_cell_angle_alpha   81.16090772
_cell_angle_beta   65.32140511
_cell_angle_gamma   98.83718347
_symmetry_Int_Tables_number   1
_chemical_formula_structural   Na4V2O5
_chemical_formula_sum   'Na8 V4 O10'
_cell_volume   286.74931558
_cell_formula_units_Z   2
loop_
 _symmetry_equiv_pos_site_id
 _symmetry_equiv_pos_as_xyz
  1  'x, y, z'
loop_
 _atom_site_type_symbol
 _atom_site_label
 _atom_site_symmetry_multiplicity
 _atom_site_fract_x
 _atom_site_fract_y
 _atom_site_fract_z
 _atom_site_occupancy
  Na  Na0  1  0.78427631  0.06284336  0.46551183  1
  Na  Na1  1  0.97371536  0.43950285  0.27761040  1
  Na  Na2  1  0.53241168  0.56269900  0.21775503  1
  Na  Na3  1  0.72368733  0.93988744  0.02469863  1
  Na  Na4  1  0.46968478  0.43917634  0.77883609  1
  Na  Na5  1  0.28216410  0.06186365  0.97130350  1
  Na  Na6  1  0.22261431  0.93889990  0.53048123  1
  Na  Na7  1  0.02833523  0.56227952  0.71936641  1
  V  V8  1  0.33462765  0.25027509  0.32806911  1
  V  V9  1  0.92308056  0.25169440  0.91449122  1
  V  V10  1  0.08281831  0.75108237  0.07911682  1
  V  V11  1  0.67064197  0.75051911  0.66707008  1
  O  O12  1  0.69175451  0.38017546  0.06103128  1
  O  O13  1  0.56152068  0.11555497  0.19049879  1
  O  O14  1  0.12808038  0.25111601  0.12324158  1
  O  O15  1  0.93938225  0.87997064  0.30938019  1
  O  O16  1  0.80920031  0.61543548  0.43995176  1
  O  O17  1  0.87452644  0.75094367  0.87251338  1
  O  O18  1  0.06573969  0.12174374  0.68686176  1
  O  O19  1  0.19178898  0.38635107  0.55638808  1
  O  O20  1  0.31182673  0.62168775  0.93595073  1
  O  O21  1  0.44301147  0.88635321  0.80808810  1
