# generated using pymatgen
data_ZrO2
_symmetry_space_group_name_H-M   'P 1'
_cell_length_a   20.08397771
_cell_length_b   5.04826984
_cell_length_c   3.28683585
_cell_angle_alpha   90.00000000
_cell_angle_beta   90.00000000
_cell_angle_gamma   90.00000000
_symmetry_Int_Tables_number   1
_chemical_formula_structural   ZrO2
_chemical_formula_sum   'Zr8 O16'
_cell_volume   333.25011404
_cell_formula_units_Z   8
loop_
 _symmetry_equiv_pos_site_id
 _symmetry_equiv_pos_as_xyz
  1  'x, y, z'
loop_
 _atom_site_type_symbol
 _atom_site_label
 _atom_site_symmetry_multiplicity
 _atom_site_fract_x
 _atom_site_fract_y
 _atom_site_fract_z
 _atom_site_occupancy
  Zr  Zr0  1  0.06944177  0.42508669  0.25000000  1
  Zr  Zr1  1  0.18943080  0.92421098  0.75000000  1
  Zr  Zr2  1  0.31056920  0.42421098  0.25000000  1
  Zr  Zr3  1  0.43055823  0.92508669  0.75000000  1
  Zr  Zr4  1  0.56944177  0.07491331  0.25000000  1
  Zr  Zr5  1  0.68943080  0.57578902  0.75000000  1
  Zr  Zr6  1  0.81056920  0.07578902  0.25000000  1
  Zr  Zr7  1  0.93055823  0.57491331  0.75000000  1
  O  O8  1  0.01250829  0.29277474  0.75000000  1
  O  O9  1  0.13796281  0.10710913  0.25000000  1
  O  O10  1  0.11912891  0.61597475  0.75000000  1
  O  O11  1  0.26072316  0.24391753  0.75000000  1
  O  O12  1  0.23927684  0.74391753  0.25000000  1
  O  O13  1  0.38087109  0.11597475  0.25000000  1
  O  O14  1  0.36203719  0.60710913  0.75000000  1
  O  O15  1  0.48749171  0.79277474  0.25000000  1
  O  O16  1  0.51250829  0.20722526  0.75000000  1
  O  O17  1  0.63796281  0.39289087  0.25000000  1
  O  O18  1  0.61912891  0.88402525  0.75000000  1
  O  O19  1  0.76072316  0.25608247  0.75000000  1
  O  O20  1  0.73927684  0.75608247  0.25000000  1
  O  O21  1  0.88087109  0.38402525  0.25000000  1
  O  O22  1  0.86203719  0.89289087  0.75000000  1
  O  O23  1  0.98749171  0.70722526  0.25000000  1
