# generated using pymatgen
data_Li2Mn2Fe(PO4)3
_symmetry_space_group_name_H-M   'P 1'
_cell_length_a   8.30726261
_cell_length_b   8.61539370
_cell_length_c   8.61539351
_cell_angle_alpha   62.64644894
_cell_angle_beta   64.47213886
_cell_angle_gamma   64.47213949
_symmetry_Int_Tables_number   1
_chemical_formula_structural   Li2Mn2Fe(PO4)3
_chemical_formula_sum   'Li4 Mn4 Fe2 P6 O24'
_cell_volume   472.86522999
_cell_formula_units_Z   2
loop_
 _symmetry_equiv_pos_site_id
 _symmetry_equiv_pos_as_xyz
  1  'x, y, z'
loop_
 _atom_site_type_symbol
 _atom_site_label
 _atom_site_symmetry_multiplicity
 _atom_site_fract_x
 _atom_site_fract_y
 _atom_site_fract_z
 _atom_site_occupancy
  Li  Li0  1  0.75000000  0.13729365  0.36270635  1
  Li  Li1  1  0.25000000  0.83989130  0.66010870  1
  Li  Li2  1  0.65196251  0.24588791  0.84703382  1
  Li  Li3  1  0.84803749  0.65296618  0.25411209  1
  Mn  Mn4  1  0.14382975  0.14776172  0.14725122  1
  Mn  Mn5  1  0.35617025  0.35274878  0.35223828  1
  Mn  Mn6  1  0.65509750  0.65527617  0.65559619  1
  Mn  Mn7  1  0.84490250  0.84440381  0.84472383  1
  Fe  Fe8  1  0.00831466  0.99756226  0.99479247  1
  Fe  Fe9  1  0.49168534  0.50520753  0.50243774  1
  P  P10  1  0.06965133  0.75305439  0.43850123  1
  P  P11  1  0.43034867  0.06149877  0.74694561  1
  P  P12  1  0.75000000  0.43732765  0.06267235  1
  P  P13  1  0.25000000  0.54028266  0.95971734  1
  P  P14  1  0.55738256  0.95517196  0.25000567  1
  P  P15  1  0.94261744  0.24999433  0.54482804  1
  O  O16  1  0.10947871  0.32053431  0.47910399  1
  O  O17  1  0.32683264  0.49713108  0.11236080  1
  O  O18  1  0.07178163  0.91988628  0.25133107  1
  O  O19  1  0.54872451  0.09338594  0.31947097  1
  O  O20  1  0.03926150  0.81074853  0.59572832  1
  O  O21  1  0.26069084  0.60616575  0.41709897  1
  O  O22  1  0.23930916  0.08290103  0.89383425  1
  O  O23  1  0.42821837  0.24866893  0.58011372  1
  O  O24  1  0.17316736  0.38763920  0.00286892  1
  O  O25  1  0.59871651  0.41047524  0.25672648  1
  O  O26  1  0.10223522  0.73396587  0.93927331  1
  O  O27  1  0.39052129  0.02089601  0.17946569  1
  O  O28  1  0.59113806  0.03727384  0.80775616  1
  O  O29  1  0.90128349  0.24327352  0.08952476  1
  O  O30  1  0.39776478  0.56072669  0.76603413  1
  O  O31  1  0.81016370  0.59356274  0.03742184  1
  O  O32  1  0.56383597  0.75955935  0.39881325  1
  O  O33  1  0.75018766  0.92939313  0.09632299  1
  O  O34  1  0.74981234  0.40367701  0.57060687  1
  O  O35  1  0.95127549  0.18052903  0.40661406  1
  O  O36  1  0.46073850  0.90427168  0.68925147  1
  O  O37  1  0.93616403  0.10118675  0.74044065  1
  O  O38  1  0.68983630  0.46257816  0.90643726  1
  O  O39  1  0.90886194  0.69224384  0.46272616  1
