# generated using pymatgen
data_Li2V5CuO12
_symmetry_space_group_name_H-M   'P 1'
_cell_length_a   6.88379164
_cell_length_b   6.88379162
_cell_length_c   5.85434810
_cell_angle_alpha   74.35136275
_cell_angle_beta   105.64862848
_cell_angle_gamma   97.61702873
_symmetry_Int_Tables_number   1
_chemical_formula_structural   Li2V5CuO12
_chemical_formula_sum   'Li2 V5 Cu1 O12'
_cell_volume   256.69779766
_cell_formula_units_Z   1
loop_
 _symmetry_equiv_pos_site_id
 _symmetry_equiv_pos_as_xyz
  1  'x, y, z'
loop_
 _atom_site_type_symbol
 _atom_site_label
 _atom_site_symmetry_multiplicity
 _atom_site_fract_x
 _atom_site_fract_y
 _atom_site_fract_z
 _atom_site_occupancy
  Li  Li0  1  0.25078077  0.25078077  0.25000000  1
  Li  Li1  1  0.76241724  0.76241724  0.75000000  1
  V  V2  1  0.91479243  0.91479243  0.25000000  1
  V  V3  1  0.20274750  0.61039910  0.76535939  1
  V  V4  1  0.39182481  0.80606031  0.26937810  1
  V  V5  1  0.61039910  0.20274750  0.73464061  1
  V  V6  1  0.80606031  0.39182481  0.23062190  1
  Cu  Cu7  1  0.09852310  0.09852310  0.75000000  1
  O  O8  1  0.01820040  0.78954771  0.63707638  1
  O  O9  1  0.09452131  0.36974003  0.81355212  1
  O  O10  1  0.19316241  0.97531566  0.17255146  1
  O  O11  1  0.37037368  0.64037363  0.57290941  1
  O  O12  1  0.36974003  0.09452131  0.68644788  1
  O  O13  1  0.33718380  0.63132040  0.06272035  1
  O  O14  1  0.64037363  0.37037368  0.92709059  1
  O  O15  1  0.64736775  0.89534598  0.32054840  1
  O  O16  1  0.63132040  0.33718380  0.43727965  1
  O  O17  1  0.78954771  0.01820040  0.86292362  1
  O  O18  1  0.89534598  0.64736775  0.17945160  1
  O  O19  1  0.97531566  0.19316241  0.32744854  1
