# generated using pymatgen
data_Li4V5Sb3O16
_symmetry_space_group_name_H-M   'P 1'
_cell_length_a   6.21876834
_cell_length_b   6.27596830
_cell_length_c   9.77938887
_cell_angle_alpha   90.88598106
_cell_angle_beta   89.13884159
_cell_angle_gamma   121.20016555
_symmetry_Int_Tables_number   1
_chemical_formula_structural   Li4V5Sb3O16
_chemical_formula_sum   'Li4 V5 Sb3 O16'
_cell_volume   326.42290359
_cell_formula_units_Z   1
loop_
 _symmetry_equiv_pos_site_id
 _symmetry_equiv_pos_as_xyz
  1  'x, y, z'
loop_
 _atom_site_type_symbol
 _atom_site_label
 _atom_site_symmetry_multiplicity
 _atom_site_fract_x
 _atom_site_fract_y
 _atom_site_fract_z
 _atom_site_occupancy
  Li  Li0  1  0.32616142  0.65951719  0.88433105  1
  Li  Li1  1  0.98101604  0.99153618  0.99294843  1
  Li  Li2  1  0.98676291  0.99828961  0.50093464  1
  Li  Li3  1  0.66341419  0.32137205  0.40047605  1
  V  V4  1  0.35367657  0.67318894  0.48880743  1
  V  V5  1  0.67546157  0.35341374  0.98021085  1
  V  V6  1  0.66381176  0.83088787  0.21191202  1
  V  V7  1  0.83244125  0.66482733  0.71251068  1
  V  V8  1  0.83162673  0.16858557  0.71525596  1
  Sb  Sb9  1  0.17108332  0.83226208  0.21320111  1
  Sb  Sb10  1  0.17211810  0.34060919  0.21254605  1
  Sb  Sb11  1  0.33961847  0.17028534  0.71407226  1
  O  O12  1  0.16337271  0.84686067  0.60159084  1
  O  O13  1  0.04467916  0.49767558  0.35216942  1
  O  O14  1  0.33781587  0.64549169  0.09421532  1
  O  O15  1  0.99803356  0.02073161  0.31674467  1
  O  O16  1  0.00873270  0.00753024  0.81268487  1
  O  O17  1  0.16792522  0.32226125  0.60594055  1
  O  O18  1  0.50069631  0.95032745  0.35088204  1
  O  O19  1  0.48377714  0.51342928  0.33183888  1
  O  O20  1  0.32501251  0.18487696  0.08985163  1
  O  O21  1  0.67636653  0.83622217  0.60943309  1
  O  O22  1  0.51672186  0.47960144  0.83547437  1
  O  O23  1  0.51225986  0.04386232  0.84060131  1
  O  O24  1  0.65952431  0.32664376  0.60417974  1
  O  O25  1  0.81450157  0.67304534  0.09252970  1
  O  O26  1  0.94992157  0.48134036  0.83829791  1
  O  O27  1  0.84346780  0.16562583  0.10419812  1
