# generated using pymatgen
data_TiCr2Ni3(PO4)6
_symmetry_space_group_name_H-M   'P 1'
_cell_length_a   8.40034751
_cell_length_b   8.40034706
_cell_length_c   8.40034789
_cell_angle_alpha   61.90363288
_cell_angle_beta   61.90362672
_cell_angle_gamma   61.90362798
_symmetry_Int_Tables_number   1
_chemical_formula_structural   TiCr2Ni3(PO4)6
_chemical_formula_sum   'Ti1 Cr2 Ni3 P6 O24'
_cell_volume   437.01698573
_cell_formula_units_Z   1
loop_
 _symmetry_equiv_pos_site_id
 _symmetry_equiv_pos_as_xyz
  1  'x, y, z'
loop_
 _atom_site_type_symbol
 _atom_site_label
 _atom_site_symmetry_multiplicity
 _atom_site_fract_x
 _atom_site_fract_y
 _atom_site_fract_z
 _atom_site_occupancy
  Ti  Ti0  1  0.85313719  0.85313719  0.85313719  1
  Cr  Cr1  1  0.00083482  0.00083482  0.00083482  1
  Cr  Cr2  1  0.50188604  0.50188604  0.50188604  1
  Ni  Ni3  1  0.14463076  0.14463076  0.14463076  1
  Ni  Ni4  1  0.35871233  0.35871233  0.35871233  1
  Ni  Ni5  1  0.64311400  0.64311400  0.64311400  1
  P  P6  1  0.25160517  0.54852572  0.94877147  1
  P  P7  1  0.54852572  0.94877147  0.25160517  1
  P  P8  1  0.94877147  0.25160517  0.54852572  1
  P  P9  1  0.05020952  0.74754199  0.44894278  1
  P  P10  1  0.44894278  0.05020952  0.74754199  1
  P  P11  1  0.74754199  0.44894278  0.05020952  1
  O  O12  1  0.10214851  0.32502530  0.51310688  1
  O  O13  1  0.32502530  0.51310688  0.10214851  1
  O  O14  1  0.06065666  0.90413695  0.24968953  1
  O  O15  1  0.51310688  0.10214851  0.32502530  1
  O  O16  1  0.98854497  0.82695179  0.61131633  1
  O  O17  1  0.25237243  0.60103611  0.44342015  1
  O  O18  1  0.24968953  0.06065666  0.90413695  1
  O  O19  1  0.44342015  0.25237243  0.60103611  1
  O  O20  1  0.17387323  0.39765418  0.99686276  1
  O  O21  1  0.60103611  0.44342015  0.25237243  1
  O  O22  1  0.09250666  0.75433202  0.93440396  1
  O  O23  1  0.39765418  0.99686276  0.17387323  1
  O  O24  1  0.61131633  0.98854497  0.82695179  1
  O  O25  1  0.90413695  0.24968953  0.06065666  1
  O  O26  1  0.40083519  0.56830075  0.74540045  1
  O  O27  1  0.82695179  0.61131633  0.98854497  1
  O  O28  1  0.56830075  0.74540045  0.40083519  1
  O  O29  1  0.75433202  0.93440396  0.09250666  1
  O  O30  1  0.74540045  0.40083519  0.56830075  1
  O  O31  1  0.99686276  0.17387323  0.39765418  1
  O  O32  1  0.49153345  0.90249959  0.66548240  1
  O  O33  1  0.93440396  0.09250666  0.75433202  1
  O  O34  1  0.66548240  0.49153345  0.90249959  1
  O  O35  1  0.90249959  0.66548240  0.49153345  1
