# generated using pymatgen
data_LiVF5
_symmetry_space_group_name_H-M   'P 1'
_cell_length_a   9.31848851
_cell_length_b   5.31607266
_cell_length_c   8.29655998
_cell_angle_alpha   90.00000000
_cell_angle_beta   90.00000000
_cell_angle_gamma   90.00000000
_symmetry_Int_Tables_number   1
_chemical_formula_structural   LiVF5
_chemical_formula_sum   'Li4 V4 F20'
_cell_volume   410.99301371
_cell_formula_units_Z   4
loop_
 _symmetry_equiv_pos_site_id
 _symmetry_equiv_pos_as_xyz
  1  'x, y, z'
loop_
 _atom_site_type_symbol
 _atom_site_label
 _atom_site_symmetry_multiplicity
 _atom_site_fract_x
 _atom_site_fract_y
 _atom_site_fract_z
 _atom_site_occupancy
  Li  Li0  1  0.01804102  0.75000000  0.69220196  1
  Li  Li1  1  0.48195898  0.25000000  0.19220196  1
  Li  Li2  1  0.51804102  0.75000000  0.80779804  1
  Li  Li3  1  0.98195898  0.25000000  0.30779804  1
  V  V4  1  0.21510723  0.75000000  0.08755193  1
  V  V5  1  0.28489277  0.25000000  0.58755193  1
  V  V6  1  0.71510723  0.75000000  0.41244807  1
  V  V7  1  0.78489277  0.25000000  0.91244807  1
  F  F8  1  0.10756479  0.98809023  0.19508692  1
  F  F9  1  0.10756479  0.51190977  0.19508692  1
  F  F10  1  0.13713947  0.01760463  0.58945416  1
  F  F11  1  0.13713947  0.48239537  0.58945416  1
  F  F12  1  0.15191283  0.75000000  0.88832294  1
  F  F13  1  0.34808717  0.25000000  0.38832294  1
  F  F14  1  0.36286053  0.51760463  0.08945416  1
  F  F15  1  0.36286053  0.98239537  0.08945416  1
  F  F16  1  0.39243521  0.01190977  0.69508692  1
  F  F17  1  0.39243521  0.48809023  0.69508692  1
  F  F18  1  0.60756479  0.51190977  0.30491308  1
  F  F19  1  0.60756479  0.98809023  0.30491308  1
  F  F20  1  0.63713947  0.01760463  0.91054584  1
  F  F21  1  0.63713947  0.48239537  0.91054584  1
  F  F22  1  0.65191283  0.75000000  0.61167706  1
  F  F23  1  0.84808717  0.25000000  0.11167706  1
  F  F24  1  0.86286053  0.51760463  0.41054584  1
  F  F25  1  0.86286053  0.98239537  0.41054584  1
  F  F26  1  0.89243521  0.01190977  0.80491308  1
  F  F27  1  0.89243521  0.48809023  0.80491308  1
