# generated using pymatgen
data_Zr2N2O
_symmetry_space_group_name_H-M   'P 1'
_cell_length_a   13.84090738
_cell_length_b   3.12381843
_cell_length_c   5.57555659
_cell_angle_alpha   89.99976577
_cell_angle_beta   89.99998620
_cell_angle_gamma   89.99993564
_symmetry_Int_Tables_number   1
_chemical_formula_structural   Zr2N2O
_chemical_formula_sum   'Zr8 N8 O4'
_cell_volume   241.06744970
_cell_formula_units_Z   4
loop_
 _symmetry_equiv_pos_site_id
 _symmetry_equiv_pos_as_xyz
  1  'x, y, z'
loop_
 _atom_site_type_symbol
 _atom_site_label
 _atom_site_symmetry_multiplicity
 _atom_site_fract_x
 _atom_site_fract_y
 _atom_site_fract_z
 _atom_site_occupancy
  Zr  Zr0  1  0.08047864  0.24999725  0.69704460  1
  Zr  Zr1  1  0.19641117  0.24999929  0.21194876  1
  Zr  Zr2  1  0.30358883  0.74999965  0.71194830  1
  Zr  Zr3  1  0.41952104  0.74999883  0.19704533  1
  Zr  Zr4  1  0.58047798  0.25000100  0.80295577  1
  Zr  Zr5  1  0.69641132  0.25000015  0.28805376  1
  Zr  Zr6  1  0.80358884  0.75000077  0.78805080  1
  Zr  Zr7  1  0.91952183  0.75000201  0.30295355  1
  N  N8  1  0.15265194  0.75000080  0.94222890  1
  N  N9  1  0.17098869  0.74999956  0.48797047  1
  N  N10  1  0.32901083  0.24999849  0.98797104  1
  N  N11  1  0.34734765  0.24999855  0.44223076  1
  N  N12  1  0.65265275  0.75000081  0.55777056  1
  N  N13  1  0.67098912  0.75000159  0.01202836  1
  N  N14  1  0.82901148  0.25000113  0.51202910  1
  N  N15  1  0.84734760  0.24999841  0.05777046  1
  O  O16  1  0.02692528  0.24999880  0.30508609  1
  O  O17  1  0.47307482  0.75000065  0.80508471  1
  O  O18  1  0.52692533  0.25000114  0.19491521  1
  O  O19  1  0.97307483  0.75000113  0.69491348  1
