# generated using pymatgen
data_CrP2O7
_symmetry_space_group_name_H-M   'P 1'
_cell_length_a   6.57704780
_cell_length_b   6.14597584
_cell_length_c   7.28100118
_cell_angle_alpha   83.54037553
_cell_angle_beta   90.68122530
_cell_angle_gamma   68.94382147
_symmetry_Int_Tables_number   1
_chemical_formula_structural   CrP2O7
_chemical_formula_sum   'Cr2 P4 O14'
_cell_volume   272.48520691
_cell_formula_units_Z   2
loop_
 _symmetry_equiv_pos_site_id
 _symmetry_equiv_pos_as_xyz
  1  'x, y, z'
loop_
 _atom_site_type_symbol
 _atom_site_label
 _atom_site_symmetry_multiplicity
 _atom_site_fract_x
 _atom_site_fract_y
 _atom_site_fract_z
 _atom_site_occupancy
  Cr  Cr0  1  0.26053276  0.11815447  0.20868930  1
  Cr  Cr1  1  0.73957886  0.88160133  0.79136636  1
  P  P2  1  0.13567713  0.67774150  0.11790348  1
  P  P3  1  0.86432668  0.32226819  0.88210846  1
  P  P4  1  0.25784459  0.22214354  0.61934491  1
  P  P5  1  0.74213187  0.77790925  0.38061906  1
  O  O6  1  0.02924047  0.75896992  0.92310431  1
  O  O7  1  0.97074012  0.24105599  0.07687701  1
  O  O8  1  0.28300187  0.81171662  0.16561623  1
  O  O9  1  0.71696338  0.18829699  0.83435606  1
  O  O10  1  0.28437541  0.41475069  0.14272813  1
  O  O11  1  0.71558685  0.58529376  0.85725507  1
  O  O12  1  0.68208659  0.56888624  0.43528311  1
  O  O13  1  0.31793556  0.43115886  0.56471957  1
  O  O14  1  0.17131162  0.14103180  0.44558083  1
  O  O15  1  0.82867860  0.85901053  0.55442630  1
  O  O16  1  0.04572017  0.28813236  0.73774899  1
  O  O17  1  0.57398796  0.99322024  0.26452046  1
  O  O18  1  0.42601031  0.00675875  0.73550057  1
  O  O19  1  0.95427119  0.71189497  0.26225278  1
