# generated using pymatgen
data_Ba6YI15
_symmetry_space_group_name_H-M   'P 1'
_cell_length_a   26.43888820
_cell_length_b   13.30549267
_cell_length_c   17.88502166
_cell_angle_alpha   90.00000000
_cell_angle_beta   114.64286128
_cell_angle_gamma   90.00000000
_symmetry_Int_Tables_number   1
_chemical_formula_structural   Ba6YI15
_chemical_formula_sum   'Ba24 Y4 I60'
_cell_volume   5718.62217112
_cell_formula_units_Z   4
loop_
 _symmetry_equiv_pos_site_id
 _symmetry_equiv_pos_as_xyz
  1  'x, y, z'
loop_
 _atom_site_type_symbol
 _atom_site_label
 _atom_site_symmetry_multiplicity
 _atom_site_fract_x
 _atom_site_fract_y
 _atom_site_fract_z
 _atom_site_occupancy
  Ba  Ba0  1  0.11474065  0.62679065  0.87055337  1
  Ba  Ba1  1  0.11791796  0.12243845  0.87880982  1
  Ba  Ba2  1  0.04932657  0.87484642  0.44458994  1
  Ba  Ba3  1  0.03275528  0.37552348  0.42479540  1
  Ba  Ba4  1  0.09066558  0.38007266  0.09756727  1
  Ba  Ba5  1  0.08606936  0.86846580  0.10246231  1
  Ba  Ba6  1  0.41393064  0.36846580  0.89753769  1
  Ba  Ba7  1  0.40933442  0.88007266  0.90243273  1
  Ba  Ba8  1  0.46724472  0.87552348  0.57520460  1
  Ba  Ba9  1  0.45067343  0.37484642  0.55541006  1
  Ba  Ba10  1  0.38208204  0.62243845  0.12119018  1
  Ba  Ba11  1  0.38525935  0.12679065  0.12944663  1
  Ba  Ba12  1  0.61474065  0.87320935  0.87055337  1
  Ba  Ba13  1  0.61791796  0.37756155  0.87880982  1
  Ba  Ba14  1  0.54932657  0.62515358  0.44458994  1
  Ba  Ba15  1  0.53275528  0.12447652  0.42479540  1
  Ba  Ba16  1  0.59066558  0.11992734  0.09756727  1
  Ba  Ba17  1  0.58606936  0.63153420  0.10246231  1
  Ba  Ba18  1  0.91393064  0.13153420  0.89753769  1
  Ba  Ba19  1  0.90933442  0.61992734  0.90243273  1
  Ba  Ba20  1  0.96724472  0.62447652  0.57520460  1
  Ba  Ba21  1  0.95067343  0.12515358  0.55541006  1
  Ba  Ba22  1  0.88208204  0.87756155  0.12119018  1
  Ba  Ba23  1  0.88525935  0.37320935  0.12944663  1
  Y  Y24  1  0.21673015  0.12595918  0.63200304  1
  Y  Y25  1  0.28326985  0.62595918  0.36799696  1
  Y  Y26  1  0.71673015  0.37404082  0.63200304  1
  Y  Y27  1  0.78326985  0.87404082  0.36799696  1
  I  I28  1  0.99737422  0.63229541  0.40410018  1
  I  I29  1  0.11575264  0.87498347  0.93270961  1
  I  I30  1  0.11424557  0.37389354  0.92243101  1
  I  I31  1  0.00352864  0.11773741  0.41167093  1
  I  I32  1  0.02976310  0.36830380  0.23168304  1
  I  I33  1  0.02514900  0.88377429  0.23932801  1
  I  I34  1  0.12704755  0.11945094  0.68768014  1
  I  I35  1  0.10949940  0.63422902  0.67957602  1
  I  I36  1  0.25335648  0.12607108  0.98983083  1
  I  I37  1  0.18098571  0.96661171  0.50226374  1
  I  I38  1  0.17069620  0.28876952  0.50752578  1
  I  I39  1  0.05666373  0.62520779  0.03212555  1
  I  I40  1  0.06342146  0.12376116  0.03701181  1
  I  I41  1  0.20634542  0.46595815  0.26132184  1
  I  I42  1  0.19753922  0.77976299  0.27212586  1
  I  I43  1  0.30246078  0.27976299  0.72787414  1
  I  I44  1  0.29365458  0.96595815  0.73867816  1
  I  I45  1  0.43657854  0.62376116  0.96298819  1
  I  I46  1  0.44333627  0.12520779  0.96787445  1
  I  I47  1  0.32930380  0.78876952  0.49247422  1
  I  I48  1  0.31901429  0.46661171  0.49773626  1
  I  I49  1  0.24664352  0.62607108  0.01016917  1
  I  I50  1  0.39050060  0.13422902  0.32042398  1
  I  I51  1  0.37295245  0.61945094  0.31231986  1
  I  I52  1  0.47485100  0.38377429  0.76067199  1
  I  I53  1  0.47023690  0.86830380  0.76831696  1
  I  I54  1  0.49647136  0.61773741  0.58832907  1
  I  I55  1  0.38575443  0.87389354  0.07756899  1
  I  I56  1  0.38424736  0.37498347  0.06729039  1
  I  I57  1  0.50262578  0.13229541  0.59589982  1
  I  I58  1  0.49737422  0.86770459  0.40410018  1
  I  I59  1  0.61575264  0.62501653  0.93270961  1
  I  I60  1  0.61424557  0.12610646  0.92243101  1
  I  I61  1  0.50352864  0.38226259  0.41167093  1
  I  I62  1  0.52976310  0.13169620  0.23168304  1
  I  I63  1  0.52514900  0.61622571  0.23932801  1
  I  I64  1  0.62704755  0.38054906  0.68768014  1
  I  I65  1  0.60949940  0.86577098  0.67957602  1
  I  I66  1  0.75335648  0.37392892  0.98983083  1
  I  I67  1  0.68098571  0.53338829  0.50226374  1
  I  I68  1  0.67069620  0.21123048  0.50752578  1
  I  I69  1  0.55666373  0.87479221  0.03212555  1
  I  I70  1  0.56342146  0.37623884  0.03701181  1
  I  I71  1  0.70634542  0.03404185  0.26132184  1
  I  I72  1  0.69753922  0.72023701  0.27212586  1
  I  I73  1  0.80246078  0.22023701  0.72787414  1
  I  I74  1  0.79365458  0.53404185  0.73867816  1
  I  I75  1  0.93657854  0.87623884  0.96298819  1
  I  I76  1  0.94333627  0.37479221  0.96787445  1
  I  I77  1  0.82930380  0.71123048  0.49247422  1
  I  I78  1  0.81901429  0.03338829  0.49773626  1
  I  I79  1  0.74664352  0.87392892  0.01016917  1
  I  I80  1  0.89050060  0.36577098  0.32042398  1
  I  I81  1  0.87295245  0.88054906  0.31231986  1
  I  I82  1  0.97485100  0.11622571  0.76067199  1
  I  I83  1  0.97023690  0.63169620  0.76831696  1
  I  I84  1  0.99647136  0.88226259  0.58832907  1
  I  I85  1  0.88575443  0.62610646  0.07756899  1
  I  I86  1  0.88424736  0.12501653  0.06729039  1
  I  I87  1  0.00262578  0.36770459  0.59589982  1
