# generated using pymatgen
data_Li4Ti3V2Cr4O18
_symmetry_space_group_name_H-M   'P 1'
_cell_length_a   9.00350037
_cell_length_b   25.11364942
_cell_length_c   2.97621343
_cell_angle_alpha   90.00003502
_cell_angle_beta   90.00002741
_cell_angle_gamma   90.01688524
_symmetry_Int_Tables_number   1
_chemical_formula_structural   Li4Ti3V2Cr4O18
_chemical_formula_sum   'Li8 Ti6 V4 Cr8 O36'
_cell_volume   672.95382699
_cell_formula_units_Z   2
loop_
 _symmetry_equiv_pos_site_id
 _symmetry_equiv_pos_as_xyz
  1  'x, y, z'
loop_
 _atom_site_type_symbol
 _atom_site_label
 _atom_site_symmetry_multiplicity
 _atom_site_fract_x
 _atom_site_fract_y
 _atom_site_fract_z
 _atom_site_occupancy
  Li  Li0  1  0.18764468  0.99803405  0.99999922  1
  Li  Li1  1  0.20854923  0.19779767  0.99999791  1
  Li  Li2  1  0.29144262  0.69777120  0.99999893  1
  Li  Li3  1  0.31231433  0.49805111  0.99999724  1
  Li  Li4  1  0.68499455  0.50127109  0.99999835  1
  Li  Li5  1  0.70701447  0.30008992  0.99999772  1
  Li  Li6  1  0.79299468  0.80006616  -0.00000091  1
  Li  Li7  1  0.81513099  0.00133591  0.99999776  1
  Ti  Ti8  1  0.00901228  0.10325906  0.00000006  1
  Ti  Ti9  1  0.49101375  0.60323855  0.99999652  1
  Ti  Ti10  1  0.50265758  0.39645695  0.99999676  1
  Ti  Ti11  1  0.64294782  0.69600487  0.49999534  1
  Ti  Ti12  1  0.85700586  0.19598075  0.50000002  1
  Ti  Ti13  1  0.99738918  0.89646095  0.99999688  1
  V  V14  1  0.99850841  0.49979207  0.99999838  1
  V  V15  1  0.14163513  0.80378126  0.50000008  1
  V  V16  1  0.35833695  0.30376642  0.49999685  1
  V  V17  1  0.50150657  0.99981989  -0.00000042  1
  Cr  Cr18  1  0.02502019  0.31026583  0.99998034  1
  Cr  Cr19  1  0.13818432  0.58738683  0.49999417  1
  Cr  Cr20  1  0.36179543  0.08740640  0.50002714  1
  Cr  Cr21  1  0.47495736  0.81026939  0.00001112  1
  Cr  Cr22  1  0.52130775  0.19147596  0.00002805  1
  Cr  Cr23  1  0.64147197  0.91234906  0.50000857  1
  Cr  Cr24  1  0.85849515  0.41233716  0.49998829  1
  Cr  Cr25  1  0.97869501  0.69145874  0.00000099  1
  O  O26  1  0.00504190  0.42468145  0.00000443  1
  O  O27  1  0.99264968  0.57525081  0.99998658  1
  O  O28  1  0.04536146  0.94129169  0.49999791  1
  O  O29  1  0.05470649  0.15978061  0.50000089  1
  O  O30  1  0.10616220  0.66511304  0.49999733  1
  O  O31  1  0.09254641  0.75685084  -0.00000031  1
  O  O32  1  0.14868472  0.50595072  0.49999807  1
  O  O33  1  0.15714395  0.28361207  0.49998920  1
  O  O34  1  0.18309367  0.85469163  0.99999874  1
  O  O35  1  0.21269075  0.08659198  0.00000673  1
  O  O36  1  0.28729793  0.58655235  -0.00000145  1
  O  O37  1  0.31693496  0.35465816  0.99999737  1
  O  O38  1  0.34279088  0.78362214  0.50000572  1
  O  O39  1  0.35127644  0.00596992  0.50000092  1
  O  O40  1  0.40744082  0.25684630  0.00000061  1
  O  O41  1  0.39384854  0.16512876  0.50001665  1
  O  O42  1  0.44532051  0.65975316  0.49999676  1
  O  O43  1  0.45477220  0.44128156  0.49999366  1
  O  O44  1  0.50733791  0.07528241  0.00000924  1
  O  O45  1  0.49489713  0.92468999  0.00000346  1
  O  O46  1  0.54476210  0.55887485  0.50000118  1
  O  O47  1  0.55022886  0.33875272  0.49999042  1
  O  O48  1  0.60269540  0.83530495  0.50001156  1
  O  O49  1  0.58991898  0.74472993  0.00000041  1
  O  O50  1  0.65190116  0.99381518  0.50000348  1
  O  O51  1  0.65308922  0.21801609  0.50001054  1
  O  O52  1  0.68195285  0.64702437  0.99999818  1
  O  O53  1  0.71009815  0.41176642  0.99999845  1
  O  O54  1  0.78992630  0.91174789  0.00000393  1
  O  O55  1  0.81802323  0.14700023  0.00000131  1
  O  O56  1  0.84694303  0.71801702  0.49999188  1
  O  O57  1  0.84813391  0.49378582  0.49999660  1
  O  O58  1  0.91002359  0.24471318  0.99999749  1
  O  O59  1  0.89728942  0.33530023  0.49998681  1
  O  O60  1  0.94979606  0.83873996  0.49999973  1
  O  O61  1  0.95519289  0.05888435  0.50000016  1
