# generated using pymatgen
data_BaY3F11
_symmetry_space_group_name_H-M   'P 1'
_cell_length_a   6.27044684
_cell_length_b   7.85529669
_cell_length_c   29.68113360
_cell_angle_alpha   90.00000000
_cell_angle_beta   90.00000000
_cell_angle_gamma   90.00000000
_symmetry_Int_Tables_number   1
_chemical_formula_structural   BaY3F11
_chemical_formula_sum   'Ba4 Y12 F44'
_cell_volume   1461.98045557
_cell_formula_units_Z   4
loop_
 _symmetry_equiv_pos_site_id
 _symmetry_equiv_pos_as_xyz
  1  'x, y, z'
loop_
 _atom_site_type_symbol
 _atom_site_label
 _atom_site_symmetry_multiplicity
 _atom_site_fract_x
 _atom_site_fract_y
 _atom_site_fract_z
 _atom_site_occupancy
  Ba  Ba0  1  0.22968689  0.90599069  0.20956058  1
  Ba  Ba1  1  0.27031311  0.09400931  0.70956058  1
  Ba  Ba2  1  0.72968689  0.59400931  0.79043942  1
  Ba  Ba3  1  0.77031311  0.40599069  0.29043942  1
  Y  Y4  1  0.24146691  0.25030886  0.08634819  1
  Y  Y5  1  0.24141024  0.58992081  0.96878732  1
  Y  Y6  1  0.23502704  0.94062566  0.85263104  1
  Y  Y7  1  0.26497296  0.05937434  0.35263104  1
  Y  Y8  1  0.25858976  0.41007919  0.46878732  1
  Y  Y9  1  0.25853309  0.74969114  0.58634819  1
  Y  Y10  1  0.74146691  0.24969114  0.91365181  1
  Y  Y11  1  0.74141024  0.91007919  0.03121268  1
  Y  Y12  1  0.73502704  0.55937434  0.14736896  1
  Y  Y13  1  0.76497296  0.44062566  0.64736896  1
  Y  Y14  1  0.75858976  0.08992081  0.53121268  1
  Y  Y15  1  0.75853309  0.75030886  0.41365181  1
  F  F16  1  0.02074125  0.10555825  0.89097610  1
  F  F17  1  0.01549860  0.42987227  0.11822942  1
  F  F18  1  0.09127966  0.23349608  0.30730932  1
  F  F19  1  0.00072921  0.75778567  0.00034468  1
  F  F20  1  0.01782129  0.58388585  0.43894676  1
  F  F21  1  0.02137814  0.93336728  0.55901923  1
  F  F22  1  0.04459189  0.30889225  0.67315591  1
  F  F23  1  0.22859871  0.10898578  0.79387345  1
  F  F24  1  0.24073652  0.13029557  0.15160296  1
  F  F25  1  0.23737786  0.42068196  0.02747090  1
  F  F26  1  0.24558090  0.24615444  0.40904916  1
  F  F27  1  0.25441910  0.75384556  0.90904916  1
  F  F28  1  0.26262214  0.57931804  0.52747090  1
  F  F29  1  0.25926348  0.86970443  0.65160296  1
  F  F30  1  0.27140129  0.89101322  0.29387345  1
  F  F31  1  0.45540811  0.69110775  0.17315591  1
  F  F32  1  0.47862186  0.06663272  0.05901923  1
  F  F33  1  0.48217871  0.41611415  0.93894676  1
  F  F34  1  0.49927079  0.24221433  0.50034468  1
  F  F35  1  0.40872034  0.76650392  0.80730932  1
  F  F36  1  0.48450140  0.57012773  0.61822942  1
  F  F37  1  0.47925875  0.89444175  0.39097610  1
  F  F38  1  0.52074125  0.39444175  0.10902390  1
  F  F39  1  0.51549860  0.07012773  0.88177058  1
  F  F40  1  0.59127966  0.26650392  0.69269068  1
  F  F41  1  0.50072921  0.74221433  0.99965532  1
  F  F42  1  0.51782129  0.91611415  0.56105324  1
  F  F43  1  0.52137814  0.56663272  0.44098077  1
  F  F44  1  0.54459189  0.19110775  0.32684409  1
  F  F45  1  0.72859871  0.39101422  0.20612655  1
  F  F46  1  0.74073652  0.36970443  0.84839704  1
  F  F47  1  0.73737786  0.07931804  0.97252910  1
  F  F48  1  0.74558090  0.25384556  0.59095084  1
  F  F49  1  0.75441910  0.74615444  0.09095084  1
  F  F50  1  0.76262214  0.92068196  0.47252910  1
  F  F51  1  0.75926348  0.63029557  0.34839704  1
  F  F52  1  0.77140129  0.60898678  0.70612655  1
  F  F53  1  0.95540811  0.80889225  0.82684409  1
  F  F54  1  0.97862186  0.43336728  0.94098077  1
  F  F55  1  0.98217871  0.08388585  0.06105324  1
  F  F56  1  0.99927079  0.25778567  0.49965532  1
  F  F57  1  0.90872034  0.73349608  0.19269068  1
  F  F58  1  0.98450140  0.92987227  0.38177058  1
  F  F59  1  0.97925875  0.60555825  0.60902390  1
