# generated using pymatgen
data_LiFeF3
_symmetry_space_group_name_H-M   'P 1'
_cell_length_a   8.73206857
_cell_length_b   8.73206857
_cell_length_c   6.21044361
_cell_angle_alpha   90.00000000
_cell_angle_beta   90.00000000
_cell_angle_gamma   90.00000000
_symmetry_Int_Tables_number   1
_chemical_formula_structural   LiFeF3
_chemical_formula_sum   'Li8 Fe8 F24'
_cell_volume   473.54024841
_cell_formula_units_Z   8
loop_
 _symmetry_equiv_pos_site_id
 _symmetry_equiv_pos_as_xyz
  1  'x, y, z'
loop_
 _atom_site_type_symbol
 _atom_site_label
 _atom_site_symmetry_multiplicity
 _atom_site_fract_x
 _atom_site_fract_y
 _atom_site_fract_z
 _atom_site_occupancy
  Li  Li0  1  0.09950586  0.20761678  0.41396091  1
  Li  Li1  1  0.29238322  0.09950586  0.08603909  1
  Li  Li2  1  0.20761678  0.40049414  0.08603909  1
  Li  Li3  1  0.40049414  0.29238322  0.41396091  1
  Li  Li4  1  0.59950586  0.70761678  0.58603909  1
  Li  Li5  1  0.79238322  0.59950586  0.91396091  1
  Li  Li6  1  0.70761678  0.90049414  0.91396091  1
  Li  Li7  1  0.90049414  0.79238322  0.58603909  1
  Fe  Fe8  1  0.05743432  0.76841163  0.14679239  1
  Fe  Fe9  1  0.23158837  0.55743432  0.64679239  1
  Fe  Fe10  1  0.26841163  0.94256568  0.64679239  1
  Fe  Fe11  1  0.44256568  0.73158837  0.14679239  1
  Fe  Fe12  1  0.55743432  0.26841163  0.85320761  1
  Fe  Fe13  1  0.73158837  0.05743432  0.35320761  1
  Fe  Fe14  1  0.76841163  0.44256568  0.35320761  1
  Fe  Fe15  1  0.94256568  0.23158837  0.85320761  1
  F  F16  1  0.08216230  0.07729394  0.68915526  1
  F  F17  1  0.09104309  0.20348096  0.10723402  1
  F  F18  1  0.10926166  0.73452485  0.51785989  1
  F  F19  1  0.07729394  0.41783770  0.81084474  1
  F  F20  1  0.23452485  0.89073834  0.01785989  1
  F  F21  1  0.20348096  0.40895691  0.39276598  1
  F  F22  1  0.29651904  0.09104309  0.39276598  1
  F  F23  1  0.26547515  0.60926166  0.01785989  1
  F  F24  1  0.42270606  0.08216230  0.81084474  1
  F  F25  1  0.39073834  0.76547515  0.51785989  1
  F  F26  1  0.40895691  0.29651904  0.10723402  1
  F  F27  1  0.41783770  0.42270606  0.68915526  1
  F  F28  1  0.58216230  0.57729394  0.31084474  1
  F  F29  1  0.59104309  0.70348096  0.89276598  1
  F  F30  1  0.60926166  0.23452485  0.48214011  1
  F  F31  1  0.57729394  0.91783770  0.18915526  1
  F  F32  1  0.73452485  0.39073834  0.98214011  1
  F  F33  1  0.70348096  0.90895691  0.60723402  1
  F  F34  1  0.79651904  0.59104309  0.60723402  1
  F  F35  1  0.76547515  0.10926166  0.98214011  1
  F  F36  1  0.92270606  0.58216230  0.18915526  1
  F  F37  1  0.89073834  0.26547515  0.48214011  1
  F  F38  1  0.90895691  0.79651904  0.89276598  1
  F  F39  1  0.91783770  0.92270606  0.31084474  1
