# generated using pymatgen
data_Li4Mn2Cu3Sn3O16
_symmetry_space_group_name_H-M   'P 1'
_cell_length_a   6.04664274
_cell_length_b   6.11455869
_cell_length_c   9.58827622
_cell_angle_alpha   89.99512913
_cell_angle_beta   90.17795925
_cell_angle_gamma   120.36676345
_symmetry_Int_Tables_number   1
_chemical_formula_structural   Li4Mn2Cu3Sn3O16
_chemical_formula_sum   'Li4 Mn2 Cu3 Sn3 O16'
_cell_volume   305.86580052
_cell_formula_units_Z   1
loop_
 _symmetry_equiv_pos_site_id
 _symmetry_equiv_pos_as_xyz
  1  'x, y, z'
loop_
 _atom_site_type_symbol
 _atom_site_label
 _atom_site_symmetry_multiplicity
 _atom_site_fract_x
 _atom_site_fract_y
 _atom_site_fract_z
 _atom_site_occupancy
  Li  Li0  1  0.35187516  0.67604306  0.89195680  1
  Li  Li1  1  0.95320773  0.97665553  0.98528745  1
  Li  Li2  1  0.96284888  0.98146171  0.49875853  1
  Li  Li3  1  0.67163812  0.33583741  0.40431366  1
  Mn  Mn4  1  0.33670806  0.66830244  0.49092795  1
  Mn  Mn5  1  0.68609733  0.34313379  0.98032201  1
  Cu  Cu6  1  0.66286409  0.83130196  0.21338408  1
  Cu  Cu7  1  0.83388348  0.65998734  0.71195315  1
  Cu  Cu8  1  0.83399487  0.17406555  0.71196386  1
  Sn  Sn9  1  0.17307703  0.83260125  0.21209056  1
  Sn  Sn10  1  0.17294186  0.34033609  0.21212707  1
  Sn  Sn11  1  0.34160259  0.17077413  0.71050005  1
  O  O12  1  0.16656707  0.83232171  0.59244597  1
  O  O13  1  0.03548425  0.51773066  0.34700265  1
  O  O14  1  0.35068419  0.67525307  0.10011690  1
  O  O15  1  0.98731449  0.99359183  0.30974763  1
  O  O16  1  0.98552005  0.99275878  0.79890459  1
  O  O17  1  0.16656928  0.33417741  0.59233020  1
  O  O18  1  0.47572128  0.95757448  0.35520794  1
  O  O19  1  0.47568336  0.51805895  0.35518333  1
  O  O20  1  0.33758914  0.16879479  0.09459105  1
  O  O21  1  0.64359961  0.82157406  0.59669800  1
  O  O22  1  0.53036195  0.48087075  0.85072332  1
  O  O23  1  0.53052607  0.04971460  0.85077589  1
  O  O24  1  0.68490329  0.34253821  0.60788750  1
  O  O25  1  0.84095613  0.66220789  0.09034373  1
  O  O26  1  0.96675417  0.48376439  0.85200979  1
  O  O27  1  0.84102950  0.17886916  0.09028635  1
