# generated using pymatgen
data_MgCoO3
_symmetry_space_group_name_H-M   'P 1'
_cell_length_a   6.38267833
_cell_length_b   6.38267833
_cell_length_c   4.96192630
_cell_angle_alpha   93.18598877
_cell_angle_beta   86.81401123
_cell_angle_gamma   96.57411320
_symmetry_Int_Tables_number   1
_chemical_formula_structural   MgCoO3
_chemical_formula_sum   'Mg4 Co4 O12'
_cell_volume   200.25534741
_cell_formula_units_Z   4
loop_
 _symmetry_equiv_pos_site_id
 _symmetry_equiv_pos_as_xyz
  1  'x, y, z'
loop_
 _atom_site_type_symbol
 _atom_site_label
 _atom_site_symmetry_multiplicity
 _atom_site_fract_x
 _atom_site_fract_y
 _atom_site_fract_z
 _atom_site_occupancy
  Mg  Mg0  1  0.17359414  0.60636153  0.77596367  1
  Mg  Mg1  1  0.39363947  0.82640586  0.27596367  1
  Mg  Mg2  1  0.60636153  0.17359414  0.72403633  1
  Mg  Mg3  1  0.82640586  0.39363947  0.22403633  1
  Co  Co4  1  0.08228679  0.08228679  0.75000000  1
  Co  Co5  1  0.73354945  0.73354945  0.75000000  1
  Co  Co6  1  0.26645055  0.26645055  0.25000000  1
  Co  Co7  1  0.91771321  0.91771321  0.25000000  1
  O  O8  1  0.01983857  0.81300170  0.56986788  1
  O  O9  1  0.18699830  0.98016143  0.06986788  1
  O  O10  1  0.11526352  0.33701129  0.96047109  1
  O  O11  1  0.27220237  0.52855587  0.39228282  1
  O  O12  1  0.66298871  0.88473648  0.46047109  1
  O  O13  1  0.47144413  0.72779763  0.89228282  1
  O  O14  1  0.52855587  0.27220237  0.10771718  1
  O  O15  1  0.33701129  0.11526352  0.53952891  1
  O  O16  1  0.72779763  0.47144413  0.60771718  1
  O  O17  1  0.88473648  0.66298871  0.03952891  1
  O  O18  1  0.81300170  0.01983857  0.93013212  1
  O  O19  1  0.98016143  0.18699830  0.43013212  1
