# generated using pymatgen
data_CaFeWO6
_symmetry_space_group_name_H-M   'P 1'
_cell_length_a   5.54338022
_cell_length_b   5.54366906
_cell_length_c   7.84377876
_cell_angle_alpha   90.00169091
_cell_angle_beta   90.00000000
_cell_angle_gamma   90.00000000
_symmetry_Int_Tables_number   1
_chemical_formula_structural   CaFeWO6
_chemical_formula_sum   'Ca2 Fe2 W2 O12'
_cell_volume   241.04454078
_cell_formula_units_Z   2
loop_
 _symmetry_equiv_pos_site_id
 _symmetry_equiv_pos_as_xyz
  1  'x, y, z'
loop_
 _atom_site_type_symbol
 _atom_site_label
 _atom_site_symmetry_multiplicity
 _atom_site_fract_x
 _atom_site_fract_y
 _atom_site_fract_z
 _atom_site_occupancy
  Ca  Ca0  1  0.00000000  0.48479566  0.75133386  1
  Ca  Ca1  1  0.50000000  0.98253312  0.25105913  1
  Fe  Fe2  1  0.50000000  0.47552193  0.00002639  1
  Fe  Fe3  1  0.00000000  0.97422738  0.49995025  1
  W  W4  1  0.00000000  0.97626688  0.00006088  1
  W  W5  1  0.50000000  0.47444293  0.50013832  1
  O  O6  1  0.50000000  0.46703491  0.74605839  1
  O  O7  1  0.50000000  0.48054497  0.25376286  1
  O  O8  1  0.00000000  0.97998828  0.75352087  1
  O  O9  1  0.00000000  0.96727963  0.24615075  1
  O  O10  1  0.74819734  0.71781228  0.50413630  1
  O  O11  1  0.25180266  0.71781228  0.50413630  1
  O  O12  1  0.74437870  0.22455244  0.49507757  1
  O  O13  1  0.25562230  0.22455244  0.49507757  1
  O  O14  1  0.24747734  0.21999997  0.00382113  1
  O  O15  1  0.75252366  0.21999997  0.00382113  1
  O  O16  1  0.24508994  0.72686447  0.99553664  1
  O  O17  1  0.75491106  0.72686447  0.99553664  1
