# generated using pymatgen
data_NbV3O10
_symmetry_space_group_name_H-M   'P 1'
_cell_length_a   6.71640511
_cell_length_b   6.71640511
_cell_length_c   4.51146159
_cell_angle_alpha   90.00000000
_cell_angle_beta   90.00000000
_cell_angle_gamma   90.00000000
_symmetry_Int_Tables_number   1
_chemical_formula_structural   NbV3O10
_chemical_formula_sum   'Nb1 V3 O10'
_cell_volume   203.51247265
_cell_formula_units_Z   1
loop_
 _symmetry_equiv_pos_site_id
 _symmetry_equiv_pos_as_xyz
  1  'x, y, z'
loop_
 _atom_site_type_symbol
 _atom_site_label
 _atom_site_symmetry_multiplicity
 _atom_site_fract_x
 _atom_site_fract_y
 _atom_site_fract_z
 _atom_site_occupancy
  Nb  Nb0  1  0.75000000  0.25000000  0.50000000  1
  V  V1  1  0.25000000  0.25000000  0.63402610  1
  V  V2  1  0.75000000  0.75000000  0.36597390  1
  V  V3  1  0.25000000  0.75000000  0.50000000  1
  O  O4  1  0.03230815  0.75000000  0.28757536  1
  O  O5  1  0.25000000  0.25000000  0.27464981  1
  O  O6  1  0.25000000  0.53230815  0.71242464  1
  O  O7  1  0.25000000  0.96769185  0.71242464  1
  O  O8  1  0.46769185  0.75000000  0.28757536  1
  O  O9  1  0.52202240  0.25000000  0.73852726  1
  O  O10  1  0.75000000  0.02202240  0.26147274  1
  O  O11  1  0.75000000  0.47797760  0.26147274  1
  O  O12  1  0.75000000  0.75000000  0.72535019  1
  O  O13  1  0.97797760  0.25000000  0.73852726  1
