# generated using pymatgen
data_Li4CrFe2Ni3(PO4)6
_symmetry_space_group_name_H-M   'P 1'
_cell_length_a   8.34261605
_cell_length_b   8.41821320
_cell_length_c   8.42257661
_cell_angle_alpha   63.42160479
_cell_angle_beta   63.77132801
_cell_angle_gamma   63.84411511
_symmetry_Int_Tables_number   1
_chemical_formula_structural   Li4CrFe2Ni3(PO4)6
_chemical_formula_sum   'Li4 Cr1 Fe2 Ni3 P6 O24'
_cell_volume   452.23217969
_cell_formula_units_Z   1
loop_
 _symmetry_equiv_pos_site_id
 _symmetry_equiv_pos_as_xyz
  1  'x, y, z'
loop_
 _atom_site_type_symbol
 _atom_site_label
 _atom_site_symmetry_multiplicity
 _atom_site_fract_x
 _atom_site_fract_y
 _atom_site_fract_z
 _atom_site_occupancy
  Li  Li0  1  0.75074552  0.14419389  0.35459395  1
  Li  Li1  1  0.26727608  0.85426209  0.64513329  1
  Li  Li2  1  0.64419949  0.26622152  0.85633575  1
  Li  Li3  1  0.85675627  0.64285753  0.26909930  1
  Cr  Cr4  1  0.85671570  0.85268898  0.85561194  1
  Fe  Fe5  1  0.01425978  0.00231228  0.99755476  1
  Fe  Fe6  1  0.48834395  0.50050001  0.49917716  1
  Ni  Ni7  1  0.14220394  0.14740308  0.14622994  1
  Ni  Ni8  1  0.35553580  0.35296906  0.35024338  1
  Ni  Ni9  1  0.64697880  0.64743492  0.65045625  1
  P  P10  1  0.05195241  0.74777280  0.45033431  1
  P  P11  1  0.44764644  0.05094698  0.75149100  1
  P  P12  1  0.74905091  0.44919595  0.05083054  1
  P  P13  1  0.24705347  0.54452011  0.95227577  1
  P  P14  1  0.55206244  0.95277938  0.24872609  1
  P  P15  1  0.94464579  0.24657520  0.54407166  1
  O  O16  1  0.10960335  0.30519621  0.50100663  1
  O  O17  1  0.31478557  0.51743363  0.10484793  1
  O  O18  1  0.05715833  0.90750447  0.26247133  1
  O  O19  1  0.54520088  0.10112967  0.31163148  1
  O  O20  1  0.01496198  0.81217156  0.61192036  1
  O  O21  1  0.25202206  0.59762108  0.43678027  1
  O  O22  1  0.25498412  0.07511004  0.90011654  1
  O  O23  1  0.45237279  0.24474104  0.58872497  1
  O  O24  1  0.17568994  0.39449931  0.98658461  1
  O  O25  1  0.60098606  0.43217865  0.25419207  1
  O  O26  1  0.09809798  0.74937574  0.92353665  1
  O  O27  1  0.38897174  0.00262564  0.18724984  1
  O  O28  1  0.61079328  0.01025632  0.81860440  1
  O  O29  1  0.89493948  0.25118821  0.07779310  1
  O  O30  1  0.39968286  0.56745817  0.74774822  1
  O  O31  1  0.81477837  0.60974637  0.01359957  1
  O  O32  1  0.56642544  0.75000217  0.40240473  1
  O  O33  1  0.75369638  0.92011859  0.09596196  1
  O  O34  1  0.74402507  0.40276653  0.57019890  1
  O  O35  1  0.95762544  0.18031538  0.39757871  1
  O  O36  1  0.47531026  0.89863674  0.68058489  1
  O  O37  1  0.92440491  0.09571871  0.74721781  1
  O  O38  1  0.67831303  0.47581023  0.89895353  1
  O  O39  1  0.89974287  0.67275977  0.48112640  1
