# generated using pymatgen
data_Li4Co2Ni3Sn(PO4)6
_symmetry_space_group_name_H-M   'P 1'
_cell_length_a   8.40767817
_cell_length_b   8.51473369
_cell_length_c   8.51447808
_cell_angle_alpha   62.70720821
_cell_angle_beta   63.10660711
_cell_angle_gamma   63.07883381
_symmetry_Int_Tables_number   1
_chemical_formula_structural   Li4Co2Ni3Sn(PO4)6
_chemical_formula_sum   'Li4 Co2 Ni3 Sn1 P6 O24'
_cell_volume   459.37166685
_cell_formula_units_Z   1
loop_
 _symmetry_equiv_pos_site_id
 _symmetry_equiv_pos_as_xyz
  1  'x, y, z'
loop_
 _atom_site_type_symbol
 _atom_site_label
 _atom_site_symmetry_multiplicity
 _atom_site_fract_x
 _atom_site_fract_y
 _atom_site_fract_z
 _atom_site_occupancy
  Li  Li0  1  0.74666662  0.14790354  0.35208302  1
  Li  Li1  1  0.29494903  0.84438836  0.64017401  1
  Li  Li2  1  0.63617932  0.29466403  0.84821018  1
  Li  Li3  1  0.84894807  0.63694035  0.29786315  1
  Co  Co4  1  0.01658112  0.00116214  0.99881374  1
  Co  Co5  1  0.48774930  0.50346290  0.49883995  1
  Ni  Ni6  1  0.14293946  0.14756299  0.14508051  1
  Ni  Ni7  1  0.35563945  0.35586696  0.35253322  1
  Ni  Ni8  1  0.64608881  0.64684750  0.65017963  1
  Sn  Sn9  1  0.85275591  0.84792388  0.85191302  1
  P  P10  1  0.25043685  0.54282439  0.95350808  1
  P  P11  1  0.55156808  0.95429007  0.25166806  1
  P  P12  1  0.94487636  0.24830868  0.54291031  1
  P  P13  1  0.05704107  0.74468329  0.44088251  1
  P  P14  1  0.43921707  0.05536498  0.74743772  1
  P  P15  1  0.74628734  0.44080325  0.05443255  1
  O  O16  1  0.10989541  0.30366475  0.49855204  1
  O  O17  1  0.31410665  0.51517528  0.10564289  1
  O  O18  1  0.05639357  0.91046310  0.25783216  1
  O  O19  1  0.54530914  0.10191139  0.30986131  1
  O  O20  1  0.02115831  0.80969803  0.60322239  1
  O  O21  1  0.25128340  0.59586164  0.42728941  1
  O  O22  1  0.24862241  0.07551431  0.90178456  1
  O  O23  1  0.44635075  0.24059627  0.58639608  1
  O  O24  1  0.17302191  0.39835135  0.98762908  1
  O  O25  1  0.59949731  0.42458385  0.25072664  1
  O  O26  1  0.10045287  0.75207514  0.91951789  1
  O  O27  1  0.39345887  0.00457542  0.18372695  1
  O  O28  1  0.60045757  0.01565610  0.81950757  1
  O  O29  1  0.89821437  0.24682167  0.07696711  1
  O  O30  1  0.40490616  0.56533183  0.75492135  1
  O  O31  1  0.81266674  0.60104238  0.02063818  1
  O  O32  1  0.56518388  0.75707322  0.40749200  1
  O  O33  1  0.75758691  0.91532132  0.09875089  1
  O  O34  1  0.74878233  0.40614161  0.56997791  1
  O  O35  1  0.95629516  0.17820944  0.40185506  1
  O  O36  1  0.47580006  0.89592711  0.68602910  1
  O  O37  1  0.92142447  0.09660147  0.74988903  1
  O  O38  1  0.68261765  0.47718644  0.89658063  1
  O  O39  1  0.89858528  0.67621761  0.48167810  1
