# generated using pymatgen
data_Li4V3Ni2Sn3O16
_symmetry_space_group_name_H-M   'P 1'
_cell_length_a   6.11163951
_cell_length_b   6.08889535
_cell_length_c   9.78602561
_cell_angle_alpha   89.83796677
_cell_angle_beta   89.67271531
_cell_angle_gamma   120.04130850
_symmetry_Int_Tables_number   1
_chemical_formula_structural   Li4V3Ni2Sn3O16
_chemical_formula_sum   'Li4 V3 Ni2 Sn3 O16'
_cell_volume   315.23601815
_cell_formula_units_Z   1
loop_
 _symmetry_equiv_pos_site_id
 _symmetry_equiv_pos_as_xyz
  1  'x, y, z'
loop_
 _atom_site_type_symbol
 _atom_site_label
 _atom_site_symmetry_multiplicity
 _atom_site_fract_x
 _atom_site_fract_y
 _atom_site_fract_z
 _atom_site_occupancy
  Li  Li0  1  0.34800495  0.67309428  0.88728414  1
  Li  Li1  1  0.97329348  0.98338926  0.99504205  1
  Li  Li2  1  0.98218830  0.98956996  0.50145648  1
  Li  Li3  1  0.67301154  0.33337465  0.39378559  1
  V  V4  1  0.66289184  0.82938633  0.21614010  1
  V  V5  1  0.82595790  0.16026487  0.71142897  1
  V  V6  1  0.84357740  0.65749346  0.71915896  1
  Ni  Ni7  1  0.33575356  0.67433255  0.49089261  1
  Ni  Ni8  1  0.66435413  0.33857786  0.98818268  1
  Sn  Sn9  1  0.17031790  0.83107840  0.21529984  1
  Sn  Sn10  1  0.16906936  0.33775915  0.21384565  1
  Sn  Sn11  1  0.34247967  0.17587602  0.71352066  1
  O  O12  1  0.15446937  0.83942455  0.60258401  1
  O  O13  1  0.03630083  0.51250411  0.34108605  1
  O  O14  1  0.34588531  0.67369436  0.09765428  1
  O  O15  1  0.98911546  0.99375787  0.31857690  1
  O  O16  1  0.99091237  0.99367388  0.81269556  1
  O  O17  1  0.13676614  0.31586457  0.60468382  1
  O  O18  1  0.48986857  0.96667268  0.33577781  1
  O  O19  1  0.50133364  0.53696787  0.33241977  1
  O  O20  1  0.31002033  0.15810971  0.09280434  1
  O  O21  1  0.68313167  0.83611778  0.61329573  1
  O  O22  1  0.52663302  0.48871451  0.83489653  1
  O  O23  1  0.54703066  0.04491351  0.83296223  1
  O  O24  1  0.68262667  0.34355995  0.60205586  1
  O  O25  1  0.82985307  0.67651713  0.10559916  1
  O  O26  1  0.96547729  0.49760564  0.82757260  1
  O  O27  1  0.81967655  0.13800510  0.10713864  1
