# generated using pymatgen
data_Mn2Nb2ZnO9
_symmetry_space_group_name_H-M   'P 1'
_cell_length_a   5.25458525
_cell_length_b   5.25458486
_cell_length_c   14.08709360
_cell_angle_alpha   90.00000000
_cell_angle_beta   90.00000000
_cell_angle_gamma   120.00000242
_symmetry_Int_Tables_number   1
_chemical_formula_structural   Mn2Nb2ZnO9
_chemical_formula_sum   'Mn4 Nb4 Zn2 O18'
_cell_volume   336.84404464
_cell_formula_units_Z   2
loop_
 _symmetry_equiv_pos_site_id
 _symmetry_equiv_pos_as_xyz
  1  'x, y, z'
loop_
 _atom_site_type_symbol
 _atom_site_label
 _atom_site_symmetry_multiplicity
 _atom_site_fract_x
 _atom_site_fract_y
 _atom_site_fract_z
 _atom_site_occupancy
  Mn  Mn0  1  0.33333300  0.66666700  0.00616789  1
  Mn  Mn1  1  0.33333300  0.66666700  0.50616789  1
  Mn  Mn2  1  0.66666700  0.33333300  0.00469602  1
  Mn  Mn3  1  0.66666700  0.33333300  0.50469602  1
  Nb  Nb4  1  0.00000000  0.00000000  0.64921091  1
  Nb  Nb5  1  0.00000000  0.00000000  0.14921091  1
  Nb  Nb6  1  0.00000000  0.00000000  0.86102280  1
  Nb  Nb7  1  0.00000000  0.00000000  0.36102280  1
  Zn  Zn8  1  0.33333300  0.66666700  0.26886137  1
  Zn  Zn9  1  0.33333300  0.66666700  0.76886137  1
  O  O10  1  0.65370139  0.68726516  0.58236386  1
  O  O11  1  0.01238832  0.73174297  0.75586662  1
  O  O12  1  0.64783687  0.96307265  0.42676752  1
  O  O13  1  0.31523477  0.35216313  0.42676752  1
  O  O14  1  0.03356377  0.34629861  0.58236386  1
  O  O15  1  0.71935465  0.73174297  0.25586662  1
  O  O16  1  0.03692735  0.35216313  0.92676752  1
  O  O17  1  0.31273484  0.96643623  0.58236386  1
  O  O18  1  0.31273484  0.34629861  0.08236386  1
  O  O19  1  0.03692735  0.68476523  0.42676752  1
  O  O20  1  0.64783687  0.68476523  0.92676752  1
  O  O21  1  0.65370139  0.96643623  0.08236386  1
  O  O22  1  0.71935465  0.98761168  0.75586662  1
  O  O23  1  0.26825703  0.28064535  0.75586662  1
  O  O24  1  0.26825703  0.98761168  0.25586662  1
  O  O25  1  0.03356377  0.68726516  0.08236386  1
  O  O26  1  0.01238832  0.28064535  0.25586662  1
  O  O27  1  0.31523477  0.96307265  0.92676752  1
