# generated using pymatgen
data_Ta2H15N6Cl7
_symmetry_space_group_name_H-M   'P 1'
_cell_length_a   10.18724389
_cell_length_b   11.58973529
_cell_length_c   7.93989615
_cell_angle_alpha   90.00000000
_cell_angle_beta   90.00000000
_cell_angle_gamma   116.07161361
_symmetry_Int_Tables_number   1
_chemical_formula_structural   Ta2H15N6Cl7
_chemical_formula_sum   'Ta4 H30 N12 Cl14'
_cell_volume   842.05422175
_cell_formula_units_Z   2
loop_
 _symmetry_equiv_pos_site_id
 _symmetry_equiv_pos_as_xyz
  1  'x, y, z'
loop_
 _atom_site_type_symbol
 _atom_site_label
 _atom_site_symmetry_multiplicity
 _atom_site_fract_x
 _atom_site_fract_y
 _atom_site_fract_z
 _atom_site_occupancy
  Ta  Ta0  1  0.00000000  0.00000000  0.00000000  1
  Ta  Ta1  1  0.00000000  0.00000000  0.50000000  1
  Ta  Ta2  1  0.16051766  0.32103631  0.75000000  1
  Ta  Ta3  1  0.83948234  0.67896369  0.25000000  1
  H  H4  1  0.05043174  0.76211192  0.75000000  1
  H  H5  1  0.02774595  0.62802921  0.85529718  1
  H  H6  1  0.02774595  0.62802921  0.64470282  1
  H  H7  1  0.18979474  0.72122934  0.75000000  1
  H  H8  1  0.32467746  0.81690763  0.25000000  1
  H  H9  1  0.07806539  0.15613178  0.25000000  1
  H  H10  1  0.12676352  0.25352803  0.03094729  1
  H  H11  1  0.12676352  0.25352803  0.46905271  1
  H  H12  1  0.46636885  0.93273769  0.14658216  1
  H  H13  1  0.46636885  0.93273769  0.35341784  1
  H  H14  1  0.49223018  0.81690763  0.25000000  1
  H  H15  1  0.28831983  0.23788808  0.25000000  1
  H  H16  1  0.53143461  0.72122934  0.75000000  1
  H  H17  1  0.39971674  0.37197079  0.14470282  1
  H  H18  1  0.39971674  0.37197079  0.35529718  1
  H  H19  1  0.60028326  0.62802921  0.85529718  1
  H  H20  1  0.60028326  0.62802921  0.64470282  1
  H  H21  1  0.46856539  0.27877066  0.25000000  1
  H  H22  1  0.71168017  0.76211192  0.75000000  1
  H  H23  1  0.50776982  0.18309237  0.75000000  1
  H  H24  1  0.53363115  0.06726231  0.85341784  1
  H  H25  1  0.53363115  0.06726231  0.64658216  1
  H  H26  1  0.87323648  0.74647197  0.96905271  1
  H  H27  1  0.92193461  0.84386822  0.75000000  1
  H  H28  1  0.87323648  0.74647197  0.53094729  1
  H  H29  1  0.67532254  0.18309237  0.75000000  1
  H  H30  1  0.81020526  0.27877066  0.25000000  1
  H  H31  1  0.97225405  0.37197079  0.14470282  1
  H  H32  1  0.97225405  0.37197079  0.35529718  1
  H  H33  1  0.94956826  0.23788808  0.25000000  1
  N  N34  1  0.07236719  0.68332213  0.75000000  1
  N  N35  1  0.02874250  0.05748499  0.25000000  1
  N  N36  1  0.09630181  0.19260262  0.57112594  1
  N  N37  1  0.09630181  0.19260262  0.92887406  1
  N  N38  1  0.43646153  0.87292306  0.25000000  1
  N  N39  1  0.38904506  0.31667787  0.25000000  1
  N  N40  1  0.61095494  0.68332213  0.75000000  1
  N  N41  1  0.90369819  0.80739738  0.07112594  1
  N  N42  1  0.56353847  0.12707694  0.75000000  1
  N  N43  1  0.90369819  0.80739738  0.42887406  1
  N  N44  1  0.97125750  0.94251501  0.75000000  1
  N  N45  1  0.92763281  0.31667787  0.25000000  1
  Cl  Cl46  1  0.06476917  0.65243171  0.25000000  1
  Cl  Cl47  1  0.40695599  0.81391197  0.75000000  1
  Cl  Cl48  1  0.24511902  0.49023704  0.52326740  1
  Cl  Cl49  1  0.24511902  0.49023704  0.97673260  1
  Cl  Cl50  1  0.23840097  0.00000000  0.00000000  1
  Cl  Cl51  1  0.23840097  0.00000000  0.50000000  1
  Cl  Cl52  1  0.41233746  0.34756829  0.75000000  1
  Cl  Cl53  1  0.58766254  0.65243171  0.25000000  1
  Cl  Cl54  1  0.59304401  0.18608803  0.25000000  1
  Cl  Cl55  1  0.75488098  0.50976196  0.02326740  1
  Cl  Cl56  1  0.75488098  0.50976196  0.47673260  1
  Cl  Cl57  1  0.93523083  0.34756829  0.75000000  1
  Cl  Cl58  1  0.76159903  1.00000000  0.00000000  1
  Cl  Cl59  1  0.76159903  1.00000000  0.50000000  1
