# generated using pymatgen
data_Ti5Mn(PO4)6
_symmetry_space_group_name_H-M   'P 1'
_cell_length_a   8.48757393
_cell_length_b   8.48757433
_cell_length_c   8.48757443
_cell_angle_alpha   62.02662877
_cell_angle_beta   62.02662943
_cell_angle_gamma   62.02662743
_symmetry_Int_Tables_number   1
_chemical_formula_structural   Ti5Mn(PO4)6
_chemical_formula_sum   'Ti5 Mn1 P6 O24'
_cell_volume   451.94527110
_cell_formula_units_Z   1
loop_
 _symmetry_equiv_pos_site_id
 _symmetry_equiv_pos_as_xyz
  1  'x, y, z'
loop_
 _atom_site_type_symbol
 _atom_site_label
 _atom_site_symmetry_multiplicity
 _atom_site_fract_x
 _atom_site_fract_y
 _atom_site_fract_z
 _atom_site_occupancy
  Ti  Ti0  1  0.00007540  0.00007540  0.00007540  1
  Ti  Ti1  1  0.50002447  0.50002447  0.50002447  1
  Ti  Ti2  1  0.14168225  0.14168225  0.14168225  1
  Ti  Ti3  1  0.35521784  0.35521784  0.35521784  1
  Ti  Ti4  1  0.64318327  0.64318327  0.64318327  1
  Mn  Mn5  1  0.85289440  0.85289440  0.85289440  1
  P  P6  1  0.04829255  0.74953826  0.45266299  1
  P  P7  1  0.45266299  0.04829255  0.74953826  1
  P  P8  1  0.25077596  0.54416425  0.95658572  1
  P  P9  1  0.54416425  0.95658572  0.25077596  1
  P  P10  1  0.95658572  0.25077596  0.54416425  1
  P  P11  1  0.74953826  0.45266299  0.04829255  1
  O  O12  1  0.10997563  0.33343591  0.48695520  1
  O  O13  1  0.33343591  0.48695520  0.10997563  1
  O  O14  1  0.06076569  0.90250602  0.25091911  1
  O  O15  1  0.48695520  0.10997563  0.33343591  1
  O  O16  1  0.02156490  0.82054006  0.59770805  1
  O  O17  1  0.24718842  0.59208982  0.42907712  1
  O  O18  1  0.25091911  0.06076569  0.90250602  1
  O  O19  1  0.42907712  0.24718842  0.59208982  1
  O  O20  1  0.17828279  0.38801698  0.99992912  1
  O  O21  1  0.59208982  0.42907712  0.24718842  1
  O  O22  1  0.10439955  0.74234918  0.94943593  1
  O  O23  1  0.38801698  0.99992912  0.17828279  1
  O  O24  1  0.59770805  0.02156490  0.82054006  1
  O  O25  1  0.90250602  0.25091911  0.06076569  1
  O  O26  1  0.40713912  0.55636065  0.75764656  1
  O  O27  1  0.82054006  0.59770805  0.02156490  1
  O  O28  1  0.55636065  0.75764656  0.40713912  1
  O  O29  1  0.74234918  0.94943593  0.10439955  1
  O  O30  1  0.75764656  0.40713912  0.55636065  1
  O  O31  1  0.99992912  0.17828279  0.38801698  1
  O  O32  1  0.50093525  0.88598118  0.68170136  1
  O  O33  1  0.94943593  0.10439955  0.74234918  1
  O  O34  1  0.68170136  0.50093525  0.88598118  1
  O  O35  1  0.88598118  0.68170136  0.50093525  1
