# generated using pymatgen
data_Cr2Fe3Te(PO4)6
_symmetry_space_group_name_H-M   'P 1'
_cell_length_a   8.58342042
_cell_length_b   8.58342061
_cell_length_c   8.58342039
_cell_angle_alpha   61.29077961
_cell_angle_beta   61.29078108
_cell_angle_gamma   61.29077759
_symmetry_Int_Tables_number   1
_chemical_formula_structural   Cr2Fe3Te(PO4)6
_chemical_formula_sum   'Cr2 Fe3 Te1 P6 O24'
_cell_volume   460.13860383
_cell_formula_units_Z   1
loop_
 _symmetry_equiv_pos_site_id
 _symmetry_equiv_pos_as_xyz
  1  'x, y, z'
loop_
 _atom_site_type_symbol
 _atom_site_label
 _atom_site_symmetry_multiplicity
 _atom_site_fract_x
 _atom_site_fract_y
 _atom_site_fract_z
 _atom_site_occupancy
  Cr  Cr0  1  0.00306394  0.00306394  0.00306394  1
  Cr  Cr1  1  0.49861548  0.49861548  0.49861548  1
  Fe  Fe2  1  0.14797225  0.14797225  0.14797225  1
  Fe  Fe3  1  0.35249601  0.35249601  0.35249601  1
  Fe  Fe4  1  0.64591347  0.64591347  0.64591347  1
  Te  Te5  1  0.85244477  0.85244477  0.85244477  1
  P  P6  1  0.05458100  0.74639721  0.44183941  1
  P  P7  1  0.44183941  0.05458100  0.74639721  1
  P  P8  1  0.25776548  0.54231991  0.95117563  1
  P  P9  1  0.54231991  0.95117563  0.25776548  1
  P  P10  1  0.95117563  0.25776548  0.54231991  1
  P  P11  1  0.74639721  0.44183941  0.05458100  1
  O  O12  1  0.10289280  0.33088208  0.49736264  1
  O  O13  1  0.33088208  0.49736264  0.10289280  1
  O  O14  1  0.06606473  0.90453748  0.24710232  1
  O  O15  1  0.49736264  0.10289280  0.33088208  1
  O  O16  1  0.02534187  0.82164867  0.58928532  1
  O  O17  1  0.25067086  0.59168246  0.42835690  1
  O  O18  1  0.24710232  0.06606473  0.90453748  1
  O  O19  1  0.42835690  0.25067086  0.59168246  1
  O  O20  1  0.17791359  0.39476031  0.99518273  1
  O  O21  1  0.59168246  0.42835690  0.25067086  1
  O  O22  1  0.10195610  0.74474229  0.94263874  1
  O  O23  1  0.39476031  0.99518273  0.17791359  1
  O  O24  1  0.58928532  0.02534187  0.82164867  1
  O  O25  1  0.90453748  0.24710232  0.06606473  1
  O  O26  1  0.40838349  0.55978807  0.75165467  1
  O  O27  1  0.82164867  0.58928532  0.02534187  1
  O  O28  1  0.55978807  0.75165467  0.40838349  1
  O  O29  1  0.74474229  0.94263874  0.10195610  1
  O  O30  1  0.75165467  0.40838349  0.55978807  1
  O  O31  1  0.99518273  0.17791359  0.39476031  1
  O  O32  1  0.49800797  0.89126063  0.68329874  1
  O  O33  1  0.94263874  0.10195610  0.74474229  1
  O  O34  1  0.68329874  0.49800797  0.89126063  1
  O  O35  1  0.89126063  0.68329874  0.49800797  1
