# generated using pymatgen
data_LiFeF3
_symmetry_space_group_name_H-M   'P 1'
_cell_length_a   8.81401810
_cell_length_b   8.81401823
_cell_length_c   8.81401814
_cell_angle_alpha   111.75792232
_cell_angle_beta   111.75792073
_cell_angle_gamma   111.75792179
_symmetry_Int_Tables_number   1
_chemical_formula_structural   LiFeF3
_chemical_formula_sum   'Li6 Fe6 F18'
_cell_volume   477.30696900
_cell_formula_units_Z   6
loop_
 _symmetry_equiv_pos_site_id
 _symmetry_equiv_pos_as_xyz
  1  'x, y, z'
loop_
 _atom_site_type_symbol
 _atom_site_label
 _atom_site_symmetry_multiplicity
 _atom_site_fract_x
 _atom_site_fract_y
 _atom_site_fract_z
 _atom_site_occupancy
  Li  Li0  1  0.08552772  0.94278636  0.27820564  1
  Li  Li1  1  0.05721364  0.72179436  0.91447228  1
  Li  Li2  1  0.72179436  0.91447228  0.05721364  1
  Li  Li3  1  0.27820564  0.08552772  0.94278636  1
  Li  Li4  1  0.94278636  0.27820564  0.08552772  1
  Li  Li5  1  0.91447228  0.05721364  0.72179436  1
  Fe  Fe6  1  0.01019735  0.69530141  0.52039368  1
  Fe  Fe7  1  0.47960632  0.98980265  0.30469859  1
  Fe  Fe8  1  0.30469859  0.47960632  0.98980265  1
  Fe  Fe9  1  0.69530141  0.52039368  0.01019735  1
  Fe  Fe10  1  0.52039368  0.01019735  0.69530141  1
  Fe  Fe11  1  0.98980265  0.30469859  0.47960632  1
  F  F12  1  0.01190648  0.11709398  0.28820702  1
  F  F13  1  0.31924142  0.91335313  0.75464636  1
  F  F14  1  0.88290602  0.71179298  0.98809352  1
  F  F15  1  0.34202567  0.00162526  0.45942722  1
  F  F16  1  0.99837474  0.54057278  0.65797433  1
  F  F17  1  0.24535364  0.68075858  0.08664687  1
  F  F18  1  0.08664687  0.24535364  0.68075858  1
  F  F19  1  0.71179298  0.98809352  0.88290602  1
  F  F20  1  0.54057278  0.65797433  0.99837474  1
  F  F21  1  0.45942722  0.34202567  0.00162526  1
  F  F22  1  0.28820702  0.01190648  0.11709398  1
  F  F23  1  0.91335313  0.75464636  0.31924142  1
  F  F24  1  0.75464636  0.31924142  0.91335313  1
  F  F25  1  0.00162526  0.45942722  0.34202567  1
  F  F26  1  0.65797433  0.99837474  0.54057278  1
  F  F27  1  0.11709398  0.28820702  0.01190648  1
  F  F28  1  0.68075858  0.08664687  0.24535364  1
  F  F29  1  0.98809352  0.88290602  0.71179298  1
