# generated using pymatgen
data_Fe6O5F7
_symmetry_space_group_name_H-M   'P 1'
_cell_length_a   4.76752582
_cell_length_b   7.87215069
_cell_length_c   5.69555205
_cell_angle_alpha   94.79960023
_cell_angle_beta   92.44825152
_cell_angle_gamma   88.14597138
_symmetry_Int_Tables_number   1
_chemical_formula_structural   Fe6O5F7
_chemical_formula_sum   'Fe6 O5 F7'
_cell_volume   212.72503223
_cell_formula_units_Z   1
loop_
 _symmetry_equiv_pos_site_id
 _symmetry_equiv_pos_as_xyz
  1  'x, y, z'
loop_
 _atom_site_type_symbol
 _atom_site_label
 _atom_site_symmetry_multiplicity
 _atom_site_fract_x
 _atom_site_fract_y
 _atom_site_fract_z
 _atom_site_occupancy
  Fe  Fe0  1  0.55956279  0.66233709  0.16916425  1
  Fe  Fe1  1  0.49967369  0.00562003  0.51342306  1
  Fe  Fe2  1  0.50808128  0.32354689  0.83426711  1
  Fe  Fe3  1  0.97627615  0.67343160  0.66571129  1
  Fe  Fe4  1  0.00928350  0.33438052  0.33425504  1
  Fe  Fe5  1  0.96412469  0.98731860  0.99091218  1
  O  O6  1  0.80455778  0.77104393  0.97003429  1
  O  O7  1  0.70024190  0.10421138  0.79611542  1
  O  O8  1  0.67357669  0.78198030  0.45767271  1
  O  O9  1  0.70427951  0.42524893  0.13063032  1
  O  O10  1  0.30035987  0.23526943  0.53463412  1
  F  F11  1  0.79696088  0.42680516  0.62382030  1
  F  F12  1  0.80893191  0.10199319  0.29420702  1
  F  F13  1  0.31268334  0.55979411  0.87469854  1
  F  F14  1  0.29204617  0.90794204  0.19604127  1
  F  F15  1  0.19439339  0.22541238  0.03834932  1
  F  F16  1  0.19268559  0.56417635  0.36414853  1
  F  F17  1  0.20228288  0.90949009  0.71191524  1
