# generated using pymatgen
data_MgO
_symmetry_space_group_name_H-M   'P 1'
_cell_length_a   3.28595201
_cell_length_b   3.28591941
_cell_length_c   10.50313187
_cell_angle_alpha   90.00165869
_cell_angle_beta   89.99916998
_cell_angle_gamma   119.99967256
_symmetry_Int_Tables_number   1
_chemical_formula_structural   MgO
_chemical_formula_sum   'Mg4 O4'
_cell_volume   98.21300664
_cell_formula_units_Z   4
loop_
 _symmetry_equiv_pos_site_id
 _symmetry_equiv_pos_as_xyz
  1  'x, y, z'
loop_
 _atom_site_type_symbol
 _atom_site_label
 _atom_site_symmetry_multiplicity
 _atom_site_fract_x
 _atom_site_fract_y
 _atom_site_fract_z
 _atom_site_occupancy
  Mg  Mg0  1  0.33334734  0.66671498  0.96970343  1
  Mg  Mg1  1  0.00001684  0.00001099  0.22102982  1
  Mg  Mg2  1  0.99998316  0.99999516  0.72102982  1
  Mg  Mg3  1  0.66665266  0.33336764  0.46970343  1
  O  O4  1  0.33332385  0.66667213  0.77982785  1
  O  O5  1  0.99999173  0.00004127  0.52943790  1
  O  O6  1  0.00000827  0.00005054  0.02943790  1
  O  O7  1  0.66667615  0.33334829  0.27982785  1
