# generated using pymatgen
data_Li2FeF4
_symmetry_space_group_name_H-M   'P 1'
_cell_length_a   4.88630250
_cell_length_b   5.42164705
_cell_length_c   4.88630250
_cell_angle_alpha   63.21595451
_cell_angle_beta   90.00000000
_cell_angle_gamma   116.78404549
_symmetry_Int_Tables_number   1
_chemical_formula_structural   Li2FeF4
_chemical_formula_sum   'Li2 Fe1 F4'
_cell_volume   99.75543271
_cell_formula_units_Z   1
loop_
 _symmetry_equiv_pos_site_id
 _symmetry_equiv_pos_as_xyz
  1  'x, y, z'
loop_
 _atom_site_type_symbol
 _atom_site_label
 _atom_site_symmetry_multiplicity
 _atom_site_fract_x
 _atom_site_fract_y
 _atom_site_fract_z
 _atom_site_occupancy
  Li  Li0  1  0.50000000  0.00000000  0.50000000  1
  Li  Li1  1  0.75000000  0.50000000  0.75000000  1
  Fe  Fe2  1  0.00000000  0.00000000  0.00000000  1
  F  F3  1  0.40267548  0.21559113  0.11113625  1
  F  F4  1  0.67327262  0.78440887  0.40267548  1
  F  F5  1  0.81291564  0.21559113  0.67327262  1
  F  F6  1  0.11113625  0.78440887  0.81291564  1
