# generated using pymatgen
data_LiFe7(O3F5)2
_symmetry_space_group_name_H-M   'P 1'
_cell_length_a   5.12019185
_cell_length_b   4.59692766
_cell_length_c   11.36089565
_cell_angle_alpha   90.01248781
_cell_angle_beta   89.97568066
_cell_angle_gamma   90.73458795
_symmetry_Int_Tables_number   1
_chemical_formula_structural   LiFe7(O3F5)2
_chemical_formula_sum   'Li1 Fe7 O6 F10'
_cell_volume   267.38111513
_cell_formula_units_Z   1
loop_
 _symmetry_equiv_pos_site_id
 _symmetry_equiv_pos_as_xyz
  1  'x, y, z'
loop_
 _atom_site_type_symbol
 _atom_site_label
 _atom_site_symmetry_multiplicity
 _atom_site_fract_x
 _atom_site_fract_y
 _atom_site_fract_z
 _atom_site_occupancy
  Li  Li0  1  0.75381889  0.49829286  0.67180256  1
  Fe  Fe1  1  0.25383741  0.49743828  0.83878573  1
  Fe  Fe2  1  0.24946906  0.99943879  0.56529389  1
  Fe  Fe3  1  0.24643326  0.50197101  0.32574823  1
  Fe  Fe4  1  0.24947011  0.00185882  0.07997550  1
  Fe  Fe5  1  0.75226728  0.99673726  0.91426642  1
  Fe  Fe6  1  0.74825216  0.00310779  0.43159195  1
  Fe  Fe7  1  0.74708211  0.50175876  0.17362689  1
  O  O8  1  0.07593449  0.21944747  0.94131052  1
  O  O9  1  0.07193075  0.23067545  0.44147152  1
  O  O10  1  0.06856225  0.27899156  0.19060846  1
  O  O11  1  0.42883153  0.77572460  0.94150452  1
  O  O12  1  0.42455389  0.77412002  0.44050495  1
  O  O13  1  0.42655074  0.72466613  0.19040115  1
  F  F14  1  0.10422216  0.25737574  0.69405707  1
  F  F15  1  0.39911205  0.73744923  0.69317245  1
  F  F16  1  0.58491364  0.27283917  0.80792162  1
  F  F17  1  0.58062516  0.23372168  0.56103639  1
  F  F18  1  0.58249294  0.26299813  0.30863821  1
  F  F19  1  0.58814251  0.23468794  0.05552007  1
  F  F20  1  0.92176993  0.72087993  0.80834915  1
  F  F21  1  0.91645785  0.76933122  0.56060820  1
  F  F22  1  0.91189029  0.74281617  0.30816677  1
  F  F23  1  0.91338254  0.76367300  0.05563677  1
