# generated using pymatgen
data_Y2O3
_symmetry_space_group_name_H-M   'P 1'
_cell_length_a   9.35969399
_cell_length_b   3.42010750
_cell_length_c   9.20334610
_cell_angle_alpha   90.00000000
_cell_angle_beta   106.58594072
_cell_angle_gamma   90.00000000
_symmetry_Int_Tables_number   1
_chemical_formula_structural   Y2O3
_chemical_formula_sum   'Y8 O12'
_cell_volume   282.35184819
_cell_formula_units_Z   4
loop_
 _symmetry_equiv_pos_site_id
 _symmetry_equiv_pos_as_xyz
  1  'x, y, z'
loop_
 _atom_site_type_symbol
 _atom_site_label
 _atom_site_symmetry_multiplicity
 _atom_site_fract_x
 _atom_site_fract_y
 _atom_site_fract_z
 _atom_site_occupancy
  Y  Y0  1  0.01180908  0.25000000  0.18029206  1
  Y  Y1  1  0.18400096  0.25000000  0.54854697  1
  Y  Y2  1  0.32908874  0.25000000  0.93913565  1
  Y  Y3  1  0.41301509  0.75000000  0.33414222  1
  Y  Y4  1  0.58698491  0.25000000  0.66585778  1
  Y  Y5  1  0.67091126  0.75000000  0.06086435  1
  Y  Y6  1  0.81599904  0.75000000  0.45145303  1
  Y  Y7  1  0.98819092  0.75000000  0.81970794  1
  O  O8  1  0.10051063  0.25000000  0.96375219  1
  O  O9  1  0.04551664  0.75000000  0.39432997  1
  O  O10  1  0.22188771  0.75000000  0.76444520  1
  O  O11  1  0.25483760  0.25000000  0.31000887  1
  O  O12  1  0.40391381  0.75000000  0.57897863  1
  O  O13  1  0.56713248  0.25000000  0.90545499  1
  O  O14  1  0.43286752  0.75000000  0.09454501  1
  O  O15  1  0.59608619  0.25000000  0.42102137  1
  O  O16  1  0.74516240  0.75000000  0.68999113  1
  O  O17  1  0.77811229  0.25000000  0.23555480  1
  O  O18  1  0.95448336  0.25000000  0.60567003  1
  O  O19  1  0.89948937  0.75000000  0.03624781  1
