# generated using pymatgen
data_Mn6O5F7
_symmetry_space_group_name_H-M   'P 1'
_cell_length_a   5.57796352
_cell_length_b   5.06168752
_cell_length_c   15.14886138
_cell_angle_alpha   96.50024611
_cell_angle_beta   85.04058505
_cell_angle_gamma   94.54955196
_symmetry_Int_Tables_number   1
_chemical_formula_structural   Mn6O5F7
_chemical_formula_sum   'Mn12 O10 F14'
_cell_volume   422.32509088
_cell_formula_units_Z   2
loop_
 _symmetry_equiv_pos_site_id
 _symmetry_equiv_pos_as_xyz
  1  'x, y, z'
loop_
 _atom_site_type_symbol
 _atom_site_label
 _atom_site_symmetry_multiplicity
 _atom_site_fract_x
 _atom_site_fract_y
 _atom_site_fract_z
 _atom_site_occupancy
  Mn  Mn0  1  0.09599292  0.00326900  0.01335931  1
  Mn  Mn1  1  0.93049028  0.50671406  0.16584599  1
  Mn  Mn2  1  0.08948344  0.94863581  0.33746938  1
  Mn  Mn3  1  0.92361800  0.49852134  0.50107644  1
  Mn  Mn4  1  0.13431002  0.98206085  0.67214390  1
  Mn  Mn5  1  0.91886959  0.49433205  0.83172214  1
  Mn  Mn6  1  0.43279840  0.01484014  0.16048237  1
  Mn  Mn7  1  0.45259325  0.51208577  0.00060691  1
  Mn  Mn8  1  0.44796399  0.51680826  0.66240988  1
  Mn  Mn9  1  0.46500113  0.00287890  0.49552568  1
  Mn  Mn10  1  0.43740641  0.52411359  0.32231685  1
  Mn  Mn11  1  0.45231018  0.02577850  0.82489599  1
  O  O12  1  0.20567511  0.74156301  0.08402145  1
  O  O13  1  0.20911070  0.72489090  0.42084512  1
  O  O14  1  0.20084724  0.73864132  0.75610207  1
  O  O15  1  0.32129708  0.23682494  0.07522596  1
  O  O16  1  0.31299773  0.78039110  0.25338258  1
  O  O17  1  0.36894581  0.80486075  0.59632195  1
  O  O18  1  0.36057811  0.21926299  0.73098341  1
  O  O19  1  0.62181154  0.31366047  0.89533930  1
  O  O20  1  0.61959071  0.31581309  0.56440174  1
  O  O21  1  0.60230535  0.30656981  0.22778715  1
  F  F22  1  0.10955509  0.25531418  0.25871510  1
  F  F23  1  0.13479286  0.25050395  0.58210449  1
  F  F24  1  0.14208709  0.26212652  0.91234094  1
  F  F25  1  0.40556443  0.81202144  0.92629015  1
  F  F26  1  0.38746801  0.21931973  0.39869759  1
  F  F27  1  0.67590796  0.72766705  0.09689343  1
  F  F28  1  0.67591759  0.67915777  0.43172064  1
  F  F29  1  0.67053195  0.69326103  0.76573796  1
  F  F30  1  0.87785443  0.15230109  0.41978936  1
  F  F31  1  0.83072146  0.22893600  0.06475296  1
  F  F32  1  0.88217032  0.17093276  0.74063908  1
  F  F33  1  0.88953181  0.77820166  0.60714391  1
  F  F34  1  0.89991821  0.77461060  0.93563245  1
  F  F35  1  0.81398380  0.78312953  0.26727837  1
