# generated using pymatgen
data_LiFeF4
_symmetry_space_group_name_H-M   'P 1'
_cell_length_a   9.76480609
_cell_length_b   8.44636205
_cell_length_c   6.98886595
_cell_angle_alpha   101.37478563
_cell_angle_beta   107.23370065
_cell_angle_gamma   96.77227254
_symmetry_Int_Tables_number   1
_chemical_formula_structural   LiFeF4
_chemical_formula_sum   'Li6 Fe6 F24'
_cell_volume   530.06919042
_cell_formula_units_Z   6
loop_
 _symmetry_equiv_pos_site_id
 _symmetry_equiv_pos_as_xyz
  1  'x, y, z'
loop_
 _atom_site_type_symbol
 _atom_site_label
 _atom_site_symmetry_multiplicity
 _atom_site_fract_x
 _atom_site_fract_y
 _atom_site_fract_z
 _atom_site_occupancy
  Li  Li0  1  0.00823828  0.80797623  0.96121055  1
  Li  Li1  1  0.21864596  0.38550232  0.46759236  1
  Li  Li2  1  0.41135745  0.19709422  0.75074906  1
  Li  Li3  1  0.58864255  0.80290578  0.24925094  1
  Li  Li4  1  0.78135404  0.61449668  0.53240764  1
  Li  Li5  1  0.99176172  0.19202377  0.03878945  1
  Fe  Fe6  1  0.12489204  0.79671933  0.52386594  1
  Fe  Fe7  1  0.25846976  0.49610183  0.00588808  1
  Fe  Fe8  1  0.34285108  0.09902829  0.19682107  1
  Fe  Fe9  1  0.65714892  0.90097171  0.80317893  1
  Fe  Fe10  1  0.74153024  0.50389817  0.99411192  1
  Fe  Fe11  1  0.87510796  0.20328067  0.47613406  1
  F  F12  1  0.14350314  0.64919966  0.94758393  1
  F  F13  1  0.03718055  0.80557106  0.25558490  1
  F  F14  1  0.02474904  0.23357455  0.36396975  1
  F  F15  1  0.25845376  0.98669551  0.66393427  1
  F  F16  1  0.21618196  0.61687694  0.51949285  1
  F  F17  1  0.25663475  0.36689626  0.75719519  1
  F  F18  1  0.18057429  0.36445417  0.15003842  1
  F  F19  1  0.14687024  0.02006439  0.04190598  1
  F  F20  1  0.35188600  0.23153497  0.44894553  1
  F  F21  1  0.42948658  0.92701874  0.26049236  1
  F  F22  1  0.56418416  0.78871574  0.94391695  1
  F  F23  1  0.44113185  0.59618909  0.17670650  1
  F  F24  1  0.55886815  0.40381091  0.82329350  1
  F  F25  1  0.43581584  0.21128426  0.05608305  1
  F  F26  1  0.57051342  0.07298126  0.73950764  1
  F  F27  1  0.64811400  0.76846503  0.55105447  1
  F  F28  1  0.85312976  0.97993561  0.95809402  1
  F  F29  1  0.81942571  0.63554583  0.84996158  1
  F  F30  1  0.74336525  0.63310374  0.24280481  1
  F  F31  1  0.78381804  0.38312306  0.48050715  1
  F  F32  1  0.74154624  0.01330449  0.33606573  1
  F  F33  1  0.97525096  0.76642545  0.63603025  1
  F  F34  1  0.96281945  0.19442894  0.74441510  1
  F  F35  1  0.85649686  0.35080034  0.05241607  1
