# generated using pymatgen
data_Li2FeF5
_symmetry_space_group_name_H-M   'P 1'
_cell_length_a   5.12109342
_cell_length_b   9.81487636
_cell_length_c   8.12650200
_cell_angle_alpha   90.00000000
_cell_angle_beta   90.00000000
_cell_angle_gamma   90.00000000
_symmetry_Int_Tables_number   1
_chemical_formula_structural   Li2FeF5
_chemical_formula_sum   'Li8 Fe4 F20'
_cell_volume   408.46154718
_cell_formula_units_Z   4
loop_
 _symmetry_equiv_pos_site_id
 _symmetry_equiv_pos_as_xyz
  1  'x, y, z'
loop_
 _atom_site_type_symbol
 _atom_site_label
 _atom_site_symmetry_multiplicity
 _atom_site_fract_x
 _atom_site_fract_y
 _atom_site_fract_z
 _atom_site_occupancy
  Li  Li0  1  0.22427062  0.68345025  0.38773423  1
  Li  Li1  1  0.30470969  0.01448949  0.36537791  1
  Li  Li2  1  0.19529031  0.98551051  0.86537791  1
  Li  Li3  1  0.27572938  0.31654975  0.88773423  1
  Li  Li4  1  0.72427062  0.81654975  0.61226577  1
  Li  Li5  1  0.80470969  0.48551051  0.63462209  1
  Li  Li6  1  0.69529031  0.51448949  0.13462209  1
  Li  Li7  1  0.77572938  0.18345025  0.11226577  1
  Fe  Fe8  1  0.29193943  0.63210202  0.78411355  1
  Fe  Fe9  1  0.20806057  0.36789798  0.28411355  1
  Fe  Fe10  1  0.79193943  0.86789798  0.21588645  1
  Fe  Fe11  1  0.70806057  0.13210202  0.71588645  1
  F  F12  1  0.02146398  0.18608895  0.82712158  1
  F  F13  1  0.00763116  0.36933943  0.08763659  1
  F  F14  1  0.03694032  0.95930615  0.07933052  1
  F  F15  1  0.11175185  0.18791105  0.34247526  1
  F  F16  1  0.11563675  0.45968177  0.77237254  1
  F  F17  1  0.38436325  0.54031823  0.27237254  1
  F  F18  1  0.38824815  0.81208895  0.84247526  1
  F  F19  1  0.46305968  0.04069385  0.57933052  1
  F  F20  1  0.49236884  0.63066057  0.58763659  1
  F  F21  1  0.47853602  0.81391105  0.32712158  1
  F  F22  1  0.52146398  0.31391105  0.17287842  1
  F  F23  1  0.50763116  0.13066057  0.91236341  1
  F  F24  1  0.53694032  0.54069385  0.92066948  1
  F  F25  1  0.61175185  0.31208895  0.65752474  1
  F  F26  1  0.61563675  0.04031823  0.22762746  1
  F  F27  1  0.88436325  0.95968177  0.72762746  1
  F  F28  1  0.88824815  0.68791105  0.15752474  1
  F  F29  1  0.96305968  0.45930615  0.42066948  1
  F  F30  1  0.99236884  0.86933943  0.41236341  1
  F  F31  1  0.97853602  0.68608895  0.67287842  1
