# generated using pymatgen
data_Li2VPO5
_symmetry_space_group_name_H-M   'P 1'
_cell_length_a   7.28010149
_cell_length_b   7.23706128
_cell_length_c   7.90983396
_cell_angle_alpha   90.30635457
_cell_angle_beta   88.53628309
_cell_angle_gamma   116.36222082
_symmetry_Int_Tables_number   1
_chemical_formula_structural   Li2VPO5
_chemical_formula_sum   'Li8 V4 P4 O20'
_cell_volume   373.27241612
_cell_formula_units_Z   4
loop_
 _symmetry_equiv_pos_site_id
 _symmetry_equiv_pos_as_xyz
  1  'x, y, z'
loop_
 _atom_site_type_symbol
 _atom_site_label
 _atom_site_symmetry_multiplicity
 _atom_site_fract_x
 _atom_site_fract_y
 _atom_site_fract_z
 _atom_site_occupancy
  Li  Li0  1  0.68925326  0.15858612  0.44325140  1
  Li  Li1  1  0.85136729  0.72661755  0.06082615  1
  Li  Li2  1  0.53824493  0.37079373  0.28132167  1
  Li  Li3  1  0.42865827  0.17061790  0.95027846  1
  Li  Li4  1  0.55966291  0.80076345  0.03799764  1
  Li  Li5  1  0.17095581  0.29374458  0.93599047  1
  Li  Li6  1  0.35121491  0.84366284  0.56042876  1
  Li  Li7  1  0.00926269  0.50184602  0.52218438  1
  V  V8  1  0.73476016  0.50444878  0.75324986  1
  V  V9  1  0.77045186  0.01132128  0.74758449  1
  V  V10  1  0.22611956  0.98331725  0.25531768  1
  V  V11  1  0.24135106  0.49455464  0.25000821  1
  P  P12  1  0.77854059  0.24600640  0.10622338  1
  P  P13  1  0.72731593  0.75790784  0.39599228  1
  P  P14  1  0.26847090  0.24170257  0.60256147  1
  P  P15  1  0.22535343  0.75324483  0.89100694  1
  O  O16  1  0.87090095  0.14170436  0.98626959  1
  O  O17  1  0.91700977  0.33981251  0.26060582  1
  O  O18  1  0.77315379  0.26810203  0.66517540  1
  O  O19  1  0.73442510  0.41282042  0.01535228  1
  O  O20  1  0.74826419  0.58397842  0.49352854  1
  O  O21  1  0.56512256  0.08508375  0.18028364  1
  O  O22  1  0.92796357  0.89952485  0.30074402  1
  O  O23  1  0.72268139  0.74636690  0.85243065  1
  O  O24  1  0.36452171  0.13305454  0.48168235  1
  O  O25  1  0.57196658  0.65322727  0.24986233  1
  O  O26  1  0.41386476  0.33617322  0.75520224  1
  O  O27  1  0.64881439  0.88308362  0.51065466  1
  O  O28  1  0.28528126  0.25846469  0.15678409  1
  O  O29  1  0.06435755  0.08610358  0.68303059  1
  O  O30  1  0.43902233  0.91537392  0.82070952  1
  O  O31  1  0.23996363  0.40955796  0.50267935  1
  O  O32  1  0.25976012  0.58919011  0.99427362  1
  O  O33  1  0.22307911  0.73325240  0.34154280  1
  O  O34  1  0.07877121  0.65762308  0.74304984  1
  O  O35  1  0.14302346  0.87058459  0.01080742  1
