# generated using pymatgen
data_Zn(CoS2)4
_symmetry_space_group_name_H-M   'P 1'
_cell_length_a   6.65436313
_cell_length_b   6.81208433
_cell_length_c   6.81208502
_cell_angle_alpha   60.00000091
_cell_angle_beta   59.21279666
_cell_angle_gamma   59.21279176
_symmetry_Int_Tables_number   1
_chemical_formula_structural   Zn(CoS2)4
_chemical_formula_sum   'Zn1 Co4 S8'
_cell_volume   215.71496318
_cell_formula_units_Z   1
loop_
 _symmetry_equiv_pos_site_id
 _symmetry_equiv_pos_as_xyz
  1  'x, y, z'
loop_
 _atom_site_type_symbol
 _atom_site_label
 _atom_site_symmetry_multiplicity
 _atom_site_fract_x
 _atom_site_fract_y
 _atom_site_fract_z
 _atom_site_occupancy
  Zn  Zn0  1  0.50000000  0.00000000  0.00000000  1
  Co  Co1  1  0.00000000  0.50000000  0.50000000  1
  Co  Co2  1  0.50000000  0.50000000  0.00000000  1
  Co  Co3  1  0.50000000  0.50000000  0.50000000  1
  Co  Co4  1  0.50000000  0.00000000  0.50000000  1
  S  S5  1  0.27058294  0.26081561  0.26081561  1
  S  S6  1  0.27058294  0.26081561  0.70778584  1
  S  S7  1  0.27058294  0.70778584  0.26081561  1
  S  S8  1  0.71203707  0.26265398  0.26265398  1
  S  S9  1  0.28796293  0.73734602  0.73734602  1
  S  S10  1  0.72941706  0.73918439  0.29221416  1
  S  S11  1  0.72941706  0.29221416  0.73918439  1
  S  S12  1  0.72941706  0.73918439  0.73918439  1
