# generated using pymatgen
data_LiCrPO5
_symmetry_space_group_name_H-M   'P 1'
_cell_length_a   7.59855815
_cell_length_b   9.58103604
_cell_length_c   5.32279467
_cell_angle_alpha   90.00000000
_cell_angle_beta   112.26840459
_cell_angle_gamma   90.00000000
_symmetry_Int_Tables_number   1
_chemical_formula_structural   LiCrPO5
_chemical_formula_sum   'Li4 Cr4 P4 O20'
_cell_volume   358.60943270
_cell_formula_units_Z   4
loop_
 _symmetry_equiv_pos_site_id
 _symmetry_equiv_pos_as_xyz
  1  'x, y, z'
loop_
 _atom_site_type_symbol
 _atom_site_label
 _atom_site_symmetry_multiplicity
 _atom_site_fract_x
 _atom_site_fract_y
 _atom_site_fract_z
 _atom_site_occupancy
  Li  Li0  1  0.20428863  0.90483723  0.65185993  1
  Li  Li1  1  0.29571137  0.40483723  0.84814007  1
  Li  Li2  1  0.70428863  0.59516277  0.15185993  1
  Li  Li3  1  0.79571137  0.09516277  0.34814007  1
  Cr  Cr4  1  0.15579613  0.08390291  0.15774985  1
  Cr  Cr5  1  0.34420387  0.58390291  0.34225015  1
  Cr  Cr6  1  0.65579613  0.41609709  0.65774985  1
  Cr  Cr7  1  0.84420387  0.91609709  0.84225015  1
  P  P8  1  0.04387493  0.34839962  0.20095390  1
  P  P9  1  0.54387493  0.15160038  0.70095390  1
  P  P10  1  0.45612507  0.84839962  0.29904610  1
  P  P11  1  0.95612507  0.65160038  0.79904610  1
  O  O12  1  0.99502335  0.78876560  0.67592441  1
  O  O13  1  0.16039286  0.28653705  0.03765249  1
  O  O14  1  0.01240390  0.95124440  0.21605157  1
  O  O15  1  0.14555894  0.58040393  0.96770615  1
  O  O16  1  0.16717666  0.45353791  0.42390776  1
  O  O17  1  0.35444106  0.08040393  0.53229385  1
  O  O18  1  0.33960714  0.78653705  0.46234751  1
  O  O19  1  0.50497665  0.28876560  0.82407559  1
  O  O20  1  0.33282334  0.95353791  0.07609224  1
  O  O21  1  0.51240390  0.54875560  0.71605157  1
  O  O22  1  0.48759610  0.45124440  0.28394843  1
  O  O23  1  0.66717666  0.04646209  0.92390776  1
  O  O24  1  0.49502335  0.71123440  0.17592441  1
  O  O25  1  0.66039286  0.21346295  0.53765249  1
  O  O26  1  0.64555894  0.91959607  0.46770615  1
  O  O27  1  0.83282334  0.54646209  0.57609224  1
  O  O28  1  0.85444106  0.41959607  0.03229385  1
  O  O29  1  0.98759610  0.04875560  0.78394843  1
  O  O30  1  0.83960714  0.71346295  0.96234751  1
  O  O31  1  0.00497665  0.21123440  0.32407559  1
