# generated using pymatgen
data_Ba5Y3F19
_symmetry_space_group_name_H-M   'P 1'
_cell_length_a   12.43853765
_cell_length_b   11.69693182
_cell_length_c   11.83845183
_cell_angle_alpha   95.74119932
_cell_angle_beta   97.78370551
_cell_angle_gamma   140.21009797
_symmetry_Int_Tables_number   1
_chemical_formula_structural   Ba5Y3F19
_chemical_formula_sum   'Ba10 Y6 F38'
_cell_volume   1034.01488672
_cell_formula_units_Z   2
loop_
 _symmetry_equiv_pos_site_id
 _symmetry_equiv_pos_as_xyz
  1  'x, y, z'
loop_
 _atom_site_type_symbol
 _atom_site_label
 _atom_site_symmetry_multiplicity
 _atom_site_fract_x
 _atom_site_fract_y
 _atom_site_fract_z
 _atom_site_occupancy
  Ba  Ba0  1  0.71848782  0.25653894  0.48013560  1
  Ba  Ba1  1  0.74137309  0.56939931  0.27381635  1
  Ba  Ba2  1  0.72987788  0.06050355  0.80608026  1
  Ba  Ba3  1  0.42913221  0.70963932  0.17325225  1
  Ba  Ba4  1  0.05180476  0.23706741  0.32326273  1
  Ba  Ba5  1  0.94819524  0.76293259  0.67673727  1
  Ba  Ba6  1  0.57086779  0.29036068  0.82674775  1
  Ba  Ba7  1  0.27012212  0.93949645  0.19391974  1
  Ba  Ba8  1  0.25862691  0.43060069  0.72618365  1
  Ba  Ba9  1  0.28151218  0.74346106  0.51986440  1
  Y  Y10  1  0.83871690  0.32191231  0.16484893  1
  Y  Y11  1  0.25832878  0.25484401  0.01263487  1
  Y  Y12  1  0.33571343  0.17373029  0.48594163  1
  Y  Y13  1  0.66428657  0.82626971  0.51405837  1
  Y  Y14  1  0.74167122  0.74515599  0.98736513  1
  Y  Y15  1  0.16128310  0.67808769  0.83515107  1
  F  F16  1  0.71988540  0.05626003  0.15863080  1
  F  F17  1  0.72878707  0.24191046  0.96996050  1
  F  F18  1  0.91255109  0.05913109  0.66663957  1
  F  F19  1  0.95563261  0.39778556  0.35909053  1
  F  F20  1  0.98103558  0.60414606  0.21256837  1
  F  F21  1  0.63590165  0.24401529  0.22914659  1
  F  F22  1  0.38780349  0.20941460  0.09117082  1
  F  F23  1  0.79703186  0.61928729  0.05149952  1
  F  F24  1  0.64634397  0.99875691  0.56198630  1
  F  F25  1  0.50000000  0.50000000  0.00000000  1
  F  F26  1  0.00000000  0.00000000  0.00000000  1
  F  F27  1  0.86598741  0.57738132  0.46412971  1
  F  F28  1  0.45848232  0.27622925  0.34626186  1
  F  F29  1  0.31785730  0.39750277  0.19127279  1
  F  F30  1  0.80070282  0.86628705  0.17341191  1
  F  F31  1  0.56061954  0.09635887  0.69317729  1
  F  F32  1  0.61055758  0.37271473  0.60808614  1
  F  F33  1  0.25228012  0.04871112  0.62796141  1
  F  F34  1  0.07169692  0.41319527  0.16228804  1
  F  F35  1  0.73976625  0.71088286  0.48511769  1
  F  F36  1  0.26023375  0.28911714  0.51488231  1
  F  F37  1  0.92830308  0.58680473  0.83771196  1
  F  F38  1  0.74771988  0.95128888  0.37203859  1
  F  F39  1  0.38944242  0.62728527  0.39191386  1
  F  F40  1  0.43938046  0.90364113  0.30682271  1
  F  F41  1  0.19929718  0.13371295  0.82658809  1
  F  F42  1  0.68214270  0.60249723  0.80872721  1
  F  F43  1  0.54151768  0.72377075  0.65373814  1
  F  F44  1  0.13401259  0.42261868  0.53587029  1
  F  F45  1  0.35365603  0.00124309  0.43801370  1
  F  F46  1  0.20296814  0.38071271  0.94850048  1
  F  F47  1  0.61219651  0.79058540  0.90882918  1
  F  F48  1  0.36409835  0.75598471  0.77085341  1
  F  F49  1  0.01896442  0.39585394  0.78743163  1
  F  F50  1  0.04436739  0.60221444  0.64090947  1
  F  F51  1  0.08744891  0.94086891  0.33336043  1
  F  F52  1  0.27121293  0.75808954  0.03003950  1
  F  F53  1  0.28011460  0.94374097  0.84136920  1
