# generated using pymatgen
data_Li3Bi3P8O29
_symmetry_space_group_name_H-M   'P 1'
_cell_length_a   10.09550074
_cell_length_b   10.09411740
_cell_length_c   14.36756148
_cell_angle_alpha   89.38355700
_cell_angle_beta   89.38846588
_cell_angle_gamma   60.27173109
_symmetry_Int_Tables_number   1
_chemical_formula_structural   Li3Bi3P8O29
_chemical_formula_sum   'Li6 Bi6 P16 O58'
_cell_volume   1271.33273592
_cell_formula_units_Z   2
loop_
 _symmetry_equiv_pos_site_id
 _symmetry_equiv_pos_as_xyz
  1  'x, y, z'
loop_
 _atom_site_type_symbol
 _atom_site_label
 _atom_site_symmetry_multiplicity
 _atom_site_fract_x
 _atom_site_fract_y
 _atom_site_fract_z
 _atom_site_occupancy
  Li  Li0  1  0.00000203  0.99999128  0.50000053  1
  Li  Li1  1  0.99999754  0.00001120  0.00000080  1
  Li  Li2  1  0.08732673  0.67880059  0.05384091  1
  Li  Li3  1  0.67906743  0.08712434  0.55382089  1
  Li  Li4  1  0.32090744  0.91289225  0.44618010  1
  Li  Li5  1  0.91271098  0.32117888  0.94615601  1
  Bi  Bi6  1  0.00071346  0.43503593  0.74026365  1
  Bi  Bi7  1  0.99926792  0.56496814  0.25972989  1
  Bi  Bi8  1  0.43513347  0.00056531  0.24039837  1
  Bi  Bi9  1  0.56488442  0.99941865  0.75960202  1
  Bi  Bi10  1  0.43881565  0.56112017  0.74992898  1
  Bi  Bi11  1  0.56118725  0.43888720  0.25007290  1
  P  P12  1  0.07889530  0.21206163  0.34367784  1
  P  P13  1  0.21204239  0.07882221  0.84367524  1
  P  P14  1  0.08369277  0.69032951  0.84460224  1
  P  P15  1  0.32957739  0.33890981  0.12315601  1
  P  P16  1  0.33877687  0.32968807  0.62294105  1
  P  P17  1  0.21998574  0.70296434  0.34701610  1
  P  P18  1  0.29704512  0.78001024  0.15301646  1
  P  P19  1  0.69037985  0.08365447  0.34462765  1
  P  P20  1  0.30961607  0.91634149  0.65536847  1
  P  P21  1  0.70297982  0.21999517  0.84697655  1
  P  P22  1  0.78000571  0.29704655  0.65296756  1
  P  P23  1  0.67040943  0.66109846  0.87680297  1
  P  P24  1  0.66120791  0.67031766  0.37710544  1
  P  P25  1  0.91632467  0.30965261  0.15539823  1
  P  P26  1  0.78796744  0.92116820  0.15632294  1
  P  P27  1  0.92113759  0.78795349  0.65630515  1
  O  O28  1  0.01083942  0.20823632  0.24316674  1
  O  O29  1  0.99166127  0.22650621  0.06731278  1
  O  O30  1  0.07466153  0.24667325  0.84232466  1
  O  O31  1  0.20820818  0.01082323  0.74313238  1
  O  O32  1  0.22635619  0.99177625  0.56728194  1
  O  O33  1  0.24667143  0.07466875  0.34233959  1
  O  O34  1  0.08533911  0.36277538  0.34981314  1
  O  O35  1  0.20788213  0.30064480  0.65986247  1
  O  O36  1  0.09721821  0.53094606  0.83710493  1
  O  O37  1  0.00482552  0.81794689  0.58058666  1
  O  O38  1  0.98918164  0.79175936  0.75682981  1
  O  O39  1  0.07642217  0.68388584  0.35113791  1
  O  O40  1  0.30058452  0.20800099  0.16035729  1
  O  O41  1  0.36276589  0.08536467  0.84973361  1
  O  O42  1  0.19259737  0.49599656  0.16005101  1
  O  O43  1  0.32781894  0.35007823  0.01927569  1
  O  O44  1  0.35005228  0.32796083  0.51878532  1
  O  O45  1  0.31032268  0.48197678  0.66892813  1
  O  O46  1  0.53105075  0.09715920  0.33716445  1
  O  O47  1  0.49591561  0.19261810  0.65964516  1
  O  O48  1  0.24483211  0.67513000  0.84124177  1
  O  O49  1  0.21243436  0.78760651  0.25001762  1
  O  O50  1  0.19408793  0.78873632  0.07638930  1
  O  O51  1  0.21115480  0.80594859  0.42365265  1
  O  O52  1  0.36471543  0.54192187  0.34448081  1
  O  O53  1  0.48194381  0.31042151  0.16923599  1
  O  O54  1  0.32483524  0.75519350  0.65866406  1
  O  O55  1  0.54190637  0.36468306  0.84440299  1
  O  O56  1  0.68391421  0.07637865  0.85111919  1
  O  O57  1  0.18214163  0.99511008  0.91935803  1
  O  O58  1  0.81789199  0.00489077  0.08063860  1
  O  O59  1  0.79178001  0.98917653  0.25686570  1
  O  O60  1  0.31609745  0.92362198  0.14887015  1
  O  O61  1  0.45811242  0.63532460  0.15558933  1
  O  O62  1  0.67516101  0.24480153  0.34133258  1
  O  O63  1  0.51807000  0.68957010  0.83079124  1
  O  O64  1  0.63528496  0.45809806  0.65552057  1
  O  O65  1  0.78882490  0.19406875  0.57633977  1
  O  O66  1  0.80593600  0.21125151  0.92359551  1
  O  O67  1  0.78758771  0.21239602  0.74997064  1
  O  O68  1  0.75517857  0.32486421  0.15876011  1
  O  O69  1  0.50406856  0.80738667  0.34036280  1
  O  O70  1  0.46894634  0.90284793  0.66283448  1
  O  O71  1  0.68966765  0.51800519  0.33108855  1
  O  O72  1  0.67219917  0.64988828  0.98078854  1
  O  O73  1  0.64993918  0.67205940  0.48120580  1
  O  O74  1  0.80739682  0.50401028  0.83996484  1
  O  O75  1  0.63725109  0.91464779  0.15024808  1
  O  O76  1  0.69939937  0.79200157  0.83968391  1
  O  O77  1  0.92359087  0.31611143  0.64883397  1
  O  O78  1  0.99518311  0.18204995  0.41942590  1
  O  O79  1  0.90280102  0.46903140  0.16287704  1
  O  O80  1  0.79212346  0.69935257  0.34014361  1
  O  O81  1  0.91465366  0.63722998  0.65018389  1
  O  O82  1  0.75333726  0.92535763  0.65766108  1
  O  O83  1  0.77363296  0.00821783  0.43272009  1
  O  O84  1  0.92533494  0.75333131  0.15766733  1
  O  O85  1  0.00835741  0.77347013  0.93268285  1
