# generated using pymatgen
data_Ge2N2O
_symmetry_space_group_name_H-M   'P 1'
_cell_length_a   5.86308794
_cell_length_b   5.86309418
_cell_length_c   14.37925266
_cell_angle_alpha   89.99927812
_cell_angle_beta   90.00074665
_cell_angle_gamma   119.99975795
_symmetry_Int_Tables_number   1
_chemical_formula_structural   Ge2N2O
_chemical_formula_sum   'Ge16 N16 O8'
_cell_volume   428.07639873
_cell_formula_units_Z   8
loop_
 _symmetry_equiv_pos_site_id
 _symmetry_equiv_pos_as_xyz
  1  'x, y, z'
loop_
 _atom_site_type_symbol
 _atom_site_label
 _atom_site_symmetry_multiplicity
 _atom_site_fract_x
 _atom_site_fract_y
 _atom_site_fract_z
 _atom_site_occupancy
  Ge  Ge0  1  0.16666476  0.83333566  0.95493555  1
  Ge  Ge1  1  0.16669108  0.83330883  0.33057418  1
  Ge  Ge2  1  0.00000000  0.50000000  0.50000000  1
  Ge  Ge3  1  0.33156878  0.66843116  0.16492275  1
  Ge  Ge4  1  0.16310646  0.33156767  0.83507372  1
  Ge  Ge5  1  0.66843212  0.83689339  0.83507370  1
  Ge  Ge6  1  0.49998700  0.50001288  0.62923976  1
  Ge  Ge7  1  0.00000000  0.00000000  0.50000000  1
  Ge  Ge8  1  0.50001300  0.49998712  0.37076024  1
  Ge  Ge9  1  0.50000000  0.50000000  0.00000000  1
  Ge  Ge10  1  0.83689354  0.66843233  0.16492628  1
  Ge  Ge11  1  0.33156788  0.16310661  0.16492630  1
  Ge  Ge12  1  0.66843122  0.33156884  0.83507725  1
  Ge  Ge13  1  0.50000000  0.00000000  0.50000000  1
  Ge  Ge14  1  0.83330892  0.16669117  0.66942582  1
  Ge  Ge15  1  0.83333524  0.16666434  0.04506445  1
  N  N16  1  0.16666949  0.83333011  0.08719798  1
  N  N17  1  0.32270054  0.67729977  0.41652251  1
  N  N18  1  0.34395856  0.65604148  0.91260367  1
  N  N19  1  0.67731088  0.85463411  0.58348088  1
  N  N20  1  0.14536658  0.32269054  0.58348083  1
  N  N21  1  0.18792733  0.34395638  0.08739583  1
  N  N22  1  0.65604474  0.81207345  0.08739580  1
  N  N23  1  0.49998884  0.50001038  0.76053831  1
  N  N24  1  0.50001116  0.49998962  0.23946169  1
  N  N25  1  0.34395526  0.18792655  0.91260420  1
  N  N26  1  0.81207267  0.65604362  0.91260417  1
  N  N27  1  0.32268912  0.14536589  0.41651912  1
  N  N28  1  0.85463342  0.67730946  0.41651917  1
  N  N29  1  0.65604144  0.34395852  0.08739633  1
  N  N30  1  0.67729946  0.32270023  0.58347749  1
  N  N31  1  0.83333051  0.16666989  0.91280202  1
  O  O32  1  0.02083984  0.97915989  0.24244328  1
  O  O33  1  0.16666985  0.83333116  0.56441912  1
  O  O34  1  0.45838055  0.97916187  0.24244108  1
  O  O35  1  0.02083736  0.54161945  0.24244058  1
  O  O36  1  0.54161945  0.02083813  0.75755892  1
  O  O37  1  0.97916264  0.45838055  0.75755942  1
  O  O38  1  0.83333015  0.16666884  0.43558088  1
  O  O39  1  0.97916016  0.02084011  0.75755672  1
