# generated using pymatgen
data_Li4V2Fe3Co3O16
_symmetry_space_group_name_H-M   'P 1'
_cell_length_a   5.84981684
_cell_length_b   5.82605664
_cell_length_c   9.38656728
_cell_angle_alpha   89.94148629
_cell_angle_beta   90.24664512
_cell_angle_gamma   119.74773704
_symmetry_Int_Tables_number   1
_chemical_formula_structural   Li4V2Fe3Co3O16
_chemical_formula_sum   'Li4 V2 Fe3 Co3 O16'
_cell_volume   277.74636144
_cell_formula_units_Z   1
loop_
 _symmetry_equiv_pos_site_id
 _symmetry_equiv_pos_as_xyz
  1  'x, y, z'
loop_
 _atom_site_type_symbol
 _atom_site_label
 _atom_site_symmetry_multiplicity
 _atom_site_fract_x
 _atom_site_fract_y
 _atom_site_fract_z
 _atom_site_occupancy
  Li  Li0  1  0.32593513  0.66317506  0.90080694  1
  Li  Li1  1  0.01309693  0.00481426  0.99435764  1
  Li  Li2  1  0.01812944  0.00751895  0.49200125  1
  Li  Li3  1  0.66520653  0.33255560  0.39688738  1
  V  V4  1  0.33734557  0.66530443  0.49533818  1
  V  V5  1  0.66400042  0.33359533  0.99700841  1
  Fe  Fe6  1  0.65621280  0.82834256  0.21994028  1
  Fe  Fe7  1  0.82770102  0.65633026  0.71800382  1
  Fe  Fe8  1  0.82560432  0.17014738  0.71918478  1
  Co  Co9  1  0.17225233  0.82724029  0.21392858  1
  Co  Co10  1  0.17909167  0.34334881  0.21465332  1
  Co  Co11  1  0.34813617  0.17331502  0.71369696  1
  O  O12  1  0.18014903  0.83067822  0.59140810  1
  O  O13  1  0.04545160  0.52281736  0.33680612  1
  O  O14  1  0.32075897  0.65414203  0.11130277  1
  O  O15  1  0.01180902  0.01060223  0.30032673  1
  O  O16  1  0.01272004  0.00600877  0.80306117  1
  O  O17  1  0.17911452  0.34890518  0.59110012  1
  O  O18  1  0.46303040  0.95798148  0.34132149  1
  O  O19  1  0.48786822  0.52852150  0.35447802  1
  O  O20  1  0.34330196  0.17144818  0.09744168  1
  O  O21  1  0.65638135  0.83264043  0.58587882  1
  O  O22  1  0.50685936  0.46691371  0.84377240  1
  O  O23  1  0.50536241  0.03972907  0.84343089  1
  O  O24  1  0.66323631  0.33182567  0.60530527  1
  O  O25  1  0.82992623  0.65497821  0.09140190  1
  O  O26  1  0.95478667  0.47770141  0.85227406  1
  O  O27  1  0.80653161  0.15971961  0.08272291  1
