# generated using pymatgen
data_MnCr2Ni3(PO4)6
_symmetry_space_group_name_H-M   'P 1'
_cell_length_a   8.35814587
_cell_length_b   8.35814513
_cell_length_c   8.35814516
_cell_angle_alpha   61.86948984
_cell_angle_beta   61.86948985
_cell_angle_gamma   61.86949048
_symmetry_Int_Tables_number   1
_chemical_formula_structural   MnCr2Ni3(PO4)6
_chemical_formula_sum   'Mn1 Cr2 Ni3 P6 O24'
_cell_volume   430.15224647
_cell_formula_units_Z   1
loop_
 _symmetry_equiv_pos_site_id
 _symmetry_equiv_pos_as_xyz
  1  'x, y, z'
loop_
 _atom_site_type_symbol
 _atom_site_label
 _atom_site_symmetry_multiplicity
 _atom_site_fract_x
 _atom_site_fract_y
 _atom_site_fract_z
 _atom_site_occupancy
  Mn  Mn0  1  0.85749255  0.85749255  0.85749255  1
  Cr  Cr1  1  0.00165951  0.00165951  0.00165951  1
  Cr  Cr2  1  0.50037604  0.50037604  0.50037604  1
  Ni  Ni3  1  0.14313691  0.14313691  0.14313691  1
  Ni  Ni4  1  0.35814832  0.35814832  0.35814832  1
  Ni  Ni5  1  0.64190998  0.64190998  0.64190998  1
  P  P6  1  0.25036220  0.54649105  0.95074018  1
  P  P7  1  0.54649105  0.95074018  0.25036220  1
  P  P8  1  0.95074018  0.25036220  0.54649105  1
  P  P9  1  0.04608479  0.74876499  0.45620530  1
  P  P10  1  0.45620530  0.04608479  0.74876499  1
  P  P11  1  0.74876499  0.45620530  0.04608479  1
  O  O12  1  0.10410976  0.31892234  0.51549252  1
  O  O13  1  0.31892234  0.51549252  0.10410976  1
  O  O14  1  0.05356057  0.90748821  0.25501674  1
  O  O15  1  0.51549252  0.10410976  0.31892234  1
  O  O16  1  0.00218796  0.82120958  0.61653739  1
  O  O17  1  0.25193039  0.60191989  0.43905342  1
  O  O18  1  0.25501674  0.05356057  0.90748821  1
  O  O19  1  0.43905342  0.25193039  0.60191989  1
  O  O20  1  0.17807515  0.39299434  0.98744771  1
  O  O21  1  0.60191989  0.43905342  0.25193039  1
  O  O22  1  0.08812062  0.75343231  0.93827448  1
  O  O23  1  0.39299434  0.98744771  0.17807515  1
  O  O24  1  0.61653739  0.00218796  0.82120958  1
  O  O25  1  0.90748821  0.25501674  0.05356057  1
  O  O26  1  0.39802926  0.56833348  0.74508141  1
  O  O27  1  0.82120958  0.61653739  0.00218796  1
  O  O28  1  0.56833348  0.74508141  0.39802926  1
  O  O29  1  0.75343231  0.93827448  0.08812062  1
  O  O30  1  0.74508141  0.39802926  0.56833348  1
  O  O31  1  0.98744771  0.17807515  0.39299434  1
  O  O32  1  0.49396162  0.89691724  0.67053378  1
  O  O33  1  0.93827448  0.08812062  0.75343231  1
  O  O34  1  0.67053378  0.49396162  0.89691724  1
  O  O35  1  0.89691724  0.67053378  0.49396162  1
