# generated using pymatgen
data_MgTi2O5
_symmetry_space_group_name_H-M   'P 1'
_cell_length_a   3.42526497
_cell_length_b   4.85950775
_cell_length_c   11.89519410
_cell_angle_alpha   89.99008715
_cell_angle_beta   89.99989065
_cell_angle_gamma   90.00037040
_symmetry_Int_Tables_number   1
_chemical_formula_structural   MgTi2O5
_chemical_formula_sum   'Mg2 Ti4 O10'
_cell_volume   197.99671219
_cell_formula_units_Z   2
loop_
 _symmetry_equiv_pos_site_id
 _symmetry_equiv_pos_as_xyz
  1  'x, y, z'
loop_
 _atom_site_type_symbol
 _atom_site_label
 _atom_site_symmetry_multiplicity
 _atom_site_fract_x
 _atom_site_fract_y
 _atom_site_fract_z
 _atom_site_occupancy
  Mg  Mg0  1  0.75000180  0.86302216  0.25002536  1
  Mg  Mg1  1  0.24999288  0.13697477  0.74997858  1
  Ti  Ti2  1  0.24999728  0.40211299  0.10229600  1
  Ti  Ti3  1  0.75000122  0.59790184  0.89770332  1
  Ti  Ti4  1  0.74999884  0.59795790  0.60226825  1
  Ti  Ti5  1  0.25000038  0.40202174  0.39772770  1
  O  O6  1  0.74999525  0.43326475  0.74999127  1
  O  O7  1  0.25000142  0.56674105  0.25000899  1
  O  O8  1  0.74999948  0.56290605  0.07368960  1
  O  O9  1  0.24999926  0.43709962  0.92631235  1
  O  O10  1  0.75000013  0.56282922  0.42630111  1
  O  O11  1  0.24999842  0.43716621  0.57369641  1
  O  O12  1  0.24999766  0.05635978  0.36049948  1
  O  O13  1  0.75000578  0.94363744  0.63950118  1
  O  O14  1  0.75000810  0.94355493  0.86043027  1
  O  O15  1  0.24999411  0.05644857  0.13956915  1
