# generated using pymatgen
data_B2TeO6
_symmetry_space_group_name_H-M   'P 1'
_cell_length_a   5.24299612
_cell_length_b   8.44988153
_cell_length_c   11.49294888
_cell_angle_alpha   90.00000000
_cell_angle_beta   102.75062952
_cell_angle_gamma   90.00000000
_symmetry_Int_Tables_number   1
_chemical_formula_structural   B2TeO6
_chemical_formula_sum   'B8 Te4 O24'
_cell_volume   496.61246927
_cell_formula_units_Z   4
loop_
 _symmetry_equiv_pos_site_id
 _symmetry_equiv_pos_as_xyz
  1  'x, y, z'
loop_
 _atom_site_type_symbol
 _atom_site_label
 _atom_site_symmetry_multiplicity
 _atom_site_fract_x
 _atom_site_fract_y
 _atom_site_fract_z
 _atom_site_occupancy
  B  B0  1  0.15800892  0.29010013  0.61901865  1
  B  B1  1  0.16824319  0.64248139  0.13147611  1
  B  B2  1  0.34199108  0.79010013  0.88098135  1
  B  B3  1  0.33175681  0.14248139  0.36852389  1
  B  B4  1  0.66824319  0.85751861  0.63147611  1
  B  B5  1  0.65800892  0.20989987  0.11901865  1
  B  B6  1  0.83175681  0.35751861  0.86852389  1
  B  B7  1  0.84199108  0.70989987  0.38098135  1
  Te  Te8  1  0.10487567  0.28778811  0.12780500  1
  Te  Te9  1  0.39512433  0.78778811  0.37219500  1
  Te  Te10  1  0.60487567  0.21221189  0.62780500  1
  Te  Te11  1  0.89512433  0.71221189  0.87219500  1
  O  O12  1  0.04810819  0.32311605  0.95745702  1
  O  O13  1  0.09407156  0.66098297  0.38699650  1
  O  O14  1  0.14075033  0.89424857  0.89322576  1
  O  O15  1  0.23199552  0.99268410  0.34080290  1
  O  O16  1  0.21027111  0.26716867  0.30072473  1
  O  O17  1  0.24770877  0.63502443  0.86352458  1
  O  O18  1  0.25229123  0.13502443  0.63647542  1
  O  O19  1  0.28972889  0.76716867  0.19927527  1
  O  O20  1  0.26800448  0.49268410  0.15919710  1
  O  O21  1  0.35924967  0.39424857  0.60677424  1
  O  O22  1  0.45189181  0.82311605  0.54254298  1
  O  O23  1  0.40592844  0.16098297  0.11300350  1
  O  O24  1  0.59407156  0.83901703  0.88699650  1
  O  O25  1  0.54810819  0.17688395  0.45745702  1
  O  O26  1  0.64075033  0.60575143  0.39322576  1
  O  O27  1  0.73199552  0.50731590  0.84080290  1
  O  O28  1  0.71027111  0.23283133  0.80072473  1
  O  O29  1  0.74770877  0.86497557  0.36352458  1
  O  O30  1  0.75229123  0.36497557  0.13647542  1
  O  O31  1  0.78972889  0.73283133  0.69927527  1
  O  O32  1  0.76800448  0.00731590  0.65919710  1
  O  O33  1  0.85924967  0.10575143  0.10677424  1
  O  O34  1  0.90592844  0.33901703  0.61300350  1
  O  O35  1  0.95189181  0.67688395  0.04254298  1
