# generated using pymatgen
data_Li4Mn3Nb3(TeO8)2
_symmetry_space_group_name_H-M   'P 1'
_cell_length_a   6.34249662
_cell_length_b   6.12885128
_cell_length_c   10.54711319
_cell_angle_alpha   90.00162082
_cell_angle_beta   90.40560142
_cell_angle_gamma   118.89250347
_symmetry_Int_Tables_number   1
_chemical_formula_structural   Li4Mn3Nb3(TeO8)2
_chemical_formula_sum   'Li4 Mn3 Nb3 Te2 O16'
_cell_volume   358.94557171
_cell_formula_units_Z   1
loop_
 _symmetry_equiv_pos_site_id
 _symmetry_equiv_pos_as_xyz
  1  'x, y, z'
loop_
 _atom_site_type_symbol
 _atom_site_label
 _atom_site_symmetry_multiplicity
 _atom_site_fract_x
 _atom_site_fract_y
 _atom_site_fract_z
 _atom_site_occupancy
  Li  Li0  1  0.34023053  0.67013567  0.90294496  1
  Li  Li1  1  -0.00009043  -0.00003277  0.99414655  1
  Li  Li2  1  0.99280915  0.99640991  0.48473004  1
  Li  Li3  1  0.67852486  0.33929421  0.40481053  1
  Mn  Mn4  1  0.16814055  0.82979866  0.21366831  1
  Mn  Mn5  1  0.16814996  0.33841940  0.21368416  1
  Mn  Mn6  1  0.32625258  0.16314442  0.70988930  1
  Nb  Nb7  1  0.63876501  0.81942458  0.23484913  1
  Nb  Nb8  1  0.81269269  0.64677596  0.72088912  1
  Nb  Nb9  1  0.81267140  0.16587539  0.72089339  1
  Te  Te10  1  0.28167861  0.64079905  0.49791159  1
  Te  Te11  1  0.65757374  0.32878729  0.01626122  1
  O  O12  1  0.13702840  0.81553567  0.58992045  1
  O  O13  1  0.04455804  0.52231735  0.36003482  1
  O  O14  1  0.37111266  0.68558652  0.10685502  1
  O  O15  1  0.97498921  0.98753996  0.30111380  1
  O  O16  1  0.99687373  0.99843822  0.81185020  1
  O  O17  1  0.13699272  0.32143506  0.58992361  1
  O  O18  1  0.50968347  0.98527218  0.33322994  1
  O  O19  1  0.50968420  0.52448806  0.33322852  1
  O  O20  1  0.33678325  0.16841245  0.09350782  1
  O  O21  1  0.72603347  0.86298830  0.60624084  1
  O  O22  1  0.53131191  0.51508653  0.81956265  1
  O  O23  1  0.53128836  0.01622611  0.81956368  1
  O  O24  1  0.68066316  0.34030971  0.59940494  1
  O  O25  1  0.82146755  0.65729075  0.10253454  1
  O  O26  1  0.99267238  0.49631556  0.82363442  1
  O  O27  1  0.82146084  0.16422480  0.10255747  1
