# generated using pymatgen
data_Fe6O5F7
_symmetry_space_group_name_H-M   'P 1'
_cell_length_a   7.40923659
_cell_length_b   5.70557459
_cell_length_c   5.66615173
_cell_angle_alpha   73.37659836
_cell_angle_beta   71.99228029
_cell_angle_gamma   72.75917235
_symmetry_Int_Tables_number   1
_chemical_formula_structural   Fe6O5F7
_chemical_formula_sum   'Fe6 O5 F7'
_cell_volume   212.51736209
_cell_formula_units_Z   1
loop_
 _symmetry_equiv_pos_site_id
 _symmetry_equiv_pos_as_xyz
  1  'x, y, z'
loop_
 _atom_site_type_symbol
 _atom_site_label
 _atom_site_symmetry_multiplicity
 _atom_site_fract_x
 _atom_site_fract_y
 _atom_site_fract_z
 _atom_site_occupancy
  Fe  Fe0  1  0.83726025  0.69931240  0.67971298  1
  Fe  Fe1  1  0.66776384  0.30980529  0.36217204  1
  Fe  Fe2  1  0.30921439  0.67850974  0.62393901  1
  Fe  Fe3  1  0.17890620  0.30731601  0.32922228  1
  Fe  Fe4  1  0.49807730  0.99868725  0.99748111  1
  Fe  Fe5  1  0.00529559  0.00738823  0.00766703  1
  O  O6  1  0.66927478  0.02236952  0.64041440  1
  O  O7  1  0.96483491  0.22914845  0.23132622  1
  O  O8  1  0.02964102  0.78028494  0.78205408  1
  O  O9  1  0.37398701  0.42769781  0.42407416  1
  O  O10  1  0.33065821  0.97110417  0.35437623  1
  F  F11  1  0.32506535  0.38586853  0.95619828  1
  F  F12  1  0.29114352  0.89355439  0.88877463  1
  F  F13  1  0.63284965  0.56776465  0.57286547  1
  F  F14  1  0.71303952  0.09961617  0.10167155  1
  F  F15  1  0.67727487  0.61190238  0.03724751  1
  F  F16  1  0.99688072  0.31653303  0.69585873  1
  F  F17  1  0.99883287  0.69313805  0.31494327  1
