# generated using pymatgen
data_Co2O3F
_symmetry_space_group_name_H-M   'P 1'
_cell_length_a   8.48607830
_cell_length_b   5.29413610
_cell_length_c   5.29413610
_cell_angle_alpha   73.69147136
_cell_angle_beta   89.09836386
_cell_angle_gamma   89.09836386
_symmetry_Int_Tables_number   1
_chemical_formula_structural   Co2O3F
_chemical_formula_sum   'Co8 O12 F4'
_cell_volume   228.23250195
_cell_formula_units_Z   4
loop_
 _symmetry_equiv_pos_site_id
 _symmetry_equiv_pos_as_xyz
  1  'x, y, z'
loop_
 _atom_site_type_symbol
 _atom_site_label
 _atom_site_symmetry_multiplicity
 _atom_site_fract_x
 _atom_site_fract_y
 _atom_site_fract_z
 _atom_site_occupancy
  Co  Co0  1  0.62556025  0.85780871  0.89290977  1
  Co  Co1  1  0.87541600  0.62550646  0.62507688  1
  Co  Co2  1  0.50000000  0.51646042  0.48353958  1
  Co  Co3  1  0.74885285  0.27340623  0.22740228  1
  Co  Co4  1  0.25114715  0.77259772  0.72659377  1
  Co  Co5  1  0.37443975  0.10709023  0.14219129  1
  Co  Co6  1  0.12458400  0.37492312  0.37449354  1
  Co  Co7  1  0.00000000  0.96888039  0.03111961  1
  O  O8  1  0.75013596  0.55400589  0.94456690  1
  O  O9  1  0.97079637  0.21754471  0.22701005  1
  O  O10  1  0.72104698  0.47877371  0.46601976  1
  O  O11  1  0.22253648  0.96931064  0.97732899  1
  O  O12  1  0.47466550  0.72799686  0.71596293  1
  O  O13  1  0.52533450  0.28403707  0.27200314  1
  O  O14  1  0.77746352  0.02267101  0.03068936  1
  O  O15  1  0.02920363  0.77298995  0.78245529  1
  O  O16  1  0.27895302  0.53398024  0.52122629  1
  O  O17  1  0.50000000  0.79540491  0.20459509  1
  O  O18  1  0.24986404  0.05543310  0.44599411  1
  O  O19  1  0.00000000  0.69063114  0.30936886  1
  F  F20  1  0.74602294  0.96925662  0.54006702  1
  F  F21  1  0.50000000  0.19402486  0.80597514  1
  F  F22  1  0.00000000  0.27733201  0.72266799  1
  F  F23  1  0.25397706  0.45993298  0.03074338  1
