# generated using pymatgen
data_Fe6O5F7
_symmetry_space_group_name_H-M   'P 1'
_cell_length_a   4.79540127
_cell_length_b   4.79540127
_cell_length_c   9.25405945
_cell_angle_alpha   90.00000000
_cell_angle_beta   90.00000000
_cell_angle_gamma   94.97720765
_symmetry_Int_Tables_number   1
_chemical_formula_structural   Fe6O5F7
_chemical_formula_sum   'Fe6 O5 F7'
_cell_volume   212.00275234
_cell_formula_units_Z   1
loop_
 _symmetry_equiv_pos_site_id
 _symmetry_equiv_pos_as_xyz
  1  'x, y, z'
loop_
 _atom_site_type_symbol
 _atom_site_label
 _atom_site_symmetry_multiplicity
 _atom_site_fract_x
 _atom_site_fract_y
 _atom_site_fract_z
 _atom_site_occupancy
  Fe  Fe0  1  0.99401136  0.99401136  0.99850954  1
  Fe  Fe1  1  0.99401136  0.99401136  0.33482346  1
  Fe  Fe2  1  0.02366667  0.02366667  0.66666700  1
  Fe  Fe3  1  0.49806132  0.49806132  0.16666700  1
  Fe  Fe4  1  0.48889162  0.48889162  0.84179244  1
  Fe  Fe5  1  0.48889162  0.48889162  0.49154056  1
  O  O6  1  0.29383060  0.29383060  0.00335910  1
  O  O7  1  0.29383060  0.29383060  0.32997490  1
  O  O8  1  0.33025952  0.33025952  0.66666700  1
  O  O9  1  0.69701241  0.69701241  0.00010202  1
  O  O10  1  0.69701241  0.69701241  0.33323198  1
  F  F11  1  0.18630976  0.80394381  0.16666700  1
  F  F12  1  0.20040154  0.80051088  0.49425622  1
  F  F13  1  0.20040154  0.80051088  0.83907678  1
  F  F14  1  0.70844212  0.70844212  0.66666700  1
  F  F15  1  0.80394381  0.18630976  0.16666700  1
  F  F16  1  0.80051088  0.20040154  0.83907678  1
  F  F17  1  0.80051088  0.20040154  0.49425622  1
