# generated using pymatgen
data_LiV2(OF)3
_symmetry_space_group_name_H-M   'P 1'
_cell_length_a   5.14073275
_cell_length_b   5.12656235
_cell_length_c   13.51899361
_cell_angle_alpha   91.79280228
_cell_angle_beta   91.31030234
_cell_angle_gamma   61.55956628
_symmetry_Int_Tables_number   1
_chemical_formula_structural   LiV2(OF)3
_chemical_formula_sum   'Li3 V6 O9 F9'
_cell_volume   313.11833209
_cell_formula_units_Z   3
loop_
 _symmetry_equiv_pos_site_id
 _symmetry_equiv_pos_as_xyz
  1  'x, y, z'
loop_
 _atom_site_type_symbol
 _atom_site_label
 _atom_site_symmetry_multiplicity
 _atom_site_fract_x
 _atom_site_fract_y
 _atom_site_fract_z
 _atom_site_occupancy
  Li  Li0  1  0.03209924  0.96303117  0.71058630  1
  Li  Li1  1  0.31000959  0.34398097  0.87205904  1
  Li  Li2  1  0.97616653  0.04055741  0.21860155  1
  V  V3  1  0.98579755  0.02983610  0.50077565  1
  V  V4  1  0.97836209  0.98524773  0.99655217  1
  V  V5  1  0.67155183  0.69136571  0.33311736  1
  V  V6  1  0.66602433  0.62053192  0.84688602  1
  V  V7  1  0.31354311  0.40711218  0.17189311  1
  V  V8  1  0.36491323  0.31922189  0.65861501  1
  O  O9  1  0.75926777  0.91673048  0.40792679  1
  O  O10  1  0.93271310  0.71575541  0.91348036  1
  O  O11  1  0.26742150  0.65398995  0.08485786  1
  O  O12  1  0.37818942  0.58183450  0.75135154  1
  O  O13  1  0.59697735  0.41070281  0.25057315  1
  O  O14  1  0.68950930  0.34094503  0.91875843  1
  O  O15  1  0.00174522  0.61996689  0.24311583  1
  O  O16  1  0.69108115  0.24445431  0.57777115  1
  O  O17  1  0.25162788  0.09193781  0.58953282  1
  F  F18  1  0.31879635  0.96665412  0.91347500  1
  F  F19  1  0.33714092  0.74585946  0.42083603  1
  F  F20  1  0.00510671  0.34963417  0.75899812  1
  F  F21  1  0.95317117  0.32880049  0.40839885  1
  F  F22  1  0.07366870  0.67855699  0.58512520  1
  F  F23  1  0.66883469  0.06486819  0.09503768  1
  F  F24  1  0.08347919  0.24034461  0.09162932  1
  F  F25  1  0.62624831  0.98746703  0.74982715  1
  F  F26  1  0.37130278  0.01018965  0.25028250  1
