# generated using pymatgen
data_Fe6O5F7
_symmetry_space_group_name_H-M   'P 1'
_cell_length_a   7.58883878
_cell_length_b   5.72377883
_cell_length_c   5.72996833
_cell_angle_alpha   70.34124300
_cell_angle_beta   70.58339446
_cell_angle_gamma   70.44856831
_symmetry_Int_Tables_number   1
_chemical_formula_structural   Fe6O5F7
_chemical_formula_sum   'Fe6 O5 F7'
_cell_volume   213.98476929
_cell_formula_units_Z   1
loop_
 _symmetry_equiv_pos_site_id
 _symmetry_equiv_pos_as_xyz
  1  'x, y, z'
loop_
 _atom_site_type_symbol
 _atom_site_label
 _atom_site_symmetry_multiplicity
 _atom_site_fract_x
 _atom_site_fract_y
 _atom_site_fract_z
 _atom_site_occupancy
  Fe  Fe0  1  0.83834862  0.64701323  0.67096276  1
  Fe  Fe1  1  0.65593269  0.35042194  0.31646561  1
  Fe  Fe2  1  0.33255374  0.67224490  0.62702688  1
  Fe  Fe3  1  0.17115488  0.33972251  0.36760740  1
  Fe  Fe4  1  0.50031654  0.97511182  0.01560442  1
  Fe  Fe5  1  0.99950192  0.99434627  0.01724878  1
  O  O6  1  0.36376534  0.44416349  0.43574859  1
  O  O7  1  0.33156154  0.98216378  0.35538878  1
  O  O8  1  0.67195646  0.65177116  0.00761415  1
  O  O9  1  0.99733849  0.29165608  0.71492634  1
  O  O10  1  0.99632218  0.69822120  0.30992183  1
  F  F11  1  0.66707906  0.03333933  0.63567190  1
  F  F12  1  0.33872392  0.36594401  0.95616429  1
  F  F13  1  0.29752226  0.89294213  0.89558165  1
  F  F14  1  0.96658492  0.22727091  0.23466667  1
  F  F15  1  0.62427385  0.57873925  0.57421932  1
  F  F16  1  0.04251042  0.76591535  0.77485431  1
  F  F17  1  0.70455318  0.08901063  0.09032833  1
