# generated using pymatgen
data_Li3V4(OF3)3
_symmetry_space_group_name_H-M   'P 1'
_cell_length_a   5.22852819
_cell_length_b   5.54564080
_cell_length_c   17.28596951
_cell_angle_alpha   95.29318789
_cell_angle_beta   81.74800013
_cell_angle_gamma   118.35595365
_symmetry_Int_Tables_number   1
_chemical_formula_structural   Li3V4(OF3)3
_chemical_formula_sum   'Li6 V8 O6 F18'
_cell_volume   436.34338799
_cell_formula_units_Z   2
loop_
 _symmetry_equiv_pos_site_id
 _symmetry_equiv_pos_as_xyz
  1  'x, y, z'
loop_
 _atom_site_type_symbol
 _atom_site_label
 _atom_site_symmetry_multiplicity
 _atom_site_fract_x
 _atom_site_fract_y
 _atom_site_fract_z
 _atom_site_occupancy
  Li  Li0  1  0.74207122  0.39966371  0.94106925  1
  Li  Li1  1  0.87008281  0.30405894  0.57515070  1
  Li  Li2  1  0.95883997  0.15935522  0.20365215  1
  Li  Li3  1  0.48278173  0.64156711  0.68796608  1
  Li  Li4  1  0.28455524  0.61966881  0.05532865  1
  Li  Li5  1  0.23613649  0.94859706  0.44867397  1
  V  V6  1  0.76419628  0.26828502  0.75654730  1
  V  V7  1  0.89276426  0.15072455  0.37155881  1
  V  V8  1  0.61094840  0.33643007  0.13142124  1
  V  V9  1  0.51138335  0.50903138  0.50714192  1
  V  V10  1  0.34152874  0.62380132  0.87506635  1
  V  V11  1  0.25299972  0.74939905  0.25264779  1
  V  V12  1  0.00351881  0.97155130  0.99635719  1
  V  V13  1  0.11648107  0.90241819  0.61959534  1
  O  O14  1  0.96553845  0.40941340  0.84323015  1
  O  O15  1  0.98787341  0.43477936  0.30790820  1
  O  O16  1  0.73403957  0.65625436  0.59382271  1
  O  O17  1  0.55760930  0.04770910  0.18724760  1
  O  O18  1  0.19243746  0.20997630  0.56130688  1
  O  O19  1  0.18563374  0.75111104  0.96986846  1
  F  F20  1  0.93976432  0.02334515  0.71801175  1
  F  F21  1  0.72504620  0.27451216  0.47281235  1
  F  F22  1  0.53617281  0.09582226  0.65713802  1
  F  F23  1  0.76397286  0.82862260  0.91014310  1
  F  F24  1  0.77854659  0.20633102  0.02872062  1
  F  F25  1  0.53032959  0.48790902  0.77921706  1
  F  F26  1  0.82350643  0.81803582  0.43457249  1
  F  F27  1  0.32554145  0.31391134  0.94227901  1
  F  F28  1  0.66317549  0.64609466  0.05790865  1
  F  F29  1  0.43344287  0.94470161  0.81014163  1
  F  F30  1  0.47950614  0.53644228  0.21349844  1
  F  F31  1  0.28760321  0.31598249  0.40929147  1
  F  F32  1  0.47066887  0.92266816  0.35106567  1
  F  F33  1  0.18677254  0.14583313  0.09656116  1
  F  F34  1  0.28431058  0.73672273  0.52471048  1
  F  F35  1  0.07843602  0.56599488  0.68233589  1
  F  F36  1  0.03784700  0.56605620  0.15169789  1
  F  F37  1  0.02350500  0.95928217  0.27682357  1
