# generated using pymatgen
data_Fe6O7F5
_symmetry_space_group_name_H-M   'P 1'
_cell_length_a   4.69503709
_cell_length_b   7.77444666
_cell_length_c   5.61679051
_cell_angle_alpha   94.91744615
_cell_angle_beta   92.31521121
_cell_angle_gamma   88.08746928
_symmetry_Int_Tables_number   1
_chemical_formula_structural   Fe6O7F5
_chemical_formula_sum   'Fe6 O7 F5'
_cell_volume   204.00672397
_cell_formula_units_Z   1
loop_
 _symmetry_equiv_pos_site_id
 _symmetry_equiv_pos_as_xyz
  1  'x, y, z'
loop_
 _atom_site_type_symbol
 _atom_site_label
 _atom_site_symmetry_multiplicity
 _atom_site_fract_x
 _atom_site_fract_y
 _atom_site_fract_z
 _atom_site_occupancy
  Fe  Fe0  1  0.51501093  0.65113321  0.17157058  1
  Fe  Fe1  1  0.51168505  0.00142600  0.51215122  1
  Fe  Fe2  1  0.49561667  0.34014812  0.82960045  1
  Fe  Fe3  1  0.02254827  0.68525576  0.65821740  1
  Fe  Fe4  1  0.97783770  0.31112593  0.34286779  1
  Fe  Fe5  1  0.98176617  0.00767505  0.98850666  1
  O  O6  1  0.80751828  0.09209811  0.29210022  1
  O  O7  1  0.69729018  0.12151186  0.79847498  1
  O  O8  1  0.68987361  0.76265519  0.46281679  1
  O  O9  1  0.69803785  0.42502462  0.12287261  1
  O  O10  1  0.30926035  0.56196807  0.86355433  1
  O  O11  1  0.30419350  0.24116843  0.54628595  1
  O  O12  1  0.19063469  0.90579984  0.71168843  1
  F  F13  1  0.80939116  0.44452906  0.62694579  1
  F  F14  1  0.80112866  0.76863824  0.96490614  1
  F  F15  1  0.29538820  0.89153304  0.19963252  1
  F  F16  1  0.20451370  0.22803595  0.04730815  1
  F  F17  1  0.18830504  0.56027052  0.36050101  1
