# generated using pymatgen
data_LiMnB3(HO3)3
_symmetry_space_group_name_H-M   'P 1'
_cell_length_a   11.64231370
_cell_length_b   9.11765718
_cell_length_c   14.23762224
_cell_angle_alpha   90.00000000
_cell_angle_beta   90.00000000
_cell_angle_gamma   90.00000000
_symmetry_Int_Tables_number   1
_chemical_formula_structural   LiMnB3(HO3)3
_chemical_formula_sum   'Li8 Mn8 B24 H24 O72'
_cell_volume   1511.33250069
_cell_formula_units_Z   8
loop_
 _symmetry_equiv_pos_site_id
 _symmetry_equiv_pos_as_xyz
  1  'x, y, z'
loop_
 _atom_site_type_symbol
 _atom_site_label
 _atom_site_symmetry_multiplicity
 _atom_site_fract_x
 _atom_site_fract_y
 _atom_site_fract_z
 _atom_site_occupancy
  Li  Li0  1  0.00000000  0.16327803  0.25000000  1
  Li  Li1  1  0.00000000  0.50521706  0.25000000  1
  Li  Li2  1  0.00000000  0.49478294  0.75000000  1
  Li  Li3  1  0.00000000  0.83672197  0.75000000  1
  Li  Li4  1  0.50000000  0.66327803  0.25000000  1
  Li  Li5  1  0.50000000  0.99478294  0.75000000  1
  Li  Li6  1  0.50000000  0.33672197  0.75000000  1
  Li  Li7  1  0.50000000  0.00521706  0.25000000  1
  Mn  Mn8  1  0.23409334  0.34213183  0.32691800  1
  Mn  Mn9  1  0.23409334  0.65786817  0.82691800  1
  Mn  Mn10  1  0.26590666  0.15786817  0.82691800  1
  Mn  Mn11  1  0.26590666  0.84213183  0.32691800  1
  Mn  Mn12  1  0.73409334  0.15786817  0.67308200  1
  Mn  Mn13  1  0.73409334  0.84213183  0.17308200  1
  Mn  Mn14  1  0.76590666  0.34213183  0.17308200  1
  Mn  Mn15  1  0.76590666  0.65786817  0.67308200  1
  B  B16  1  0.14739282  0.03159987  0.08254354  1
  B  B17  1  0.14739282  0.96840013  0.58254354  1
  B  B18  1  0.14577912  0.53110261  0.07505834  1
  B  B19  1  0.14577912  0.46889739  0.57505834  1
  B  B20  1  0.24343640  0.08971607  0.44604583  1
  B  B21  1  0.24343640  0.91028393  0.94604583  1
  B  B22  1  0.25656360  0.41028393  0.94604583  1
  B  B23  1  0.25656360  0.58971607  0.44604583  1
  B  B24  1  0.35422088  0.03110261  0.07505834  1
  B  B25  1  0.35422088  0.96889739  0.57505834  1
  B  B26  1  0.35260718  0.53159987  0.08254354  1
  B  B27  1  0.35260718  0.46840013  0.58254354  1
  B  B28  1  0.64739282  0.46840013  0.91745646  1
  B  B29  1  0.64739282  0.53159987  0.41745646  1
  B  B30  1  0.64577912  0.03110261  0.42494166  1
  B  B31  1  0.64577912  0.96889739  0.92494166  1
  B  B32  1  0.74343640  0.41028393  0.55395417  1
  B  B33  1  0.74343640  0.58971607  0.05395417  1
  B  B34  1  0.75656360  0.08971607  0.05395417  1
  B  B35  1  0.75656360  0.91028393  0.55395417  1
  B  B36  1  0.85422088  0.46889739  0.92494166  1
  B  B37  1  0.85422088  0.53110261  0.42494166  1
  B  B38  1  0.85260718  0.03159987  0.41745646  1
  B  B39  1  0.85260718  0.96840013  0.91745646  1
  H  H40  1  0.98126040  0.06263925  0.08486281  1
  H  H41  1  0.98126040  0.93736075  0.58486281  1
  H  H42  1  0.02404812  0.56044165  0.42312169  1
  H  H43  1  0.02404812  0.43955835  0.92312169  1
  H  H44  1  0.20028614  0.28688298  0.70081158  1
  H  H45  1  0.20028614  0.71311702  0.20081158  1
  H  H46  1  0.29971386  0.21311702  0.20081158  1
  H  H47  1  0.29971386  0.78688298  0.70081158  1
  H  H48  1  0.47595188  0.06044165  0.42312169  1
  H  H49  1  0.47595188  0.93955835  0.92312169  1
  H  H50  1  0.51873960  0.56263925  0.08486281  1
  H  H51  1  0.51873960  0.43736075  0.58486281  1
  H  H52  1  0.48126040  0.43736075  0.91513719  1
  H  H53  1  0.48126040  0.56263925  0.41513719  1
  H  H54  1  0.52404812  0.06044165  0.07687831  1
  H  H55  1  0.52404812  0.93955835  0.57687831  1
  H  H56  1  0.70028614  0.78688298  0.79918842  1
  H  H57  1  0.70028614  0.21311702  0.29918842  1
  H  H58  1  0.79971386  0.28688298  0.79918842  1
  H  H59  1  0.79971386  0.71311702  0.29918842  1
  H  H60  1  0.97595188  0.43955835  0.57687831  1
  H  H61  1  0.97595188  0.56044165  0.07687831  1
  H  H62  1  0.01873960  0.06263925  0.41513719  1
  H  H63  1  0.01873960  0.93736075  0.91513719  1
  O  O64  1  0.04450241  0.56948862  0.11843008  1
  O  O65  1  0.04450241  0.43051138  0.61843008  1
  O  O66  1  0.04876371  0.08240104  0.12514840  1
  O  O67  1  0.04876371  0.91759896  0.62514840  1
  O  O68  1  0.10353343  0.33429842  0.28391393  1
  O  O69  1  0.10353343  0.66570158  0.78391393  1
  O  O70  1  0.14190173  0.94885131  0.00287410  1
  O  O71  1  0.14190173  0.05114869  0.50287410  1
  O  O72  1  0.14783665  0.54208175  0.49134610  1
  O  O73  1  0.14783665  0.45791825  0.99134610  1
  O  O74  1  0.16519807  0.79121671  0.24057651  1
  O  O75  1  0.16519807  0.20878329  0.74057651  1
  O  O76  1  0.22928911  0.02541490  0.35128272  1
  O  O77  1  0.22928911  0.97458510  0.85128272  1
  O  O78  1  0.24849699  0.25006936  0.43364175  1
  O  O79  1  0.24849699  0.74993064  0.93364175  1
  O  O80  1  0.24659796  0.43055762  0.62215490  1
  O  O81  1  0.24659796  0.56944238  0.12215490  1
  O  O82  1  0.25340204  0.06944238  0.12215490  1
  O  O83  1  0.25340204  0.93055762  0.62215490  1
  O  O84  1  0.25150301  0.75006936  0.43364175  1
  O  O85  1  0.25150301  0.24993064  0.93364175  1
  O  O86  1  0.27071089  0.47458510  0.85128272  1
  O  O87  1  0.27071089  0.52541490  0.35128272  1
  O  O88  1  0.33480193  0.29121671  0.24057651  1
  O  O89  1  0.33480193  0.70878329  0.74057651  1
  O  O90  1  0.35216335  0.04208175  0.49134610  1
  O  O91  1  0.35216335  0.95791825  0.99134610  1
  O  O92  1  0.35809827  0.55114869  0.50287410  1
  O  O93  1  0.35809827  0.44885131  0.00287410  1
  O  O94  1  0.39646657  0.83429842  0.28391393  1
  O  O95  1  0.39646657  0.16570158  0.78391393  1
  O  O96  1  0.45123629  0.58240104  0.12514840  1
  O  O97  1  0.45123629  0.41759896  0.62514840  1
  O  O98  1  0.45549759  0.06948862  0.11843008  1
  O  O99  1  0.45549759  0.93051138  0.61843008  1
  O  O100  1  0.54450241  0.06948862  0.38156992  1
  O  O101  1  0.54450241  0.93051138  0.88156992  1
  O  O102  1  0.54876371  0.58240104  0.37485160  1
  O  O103  1  0.54876371  0.41759896  0.87485160  1
  O  O104  1  0.60353343  0.83429842  0.21608607  1
  O  O105  1  0.60353343  0.16570158  0.71608607  1
  O  O106  1  0.64190173  0.44885131  0.49712590  1
  O  O107  1  0.64190173  0.55114869  0.99712590  1
  O  O108  1  0.64783665  0.04208175  0.00865390  1
  O  O109  1  0.64783665  0.95791825  0.50865390  1
  O  O110  1  0.66519807  0.29121671  0.25942349  1
  O  O111  1  0.66519807  0.70878329  0.75942349  1
  O  O112  1  0.72928911  0.47458510  0.64871728  1
  O  O113  1  0.72928911  0.52541490  0.14871728  1
  O  O114  1  0.74849799  0.24993064  0.56635825  1
  O  O115  1  0.74849799  0.75006936  0.06635825  1
  O  O116  1  0.74659796  0.93055762  0.87784510  1
  O  O117  1  0.74659796  0.06944238  0.37784510  1
  O  O118  1  0.75340204  0.43055762  0.87784510  1
  O  O119  1  0.75340204  0.56944238  0.37784510  1
  O  O120  1  0.75150201  0.25006936  0.06635825  1
  O  O121  1  0.75150201  0.74993064  0.56635825  1
  O  O122  1  0.77071089  0.02541490  0.14871728  1
  O  O123  1  0.77071089  0.97458510  0.64871728  1
  O  O124  1  0.83480193  0.20878329  0.75942349  1
  O  O125  1  0.83480193  0.79121671  0.25942349  1
  O  O126  1  0.85216335  0.45791825  0.50865390  1
  O  O127  1  0.85216335  0.54208175  0.00865390  1
  O  O128  1  0.85809827  0.05114869  0.99712590  1
  O  O129  1  0.85809827  0.94885131  0.49712590  1
  O  O130  1  0.89646657  0.33429842  0.21608607  1
  O  O131  1  0.89646657  0.66570158  0.71608607  1
  O  O132  1  0.95123629  0.08240104  0.37485160  1
  O  O133  1  0.95123629  0.91759896  0.87485160  1
  O  O134  1  0.95549759  0.43051138  0.88156992  1
  O  O135  1  0.95549759  0.56948862  0.38156992  1
