# generated using pymatgen
data_Li2CrPO6
_symmetry_space_group_name_H-M   'P 1'
_cell_length_a   10.27098051
_cell_length_b   4.68842970
_cell_length_c   8.70830121
_cell_angle_alpha   90.00000000
_cell_angle_beta   90.00000000
_cell_angle_gamma   90.00000000
_symmetry_Int_Tables_number   1
_chemical_formula_structural   Li2CrPO6
_chemical_formula_sum   'Li8 Cr4 P4 O24'
_cell_volume   419.34624248
_cell_formula_units_Z   4
loop_
 _symmetry_equiv_pos_site_id
 _symmetry_equiv_pos_as_xyz
  1  'x, y, z'
loop_
 _atom_site_type_symbol
 _atom_site_label
 _atom_site_symmetry_multiplicity
 _atom_site_fract_x
 _atom_site_fract_y
 _atom_site_fract_z
 _atom_site_occupancy
  Li  Li0  1  0.08820605  0.02275259  0.31904030  1
  Li  Li1  1  0.13477372  0.53775372  0.62243277  1
  Li  Li2  1  0.36522628  0.03775372  0.12243277  1
  Li  Li3  1  0.41179395  0.52275259  0.81904030  1
  Li  Li4  1  0.58820605  0.47724741  0.31904030  1
  Li  Li5  1  0.63477372  0.96224628  0.62243277  1
  Li  Li6  1  0.86522628  0.46224628  0.12243277  1
  Li  Li7  1  0.91179395  0.97724741  0.81904030  1
  Cr  Cr8  1  0.11380660  0.48242051  0.99979967  1
  Cr  Cr9  1  0.38619340  0.98242051  0.49979967  1
  Cr  Cr10  1  0.61380660  0.01757949  0.99979967  1
  Cr  Cr11  1  0.88619340  0.51757949  0.49979967  1
  P  P12  1  0.21722166  0.08514180  0.80573239  1
  P  P13  1  0.28277834  0.58514180  0.30573239  1
  P  P14  1  0.71722166  0.41485820  0.80573239  1
  P  P15  1  0.78277834  0.91485820  0.30573239  1
  O  O16  1  0.00684480  0.29454887  0.46918074  1
  O  O17  1  0.05540129  0.24751689  0.12538660  1
  O  O18  1  0.07880684  0.22951820  0.81135249  1
  O  O19  1  0.21537075  0.74217610  0.44341536  1
  O  O20  1  0.21675876  0.76056390  0.81590988  1
  O  O21  1  0.21831393  0.69059857  0.15359080  1
  O  O22  1  0.28168607  0.19059857  0.65359180  1
  O  O23  1  0.28324124  0.26056390  0.31590988  1
  O  O24  1  0.28462925  0.24217610  0.94341536  1
  O  O25  1  0.42119316  0.72951820  0.31135249  1
  O  O26  1  0.44459871  0.74751689  0.62538660  1
  O  O27  1  0.49315520  0.79454887  0.96918074  1
  O  O28  1  0.50684480  0.20545113  0.46918074  1
  O  O29  1  0.55540129  0.25248311  0.12538660  1
  O  O30  1  0.57880684  0.27048180  0.81135249  1
  O  O31  1  0.71537075  0.75782390  0.44341536  1
  O  O32  1  0.71675876  0.73943610  0.81590988  1
  O  O33  1  0.71831393  0.80940143  0.15359080  1
  O  O34  1  0.78168607  0.30940143  0.65359180  1
  O  O35  1  0.78324124  0.23943610  0.31590988  1
  O  O36  1  0.78462925  0.25782390  0.94341536  1
  O  O37  1  0.92119316  0.77048180  0.31135249  1
  O  O38  1  0.94459871  0.75248311  0.62538660  1
  O  O39  1  0.99315520  0.70545113  0.96918074  1
