# generated using pymatgen
data_Fe3(OF2)2
_symmetry_space_group_name_H-M   'P 1'
_cell_length_a   7.44762350
_cell_length_b   5.71705067
_cell_length_c   5.74684866
_cell_angle_alpha   73.73218517
_cell_angle_beta   72.03257776
_cell_angle_gamma   71.61674281
_symmetry_Int_Tables_number   1
_chemical_formula_structural   Fe3(OF2)2
_chemical_formula_sum   'Fe6 O4 F8'
_cell_volume   216.30205241
_cell_formula_units_Z   2
loop_
 _symmetry_equiv_pos_site_id
 _symmetry_equiv_pos_as_xyz
  1  'x, y, z'
loop_
 _atom_site_type_symbol
 _atom_site_label
 _atom_site_symmetry_multiplicity
 _atom_site_fract_x
 _atom_site_fract_y
 _atom_site_fract_z
 _atom_site_occupancy
  Fe  Fe0  1  0.84096948  0.67763851  0.69977401  1
  Fe  Fe1  1  0.67043791  0.36026331  0.30869130  1
  Fe  Fe2  1  0.31404900  0.64723408  0.65013771  1
  Fe  Fe3  1  0.16691365  0.32684092  0.33175207  1
  Fe  Fe4  1  0.50109229  0.98634759  0.99892859  1
  Fe  Fe5  1  0.00093858  0.00301262  0.01441355  1
  O  O6  1  0.95827998  0.22597501  0.22800766  1
  O  O7  1  0.03619368  0.77742902  0.77969773  1
  O  O8  1  0.38085135  0.42754480  0.43083313  1
  O  O9  1  0.67068234  0.63552994  0.02156876  1
  F  F10  1  0.67477874  0.03020519  0.61684372  1
  F  F11  1  0.34173275  0.36056512  0.95631524  1
  F  F12  1  0.29063770  0.89735611  0.89183133  1
  F  F13  1  0.63280532  0.57166248  0.56698336  1
  F  F14  1  0.70546927  0.10166825  0.09898096  1
  F  F15  1  0.33564716  0.95389403  0.37502036  1
  F  F16  1  0.99088840  0.31211484  0.70904844  1
  F  F17  1  0.98763240  0.70471618  0.32117007  1
