# generated using pymatgen
data_Cr2S5
_symmetry_space_group_name_H-M   'P 1'
_cell_length_a   4.24765724
_cell_length_b   6.63904005
_cell_length_c   13.55046897
_cell_angle_alpha   90.02827244
_cell_angle_beta   90.00122145
_cell_angle_gamma   89.99784012
_symmetry_Int_Tables_number   1
_chemical_formula_structural   Cr2S5
_chemical_formula_sum   'Cr4 S10'
_cell_volume   382.12814490
_cell_formula_units_Z   2
loop_
 _symmetry_equiv_pos_site_id
 _symmetry_equiv_pos_as_xyz
  1  'x, y, z'
loop_
 _atom_site_type_symbol
 _atom_site_label
 _atom_site_symmetry_multiplicity
 _atom_site_fract_x
 _atom_site_fract_y
 _atom_site_fract_z
 _atom_site_occupancy
  Cr  Cr0  1  0.01855872  0.09227096  0.14817130  1
  Cr  Cr1  1  0.51857951  0.90654614  0.35285494  1
  Cr  Cr2  1  0.51857344  0.90621524  0.64781043  1
  Cr  Cr3  1  0.01860057  0.09391777  0.85195631  1
  S  S4  1  0.51852720  0.98571498  0.18548617  1
  S  S5  1  0.01855909  0.01515464  0.31631873  1
  S  S6  1  0.01853857  0.01337263  0.68457537  1
  S  S7  1  0.51856971  0.98582859  0.81523760  1
  S  S8  1  0.01856221  0.39322178  0.85850807  1
  S  S9  1  0.51858313  0.60717010  0.64042226  1
  S  S10  1  0.51851877  0.60717156  0.35849790  1
  S  S11  1  0.51861793  0.02951231  0.50045440  1
  S  S12  1  0.01863895  0.97261547  0.99985683  1
  S  S13  1  0.01856420  0.39128784  0.13984868  1
