# generated using pymatgen
data_Li3V4(OF3)3
_symmetry_space_group_name_H-M   'P 1'
_cell_length_a   5.20369634
_cell_length_b   5.53089142
_cell_length_c   17.24355965
_cell_angle_alpha   88.75451087
_cell_angle_beta   97.03651580
_cell_angle_gamma   117.46851160
_symmetry_Int_Tables_number   1
_chemical_formula_structural   Li3V4(OF3)3
_chemical_formula_sum   'Li6 V8 O6 F18'
_cell_volume   436.68163450
_cell_formula_units_Z   2
loop_
 _symmetry_equiv_pos_site_id
 _symmetry_equiv_pos_as_xyz
  1  'x, y, z'
loop_
 _atom_site_type_symbol
 _atom_site_label
 _atom_site_symmetry_multiplicity
 _atom_site_fract_x
 _atom_site_fract_y
 _atom_site_fract_z
 _atom_site_occupancy
  Li  Li0  1  0.82556170  0.34046077  0.29861189  1
  Li  Li1  1  0.70573952  0.41944810  0.95849730  1
  Li  Li2  1  0.81619577  0.86243432  0.79786950  1
  Li  Li3  1  0.65849610  0.91249520  0.45359232  1
  Li  Li4  1  0.43082361  0.82023721  0.06459462  1
  Li  Li5  1  0.05643890  0.44880923  0.67298901  1
  V  V6  1  0.00505231  0.01370522  0.00264727  1
  V  V7  1  0.00179529  0.50586500  0.49915430  1
  V  V8  1  0.76246733  0.37469868  0.12783977  1
  V  V9  1  0.50679980  0.24467185  0.74765494  1
  V  V10  1  0.51049295  0.71596225  0.24858501  1
  V  V11  1  0.24443883  0.08447433  0.37851495  1
  V  V12  1  0.74485022  0.91335097  0.62264900  1
  V  V13  1  0.24224748  0.64285143  0.88129182  1
  O  O14  1  0.80179201  0.19922106  0.03346638  1
  O  O15  1  0.78962630  0.20003820  0.55969712  1
  O  O16  1  0.70183503  0.05874224  0.71968598  1
  O  O17  1  0.69408447  0.52665353  0.21592884  1
  O  O18  1  0.24025005  0.80466952  0.43848109  1
  O  O19  1  0.15799522  0.77847859  0.96585504  1
  F  F20  1  0.75457883  0.06154114  0.19670634  1
  F  F21  1  0.71986857  0.66815851  0.05477050  1
  F  F22  1  0.69592343  0.31671479  0.40119957  1
  F  F23  1  0.79290286  0.41604797  0.84829458  1
  F  F24  1  0.78322212  0.70948694  0.53074186  1
  F  F25  1  0.79582251  0.88928253  0.34997191  1
  F  F26  1  0.32117576  0.12647181  0.09402210  1
  F  F27  1  0.77202165  0.59220558  0.69423317  1
  F  F28  1  0.23227966  0.41005033  0.30897553  1
  F  F29  1  0.69313826  0.86018842  0.90107374  1
  F  F30  1  0.18929549  0.28466708  0.46233117  1
  F  F31  1  0.19248705  0.13342175  0.66023114  1
  F  F32  1  0.20301274  0.59812594  0.14831548  1
  F  F33  1  0.32607669  0.49565851  0.78099260  1
  F  F34  1  0.33299207  0.95580544  0.28264366  1
  F  F35  1  0.29910959  0.67296454  0.59865108  1
  F  F36  1  0.27729146  0.33265543  0.93648871  1
  F  F37  1  0.22382040  0.93475857  0.81069769  1
