# generated using pymatgen
data_Fe4O3F5
_symmetry_space_group_name_H-M   'P 1'
_cell_length_a   4.82237228
_cell_length_b   10.13301036
_cell_length_c   6.13450844
_cell_angle_alpha   72.23163537
_cell_angle_beta   90.11948184
_cell_angle_gamma   89.73896064
_symmetry_Int_Tables_number   1
_chemical_formula_structural   Fe4O3F5
_chemical_formula_sum   'Fe8 O6 F10'
_cell_volume   285.45948422
_cell_formula_units_Z   2
loop_
 _symmetry_equiv_pos_site_id
 _symmetry_equiv_pos_as_xyz
  1  'x, y, z'
loop_
 _atom_site_type_symbol
 _atom_site_label
 _atom_site_symmetry_multiplicity
 _atom_site_fract_x
 _atom_site_fract_y
 _atom_site_fract_z
 _atom_site_occupancy
  Fe  Fe0  1  0.45731694  0.23789384  0.63307858  1
  Fe  Fe1  1  0.52786533  0.72848306  0.87646454  1
  Fe  Fe2  1  0.56341472  0.75087861  0.38091494  1
  Fe  Fe3  1  0.49637198  0.25866664  0.11726401  1
  Fe  Fe4  1  0.95100550  0.02226047  0.48972760  1
  Fe  Fe5  1  0.01220479  0.49470482  0.74288663  1
  Fe  Fe6  1  0.01061681  0.99227977  0.00488911  1
  Fe  Fe7  1  0.97978891  0.51228678  0.25448043  1
  O  O8  1  0.82312607  0.91335451  0.29373822  1
  O  O9  1  0.66181325  0.15961343  0.41661648  1
  O  O10  1  0.69696136  0.66307073  0.16664257  1
  O  O11  1  0.71490806  0.65113418  0.67462316  1
  O  O12  1  0.31063137  0.33639311  0.83338424  1
  O  O13  1  0.17087782  0.09053227  0.70618533  1
  F  F14  1  0.78080185  0.38748266  0.55228583  1
  F  F15  1  0.79835236  0.39580328  0.05552117  1
  F  F16  1  0.79559045  0.90185423  0.79990413  1
  F  F17  1  0.69400589  0.14593031  0.92915648  1
  F  F18  1  0.30930042  0.84907705  0.07192156  1
  F  F19  1  0.32675635  0.84415464  0.58270393  1
  F  F20  1  0.28752463  0.35236214  0.32236528  1
  F  F21  1  0.21142182  0.59841815  0.95336696  1
  F  F22  1  0.19395537  0.10266080  0.19906640  1
  F  F23  1  0.22538594  0.61070452  0.44281144  1
