# generated using pymatgen
data_Li3Bi3P8O29
_symmetry_space_group_name_H-M   'P 1'
_cell_length_a   10.09730555
_cell_length_b   10.11372640
_cell_length_c   14.39504352
_cell_angle_alpha   90.00108852
_cell_angle_beta   89.81033081
_cell_angle_gamma   59.95011525
_symmetry_Int_Tables_number   1
_chemical_formula_structural   Li3Bi3P8O29
_chemical_formula_sum   'Li6 Bi6 P16 O58'
_cell_volume   1272.44374656
_cell_formula_units_Z   2
loop_
 _symmetry_equiv_pos_site_id
 _symmetry_equiv_pos_as_xyz
  1  'x, y, z'
loop_
 _atom_site_type_symbol
 _atom_site_label
 _atom_site_symmetry_multiplicity
 _atom_site_fract_x
 _atom_site_fract_y
 _atom_site_fract_z
 _atom_site_occupancy
  Li  Li0  1  0.01967213  0.03646344  0.49920410  1
  Li  Li1  1  0.01964672  0.94391063  0.99918834  1
  Li  Li2  1  0.23089476  0.08763263  0.05165285  1
  Li  Li3  1  0.23101556  0.68139458  0.55165283  1
  Li  Li4  1  0.68212804  0.09051735  0.55388033  1
  Li  Li5  1  0.68212730  0.22730347  0.05386436  1
  Bi  Bi6  1  0.99853850  0.43720397  0.74820701  1
  Bi  Bi7  1  0.99857664  0.56423737  0.24813445  1
  Bi  Bi8  1  0.43429899  0.99884033  0.25455415  1
  Bi  Bi9  1  0.56581773  0.99596182  0.74991964  1
  Bi  Bi10  1  0.43431655  0.56690697  0.75460592  1
  Bi  Bi11  1  0.56570587  0.43826887  0.24986063  1
  P  P12  1  0.07510796  0.22300460  0.34683029  1
  P  P13  1  0.22160570  0.08334976  0.84446278  1
  P  P14  1  0.07510121  0.70196195  0.84685036  1
  P  P15  1  0.33600990  0.33117134  0.12013976  1
  P  P16  1  0.33602924  0.33278280  0.62013109  1
  P  P17  1  0.22161874  0.69497931  0.34443955  1
  P  P18  1  0.29696709  0.78212422  0.15500911  1
  P  P19  1  0.69290396  0.08433805  0.34727792  1
  P  P20  1  0.29696007  0.92089009  0.65504225  1
  P  P21  1  0.69295376  0.22277965  0.84729239  1
  P  P22  1  0.78002901  0.30147084  0.65945437  1
  P  P23  1  0.66877702  0.66530014  0.87746952  1
  P  P24  1  0.66876831  0.66594062  0.37698442  1
  P  P25  1  0.92236522  0.29922377  0.15437413  1
  P  P26  1  0.78001327  0.91852794  0.15943136  1
  P  P27  1  0.92240627  0.77839868  0.65439734  1
  O  O28  1  0.99268432  0.21807415  0.25204902  1
  O  O29  1  0.01810293  0.19722218  0.07741437  1
  O  O30  1  0.07580059  0.24383832  0.84018201  1
  O  O31  1  0.22141070  0.98742478  0.75573209  1
  O  O32  1  0.18908149  0.00984632  0.57927630  1
  O  O33  1  0.23844197  0.07842040  0.34623256  1
  O  O34  1  0.08870140  0.36941064  0.34405020  1
  O  O35  1  0.20931752  0.30756226  0.66601711  1
  O  O36  1  0.08871314  0.54196137  0.84405524  1
  O  O37  1  0.01820116  0.78460869  0.57741755  1
  O  O38  1  0.99271076  0.78927361  0.75206190  1
  O  O39  1  0.07580017  0.68030157  0.34016149  1
  O  O40  1  0.31581012  0.19392525  0.15638223  1
  O  O41  1  0.36514192  0.10236739  0.83932903  1
  O  O42  1  0.20941851  0.48304871  0.16600144  1
  O  O43  1  0.33394280  0.32880709  0.01589570  1
  O  O44  1  0.33397886  0.33721412  0.51594547  1
  O  O45  1  0.31587742  0.49025221  0.65640250  1
  O  O46  1  0.52806226  0.10870119  0.34004274  1
  O  O47  1  0.49600492  0.19521449  0.65331170  1
  O  O48  1  0.23841813  0.68319641  0.84625852  1
  O  O49  1  0.22142588  0.79105921  0.25568758  1
  O  O50  1  0.18908970  0.80108038  0.07921259  1
  O  O51  1  0.21300987  0.78064580  0.43134715  1
  O  O52  1  0.36517058  0.53240577  0.33935794  1
  O  O53  1  0.49597409  0.30875013  0.15328213  1
  O  O54  1  0.32094795  0.75495577  0.65325153  1
  O  O55  1  0.52814889  0.36321651  0.84004262  1
  O  O56  1  0.68096667  0.07551615  0.84239214  1
  O  O57  1  0.21299227  0.00635045  0.93135004  1
  O  O58  1  0.78983203  0.01477909  0.08405978  1
  O  O59  1  0.79113816  0.98650311  0.25944727  1
  O  O60  1  0.32099088  0.92408883  0.15323032  1
  O  O61  1  0.45594893  0.63396178  0.15297686  1
  O  O62  1  0.68092601  0.24362063  0.34232569  1
  O  O63  1  0.50953365  0.69576523  0.83874116  1
  O  O64  1  0.63237535  0.46100519  0.66047760  1
  O  O65  1  0.78985253  0.19538903  0.58406415  1
  O  O66  1  0.77456816  0.21732601  0.93486132  1
  O  O67  1  0.79115983  0.22235854  0.75945199  1
  O  O68  1  0.75918639  0.31767076  0.15023040  1
  O  O69  1  0.50954521  0.79453584  0.33841317  1
  O  O70  1  0.45594801  0.90996497  0.65305684  1
  O  O71  1  0.69497501  0.50852239  0.33816591  1
  O  O72  1  0.67018610  0.66428681  0.98137894  1
  O  O73  1  0.67018940  0.66551716  0.48116782  1
  O  O74  1  0.79621438  0.50909330  0.83530004  1
  O  O75  1  0.63227547  0.90671722  0.16044793  1
  O  O76  1  0.69485614  0.79663194  0.83848196  1
  O  O77  1  0.92271844  0.32149946  0.65352535  1
  O  O78  1  0.98966413  0.20777453  0.42658977  1
  O  O79  1  0.90207058  0.46212151  0.15620865  1
  O  O80  1  0.79607350  0.69481894  0.33500986  1
  O  O81  1  0.90206343  0.63584335  0.65625412  1
  O  O82  1  0.75930388  0.92308326  0.65024212  1
  O  O83  1  0.77452014  0.00821687  0.43484922  1
  O  O84  1  0.92268913  0.75579317  0.15348920  1
  O  O85  1  0.98963559  0.80260060  0.92657338  1
