# generated using pymatgen
data_LiV2P2HO9
_symmetry_space_group_name_H-M   'P 1'
_cell_length_a   6.47820382
_cell_length_b   6.77962147
_cell_length_c   8.75582528
_cell_angle_alpha   90.00000000
_cell_angle_beta   108.57246516
_cell_angle_gamma   90.00000000
_symmetry_Int_Tables_number   1
_chemical_formula_structural   LiV2P2HO9
_chemical_formula_sum   'Li2 V4 P4 H2 O18'
_cell_volume   364.52687571
_cell_formula_units_Z   2
loop_
 _symmetry_equiv_pos_site_id
 _symmetry_equiv_pos_as_xyz
  1  'x, y, z'
loop_
 _atom_site_type_symbol
 _atom_site_label
 _atom_site_symmetry_multiplicity
 _atom_site_fract_x
 _atom_site_fract_y
 _atom_site_fract_z
 _atom_site_occupancy
  Li  Li0  1  0.90200768  0.75000000  0.16823663  1
  Li  Li1  1  0.09799232  0.25000000  0.83176337  1
  V  V2  1  0.52251192  0.75000000  0.70765296  1
  V  V3  1  0.47748808  0.25000000  0.29234704  1
  V  V4  1  0.50000000  0.50000000  0.00000000  1
  V  V5  1  0.50000000  0.00000000  0.00000000  1
  P  P6  1  0.07856693  0.75000000  0.80148438  1
  P  P7  1  0.41514267  0.25000000  0.65866165  1
  P  P8  1  0.58485733  0.75000000  0.34133835  1
  P  P9  1  0.92143307  0.25000000  0.19851562  1
  H  H10  1  0.96062642  0.25000000  0.46340596  1
  H  H11  1  0.03937358  0.75000000  0.53659404  1
  O  O12  1  0.16874502  0.56071868  0.89550064  1
  O  O13  1  0.16874502  0.93928132  0.89550064  1
  O  O14  1  0.16677035  0.25000000  0.61814829  1
  O  O15  1  0.16528666  0.75000000  0.64553169  1
  O  O16  1  0.16640142  0.25000000  0.26270524  1
  O  O17  1  0.58863587  0.75000000  0.95555735  1
  O  O18  1  0.51137984  0.43954883  0.76390003  1
  O  O19  1  0.51137984  0.06045117  0.76390003  1
  O  O20  1  0.48284881  0.75000000  0.47739501  1
  O  O21  1  0.51715119  0.25000000  0.52260499  1
  O  O22  1  0.48862016  0.56045117  0.23609997  1
  O  O23  1  0.48862016  0.93954883  0.23609997  1
  O  O24  1  0.41136413  0.25000000  0.04444265  1
  O  O25  1  0.83359858  0.75000000  0.73729476  1
  O  O26  1  0.83471334  0.25000000  0.35446831  1
  O  O27  1  0.83322965  0.75000000  0.38185171  1
  O  O28  1  0.83125498  0.06071868  0.10449936  1
  O  O29  1  0.83125498  0.43928132  0.10449936  1
