# generated using pymatgen
data_Na4NiO4
_symmetry_space_group_name_H-M   'P 1'
_cell_length_a   10.12560286
_cell_length_b   6.04007027
_cell_length_c   17.54579135
_cell_angle_alpha   90.00000000
_cell_angle_beta   91.05327124
_cell_angle_gamma   90.00000000
_symmetry_Int_Tables_number   1
_chemical_formula_structural   Na4NiO4
_chemical_formula_sum   'Na32 Ni8 O32'
_cell_volume   1072.90793005
_cell_formula_units_Z   8
loop_
 _symmetry_equiv_pos_site_id
 _symmetry_equiv_pos_as_xyz
  1  'x, y, z'
loop_
 _atom_site_type_symbol
 _atom_site_label
 _atom_site_symmetry_multiplicity
 _atom_site_fract_x
 _atom_site_fract_y
 _atom_site_fract_z
 _atom_site_occupancy
  Na  Na0  1  0.14991964  0.34609548  0.35236761  1
  Na  Na1  1  0.14991964  0.15390452  0.85236761  1
  Na  Na2  1  0.19649965  0.63688209  0.14795930  1
  Na  Na3  1  0.19649965  0.86311791  0.64795930  1
  Na  Na4  1  0.28831922  0.57978434  0.80636625  1
  Na  Na5  1  0.28831922  0.92021566  0.30636625  1
  Na  Na6  1  0.32446712  0.08448841  0.49993729  1
  Na  Na7  1  0.32446712  0.41551159  -0.00006271  1
  Na  Na8  1  0.39538487  0.34992930  0.24034067  1
  Na  Na9  1  0.39538487  0.15007070  0.74034067  1
  Na  Na10  1  0.39789843  0.90675294  0.92355119  1
  Na  Na11  1  0.39789843  0.59324706  0.42355119  1
  Na  Na12  1  0.54818846  0.06729114  0.06179394  1
  Na  Na13  1  0.54818846  0.43270886  0.56179394  1
  Na  Na14  1  0.59077813  0.87958553  0.25322573  1
  Na  Na15  1  0.59077813  0.62041447  0.75322573  1
  Na  Na16  1  0.64947336  0.58982905  0.00133854  1
  Na  Na17  1  0.64947336  0.91017095  0.50133854  1
  Na  Na18  1  0.68586572  0.39859286  0.17516643  1
  Na  Na19  1  0.68586572  0.10140714  0.67516643  1
  Na  Na20  1  0.69785602  0.94034612  0.86725852  1
  Na  Na21  1  0.69785602  0.55965388  0.36725852  1
  Na  Na22  1  0.80528388  0.08387194  0.36322376  1
  Na  Na23  1  0.80528388  0.41612806  0.86322376  1
  Na  Na24  1  0.84100186  0.58524783  0.67522476  1
  Na  Na25  1  0.84100186  0.91475217  0.17522476  1
  Na  Na26  1  0.86615940  0.40899425  0.50428487  1
  Na  Na27  1  0.86615940  0.09100575  0.00428487  1
  Na  Na28  1  0.93748803  0.06825755  0.74547138  1
  Na  Na29  1  0.93748803  0.43174245  0.24547138  1
  Na  Na30  1  0.96879404  0.91838098  0.54762403  1
  Na  Na31  1  0.96879404  0.58161902  0.04762403  1
  Ni  Ni32  1  0.06531335  0.17619575  0.12991078  1
  Ni  Ni33  1  0.06531335  0.32380425  0.62991078  1
  Ni  Ni34  1  0.47265139  0.83297645  0.62486615  1
  Ni  Ni35  1  0.47265139  0.66702355  0.12486615  1
  Ni  Ni36  1  0.53473681  0.16273584  0.37654405  1
  Ni  Ni37  1  0.53473681  0.33726416  0.87654405  1
  Ni  Ni38  1  0.95747852  0.69315965  0.37588025  1
  Ni  Ni39  1  0.95747852  0.80684035  0.87588025  1
  O  O40  1  0.03663611  0.61212370  0.61754782  1
  O  O41  1  0.03663611  0.88787630  0.11754782  1
  O  O42  1  0.14338739  0.28540510  0.21469012  1
  O  O43  1  0.14338739  0.21459490  0.71469012  1
  O  O44  1  0.13477636  0.33777346  0.05888530  1
  O  O45  1  0.13477636  0.16222654  0.55888530  1
  O  O46  1  0.12759081  0.73780605  0.36871339  1
  O  O47  1  0.12759081  0.76219395  0.86871339  1
  O  O48  1  0.35865396  0.25241751  0.87320093  1
  O  O49  1  0.35865396  0.24758249  0.37320093  1
  O  O50  1  0.39338408  0.77701926  0.04163288  1
  O  O51  1  0.39338408  0.72298074  0.54163288  1
  O  O52  1  0.38875161  0.76559385  0.71222832  1
  O  O53  1  0.38875161  0.73440615  0.21222832  1
  O  O54  1  0.47934486  0.37275046  0.11527908  1
  O  O55  1  0.47934486  0.12724954  0.61527908  1
  O  O56  1  0.54156667  0.85725979  0.38117750  1
  O  O57  1  0.54156667  0.64274021  0.88117750  1
  O  O58  1  0.62174666  0.24912311  0.78777692  1
  O  O59  1  0.62174666  0.25087689  0.28777692  1
  O  O60  1  0.63545641  0.21510840  0.95571972  1
  O  O61  1  0.63545641  0.28489160  0.45571972  1
  O  O62  1  0.64541934  0.73165446  0.62847731  1
  O  O63  1  0.64541934  0.76834554  0.12847731  1
  O  O64  1  0.88530848  0.22355026  0.62759496  1
  O  O65  1  0.88530848  0.27644974  0.12759496  1
  O  O66  1  0.85066680  0.78339097  0.45003863  1
  O  O67  1  0.85066680  0.71660903  0.95003863  1
  O  O68  1  0.85274156  0.73345297  0.79269398  1
  O  O69  1  0.85274156  0.76654703  0.29269398  1
  O  O70  1  0.93337104  0.39186269  0.37801663  1
  O  O71  1  0.93337104  0.10813731  0.87801663  1
