# generated using pymatgen
data_Li5FeO4
_symmetry_space_group_name_H-M   'P 1'
_cell_length_a   9.98670203
_cell_length_b   5.19471663
_cell_length_c   15.84571539
_cell_angle_alpha   90.00000000
_cell_angle_beta   90.00000000
_cell_angle_gamma   90.00000000
_symmetry_Int_Tables_number   1
_chemical_formula_structural   Li5FeO4
_chemical_formula_sum   'Li40 Fe8 O32'
_cell_volume   822.04540339
_cell_formula_units_Z   8
loop_
 _symmetry_equiv_pos_site_id
 _symmetry_equiv_pos_as_xyz
  1  'x, y, z'
loop_
 _atom_site_type_symbol
 _atom_site_label
 _atom_site_symmetry_multiplicity
 _atom_site_fract_x
 _atom_site_fract_y
 _atom_site_fract_z
 _atom_site_occupancy
  Li  Li0  1  0.07096607  0.09351736  0.42879042  1
  Li  Li1  1  0.07096607  0.40648264  0.92879042  1
  Li  Li2  1  0.05695765  0.58214980  0.76036651  1
  Li  Li3  1  0.05695765  0.91785020  0.26036651  1
  Li  Li4  1  0.18545549  0.88275557  0.99284904  1
  Li  Li5  1  0.18545549  0.61724443  0.49284904  1
  Li  Li6  1  0.19447885  0.08268267  0.82295809  1
  Li  Li7  1  0.19447885  0.41731733  0.32295809  1
  Li  Li8  1  0.19858933  0.57269340  0.15634038  1
  Li  Li9  1  0.19858933  0.92730660  0.65634038  1
  Li  Li10  1  0.30141067  0.07269340  0.15634038  1
  Li  Li11  1  0.30141067  0.42730660  0.65634038  1
  Li  Li12  1  0.30552115  0.58268267  0.82295809  1
  Li  Li13  1  0.30552115  0.91731733  0.32295809  1
  Li  Li14  1  0.31454451  0.38275557  0.99284904  1
  Li  Li15  1  0.31454451  0.11724443  0.49284904  1
  Li  Li16  1  0.44304235  0.41785020  0.26036651  1
  Li  Li17  1  0.44304235  0.08214980  0.76036651  1
  Li  Li18  1  0.42903393  0.90648264  0.92879042  1
  Li  Li19  1  0.42903393  0.59351736  0.42879042  1
  Li  Li20  1  0.57096607  0.09351736  0.07120958  1
  Li  Li21  1  0.57096607  0.40648264  0.57120958  1
  Li  Li22  1  0.55695765  0.58214980  0.73963349  1
  Li  Li23  1  0.55695765  0.91785020  0.23963349  1
  Li  Li24  1  0.68545549  0.61724443  0.00715096  1
  Li  Li25  1  0.68545549  0.88275557  0.50715096  1
  Li  Li26  1  0.69447885  0.41731733  0.17704191  1
  Li  Li27  1  0.69447885  0.08268267  0.67704191  1
  Li  Li28  1  0.69858933  0.57269340  0.34365962  1
  Li  Li29  1  0.69858933  0.92730660  0.84365962  1
  Li  Li30  1  0.80141067  0.07269340  0.34365962  1
  Li  Li31  1  0.80141067  0.42730660  0.84365962  1
  Li  Li32  1  0.80552115  0.58268267  0.67704191  1
  Li  Li33  1  0.80552115  0.91731733  0.17704191  1
  Li  Li34  1  0.81454451  0.11724443  0.00715096  1
  Li  Li35  1  0.81454451  0.38275557  0.50715096  1
  Li  Li36  1  0.94304235  0.08214980  0.73963349  1
  Li  Li37  1  0.94304235  0.41785020  0.23963349  1
  Li  Li38  1  0.92903393  0.90648264  0.57120958  1
  Li  Li39  1  0.92903393  0.59351736  0.07120958  1
  Fe  Fe40  1  0.04532718  0.14317030  0.11691014  1
  Fe  Fe41  1  0.04532718  0.35682970  0.61691014  1
  Fe  Fe42  1  0.45467282  0.64317030  0.11691014  1
  Fe  Fe43  1  0.45467282  0.85682970  0.61691014  1
  Fe  Fe44  1  0.54532718  0.14317030  0.38308986  1
  Fe  Fe45  1  0.54532718  0.35682970  0.88308986  1
  Fe  Fe46  1  0.95467282  0.64317030  0.38308986  1
  Fe  Fe47  1  0.95467282  0.85682970  0.88308986  1
  O  O48  1  0.04991047  0.78688637  0.13515115  1
  O  O49  1  0.04991047  0.71311363  0.63515115  1
  O  O50  1  0.13923759  0.25842379  0.21638923  1
  O  O51  1  0.13923759  0.24157621  0.71638923  1
  O  O52  1  0.14568824  0.24703323  0.02401265  1
  O  O53  1  0.14568824  0.25296677  0.52401265  1
  O  O54  1  0.13724845  0.76721002  0.37311472  1
  O  O55  1  0.13724845  0.73278998  0.87311472  1
  O  O56  1  0.36275155  0.26721002  0.37311472  1
  O  O57  1  0.36275155  0.23278998  0.87311472  1
  O  O58  1  0.35431176  0.74703323  0.02401265  1
  O  O59  1  0.35431176  0.75296677  0.52401265  1
  O  O60  1  0.36076241  0.75842379  0.21638923  1
  O  O61  1  0.36076241  0.74157621  0.71638923  1
  O  O62  1  0.45008953  0.28688637  0.13515115  1
  O  O63  1  0.45008953  0.21311363  0.63515115  1
  O  O64  1  0.54991047  0.71311363  0.86484885  1
  O  O65  1  0.54991047  0.78688637  0.36484885  1
  O  O66  1  0.63923759  0.25842379  0.28361077  1
  O  O67  1  0.63923759  0.24157621  0.78361077  1
  O  O68  1  0.64568824  0.25296677  0.97598735  1
  O  O69  1  0.64568824  0.24703323  0.47598735  1
  O  O70  1  0.63724845  0.73278998  0.62688528  1
  O  O71  1  0.63724845  0.76721002  0.12688528  1
  O  O72  1  0.86275155  0.23278998  0.62688528  1
  O  O73  1  0.86275155  0.26721002  0.12688528  1
  O  O74  1  0.85431176  0.74703323  0.47598735  1
  O  O75  1  0.85431176  0.75296677  0.97598735  1
  O  O76  1  0.86076241  0.74157621  0.78361077  1
  O  O77  1  0.86076241  0.75842379  0.28361077  1
  O  O78  1  0.95008953  0.28688637  0.36484885  1
  O  O79  1  0.95008953  0.21311363  0.86484885  1
