# generated using pymatgen
data_Fe3(O2F)2
_symmetry_space_group_name_H-M   'P 1'
_cell_length_a   7.40541357
_cell_length_b   5.61977935
_cell_length_c   5.61211013
_cell_angle_alpha   70.68391427
_cell_angle_beta   70.63184754
_cell_angle_gamma   70.74297937
_symmetry_Int_Tables_number   1
_chemical_formula_structural   Fe3(O2F)2
_chemical_formula_sum   'Fe6 O8 F4'
_cell_volume   201.48198652
_cell_formula_units_Z   2
loop_
 _symmetry_equiv_pos_site_id
 _symmetry_equiv_pos_as_xyz
  1  'x, y, z'
loop_
 _atom_site_type_symbol
 _atom_site_label
 _atom_site_symmetry_multiplicity
 _atom_site_fract_x
 _atom_site_fract_y
 _atom_site_fract_z
 _atom_site_occupancy
  Fe  Fe0  1  0.84348409  0.67899148  0.69309709  1
  Fe  Fe1  1  0.66802684  0.33480077  0.34451690  1
  Fe  Fe2  1  0.31593078  0.64228531  0.65391782  1
  Fe  Fe3  1  0.17021721  0.31218882  0.33104196  1
  Fe  Fe4  1  0.49565606  0.99479258  0.00243276  1
  Fe  Fe5  1  0.00342469  0.03020513  0.97871870  1
  O  O6  1  0.66562689  0.03329626  0.65192107  1
  O  O7  1  0.33285163  0.34491640  0.96507147  1
  O  O8  1  0.95395873  0.23801583  0.23114468  1
  O  O9  1  0.03763683  0.78386003  0.77139669  1
  O  O10  1  0.38032462  0.41631526  0.42731296  1
  O  O11  1  0.33600518  0.95127570  0.35177926  1
  O  O12  1  0.66206249  0.64416958  0.04289160  1
  O  O13  1  0.00309340  0.32493585  0.68366525  1
  F  F14  1  0.30049462  0.88644072  0.89148409  1
  F  F15  1  0.62896182  0.57178369  0.57567777  1
  F  F16  1  0.70169397  0.10079427  0.10699373  1
  F  F17  1  0.00055014  0.71093132  0.29693420  1
