# generated using pymatgen
data_Fe5O7F3
_symmetry_space_group_name_H-M   'P 1'
_cell_length_a   4.66866074
_cell_length_b   4.66866074
_cell_length_c   15.22698511
_cell_angle_alpha   90.09083916
_cell_angle_beta   90.09083916
_cell_angle_gamma   88.34596841
_symmetry_Int_Tables_number   1
_chemical_formula_structural   Fe5O7F3
_chemical_formula_sum   'Fe10 O14 F6'
_cell_volume   331.75425587
_cell_formula_units_Z   2
loop_
 _symmetry_equiv_pos_site_id
 _symmetry_equiv_pos_as_xyz
  1  'x, y, z'
loop_
 _atom_site_type_symbol
 _atom_site_label
 _atom_site_symmetry_multiplicity
 _atom_site_fract_x
 _atom_site_fract_y
 _atom_site_fract_z
 _atom_site_occupancy
  Fe  Fe0  1  0.98024127  0.96184807  0.00699356  1
  Fe  Fe1  1  0.02930634  0.02655195  0.20140967  1
  Fe  Fe2  1  0.97344805  0.97069366  0.39859033  1
  Fe  Fe3  1  0.03815193  0.01975873  0.59300644  1
  Fe  Fe4  1  0.01646863  0.98353137  0.80000000  1
  Fe  Fe5  1  0.50389898  0.49488987  0.09972832  1
  Fe  Fe6  1  0.50511013  0.49610102  0.50027168  1
  Fe  Fe7  1  0.50139397  0.49860603  0.30000000  1
  Fe  Fe8  1  0.47492703  0.51214769  0.70482849  1
  Fe  Fe9  1  0.48785231  0.52507297  0.89517151  1
  O  O10  1  0.20485043  0.80552562  0.10488689  1
  O  O11  1  0.19397924  0.80602076  0.30000000  1
  O  O12  1  0.19447438  0.79514957  0.49511311  1
  O  O13  1  0.19524583  0.82403785  0.69570039  1
  O  O14  1  0.17596215  0.80475417  0.90429961  1
  O  O15  1  0.32590769  0.31983875  0.20072170  1
  O  O16  1  0.32086252  0.32213174  0.59856007  1
  O  O17  1  0.29585908  0.30634411  0.80171421  1
  O  O18  1  0.67786826  0.67913748  0.00143993  1
  O  O19  1  0.68016125  0.67409231  0.39927830  1
  O  O20  1  0.69365589  0.70414092  0.79828579  1
  O  O21  1  0.81202326  0.19368466  0.10266110  1
  O  O22  1  0.80631534  0.18797674  0.49733890  1
  O  O23  1  0.80872273  0.19127727  0.30000000  1
  F  F24  1  0.29339393  0.29430257  0.99925644  1
  F  F25  1  0.29841434  0.29197134  0.39922236  1
  F  F26  1  0.70802866  0.70158566  0.20077764  1
  F  F27  1  0.70569743  0.70660607  0.60074356  1
  F  F28  1  0.79214606  0.19436510  0.90262424  1
  F  F29  1  0.80563490  0.20785394  0.69737576  1
