# generated using pymatgen
data_LiCo2OF3
_symmetry_space_group_name_H-M   'P 1'
_cell_length_a   6.12846654
_cell_length_b   6.16936730
_cell_length_c   8.49632986
_cell_angle_alpha   90.50016950
_cell_angle_beta   90.00000000
_cell_angle_gamma   90.00000000
_symmetry_Int_Tables_number   1
_chemical_formula_structural   LiCo2OF3
_chemical_formula_sum   'Li4 Co8 O4 F12'
_cell_volume   321.22346576
_cell_formula_units_Z   4
loop_
 _symmetry_equiv_pos_site_id
 _symmetry_equiv_pos_as_xyz
  1  'x, y, z'
loop_
 _atom_site_type_symbol
 _atom_site_label
 _atom_site_symmetry_multiplicity
 _atom_site_fract_x
 _atom_site_fract_y
 _atom_site_fract_z
 _atom_site_occupancy
  Li  Li0  1  0.00329698  0.23422512  0.99898236  1
  Li  Li1  1  0.00329698  0.76577488  0.50101764  1
  Li  Li2  1  0.76553934  0.50000000  0.25000000  1
  Li  Li3  1  0.76824241  0.00000000  0.25000000  1
  Co  Co4  1  0.20868885  0.00000000  0.75000000  1
  Co  Co5  1  0.21413229  0.50000000  0.75000000  1
  Co  Co6  1  0.24793842  0.22051133  0.38202247  1
  Co  Co7  1  0.24793842  0.77948867  0.11797753  1
  Co  Co8  1  0.49217054  0.23650936  0.00496359  1
  Co  Co9  1  0.49217054  0.76349064  0.49503641  1
  Co  Co10  1  0.77094676  0.26042866  0.62414907  1
  Co  Co11  1  0.77094676  0.73957134  0.87585093  1
  O  O12  1  0.01152414  0.25787826  0.75919017  1
  O  O13  1  0.01152414  0.74212174  0.74080983  1
  O  O14  1  0.26419587  0.02170816  0.98499749  1
  O  O15  1  0.26419587  0.97829184  0.51500251  1
  F  F16  1  0.25030463  0.48799271  0.00491883  1
  F  F17  1  0.25030463  0.51200729  0.49508117  1
  F  F18  1  0.49074519  0.27413116  0.75464114  1
  F  F19  1  0.49074519  0.72586884  0.74535886  1
  F  F20  1  0.51891870  0.24851068  0.24872678  1
  F  F21  1  0.51891870  0.75148932  0.25127322  1
  F  F22  1  0.75153952  0.99089291  0.48740933  1
  F  F23  1  0.75153952  0.00910709  0.01259067  1
  F  F24  1  0.73502131  0.47561078  0.01397813  1
  F  F25  1  0.73502131  0.52438922  0.48602187  1
  F  F26  1  0.98509599  0.24845430  0.24626808  1
  F  F27  1  0.98509599  0.75154570  0.25373192  1
