# generated using pymatgen
data_LiCr2P3O13
_symmetry_space_group_name_H-M   'P 1'
_cell_length_a   8.42668039
_cell_length_b   8.73412295
_cell_length_c   8.73400088
_cell_angle_alpha   106.98955139
_cell_angle_beta   69.80278726
_cell_angle_gamma   69.80486912
_symmetry_Int_Tables_number   1
_chemical_formula_structural   LiCr2P3O13
_chemical_formula_sum   'Li2 Cr4 P6 O26'
_cell_volume   500.65410575
_cell_formula_units_Z   2
loop_
 _symmetry_equiv_pos_site_id
 _symmetry_equiv_pos_as_xyz
  1  'x, y, z'
loop_
 _atom_site_type_symbol
 _atom_site_label
 _atom_site_symmetry_multiplicity
 _atom_site_fract_x
 _atom_site_fract_y
 _atom_site_fract_z
 _atom_site_occupancy
  Li  Li0  1  0.50000000  0.00000000  0.00000000  1
  Li  Li1  1  0.00000000  0.50000000  0.50000000  1
  Cr  Cr2  1  0.82716865  0.82894620  0.16254792  1
  Cr  Cr3  1  0.67262940  0.33764782  0.67115007  1
  Cr  Cr4  1  0.32737060  0.66235218  0.32884993  1
  Cr  Cr5  1  0.17283135  0.17105380  0.83745208  1
  P  P6  1  0.75005810  0.50937787  0.99048167  1
  P  P7  1  0.94386450  0.14879782  0.24134561  1
  P  P8  1  0.44416488  0.74103710  0.64869888  1
  P  P9  1  0.55583512  0.25896290  0.35130112  1
  P  P10  1  0.05613550  0.85120218  0.75865439  1
  P  P11  1  0.24994190  0.49062213  0.00951833  1
  O  O12  1  0.88583411  0.85546509  0.89764813  1
  O  O13  1  0.92687364  0.38956259  0.99880941  1
  O  O14  1  0.96471108  0.95716779  0.20109205  1
  O  O15  1  0.79504332  0.43822643  0.78696062  1
  O  O16  1  0.76961361  0.80651529  0.34482478  1
  O  O17  1  0.90507749  0.25432655  0.43963730  1
  O  O18  1  0.61404239  0.60236189  0.64438117  1
  O  O19  1  0.72998484  0.15532051  0.69378380  1
  O  O20  1  0.40514655  0.93963440  0.75446757  1
  O  O21  1  0.70490388  0.71300970  0.06180709  1
  O  O22  1  0.75002974  0.26329460  0.23672800  1
  O  O23  1  0.42668672  0.49911200  0.88965102  1
  O  O24  1  0.46473131  0.70121741  0.45716633  1
  O  O25  1  0.53526869  0.29878259  0.54283367  1
  O  O26  1  0.57331328  0.50088800  0.11034898  1
  O  O27  1  0.24997026  0.73670540  0.76327200  1
  O  O28  1  0.29509612  0.28699030  0.93819291  1
  O  O29  1  0.59485345  0.06036560  0.24553243  1
  O  O30  1  0.27001516  0.84467949  0.30621620  1
  O  O31  1  0.38595761  0.39763811  0.35561883  1
  O  O32  1  0.09492251  0.74567345  0.56036270  1
  O  O33  1  0.23038639  0.19348471  0.65517522  1
  O  O34  1  0.20495668  0.56177357  0.21303938  1
  O  O35  1  0.03528892  0.04283221  0.79890795  1
  O  O36  1  0.07312636  0.61043741  0.00119059  1
  O  O37  1  0.11416589  0.14453491  0.10235187  1
