# generated using pymatgen
data_V2CoO7
_symmetry_space_group_name_H-M   'P 1'
_cell_length_a   6.55959683
_cell_length_b   11.09412285
_cell_length_c   15.00652259
_cell_angle_alpha   90.00000000
_cell_angle_beta   90.00000000
_cell_angle_gamma   102.26077784
_symmetry_Int_Tables_number   1
_chemical_formula_structural   V2CoO7
_chemical_formula_sum   'V16 Co8 O56'
_cell_volume   1067.16044997
_cell_formula_units_Z   8
loop_
 _symmetry_equiv_pos_site_id
 _symmetry_equiv_pos_as_xyz
  1  'x, y, z'
loop_
 _atom_site_type_symbol
 _atom_site_label
 _atom_site_symmetry_multiplicity
 _atom_site_fract_x
 _atom_site_fract_y
 _atom_site_fract_z
 _atom_site_occupancy
  V  V0  1  0.85300345  0.98279741  0.85762086  1
  V  V1  1  0.42635182  0.68001583  0.00385288  1
  V  V2  1  0.42635182  0.18001583  0.49614712  1
  V  V3  1  0.57364818  0.31998417  0.99614712  1
  V  V4  1  0.50707731  0.80149492  0.70121765  1
  V  V5  1  0.49292269  0.69850508  0.20121765  1
  V  V6  1  0.49292269  0.19850508  0.29878235  1
  V  V7  1  0.50707731  0.30149492  0.79878235  1
  V  V8  1  0.57364818  0.81998417  0.50385288  1
  V  V9  1  0.87483199  0.48151832  0.13867670  1
  V  V10  1  0.12516801  0.01848168  0.63867670  1
  V  V11  1  0.12516801  0.51848168  0.86132330  1
  V  V12  1  0.14699655  0.51720259  0.35762086  1
  V  V13  1  0.85300345  0.48279741  0.64237914  1
  V  V14  1  0.14699655  0.01720259  0.14237914  1
  V  V15  1  0.87483199  0.98151832  0.36132330  1
  Co  Co16  1  0.63697338  0.07582555  0.67733228  1
  Co  Co17  1  0.36302662  0.42417445  0.17733228  1
  Co  Co18  1  0.36302662  0.92417445  0.32266772  1
  Co  Co19  1  0.63697338  0.57582555  0.82266772  1
  Co  Co20  1  0.98911207  0.24988275  0.75366554  1
  Co  Co21  1  0.01088793  0.25011725  0.25366554  1
  Co  Co22  1  0.01088793  0.75011725  0.24633446  1
  Co  Co23  1  0.98911207  0.74988275  0.74633446  1
  O  O24  1  0.76826554  0.96334610  0.95931792  1
  O  O25  1  0.23173446  0.53665390  0.45931792  1
  O  O26  1  0.23173446  0.03665390  0.04068208  1
  O  O27  1  0.76826554  0.46334610  0.54068208  1
  O  O28  1  0.99346129  0.86718339  0.83035624  1
  O  O29  1  0.00653871  0.63281661  0.33035624  1
  O  O30  1  0.00653871  0.13281661  0.16964376  1
  O  O31  1  0.99346129  0.36718339  0.66964376  1
  O  O32  1  0.99217218  0.13613396  0.84105959  1
  O  O33  1  0.00782782  0.36386604  0.34105959  1
  O  O34  1  0.00782782  0.86386604  0.15894041  1
  O  O35  1  0.99217218  0.63613396  0.65894041  1
  O  O36  1  0.65226037  0.94857342  0.29884687  1
  O  O37  1  0.34773963  0.55142658  0.79884687  1
  O  O38  1  0.34773963  0.05142658  0.70115313  1
  O  O39  1  0.65226037  0.44857342  0.20115313  1
  O  O40  1  0.99971222  0.13286695  0.34544750  1
  O  O41  1  0.00028778  0.36713305  0.84544750  1
  O  O42  1  0.00028778  0.86713305  0.65455250  1
  O  O43  1  0.99971222  0.63286695  0.15455250  1
  O  O44  1  0.06103813  0.88407257  0.33211846  1
  O  O45  1  0.38576292  0.83780469  0.42343443  1
  O  O46  1  0.93896187  0.61592743  0.83211846  1
  O  O47  1  0.06103813  0.38407257  0.16788154  1
  O  O48  1  0.69934460  0.72003498  0.46766845  1
  O  O49  1  0.30065540  0.77996502  0.96766845  1
  O  O50  1  0.30065540  0.27996502  0.53233155  1
  O  O51  1  0.69934460  0.22003498  0.03233155  1
  O  O52  1  0.78368907  0.96204058  0.47001736  1
  O  O53  1  0.21631093  0.53795942  0.97001736  1
  O  O54  1  0.21631093  0.03795942  0.52998264  1
  O  O55  1  0.78368907  0.46204058  0.02998264  1
  O  O56  1  0.43934775  0.22118897  0.89829860  1
  O  O57  1  0.56065225  0.27881103  0.39829860  1
  O  O58  1  0.56065225  0.77881103  0.10170140  1
  O  O59  1  0.43934775  0.72118897  0.60170140  1
  O  O60  1  0.69248453  0.21372510  0.75147885  1
  O  O61  1  0.30751547  0.28627490  0.25147885  1
  O  O62  1  0.30751547  0.78627490  0.24852115  1
  O  O63  1  0.69248453  0.71372510  0.74852115  1
  O  O64  1  0.64443298  0.45934651  0.72749770  1
  O  O65  1  0.35556702  0.04065349  0.22749770  1
  O  O66  1  0.35556702  0.54065349  0.27250230  1
  O  O67  1  0.64443298  0.95934651  0.77250230  1
  O  O68  1  0.27883372  0.27906450  0.74345705  1
  O  O69  1  0.72116628  0.22093550  0.24345705  1
  O  O70  1  0.72116628  0.72093550  0.25654295  1
  O  O71  1  0.27883372  0.77906450  0.75654295  1
  O  O72  1  0.58320386  0.42750785  0.88279351  1
  O  O73  1  0.41679614  0.07249215  0.38279351  1
  O  O74  1  0.41679614  0.57249215  0.11720649  1
  O  O75  1  0.58320386  0.92750785  0.61720649  1
  O  O76  1  0.38576292  0.33780469  0.07656557  1
  O  O77  1  0.61423708  0.16219531  0.57656557  1
  O  O78  1  0.61423708  0.66219531  0.92343443  1
  O  O79  1  0.93896187  0.11592743  0.66788154  1
