# generated using pymatgen
data_Li2MnCr3O8
_symmetry_space_group_name_H-M   'P 1'
_cell_length_a   5.89190516
_cell_length_b   5.96184785
_cell_length_c   6.00326491
_cell_angle_alpha   121.03522847
_cell_angle_beta   60.52929105
_cell_angle_gamma   90.12295283
_symmetry_Int_Tables_number   1
_chemical_formula_structural   Li2MnCr3O8
_chemical_formula_sum   'Li2 Mn1 Cr3 O8'
_cell_volume   148.09847183
_cell_formula_units_Z   1
loop_
 _symmetry_equiv_pos_site_id
 _symmetry_equiv_pos_as_xyz
  1  'x, y, z'
loop_
 _atom_site_type_symbol
 _atom_site_label
 _atom_site_symmetry_multiplicity
 _atom_site_fract_x
 _atom_site_fract_y
 _atom_site_fract_z
 _atom_site_occupancy
  Li  Li0  1  0.50003848  0.50001703  -0.00001802  1
  Li  Li1  1  0.99998267  0.50005026  0.00006309  1
  Mn  Mn2  1  0.00002634  0.00008977  0.00009086  1
  Cr  Cr3  1  0.49993724  0.49996936  0.50001456  1
  Cr  Cr4  1  0.50006280  -0.00007792  -0.00011203  1
  Cr  Cr5  1  -0.00009218  0.50007018  0.49999757  1
  O  O6  1  0.72705770  0.72587024  0.52727027  1
  O  O7  1  0.23942935  0.73775015  0.53485331  1
  O  O8  1  0.74252322  0.24289803  0.02971748  1
  O  O9  1  0.77107379  0.76085445  0.97172021  1
  O  O10  1  0.22900900  0.23917409  0.02828511  1
  O  O11  1  0.25746374  0.75707319  0.97026142  1
  O  O12  1  0.76062236  0.26226871  0.46510588  1
  O  O13  1  0.27286449  0.27399146  0.47274829  1
