# generated using pymatgen
data_Fe5O7F3
_symmetry_space_group_name_H-M   'P 1'
_cell_length_a   4.68887967
_cell_length_b   4.68601274
_cell_length_c   15.15364885
_cell_angle_alpha   90.20134899
_cell_angle_beta   90.02055694
_cell_angle_gamma   92.85283877
_symmetry_Int_Tables_number   1
_chemical_formula_structural   Fe5O7F3
_chemical_formula_sum   'Fe10 O14 F6'
_cell_volume   332.54349564
_cell_formula_units_Z   2
loop_
 _symmetry_equiv_pos_site_id
 _symmetry_equiv_pos_as_xyz
  1  'x, y, z'
loop_
 _atom_site_type_symbol
 _atom_site_label
 _atom_site_symmetry_multiplicity
 _atom_site_fract_x
 _atom_site_fract_y
 _atom_site_fract_z
 _atom_site_occupancy
  Fe  Fe0  1  0.00289710  0.99542969  0.00165522  1
  Fe  Fe1  1  0.99658728  0.99677429  0.20051055  1
  Fe  Fe2  1  0.02875663  0.01553630  0.40346564  1
  Fe  Fe3  1  0.99762626  0.99460057  0.59070063  1
  Fe  Fe4  1  0.00536411  0.99251340  0.80365734  1
  Fe  Fe5  1  0.53024717  0.46852561  0.09875035  1
  Fe  Fe6  1  0.49548431  0.48774851  0.50498860  1
  Fe  Fe7  1  0.46175997  0.52406682  0.29494139  1
  Fe  Fe8  1  0.50096356  0.49541190  0.70137869  1
  Fe  Fe9  1  0.47398662  0.52458746  0.89988337  1
  O  O10  1  0.18218740  0.82383120  0.29824903  1
  O  O11  1  0.20320644  0.80256793  0.49914447  1
  O  O12  1  0.18103736  0.81781487  0.90276820  1
  O  O13  1  0.31057372  0.30231166  0.00014701  1
  O  O14  1  0.30682934  0.29853661  0.19607938  1
  O  O15  1  0.31478137  0.32603959  0.39842802  1
  O  O16  1  0.30599135  0.29750598  0.60793443  1
  O  O17  1  0.30243532  0.31034501  0.79896607  1
  O  O18  1  0.69624857  0.68848610  0.00007731  1
  O  O19  1  0.69386826  0.68858510  0.19780805  1
  O  O20  1  0.69385150  0.68593935  0.60539524  1
  O  O21  1  0.68727127  0.69484118  0.79881345  1
  O  O22  1  0.82159241  0.17365601  0.09965829  1
  O  O23  1  0.80801212  0.19745293  0.49792871  1
  F  F24  1  0.20330810  0.79115501  0.09998916  1
  F  F25  1  0.18840825  0.80493827  0.70073775  1
  F  F26  1  0.69836474  0.70977821  0.39627298  1
  F  F27  1  0.79998515  0.20661339  0.30036944  1
  F  F28  1  0.79849466  0.20047038  0.89964187  1
  F  F29  1  0.80988167  0.18393666  0.70165738  1
