# generated using pymatgen
data_Fe4O3F5
_symmetry_space_group_name_H-M   'P 1'
_cell_length_a   7.04557193
_cell_length_b   6.54478787
_cell_length_c   7.80288699
_cell_angle_alpha   65.61695768
_cell_angle_beta   63.16182679
_cell_angle_gamma   90.00000000
_symmetry_Int_Tables_number   1
_chemical_formula_structural   Fe4O3F5
_chemical_formula_sum   'Fe8 O6 F10'
_cell_volume   284.61920566
_cell_formula_units_Z   2
loop_
 _symmetry_equiv_pos_site_id
 _symmetry_equiv_pos_as_xyz
  1  'x, y, z'
loop_
 _atom_site_type_symbol
 _atom_site_label
 _atom_site_symmetry_multiplicity
 _atom_site_fract_x
 _atom_site_fract_y
 _atom_site_fract_z
 _atom_site_occupancy
  Fe  Fe0  1  0.00220340  0.99658821  0.99559320  1
  Fe  Fe1  1  0.49748428  0.47050468  0.00503045  1
  Fe  Fe2  1  0.25251572  0.27949532  0.49496955  1
  Fe  Fe3  1  0.87500000  0.37500000  0.25000000  1
  Fe  Fe4  1  0.37500000  0.87500000  0.25000000  1
  Fe  Fe5  1  0.63247241  0.14335511  0.73505618  1
  Fe  Fe6  1  0.11752759  0.60664489  0.76494382  1
  Fe  Fe7  1  0.74779660  0.75341179  0.50440680  1
  O  O8  1  0.99951098  0.29354543  0.00097805  1
  O  O9  1  0.49922166  0.16780537  0.00155669  1
  O  O10  1  0.00072147  0.69923334  0.99855807  1
  O  O11  1  0.74927853  0.05076666  0.50144193  1
  O  O12  1  0.25077834  0.58219463  0.49844331  1
  O  O13  1  0.75048902  0.45645457  0.49902195  1
  F  F14  1  0.16978630  0.37500000  0.25000000  1
  F  F15  1  0.58021370  0.37500000  0.25000000  1
  F  F16  1  0.31997558  0.11721607  0.75651957  1
  F  F17  1  0.06754027  0.87500000  0.25000000  1
  F  F18  1  0.49846213  0.78886972  0.00307474  1
  F  F19  1  0.25153787  0.96113028  0.49692526  1
  F  F20  1  0.92350484  0.11721607  0.75651957  1
  F  F21  1  0.68245973  0.87500000  0.25000000  1
  F  F22  1  0.43002442  0.63278393  0.74348043  1
  F  F23  1  0.82649516  0.63278393  0.74348043  1
