# generated using pymatgen
data_Mn6OF11
_symmetry_space_group_name_H-M   'P 1'
_cell_length_a   5.27021423
_cell_length_b   5.27021423
_cell_length_c   15.62250296
_cell_angle_alpha   88.53065144
_cell_angle_beta   91.46934856
_cell_angle_gamma   90.86251576
_symmetry_Int_Tables_number   1
_chemical_formula_structural   Mn6OF11
_chemical_formula_sum   'Mn12 O2 F22'
_cell_volume   433.58718580
_cell_formula_units_Z   2
loop_
 _symmetry_equiv_pos_site_id
 _symmetry_equiv_pos_as_xyz
  1  'x, y, z'
loop_
 _atom_site_type_symbol
 _atom_site_label
 _atom_site_symmetry_multiplicity
 _atom_site_fract_x
 _atom_site_fract_y
 _atom_site_fract_z
 _atom_site_occupancy
  Mn  Mn0  1  0.00066493  0.99933507  0.00091313  1
  Mn  Mn1  1  0.00215991  0.48758335  0.16964446  1
  Mn  Mn2  1  0.96040046  0.03959954  0.32908132  1
  Mn  Mn3  1  0.00601334  0.52515768  0.50118648  1
  Mn  Mn4  1  0.00315818  0.99684182  0.66530947  1
  Mn  Mn5  1  0.99659112  0.49792213  0.83269945  1
  Mn  Mn6  1  0.51241665  0.99784009  0.16964446  1
  Mn  Mn7  1  0.50016089  0.49983911  0.00149118  1
  Mn  Mn8  1  0.48226130  0.51773870  0.65643396  1
  Mn  Mn9  1  0.47484232  0.99398666  0.50118648  1
  Mn  Mn10  1  0.52608927  0.47391073  0.32745608  1
  Mn  Mn11  1  0.50207787  0.00340888  0.83269945  1
  O  O12  1  0.27945839  0.72054161  0.58029472  1
  O  O13  1  0.75430808  0.24569192  0.25707194  1
  F  F14  1  0.23991794  0.19200743  0.25445991  1
  F  F15  1  0.23269118  0.76730882  0.08434105  1
  F  F16  1  0.21485061  0.22681576  0.58031521  1
  F  F17  1  0.17165391  0.82834609  0.40862599  1
  F  F18  1  0.22896305  0.23100577  0.91396687  1
  F  F19  1  0.22534274  0.77465726  0.75292355  1
  F  F20  1  0.26791043  0.26676459  0.08668842  1
  F  F21  1  0.30548035  0.69451965  0.24438017  1
  F  F22  1  0.26784469  0.73215531  0.91720784  1
  F  F23  1  0.28796412  0.28186968  0.74587684  1
  F  F24  1  0.28548336  0.31464888  0.42059824  1
  F  F25  1  0.72790331  0.27209669  0.91635982  1
  F  F26  1  0.70968778  0.29031222  0.58490735  1
  F  F27  1  0.73323541  0.73208957  0.08668842  1
  F  F28  1  0.68535112  0.71451664  0.42059824  1
  F  F29  1  0.71813032  0.71203588  0.74587684  1
  F  F30  1  0.79143281  0.20856719  0.42718235  1
  F  F31  1  0.76749568  0.23250432  0.08309126  1
  F  F32  1  0.78788846  0.21211154  0.75205806  1
  F  F33  1  0.77318424  0.78514939  0.58031521  1
  F  F34  1  0.76899423  0.77103695  0.91396687  1
  F  F35  1  0.80799257  0.76008206  0.25445991  1
