# generated using pymatgen
data_Li3Mn2(SiO4)2
_symmetry_space_group_name_H-M   'P 1'
_cell_length_a   6.32925016
_cell_length_b   10.80809919
_cell_length_c   5.27580466
_cell_angle_alpha   90.00000000
_cell_angle_beta   89.04651263
_cell_angle_gamma   90.00000000
_symmetry_Int_Tables_number   1
_chemical_formula_structural   Li3Mn2(SiO4)2
_chemical_formula_sum   'Li6 Mn4 Si4 O16'
_cell_volume   360.85285890
_cell_formula_units_Z   2
loop_
 _symmetry_equiv_pos_site_id
 _symmetry_equiv_pos_as_xyz
  1  'x, y, z'
loop_
 _atom_site_type_symbol
 _atom_site_label
 _atom_site_symmetry_multiplicity
 _atom_site_fract_x
 _atom_site_fract_y
 _atom_site_fract_z
 _atom_site_occupancy
  Li  Li0  1  0.99801218  0.16652896  0.70530530  1
  Li  Li1  1  0.50198782  0.66652896  0.79469470  1
  Li  Li2  1  0.50891809  0.32941650  0.20485265  1
  Li  Li3  1  0.50942488  0.82925016  0.28292901  1
  Li  Li4  1  0.99057512  0.32925016  0.21707099  1
  Li  Li5  1  0.99108191  0.82941650  0.29514735  1
  Mn  Mn6  1  0.25627857  0.41734148  0.81343869  1
  Mn  Mn7  1  0.24372143  0.91734148  0.68656131  1
  Mn  Mn8  1  0.76813792  0.58224075  0.18014733  1
  Mn  Mn9  1  0.73186208  0.08224075  0.31985267  1
  Si  Si10  1  0.24081822  0.08166266  0.19465186  1
  Si  Si11  1  0.25918178  0.58166266  0.30534814  1
  Si  Si12  1  0.75148604  0.42438319  0.68821400  1
  Si  Si13  1  0.74851396  0.92438319  0.81178600  1
  O  O14  1  0.04855191  0.66024166  0.24327390  1
  O  O15  1  0.03437998  0.15736890  0.31075495  1
  O  O16  1  0.21133682  0.06386558  0.88634283  1
  O  O17  1  0.24585234  0.43689186  0.18985650  1
  O  O18  1  0.28866318  0.56386558  0.61365717  1
  O  O19  1  0.25414766  0.93689186  0.31014350  1
  O  O20  1  0.45144809  0.16024166  0.25672610  1
  O  O21  1  0.46562102  0.65736890  0.18924505  1
  O  O22  1  0.53307737  0.85029999  0.70359272  1
  O  O23  1  0.53632827  0.35686545  0.81427776  1
  O  O24  1  0.75316058  0.56571502  0.78707363  1
  O  O25  1  0.74683942  0.06571502  0.71292637  1
  O  O26  1  0.74889278  0.41055384  0.37629204  1
  O  O27  1  0.75110722  0.91055384  0.12370796  1
  O  O28  1  0.96692263  0.35029999  0.79640728  1
  O  O29  1  0.96367173  0.85686545  0.68572224  1
