# generated using pymatgen
data_Fe2O3F
_symmetry_space_group_name_H-M   'P 1'
_cell_length_a   4.69813592
_cell_length_b   7.64879344
_cell_length_c   9.85834809
_cell_angle_alpha   110.27694540
_cell_angle_beta   93.82571907
_cell_angle_gamma   87.47012366
_symmetry_Int_Tables_number   1
_chemical_formula_structural   Fe2O3F
_chemical_formula_sum   'Fe10 O15 F5'
_cell_volume   331.48225971
_cell_formula_units_Z   5
loop_
 _symmetry_equiv_pos_site_id
 _symmetry_equiv_pos_as_xyz
  1  'x, y, z'
loop_
 _atom_site_type_symbol
 _atom_site_label
 _atom_site_symmetry_multiplicity
 _atom_site_fract_x
 _atom_site_fract_y
 _atom_site_fract_z
 _atom_site_occupancy
  Fe  Fe0  1  0.53497889  0.30622721  0.88541142  1
  Fe  Fe1  1  0.49909555  0.09895466  0.30024428  1
  Fe  Fe2  1  0.46599906  0.89451640  0.71413250  1
  Fe  Fe3  1  0.49452937  0.69696808  0.10148077  1
  Fe  Fe4  1  0.52783997  0.50705481  0.48939096  1
  Fe  Fe5  1  0.00348366  0.59986983  0.79691684  1
  Fe  Fe6  1  0.00506190  0.19870708  0.59750672  1
  Fe  Fe7  1  0.99740117  0.80298500  0.40378167  1
  Fe  Fe8  1  0.97740931  0.39124897  0.20718035  1
  Fe  Fe9  1  0.99714601  0.00390125  0.00269978  1
  O  O10  1  0.81514374  0.57079004  0.37682118  1
  O  O11  1  0.82483031  0.36351564  0.76846149  1
  O  O12  1  0.80904450  0.15326451  0.17259928  1
  O  O13  1  0.69038387  0.06316433  0.87995237  1
  O  O14  1  0.69153081  0.66210450  0.67788752  1
  O  O15  1  0.69582482  0.46132623  0.07424379  1
  O  O16  1  0.68882981  0.85847211  0.27901435  1
  O  O17  1  0.70199889  0.26240511  0.47573694  1
  O  O18  1  0.30591395  0.14000551  0.72372077  1
  O  O19  1  0.30283228  0.73949500  0.52331631  1
  O  O20  1  0.31303781  0.33890909  0.32175168  1
  O  O21  1  0.29970725  0.93515001  0.12411784  1
  O  O22  1  0.31200721  0.53899967  0.91927840  1
  O  O23  1  0.17937620  0.03403473  0.42806451  1
  O  O24  1  0.17628011  0.83899631  0.83147629  1
  F  F25  1  0.79900912  0.75851714  0.98057548  1
  F  F26  1  0.79691207  0.96207592  0.58314901  1
  F  F27  1  0.20570401  0.44041664  0.61719220  1
  F  F28  1  0.19370528  0.24409800  0.02458459  1
  F  F29  1  0.19498409  0.63382723  0.21931171  1
