# generated using pymatgen
data_Li3(FeO3)2
_symmetry_space_group_name_H-M   'P 1'
_cell_length_a   4.96100896
_cell_length_b   4.94352788
_cell_length_c   8.37632742
_cell_angle_alpha   89.99819777
_cell_angle_beta   90.00098228
_cell_angle_gamma   89.99898739
_symmetry_Int_Tables_number   1
_chemical_formula_structural   Li3(FeO3)2
_chemical_formula_sum   'Li6 Fe4 O12'
_cell_volume   205.42847589
_cell_formula_units_Z   2
loop_
 _symmetry_equiv_pos_site_id
 _symmetry_equiv_pos_as_xyz
  1  'x, y, z'
loop_
 _atom_site_type_symbol
 _atom_site_label
 _atom_site_symmetry_multiplicity
 _atom_site_fract_x
 _atom_site_fract_y
 _atom_site_fract_z
 _atom_site_occupancy
  Li  Li0  1  0.49995274  0.99996212  0.22605767  1
  Li  Li1  1  0.49999489  0.00001464  0.93065249  1
  Li  Li2  1  0.99995950  0.00000721  0.27922782  1
  Li  Li3  1  0.49999236  0.49999915  0.77921317  1
  Li  Li4  1  0.00000891  0.49999373  0.72601211  1
  Li  Li5  1  0.99998930  0.50001623  0.43057818  1
  Fe  Fe6  1  0.99999470  0.00001923  0.89852165  1
  Fe  Fe7  1  0.49999363  0.49998693  0.39849803  1
  Fe  Fe8  1  0.49999756  0.00001181  0.58674799  1
  Fe  Fe9  1  0.99999125  0.49999299  0.08671964  1
  O  O10  1  0.25789422  0.14928757  0.75248643  1
  O  O11  1  0.20514485  0.17107693  0.07278385  1
  O  O12  1  0.29302411  0.18541794  0.41328697  1
  O  O13  1  0.79300461  0.31457120  0.91323519  1
  O  O14  1  0.70512020  0.32889640  0.57277445  1
  O  O15  1  0.75788564  0.35069416  0.25247658  1
  O  O16  1  0.24214843  0.64928937  0.25248214  1
  O  O17  1  0.29485463  0.67109983  0.57278124  1
  O  O18  1  0.20696838  0.68541925  0.91325308  1
  O  O19  1  0.70697759  0.81453537  0.41326225  1
  O  O20  1  0.79485556  0.82892906  0.07277581  1
  O  O21  1  0.74205694  0.85069587  0.75245727  1
