# generated using pymatgen
data_Fe5O7F3
_symmetry_space_group_name_H-M   'P 1'
_cell_length_a   4.67069481
_cell_length_b   4.66050888
_cell_length_c   15.19630438
_cell_angle_alpha   90.21327057
_cell_angle_beta   89.66024324
_cell_angle_gamma   91.59909742
_symmetry_Int_Tables_number   1
_chemical_formula_structural   Fe5O7F3
_chemical_formula_sum   'Fe10 O14 F6'
_cell_volume   330.65360575
_cell_formula_units_Z   2
loop_
 _symmetry_equiv_pos_site_id
 _symmetry_equiv_pos_as_xyz
  1  'x, y, z'
loop_
 _atom_site_type_symbol
 _atom_site_label
 _atom_site_symmetry_multiplicity
 _atom_site_fract_x
 _atom_site_fract_y
 _atom_site_fract_z
 _atom_site_occupancy
  Fe  Fe0  1  0.00531739  0.00159315  0.00077448  1
  Fe  Fe1  1  0.96859859  0.98228739  0.20522377  1
  Fe  Fe2  1  0.03140141  0.01771261  0.39477623  1
  Fe  Fe3  1  0.99468261  0.99840685  0.59922552  1
  Fe  Fe4  1  0.00000000  0.00000000  0.80000000  1
  Fe  Fe5  1  0.53701905  0.47856813  0.09344233  1
  Fe  Fe6  1  0.46298095  0.52143187  0.50655767  1
  Fe  Fe7  1  0.50000000  0.50000000  0.30000000  1
  Fe  Fe8  1  0.52507377  0.47360612  0.70080221  1
  Fe  Fe9  1  0.47492623  0.52639388  0.89919779  1
  O  O10  1  0.20001136  0.80002509  0.29820162  1
  O  O11  1  0.18241475  0.82678687  0.50160258  1
  O  O12  1  0.18078211  0.82208545  0.90012646  1
  O  O13  1  0.30411714  0.30754908  0.99769999  1
  O  O14  1  0.31469788  0.32926362  0.40075407  1
  O  O15  1  0.30398373  0.29733904  0.60412112  1
  O  O16  1  0.30674754  0.30572333  0.80016547  1
  O  O17  1  0.69601627  0.70266096  0.99587888  1
  O  O18  1  0.68530212  0.67073638  0.19924593  1
  O  O19  1  0.69588286  0.69245092  0.60230001  1
  O  O20  1  0.69325246  0.69427667  0.79983453  1
  O  O21  1  0.81758525  0.17321313  0.09839742  1
  O  O22  1  0.79998864  0.19997491  0.30179838  1
  O  O23  1  0.81921789  0.17791455  0.69987354  1
  F  F24  1  0.20024505  0.78730184  0.10129451  1
  F  F25  1  0.20222474  0.79277292  0.70041963  1
  F  F26  1  0.30149839  0.28520079  0.19573605  1
  F  F27  1  0.69850161  0.71479921  0.40426395  1
  F  F28  1  0.79975495  0.21269816  0.49870549  1
  F  F29  1  0.79777526  0.20722708  0.89958037  1
