# generated using pymatgen
data_Al2O3
_symmetry_space_group_name_H-M   'P 1'
_cell_length_a   13.84234104
_cell_length_b   2.91370935
_cell_length_c   7.11443813
_cell_angle_alpha   90.00000000
_cell_angle_beta   102.87767100
_cell_angle_gamma   90.00000000
_symmetry_Int_Tables_number   1
_chemical_formula_structural   Al2O3
_chemical_formula_sum   'Al12 O18'
_cell_volume   279.72632483
_cell_formula_units_Z   6
loop_
 _symmetry_equiv_pos_site_id
 _symmetry_equiv_pos_as_xyz
  1  'x, y, z'
loop_
 _atom_site_type_symbol
 _atom_site_label
 _atom_site_symmetry_multiplicity
 _atom_site_fract_x
 _atom_site_fract_y
 _atom_site_fract_z
 _atom_site_occupancy
  Al  Al0  1  0.02784378  0.25000000  0.17390191  1
  Al  Al1  1  0.11274258  0.25000000  0.56172955  1
  Al  Al2  1  0.21273257  0.75000000  0.19762120  1
  Al  Al3  1  0.29761218  0.75000000  0.81317017  1
  Al  Al4  1  0.41226607  0.25000000  0.53334035  1
  Al  Al5  1  0.39757048  0.25000000  0.15133610  1
  Al  Al6  1  0.60242952  0.75000000  0.84866390  1
  Al  Al7  1  0.58773393  0.75000000  0.46665965  1
  Al  Al8  1  0.70238782  0.25000000  0.18682983  1
  Al  Al9  1  0.78726743  0.25000000  0.80237880  1
  Al  Al10  1  0.88725742  0.75000000  0.43827045  1
  Al  Al11  1  0.97215622  0.75000000  0.82609809  1
  O  O12  1  0.00208378  0.75000000  0.34210044  1
  O  O13  1  0.16777716  0.75000000  0.68530325  1
  O  O14  1  0.07765003  0.75000000  0.04102913  1
  O  O15  1  0.16030250  0.25000000  0.33295373  1
  O  O16  1  0.32984508  0.25000000  0.69487140  1
  O  O17  1  0.25679805  0.25000000  0.05458246  1
  O  O18  1  0.34500782  0.75000000  0.35776295  1
  O  O19  1  0.40677258  0.75000000  0.01326195  1
  O  O20  1  0.49561567  0.75000000  0.64609638  1
  O  O21  1  0.50438433  0.25000000  0.35390362  1
  O  O22  1  0.59322742  0.25000000  0.98673805  1
  O  O23  1  0.65499218  0.25000000  0.64223705  1
  O  O24  1  0.74320195  0.75000000  0.94541754  1
  O  O25  1  0.67015492  0.75000000  0.30512860  1
  O  O26  1  0.83969750  0.75000000  0.66704627  1
  O  O27  1  0.92234997  0.25000000  0.95897087  1
  O  O28  1  0.83222284  0.25000000  0.31469675  1
  O  O29  1  0.99791622  0.25000000  0.65789956  1
