# generated using pymatgen
data_Li2Fe4OF8
_symmetry_space_group_name_H-M   'P 1'
_cell_length_a   8.89966920
_cell_length_b   8.89966920
_cell_length_c   10.67449008
_cell_angle_alpha   85.71374527
_cell_angle_beta   94.28625473
_cell_angle_gamma   117.73063067
_symmetry_Int_Tables_number   1
_chemical_formula_structural   Li2Fe4OF8
_chemical_formula_sum   'Li8 Fe16 O4 F32'
_cell_volume   745.49948264
_cell_formula_units_Z   4
loop_
 _symmetry_equiv_pos_site_id
 _symmetry_equiv_pos_as_xyz
  1  'x, y, z'
loop_
 _atom_site_type_symbol
 _atom_site_label
 _atom_site_symmetry_multiplicity
 _atom_site_fract_x
 _atom_site_fract_y
 _atom_site_fract_z
 _atom_site_occupancy
  Li  Li0  1  0.32959386  0.67538349  0.70814116  1
  Li  Li1  1  0.32461651  0.67040614  0.20814116  1
  Li  Li2  1  0.99124397  0.00045601  0.49513544  1
  Li  Li3  1  0.99954399  0.00875603  0.99513544  1
  Li  Li4  1  0.64781208  0.32406677  0.79722304  1
  Li  Li5  1  0.67593323  0.35218792  0.29722304  1
  Li  Li6  1  0.69957978  0.00089962  0.74529260  1
  Li  Li7  1  0.99910038  0.30042022  0.24529260  1
  Fe  Fe8  1  0.00765025  0.68710042  0.75526591  1
  Fe  Fe9  1  0.31289958  0.99234975  0.25526591  1
  Fe  Fe10  1  0.33244200  0.90730555  0.94255492  1
  Fe  Fe11  1  0.09269445  0.66755800  0.44255492  1
  Fe  Fe12  1  0.15209273  0.49393927  0.95529272  1
  Fe  Fe13  1  0.50606073  0.84790727  0.45529272  1
  Fe  Fe14  1  0.64059909  0.68866174  0.94785079  1
  Fe  Fe15  1  0.31133826  0.35940091  0.44785079  1
  Fe  Fe16  1  0.16265770  0.15801065  0.74894829  1
  Fe  Fe17  1  0.84198935  0.83734230  0.24894829  1
  Fe  Fe18  1  0.67947498  0.64818350  0.53025774  1
  Fe  Fe19  1  0.35181650  0.32052502  0.03025774  1
  Fe  Fe20  1  0.48084673  0.14640701  0.54398255  1
  Fe  Fe21  1  0.85359299  0.51915327  0.04398255  1
  Fe  Fe22  1  0.94155888  0.35593927  0.58395519  1
  Fe  Fe23  1  0.64406073  0.05844112  0.08395519  1
  O  O24  1  0.21676336  0.70649171  0.85327609  1
  O  O25  1  0.08544212  0.58705107  0.61884579  1
  O  O26  1  0.29350829  0.78323664  0.35327609  1
  O  O27  1  0.41294893  0.91455788  0.11884579  1
  F  F28  1  0.06581562  0.92652554  0.66360015  1
  F  F29  1  0.07347446  0.93418438  0.16360015  1
  F  F30  1  0.43296146  0.91114063  0.61829925  1
  F  F31  1  0.08885937  0.56703854  0.11829925  1
  F  F32  1  0.57050951  0.76596139  0.79421831  1
  F  F33  1  0.26694086  0.39243042  0.83889857  1
  F  F34  1  0.23403861  0.42949049  0.29421831  1
  F  F35  1  0.60756958  0.73305914  0.33889857  1
  F  F36  1  0.73691547  0.90532437  0.55354726  1
  F  F37  1  0.42214658  0.57831740  0.55439136  1
  F  F38  1  0.09591971  0.23984163  0.56342159  1
  F  F39  1  0.09467563  0.26308453  0.05354726  1
  F  F40  1  0.42168260  0.57785342  0.05439136  1
  F  F41  1  0.76015837  0.90408029  0.06342159  1
  F  F42  1  0.24644808  0.09394703  0.93168075  1
  F  F43  1  0.59818105  0.43097094  0.95203236  1
  F  F44  1  0.89715011  0.74406139  0.93172192  1
  F  F45  1  0.90605297  0.75355192  0.43168075  1
  F  F46  1  0.56902906  0.40181895  0.45203236  1
  F  F47  1  0.25593861  0.10284989  0.43172192  1
  F  F48  1  0.40699549  0.23498673  0.68630961  1
  F  F49  1  0.75059651  0.57174834  0.69447597  1
  F  F50  1  0.76501327  0.59300451  0.18630961  1
  F  F51  1  0.42825166  0.24940349  0.19447597  1
  F  F52  1  0.88825208  0.42689316  0.88417794  1
  F  F53  1  0.58857775  0.08971758  0.88804094  1
  F  F54  1  0.57310684  0.11174792  0.38417794  1
  F  F55  1  0.71559347  0.21380909  0.65028142  1
  F  F56  1  0.91028242  0.41142225  0.38804094  1
  F  F57  1  0.78619091  0.28440653  0.15028142  1
  F  F58  1  0.93277353  0.07796109  0.81887839  1
  F  F59  1  0.92203891  0.06722647  0.31887839  1
