# generated using pymatgen
data_Li17Ag12F29
_symmetry_space_group_name_H-M   'P 1'
_cell_length_a   10.90464923
_cell_length_b   10.90464953
_cell_length_c   10.90464970
_cell_angle_alpha   119.99999713
_cell_angle_beta   60.00000138
_cell_angle_gamma   119.99999911
_symmetry_Int_Tables_number   1
_chemical_formula_structural   Li17Ag12F29
_chemical_formula_sum   'Li17 Ag12 F29'
_cell_volume   916.89615238
_cell_formula_units_Z   1
loop_
 _symmetry_equiv_pos_site_id
 _symmetry_equiv_pos_as_xyz
  1  'x, y, z'
loop_
 _atom_site_type_symbol
 _atom_site_label
 _atom_site_symmetry_multiplicity
 _atom_site_fract_x
 _atom_site_fract_y
 _atom_site_fract_z
 _atom_site_occupancy
  Li  Li0  1  0.14717990  0.85282010  0.14717990  1
  Li  Li1  1  0.01311953  0.67103951  0.32896049  1
  Li  Li2  1  0.14717990  0.85282010  0.55846029  1
  Li  Li3  1  0.14717990  0.44153971  0.14717990  1
  Li  Li4  1  0.32896049  0.98688047  0.32896049  1
  Li  Li5  1  0.32896049  0.67103951  0.01311953  1
  Li  Li6  1  0.32896049  0.67103951  0.32896049  1
  Li  Li7  1  0.55846029  0.85282010  0.14717990  1
  Li  Li8  1  0.09201989  0.36400630  0.63599370  1
  Li  Li9  1  0.63599370  0.36400630  0.09201989  1
  Li  Li10  1  0.63599370  0.90798011  0.63599370  1
  Li  Li11  1  0.50000000  0.50000000  0.50000000  1
  Li  Li12  1  0.63599370  0.36400630  0.63599370  1
  Li  Li13  1  0.44237638  0.14745846  0.85254154  1
  Li  Li14  1  0.85254154  0.55762362  0.85254154  1
  Li  Li15  1  0.85254154  0.14745846  0.44237638  1
  Li  Li16  1  0.85254154  0.14745846  0.85254154  1
  Ag  Ag17  1  0.29809036  0.29809036  0.29809036  1
  Ag  Ag18  1  0.29809036  0.70190964  0.70190964  1
  Ag  Ag19  1  0.29809036  0.29809036  0.70190964  1
  Ag  Ag20  1  0.70190964  0.70190964  0.29809036  1
  Ag  Ag21  1  0.70190964  0.29809036  0.29809036  1
  Ag  Ag22  1  0.70190964  0.70190964  0.70190964  1
  Ag  Ag23  1  0.50532435  0.00532435  0.50532435  1
  Ag  Ag24  1  0.50532435  0.49467565  0.99467565  1
  Ag  Ag25  1  0.99467565  0.49467565  0.50532435  1
  Ag  Ag26  1  0.50532435  0.00532435  0.99467565  1
  Ag  Ag27  1  0.99467565  0.00532435  0.50532435  1
  Ag  Ag28  1  0.99467565  0.49467565  0.99467565  1
  F  F29  1  0.25000000  0.75000000  0.25000000  1
  F  F30  1  0.03027876  0.24927243  0.46826609  1
  F  F31  1  0.03027876  0.53173391  0.75072757  1
  F  F32  1  0.24942899  0.46516628  0.24942899  1
  F  F33  1  0.24942899  0.75057101  0.53483372  1
  F  F34  1  0.03027876  0.24927243  0.75072757  1
  F  F35  1  0.53483372  0.75057101  0.24942899  1
  F  F36  1  0.24942899  0.03369070  0.24942899  1
  F  F37  1  0.24942899  0.75057101  0.96630930  1
  F  F38  1  0.46826609  0.24927243  0.03027876  1
  F  F39  1  0.46826609  0.96972124  0.75072757  1
  F  F40  1  0.29453035  0.43151012  0.56848988  1
  F  F41  1  0.24942899  0.03369070  0.53483372  1
  F  F42  1  0.24942899  0.46516628  0.96630930  1
  F  F43  1  0.56848988  0.43151012  0.29453035  1
  F  F44  1  0.56848988  0.70546965  0.56848988  1
  F  F45  1  0.75072757  0.53173391  0.03027876  1
  F  F46  1  0.75072757  0.96972124  0.46826609  1
  F  F47  1  0.56848988  0.43151012  0.56848988  1
  F  F48  1  0.75072757  0.24927243  0.03027876  1
  F  F49  1  0.75072757  0.96972124  0.75072757  1
  F  F50  1  0.53483372  0.75057101  0.96630930  1
  F  F51  1  0.53483372  0.03369070  0.24942899  1
  F  F52  1  0.96630930  0.75057101  0.24942899  1
  F  F53  1  0.46826609  0.24927243  0.75072757  1
  F  F54  1  0.96630930  0.75057101  0.53483372  1
  F  F55  1  0.96630930  0.46516628  0.24942899  1
  F  F56  1  0.75072757  0.24927243  0.46826609  1
  F  F57  1  0.75072757  0.53173391  0.75072757  1
