# generated using pymatgen
data_TiO2
_symmetry_space_group_name_H-M   'P 1'
_cell_length_a   2.94819463
_cell_length_b   5.01793431
_cell_length_c   10.23522302
_cell_angle_alpha   90.00000000
_cell_angle_beta   90.00000000
_cell_angle_gamma   107.08354794
_symmetry_Int_Tables_number   1
_chemical_formula_structural   TiO2
_chemical_formula_sum   'Ti4 O8'
_cell_volume   144.73735428
_cell_formula_units_Z   4
loop_
 _symmetry_equiv_pos_site_id
 _symmetry_equiv_pos_as_xyz
  1  'x, y, z'
loop_
 _atom_site_type_symbol
 _atom_site_label
 _atom_site_symmetry_multiplicity
 _atom_site_fract_x
 _atom_site_fract_y
 _atom_site_fract_z
 _atom_site_occupancy
  Ti  Ti0  1  0.86691177  0.73382454  0.08314167  1
  Ti  Ti1  1  0.13308823  0.26617546  0.91685833  1
  Ti  Ti2  1  0.86691177  0.73382454  0.41685833  1
  Ti  Ti3  1  0.13308823  0.26617546  0.58314167  1
  O  O4  1  0.24559930  0.49119860  0.39713417  1
  O  O5  1  0.75440070  0.50880140  0.60286583  1
  O  O6  1  0.75440070  0.50880140  0.89713417  1
  O  O7  1  0.24559930  0.49119860  0.10286583  1
  O  O8  1  0.93423438  0.86846975  0.25000000  1
  O  O9  1  0.06576562  0.13153025  0.75000000  1
  O  O10  1  0.50000000  0.00000000  0.00000000  1
  O  O11  1  0.50000000  0.00000000  0.50000000  1
