# generated using pymatgen
data_Li2FeO2F
_symmetry_space_group_name_H-M   'P 1'
_cell_length_a   5.13115615
_cell_length_b   5.13115615
_cell_length_c   5.21672762
_cell_angle_alpha   78.38977299
_cell_angle_beta   101.61022701
_cell_angle_gamma   62.38910518
_symmetry_Int_Tables_number   1
_chemical_formula_structural   Li2FeO2F
_chemical_formula_sum   'Li4 Fe2 O4 F2'
_cell_volume   112.14457486
_cell_formula_units_Z   2
loop_
 _symmetry_equiv_pos_site_id
 _symmetry_equiv_pos_as_xyz
  1  'x, y, z'
loop_
 _atom_site_type_symbol
 _atom_site_label
 _atom_site_symmetry_multiplicity
 _atom_site_fract_x
 _atom_site_fract_y
 _atom_site_fract_z
 _atom_site_occupancy
  Li  Li0  1  0.25785590  0.24507952  0.74396180  1
  Li  Li1  1  0.56198660  0.60667276  0.77219871  1
  Li  Li2  1  0.39332724  0.43801340  0.27219871  1
  Li  Li3  1  0.75492048  0.74214410  0.24396180  1
  Fe  Fe4  1  0.93234659  0.86586927  0.74628225  1
  Fe  Fe5  1  0.13413073  0.06765341  0.24628225  1
  O  O6  1  0.14985662  0.70246672  0.49918236  1
  O  O7  1  0.29753328  0.85014338  0.99918236  1
  O  O8  1  0.99279418  0.49462501  0.00365430  1
  O  O9  1  0.50537499  0.00720582  0.50365430  1
  F  F10  1  0.68016120  0.16028881  0.98471958  1
  F  F11  1  0.83971119  0.31983880  0.48471958  1
