# generated using pymatgen
data_TiO2
_symmetry_space_group_name_H-M   'P 1'
_cell_length_a   9.59644587
_cell_length_b   11.04782143
_cell_length_c   3.01680616
_cell_angle_alpha   89.87146669
_cell_angle_beta   89.96022430
_cell_angle_gamma   89.98269227
_symmetry_Int_Tables_number   1
_chemical_formula_structural   TiO2
_chemical_formula_sum   'Ti8 O16'
_cell_volume   319.84035031
_cell_formula_units_Z   8
loop_
 _symmetry_equiv_pos_site_id
 _symmetry_equiv_pos_as_xyz
  1  'x, y, z'
loop_
 _atom_site_type_symbol
 _atom_site_label
 _atom_site_symmetry_multiplicity
 _atom_site_fract_x
 _atom_site_fract_y
 _atom_site_fract_z
 _atom_site_occupancy
  Ti  Ti0  1  0.01721275  0.13058754  0.25000716  1
  Ti  Ti1  1  0.23583312  0.34347627  0.74758115  1
  Ti  Ti2  1  0.26433734  0.84402701  0.25195883  1
  Ti  Ti3  1  0.48219333  0.63009760  0.74965428  1
  Ti  Ti4  1  0.51726508  0.36725066  0.24932698  1
  Ti  Ti5  1  0.73616645  0.15382063  0.74761823  1
  Ti  Ti6  1  0.76429573  0.65388513  0.25113344  1
  Ti  Ti7  1  0.98253168  0.86724149  0.74966062  1
  O  O8  1  0.09496858  0.95456667  0.24962173  1
  O  O9  1  0.12467653  0.18786769  0.74914315  1
  O  O10  1  0.13289857  0.76770924  0.75297543  1
  O  O11  1  0.15058548  0.40476543  0.24782528  1
  O  O12  1  0.34831990  0.90663568  0.74993373  1
  O  O13  1  0.36702877  0.26749888  0.25277457  1
  O  O14  1  0.37349466  0.68743343  0.25069678  1
  O  O15  1  0.40445302  0.45448282  0.74936558  1
  O  O16  1  0.59455084  0.54332218  0.25043988  1
  O  O17  1  0.62456252  0.30942092  0.74974077  1
  O  O18  1  0.63281576  0.72951847  0.75177084  1
  O  O19  1  0.65062775  0.09312694  0.24910676  1
  O  O20  1  0.84796773  0.59062625  0.75025204  1
  O  O21  1  0.86719231  0.23048915  0.25241749  1
  O  O22  1  0.87335751  0.81059981  0.25067169  1
  O  O23  1  0.90463659  0.04300011  0.74936358  1
