# generated using pymatgen
data_CeHfO4
_symmetry_space_group_name_H-M   'P 1'
_cell_length_a   7.45785111
_cell_length_b   10.55577228
_cell_length_c   10.55797832
_cell_angle_alpha   90.01682823
_cell_angle_beta   90.01096961
_cell_angle_gamma   45.05060342
_symmetry_Int_Tables_number   1
_chemical_formula_structural   CeHfO4
_chemical_formula_sum   'Ce8 Hf8 O32'
_cell_volume   588.23748911
_cell_formula_units_Z   8
loop_
 _symmetry_equiv_pos_site_id
 _symmetry_equiv_pos_as_xyz
  1  'x, y, z'
loop_
 _atom_site_type_symbol
 _atom_site_label
 _atom_site_symmetry_multiplicity
 _atom_site_fract_x
 _atom_site_fract_y
 _atom_site_fract_z
 _atom_site_occupancy
  Ce  Ce0  1  0.24782511  0.25171656  0.37383557  1
  Ce  Ce1  1  0.25066382  0.75023330  0.87433082  1
  Ce  Ce2  1  0.24829493  0.50183754  0.62394813  1
  Ce  Ce3  1  0.24988756  0.00025844  0.12411151  1
  Ce  Ce4  1  0.74870308  0.50139225  0.62402030  1
  Ce  Ce5  1  0.75006540  0.99997116  0.12395071  1
  Ce  Ce6  1  0.74774251  0.75161884  0.37409527  1
  Ce  Ce7  1  0.75032309  0.25018246  0.87384467  1
  Hf  Hf8  1  0.24677124  0.50012275  0.12202799  1
  Hf  Hf9  1  0.24450591  0.00210693  0.62196379  1
  Hf  Hf10  1  0.26096314  0.73859273  0.36776262  1
  Hf  Hf11  1  0.24556541  0.25521324  0.87551609  1
  Hf  Hf12  1  0.75261652  0.24668429  0.37537209  1
  Hf  Hf13  1  0.73728004  0.76324884  0.86725295  1
  Hf  Hf14  1  0.75429350  0.49992519  0.12133445  1
  Hf  Hf15  1  0.75191336  0.00203229  0.62144253  1
  O  O16  1  0.01964720  0.73773278  0.24689515  1
  O  O17  1  0.00283878  0.99612215  0.26305336  1
  O  O18  1  0.99717046  0.73925956  0.99689418  1
  O  O19  1  0.98546392  0.01257446  0.50457071  1
  O  O20  1  0.00162713  0.99923478  0.00015010  1
  O  O21  1  0.00004022  0.00175482  0.74026969  1
  O  O22  1  0.00410853  0.76195871  0.49679192  1
  O  O23  1  0.02327291  0.24093742  0.74756321  1
  O  O24  1  0.50235102  0.99897860  0.51175124  1
  O  O25  1  0.50138902  0.26222714  0.24716774  1
  O  O26  1  0.50166264  0.99753280  0.75148386  1
  O  O27  1  0.49729268  0.76257984  0.74553657  1
  O  O28  1  0.46904071  0.76451506  0.49569635  1
  O  O29  1  0.48200002  0.26039302  0.99712707  1
  O  O30  1  0.50508406  0.49612769  0.48880237  1
  O  O31  1  0.49959016  0.50048797  0.74938807  1
  O  O32  1  0.49828927  0.00160083  0.24943206  1
  O  O33  1  0.49592319  0.00438719  0.98884304  1
  O  O34  1  0.51441223  0.24236265  0.49694211  1
  O  O35  1  0.52738817  0.73826270  0.99550634  1
  O  O36  1  0.50214283  0.73893293  0.24533252  1
  O  O37  1  0.49436783  0.50539043  0.25138212  1
  O  O38  1  0.49742058  0.23955157  0.74703229  1
  O  O39  1  0.49898916  0.50142056  0.01168180  1
  O  O40  1  0.97371857  0.26160845  0.24755372  1
  O  O41  1  0.99566399  0.50352305  0.49972118  1
  O  O42  1  0.01004432  0.49129246  0.00384989  1
  O  O43  1  0.99955308  0.49947940  0.23986025  1
  O  O44  1  0.97726342  0.76461526  0.74665953  1
  O  O45  1  0.99602953  0.50529329  0.76254670  1
  O  O46  1  0.99784042  0.26128455  0.99756177  1
  O  O47  1  0.00303632  0.23953807  0.49756762  1
