# generated using pymatgen
data_LiCo3OF5
_symmetry_space_group_name_H-M   'P 1'
_cell_length_a   6.18596322
_cell_length_b   6.17287148
_cell_length_c   6.02539302
_cell_angle_alpha   92.21886862
_cell_angle_beta   91.39414520
_cell_angle_gamma   92.31214848
_symmetry_Int_Tables_number   1
_chemical_formula_structural   LiCo3OF5
_chemical_formula_sum   'Li2 Co6 O2 F10'
_cell_volume   229.64362944
_cell_formula_units_Z   2
loop_
 _symmetry_equiv_pos_site_id
 _symmetry_equiv_pos_as_xyz
  1  'x, y, z'
loop_
 _atom_site_type_symbol
 _atom_site_label
 _atom_site_symmetry_multiplicity
 _atom_site_fract_x
 _atom_site_fract_y
 _atom_site_fract_z
 _atom_site_occupancy
  Li  Li0  1  0.50150365  0.50680258  0.49297408  1
  Li  Li1  1  0.01366903  0.01685163  0.00591261  1
  Co  Co2  1  0.44310067  0.90582900  0.72663184  1
  Co  Co3  1  0.24164453  0.54734694  0.06910573  1
  Co  Co4  1  0.08394783  0.26495610  0.58483680  1
  Co  Co5  1  0.89971306  0.75556039  0.44463021  1
  Co  Co6  1  0.76782565  0.42955510  0.93328399  1
  Co  Co7  1  0.56533323  0.05420943  0.25050896  1
  O  O8  1  0.06315669  0.32801772  0.90773074  1
  O  O9  1  0.59864612  0.82809487  0.45688602  1
  F  F10  1  0.10047910  0.91010924  0.68115144  1
  F  F11  1  0.30827275  0.89906008  0.06778173  1
  F  F12  1  0.17903717  0.54990316  0.40366696  1
  F  F13  1  0.47126668  0.58616157  0.82126169  1
  F  F14  1  0.54215278  0.38605828  0.18208588  1
  F  F15  1  0.39854113  0.19686530  0.54371014  1
  F  F16  1  0.91090003  0.70645646  0.09627839  1
  F  F17  1  0.80067989  0.45650266  0.58595224  1
  F  F18  1  0.67827756  0.07213451  0.92222970  1
  F  F19  1  0.93185345  0.09952297  0.32337985  1
