# generated using pymatgen
data_Al5(BiSe4)3
_symmetry_space_group_name_H-M   'P 1'
_cell_length_a   7.91134743
_cell_length_b   7.91134743
_cell_length_c   37.76785315
_cell_angle_alpha   90.00000000
_cell_angle_beta   90.00000000
_cell_angle_gamma   90.00000000
_symmetry_Int_Tables_number   1
_chemical_formula_structural   Al5(BiSe4)3
_chemical_formula_sum   'Al20 Bi12 Se48'
_cell_volume   2363.86795374
_cell_formula_units_Z   4
loop_
 _symmetry_equiv_pos_site_id
 _symmetry_equiv_pos_as_xyz
  1  'x, y, z'
loop_
 _atom_site_type_symbol
 _atom_site_label
 _atom_site_symmetry_multiplicity
 _atom_site_fract_x
 _atom_site_fract_y
 _atom_site_fract_z
 _atom_site_occupancy
  Al  Al0  1  0.25000000  0.75000000  0.99960998  1
  Al  Al1  1  0.25000000  0.75000000  0.33372302  1
  Al  Al2  1  0.25000000  0.75000000  0.66666700  1
  Al  Al3  1  0.25000000  0.75000000  0.08376285  1
  Al  Al4  1  0.25000000  0.75000000  0.74957015  1
  Al  Al5  1  0.25000000  0.75000000  0.16666700  1
  Al  Al6  1  0.25000000  0.75000000  0.49960998  1
  Al  Al7  1  0.25000000  0.75000000  0.83372302  1
  Al  Al8  1  0.75000000  0.25000000  0.24931283  1
  Al  Al9  1  0.75000000  0.25000000  0.58402017  1
  Al  Al10  1  0.75000000  0.25000000  0.91666700  1
  Al  Al11  1  0.75000000  0.25000000  0.49969943  1
  Al  Al12  1  0.75000000  0.25000000  0.83363357  1
  Al  Al13  1  0.75000000  0.25000000  0.99969943  1
  Al  Al14  1  0.75000000  0.25000000  0.33363357  1
  Al  Al15  1  0.25000000  0.75000000  0.24957015  1
  Al  Al16  1  0.25000000  0.75000000  0.58376285  1
  Al  Al17  1  0.75000000  0.25000000  0.08402017  1
  Al  Al18  1  0.75000000  0.25000000  0.41666700  1
  Al  Al19  1  0.75000000  0.25000000  0.74931283  1
  Bi  Bi20  1  0.25000000  0.25000000  0.04151995  1
  Bi  Bi21  1  0.25000000  0.25000000  0.37534760  1
  Bi  Bi22  1  0.25000000  0.25000000  0.70834378  1
  Bi  Bi23  1  0.75000000  0.75000000  0.29181405  1
  Bi  Bi24  1  0.75000000  0.75000000  0.62498922  1
  Bi  Bi25  1  0.75000000  0.75000000  0.95798540  1
  Bi  Bi26  1  0.75000000  0.75000000  0.20834378  1
  Bi  Bi27  1  0.75000000  0.75000000  0.54151995  1
  Bi  Bi28  1  0.75000000  0.75000000  0.87534760  1
  Bi  Bi29  1  0.25000000  0.25000000  0.12498922  1
  Bi  Bi30  1  0.25000000  0.25000000  0.45798540  1
  Bi  Bi31  1  0.25000000  0.25000000  0.79181405  1
  Se  Se32  1  0.58731305  0.41828298  0.04124178  1
  Se  Se33  1  0.58683037  0.41870524  0.37518531  1
  Se  Se34  1  0.58428495  0.41122422  0.70887042  1
  Se  Se35  1  0.58877578  0.41571505  0.20887042  1
  Se  Se36  1  0.58171702  0.41268695  0.54124178  1
  Se  Se37  1  0.58129476  0.41316963  0.87518531  1
  Se  Se38  1  0.08692639  0.58116941  0.20827186  1
  Se  Se39  1  0.08693191  0.58252918  0.54230137  1
  Se  Se40  1  0.08332101  0.59142889  0.87443880  1
  Se  Se41  1  0.91268695  0.08171702  0.04124178  1
  Se  Se42  1  0.91316963  0.08129476  0.37518531  1
  Se  Se43  1  0.91571505  0.08877578  0.70887042  1
  Se  Se44  1  0.58171702  0.08731305  0.29209122  1
  Se  Se45  1  0.58877578  0.08428495  0.62446258  1
  Se  Se46  1  0.58129476  0.08683037  0.95814869  1
  Se  Se47  1  0.41883059  0.58692639  0.12506114  1
  Se  Se48  1  0.40857111  0.58332101  0.45889520  1
  Se  Se49  1  0.41747082  0.58693191  0.79103163  1
  Se  Se50  1  0.58428495  0.08877578  0.12446258  1
  Se  Se51  1  0.58683037  0.08129476  0.45814869  1
  Se  Se52  1  0.58731305  0.08171702  0.79209122  1
  Se  Se53  1  0.08252918  0.58693191  0.04230137  1
  Se  Se54  1  0.09142889  0.58332101  0.37443880  1
  Se  Se55  1  0.08116941  0.58692639  0.70827186  1
  Se  Se56  1  0.08116941  0.91307361  0.12506114  1
  Se  Se57  1  0.09142889  0.91667899  0.45889520  1
  Se  Se58  1  0.08252918  0.91306809  0.79103163  1
  Se  Se59  1  0.91828298  0.41268695  0.29209122  1
  Se  Se60  1  0.91122422  0.41571505  0.62446258  1
  Se  Se61  1  0.91870524  0.41316963  0.95814869  1
  Se  Se62  1  0.41747082  0.91306809  0.04230137  1
  Se  Se63  1  0.40857111  0.91667899  0.37443880  1
  Se  Se64  1  0.41883059  0.91307361  0.70827186  1
  Se  Se65  1  0.91122422  0.08428495  0.20887042  1
  Se  Se66  1  0.91828298  0.08731305  0.54124178  1
  Se  Se67  1  0.91870524  0.08683037  0.87518531  1
  Se  Se68  1  0.41307361  0.91883059  0.20827186  1
  Se  Se69  1  0.41306809  0.91747082  0.54230137  1
  Se  Se70  1  0.41667899  0.90857111  0.87443880  1
  Se  Se71  1  0.08693191  0.91747082  0.29103163  1
  Se  Se72  1  0.08692639  0.91883059  0.62506114  1
  Se  Se73  1  0.08332101  0.90857111  0.95889520  1
  Se  Se74  1  0.41306809  0.58252918  0.29103163  1
  Se  Se75  1  0.41307361  0.58116941  0.62506114  1
  Se  Se76  1  0.41667899  0.59142889  0.95889520  1
  Se  Se77  1  0.91571505  0.41122422  0.12446258  1
  Se  Se78  1  0.91316963  0.41870524  0.45814869  1
  Se  Se79  1  0.91268695  0.41828298  0.79209122  1
