# generated using pymatgen
data_LiMnCr2O6
_symmetry_space_group_name_H-M   'P 1'
_cell_length_a   6.61178576
_cell_length_b   2.93379945
_cell_length_c   5.98262336
_cell_angle_alpha   89.69871838
_cell_angle_beta   103.01541458
_cell_angle_gamma   77.12927607
_symmetry_Int_Tables_number   1
_chemical_formula_structural   LiMnCr2O6
_chemical_formula_sum   'Li1 Mn1 Cr2 O6'
_cell_volume   110.03887530
_cell_formula_units_Z   1
loop_
 _symmetry_equiv_pos_site_id
 _symmetry_equiv_pos_as_xyz
  1  'x, y, z'
loop_
 _atom_site_type_symbol
 _atom_site_label
 _atom_site_symmetry_multiplicity
 _atom_site_fract_x
 _atom_site_fract_y
 _atom_site_fract_z
 _atom_site_occupancy
  Li  Li0  1  0.66795283  0.66597667  0.16448455  1
  Mn  Mn1  1  0.32588937  0.33753465  0.34523638  1
  Cr  Cr2  1  0.66488050  0.66596895  0.66843639  1
  Cr  Cr3  1  0.01520965  0.99788020  0.98663335  1
  O  O4  1  0.34474490  0.82678593  0.55865360  1
  O  O5  1  0.70004091  0.14731240  0.90769449  1
  O  O6  1  0.32520959  0.83871142  0.12514077  1
  O  O7  1  0.63422591  0.18352816  0.42990217  1
  O  O8  1  0.98591872  0.50146431  0.77796260  1
  O  O9  1  0.01796162  0.49382031  0.21216469  1
