# generated using pymatgen
data_Co3(OF2)2
_symmetry_space_group_name_H-M   'P 1'
_cell_length_a   4.67668202
_cell_length_b   7.70454049
_cell_length_c   5.62233333
_cell_angle_alpha   92.96486470
_cell_angle_beta   91.77845351
_cell_angle_gamma   88.42473507
_symmetry_Int_Tables_number   1
_chemical_formula_structural   Co3(OF2)2
_chemical_formula_sum   'Co6 O4 F8'
_cell_volume   202.14552516
_cell_formula_units_Z   2
loop_
 _symmetry_equiv_pos_site_id
 _symmetry_equiv_pos_as_xyz
  1  'x, y, z'
loop_
 _atom_site_type_symbol
 _atom_site_label
 _atom_site_symmetry_multiplicity
 _atom_site_fract_x
 _atom_site_fract_y
 _atom_site_fract_z
 _atom_site_occupancy
  Co  Co0  1  0.52059532  0.00398482  0.49123844  1
  Co  Co1  1  0.46428876  0.34983641  0.81530688  1
  Co  Co2  1  0.50521153  0.66353287  0.17162769  1
  Co  Co3  1  0.00356054  0.67324939  0.65913637  1
  Co  Co4  1  0.00415808  0.30426663  0.35320941  1
  Co  Co5  1  0.98357455  0.00281554  0.01090235  1
  O  O6  1  0.79672515  0.09641039  0.30812937  1
  O  O7  1  0.69809742  0.77082639  0.45626738  1
  O  O8  1  0.29930765  0.58015920  0.87365954  1
  O  O9  1  0.31613917  0.22297583  0.53019295  1
  F  F10  1  0.80519745  0.43159603  0.63449505  1
  F  F11  1  0.80033989  0.77029665  0.95554009  1
  F  F12  1  0.69309602  0.11010794  0.80385084  1
  F  F13  1  0.70766446  0.42987567  0.13673671  1
  F  F14  1  0.29579574  0.89505906  0.19940873  1
  F  F15  1  0.19966461  0.23361069  0.04079063  1
  F  F16  1  0.21484188  0.90817038  0.69046860  1
  F  F17  1  0.19174178  0.55322611  0.36903898  1
