# generated using pymatgen
data_Li2MnSi4O11
_symmetry_space_group_name_H-M   'P 1'
_cell_length_a   7.16446858
_cell_length_b   7.16446858
_cell_length_c   8.27566837
_cell_angle_alpha   81.34355709
_cell_angle_beta   98.65644291
_cell_angle_gamma   96.28376090
_symmetry_Int_Tables_number   1
_chemical_formula_structural   Li2MnSi4O11
_chemical_formula_sum   'Li4 Mn2 Si8 O22'
_cell_volume   413.52357461
_cell_formula_units_Z   2
loop_
 _symmetry_equiv_pos_site_id
 _symmetry_equiv_pos_as_xyz
  1  'x, y, z'
loop_
 _atom_site_type_symbol
 _atom_site_label
 _atom_site_symmetry_multiplicity
 _atom_site_fract_x
 _atom_site_fract_y
 _atom_site_fract_z
 _atom_site_occupancy
  Li  Li0  1  0.08021798  0.08021798  0.75000000  1
  Li  Li1  1  0.35664883  0.35664883  0.75000000  1
  Li  Li2  1  0.64335117  0.64335117  0.25000000  1
  Li  Li3  1  0.91978202  0.91978202  0.25000000  1
  Mn  Mn4  1  0.00000000  0.50000000  0.50000000  1
  Mn  Mn5  1  0.50000000  0.00000000  0.00000000  1
  Si  Si6  1  0.33736954  0.78253402  0.66196807  1
  Si  Si7  1  0.21746598  0.66263046  0.16196807  1
  Si  Si8  1  0.74665598  0.83659708  0.56624962  1
  Si  Si9  1  0.83659708  0.74665598  0.93375038  1
  Si  Si10  1  0.16340292  0.25334402  0.06624962  1
  Si  Si11  1  0.25334402  0.16340292  0.43375038  1
  Si  Si12  1  0.78253402  0.33736954  0.83803193  1
  Si  Si13  1  0.66263046  0.21746598  0.33803193  1
  O  O14  1  0.23669816  0.95090323  0.53289869  1
  O  O15  1  0.37907211  0.85123864  0.84104232  1
  O  O16  1  0.04909677  0.76330184  0.03289869  1
  O  O17  1  0.14876136  0.62092789  0.34104232  1
  O  O18  1  0.19432439  0.58949142  0.67352455  1
  O  O19  1  0.41050858  0.80567561  0.17352455  1
  O  O20  1  0.53342119  0.74489433  0.59212132  1
  O  O21  1  0.15411796  0.27982037  0.54737514  1
  O  O22  1  0.25510567  0.46657881  0.09212132  1
  O  O23  1  0.86596089  0.86596089  0.75000000  1
  O  O24  1  0.27982037  0.15411796  0.95262486  1
  O  O25  1  0.72017963  0.84588204  0.04737514  1
  O  O26  1  0.13403911  0.13403911  0.25000000  1
  O  O27  1  0.74489433  0.53342119  0.90787868  1
  O  O28  1  0.84588204  0.72017963  0.45262486  1
  O  O29  1  0.46657881  0.25510567  0.40787868  1
  O  O30  1  0.58949142  0.19432439  0.82647545  1
  O  O31  1  0.80567561  0.41050858  0.32647545  1
  O  O32  1  0.85123864  0.37907211  0.65895768  1
  O  O33  1  0.95090323  0.23669816  0.96710131  1
  O  O34  1  0.62092789  0.14876136  0.15895768  1
  O  O35  1  0.76330184  0.04909677  0.46710131  1
