# generated using pymatgen
data_LiMn3(BO3)3
_symmetry_space_group_name_H-M   'P 1'
_cell_length_a   5.78681698
_cell_length_b   8.18038421
_cell_length_c   9.30432447
_cell_angle_alpha   65.21693816
_cell_angle_beta   101.60181257
_cell_angle_gamma   79.26952674
_symmetry_Int_Tables_number   1
_chemical_formula_structural   LiMn3(BO3)3
_chemical_formula_sum   'Li2 Mn6 B6 O18'
_cell_volume   373.15949322
_cell_formula_units_Z   2
loop_
 _symmetry_equiv_pos_site_id
 _symmetry_equiv_pos_as_xyz
  1  'x, y, z'
loop_
 _atom_site_type_symbol
 _atom_site_label
 _atom_site_symmetry_multiplicity
 _atom_site_fract_x
 _atom_site_fract_y
 _atom_site_fract_z
 _atom_site_occupancy
  Li  Li0  1  0.93213255  0.38326013  0.78134696  1
  Li  Li1  1  0.61217333  0.71908821  0.10703008  1
  Mn  Mn2  1  0.77850814  0.97354747  0.19964978  1
  Mn  Mn3  1  0.91501217  0.34097949  0.15209296  1
  Mn  Mn4  1  0.53246021  0.72450112  0.45385584  1
  Mn  Mn5  1  0.42430873  0.32938459  0.52086146  1
  Mn  Mn6  1  0.11001288  0.63956536  0.88121579  1
  Mn  Mn7  1  0.24290716  0.02702164  0.78834386  1
  B  B8  1  0.88088850  0.37771138  0.44690184  1
  B  B9  1  0.77986819  0.97290065  0.87163452  1
  B  B10  1  0.56884856  0.68338793  0.79631718  1
  B  B11  1  0.45128626  0.29630067  0.22872576  1
  B  B12  1  0.22432908  0.03088612  0.10490942  1
  B  B13  1  0.09093794  0.63728748  0.55058731  1
  O  O14  1  0.83174300  0.87176264  0.03873934  1
  O  O15  1  0.85759107  0.76391318  0.44477494  1
  O  O16  1  0.95191322  0.93900312  0.79174332  1
  O  O17  1  0.80524165  0.46940243  0.27641611  1
  O  O18  1  0.72619701  0.41193311  0.53712600  1
  O  O19  1  0.78534514  0.53529680  0.88908542  1
  O  O20  1  0.43943179  0.87615556  0.19886898  1
  O  O21  1  0.61580467  0.25787893  0.14676994  1
  O  O22  1  0.48948568  0.77850651  0.62665811  1
  O  O23  1  0.52421230  0.20903319  0.39746635  1
  O  O24  1  0.42908415  0.74673853  0.88157743  1
  O  O25  1  0.54514759  0.10130460  0.76950237  1
  O  O26  1  0.21373545  0.41955036  0.13051141  1
  O  O27  1  0.26288416  0.60419629  0.46809893  1
  O  O28  1  0.14735839  0.53938852  0.71648257  1
  O  O29  1  0.08387811  0.08415440  0.19207026  1
  O  O30  1  0.11971327  0.25668493  0.54026140  1
  O  O31  1  0.15767865  0.13212265  0.93521536  1
