# generated using pymatgen
data_SrCaI4
_symmetry_space_group_name_H-M   'P 1'
_cell_length_a   7.98727555
_cell_length_b   10.02407410
_cell_length_c   7.98727555
_cell_angle_alpha   66.52151334
_cell_angle_beta   90.00000000
_cell_angle_gamma   113.47848660
_symmetry_Int_Tables_number   1
_chemical_formula_structural   SrCaI4
_chemical_formula_sum   'Sr2 Ca2 I8'
_cell_volume   528.33332653
_cell_formula_units_Z   2
loop_
 _symmetry_equiv_pos_site_id
 _symmetry_equiv_pos_as_xyz
  1  'x, y, z'
loop_
 _atom_site_type_symbol
 _atom_site_label
 _atom_site_symmetry_multiplicity
 _atom_site_fract_x
 _atom_site_fract_y
 _atom_site_fract_z
 _atom_site_occupancy
  Sr  Sr0  1  0.62500000  0.75000000  0.12500000  1
  Sr  Sr1  1  0.37500000  0.25000000  0.87500000  1
  Ca  Ca2  1  0.87500000  0.25000000  0.37500000  1
  Ca  Ca3  1  0.12500000  0.75000000  0.62500000  1
  I  I4  1  0.60084829  0.07087096  0.18959372  1
  I  I5  1  0.23953632  0.42912904  0.10084829  1
  I  I6  1  0.68959372  0.42912904  0.47002267  1
  I  I7  1  0.02997733  0.92912904  0.26046368  1
  I  I8  1  0.97002267  0.07087096  0.73953632  1
  I  I9  1  0.31040628  0.57087096  0.52997733  1
  I  I10  1  0.76046368  0.57087096  0.89915171  1
  I  I11  1  0.39915171  0.92912904  0.81040628  1
