# generated using pymatgen
data_SrCaI4
_symmetry_space_group_name_H-M   'P 1'
_cell_length_a   8.25070740
_cell_length_b   8.18174328
_cell_length_c   17.03590385
_cell_angle_alpha   90.00000000
_cell_angle_beta   106.30185464
_cell_angle_gamma   90.00000000
_symmetry_Int_Tables_number   1
_chemical_formula_structural   SrCaI4
_chemical_formula_sum   'Sr4 Ca4 I16'
_cell_volume   1103.77675431
_cell_formula_units_Z   4
loop_
 _symmetry_equiv_pos_site_id
 _symmetry_equiv_pos_as_xyz
  1  'x, y, z'
loop_
 _atom_site_type_symbol
 _atom_site_label
 _atom_site_symmetry_multiplicity
 _atom_site_fract_x
 _atom_site_fract_y
 _atom_site_fract_z
 _atom_site_occupancy
  Sr  Sr0  1  0.27959590  0.95008352  0.84126934  1
  Sr  Sr1  1  0.27959590  0.54991648  0.34126934  1
  Sr  Sr2  1  0.72040410  0.45008352  0.65873066  1
  Sr  Sr3  1  0.72040410  0.04991648  0.15873066  1
  Ca  Ca4  1  0.19930175  0.64695464  0.59728318  1
  Ca  Ca5  1  0.19930175  0.85304536  0.09728318  1
  Ca  Ca6  1  0.80069825  0.14695464  0.90271682  1
  Ca  Ca7  1  0.80069825  0.35304536  0.40271682  1
  I  I8  1  0.95996059  0.80714774  0.68065442  1
  I  I9  1  0.95996059  0.69285226  0.18065442  1
  I  I10  1  0.03661615  0.30313605  0.58060570  1
  I  I11  1  0.03661615  0.19686395  0.08060570  1
  I  I12  1  0.46948631  0.62804536  0.76551946  1
  I  I13  1  0.48335658  0.73641887  0.52049801  1
  I  I14  1  0.46948631  0.87195464  0.26551946  1
  I  I15  1  0.51664342  0.23641887  0.97950199  1
  I  I16  1  0.48335658  0.76358113  0.02049801  1
  I  I17  1  0.53051369  0.12804536  0.73448054  1
  I  I18  1  0.51664342  0.26358113  0.47950199  1
  I  I19  1  0.53051369  0.37195464  0.23448054  1
  I  I20  1  0.96338385  0.80313605  0.91939430  1
  I  I21  1  0.96338385  0.69686395  0.41939430  1
  I  I22  1  0.04003941  0.30714774  0.81934558  1
  I  I23  1  0.04003941  0.19285226  0.31934558  1
