# generated using pymatgen
data_LiMnPO4
_symmetry_space_group_name_H-M   'P 1'
_cell_length_a   6.30737141
_cell_length_b   5.39692305
_cell_length_c   9.05779596
_cell_angle_alpha   90.00000000
_cell_angle_beta   90.00000000
_cell_angle_gamma   90.00000000
_symmetry_Int_Tables_number   1
_chemical_formula_structural   LiMnPO4
_chemical_formula_sum   'Li4 Mn4 P4 O16'
_cell_volume   308.33098082
_cell_formula_units_Z   4
loop_
 _symmetry_equiv_pos_site_id
 _symmetry_equiv_pos_as_xyz
  1  'x, y, z'
loop_
 _atom_site_type_symbol
 _atom_site_label
 _atom_site_symmetry_multiplicity
 _atom_site_fract_x
 _atom_site_fract_y
 _atom_site_fract_z
 _atom_site_occupancy
  Li  Li0  1  0.18284223  0.25000000  0.99471318  1
  Li  Li1  1  0.31715777  0.75000000  0.49471318  1
  Li  Li2  1  0.68284223  0.25000000  0.50528682  1
  Li  Li3  1  0.81715777  0.75000000  0.00528682  1
  Mn  Mn4  1  0.98414670  0.75000000  0.71287906  1
  Mn  Mn5  1  0.51585330  0.25000000  0.21287906  1
  Mn  Mn6  1  0.48414670  0.75000000  0.78712094  1
  Mn  Mn7  1  0.01585330  0.25000000  0.28712094  1
  P  P8  1  0.21801647  0.25000000  0.59035351  1
  P  P9  1  0.28198353  0.75000000  0.09035351  1
  P  P10  1  0.71801647  0.25000000  0.90964649  1
  P  P11  1  0.78198353  0.75000000  0.40964649  1
  O  O12  1  0.98848026  0.25000000  0.53116244  1
  O  O13  1  0.12507361  0.75000000  0.95853438  1
  O  O14  1  0.24508676  0.98897290  0.18516553  1
  O  O15  1  0.24508676  0.51102710  0.18516553  1
  O  O16  1  0.25491324  0.01102710  0.68516553  1
  O  O17  1  0.25491324  0.48897290  0.68516553  1
  O  O18  1  0.37492639  0.25000000  0.45853438  1
  O  O19  1  0.51151974  0.75000000  0.03116244  1
  O  O20  1  0.48848026  0.25000000  0.96883756  1
  O  O21  1  0.62507361  0.75000000  0.54146562  1
  O  O22  1  0.74508676  0.51102710  0.31483447  1
  O  O23  1  0.74508676  0.98897290  0.31483447  1
  O  O24  1  0.75491324  0.01102710  0.81483447  1
  O  O25  1  0.75491324  0.48897290  0.81483447  1
  O  O26  1  0.87492639  0.25000000  0.04146562  1
  O  O27  1  0.01151974  0.75000000  0.46883756  1
