# generated using pymatgen
data_Li3Fe9O5F11
_symmetry_space_group_name_H-M   'P 1'
_cell_length_a   6.27003551
_cell_length_b   6.28720272
_cell_length_c   10.70296123
_cell_angle_alpha   106.94957959
_cell_angle_beta   72.98149589
_cell_angle_gamma   119.59024190
_symmetry_Int_Tables_number   1
_chemical_formula_structural   Li3Fe9O5F11
_chemical_formula_sum   'Li3 Fe9 O5 F11'
_cell_volume   345.30128291
_cell_formula_units_Z   1
loop_
 _symmetry_equiv_pos_site_id
 _symmetry_equiv_pos_as_xyz
  1  'x, y, z'
loop_
 _atom_site_type_symbol
 _atom_site_label
 _atom_site_symmetry_multiplicity
 _atom_site_fract_x
 _atom_site_fract_y
 _atom_site_fract_z
 _atom_site_occupancy
  Li  Li0  1  0.07269143  0.94523989  0.31226017  1
  Li  Li1  1  0.05719091  0.44509474  0.80553577  1
  Li  Li2  1  0.55598401  0.93763712  0.80220423  1
  Fe  Fe3  1  0.31256139  0.70245946  0.07338225  1
  Fe  Fe4  1  0.01644602  0.99090673  0.97286122  1
  Fe  Fe5  1  0.56035764  0.94316422  0.30777529  1
  Fe  Fe6  1  0.06764502  0.44621657  0.31160637  1
  Fe  Fe7  1  0.13619438  0.86645216  0.64568543  1
  Fe  Fe8  1  0.56727266  0.35115414  0.14066935  1
  Fe  Fe9  1  0.52246104  0.47400390  0.49069743  1
  Fe  Fe10  1  0.57653261  0.42902764  0.80092932  1
  Fe  Fe11  1  0.79982007  0.20458674  0.57469525  1
  O  O12  1  0.40775279  0.57301225  0.20049391  1
  O  O13  1  0.41624368  0.03025632  0.19448877  1
  O  O14  1  0.73038785  0.29935763  0.42594567  1
  O  O15  1  0.92808437  0.55209631  0.70205051  1
  O  O16  1  0.45031523  0.08000468  0.70366561  1
  F  F17  1  0.17244326  0.82350750  0.43454943  1
  F  F18  1  0.17843337  0.30032720  0.43780697  1
  F  F19  1  0.69835617  0.82893316  0.42963235  1
  F  F20  1  0.93604388  0.57469527  0.18872906  1
  F  F21  1  0.20596038  0.78901311  0.92918962  1
  F  F22  1  0.43617262  0.56966594  0.69262259  1
  F  F23  1  0.94932126  0.06239185  0.17756713  1
  F  F24  1  0.20221787  0.34480791  0.93906294  1
  F  F25  1  0.66807906  0.79600268  0.92908755  1
  F  F26  1  0.92300554  0.07823589  0.69172266  1
  F  F27  1  0.70202347  0.31174698  0.93508414  1
