# generated using pymatgen
data_BaCaI4
_symmetry_space_group_name_H-M   'P 1'
_cell_length_a   9.09102565
_cell_length_b   11.47795260
_cell_length_c   11.11802133
_cell_angle_alpha   90.00000000
_cell_angle_beta   90.00000000
_cell_angle_gamma   90.00000000
_symmetry_Int_Tables_number   1
_chemical_formula_structural   BaCaI4
_chemical_formula_sum   'Ba4 Ca4 I16'
_cell_volume   1160.12507282
_cell_formula_units_Z   4
loop_
 _symmetry_equiv_pos_site_id
 _symmetry_equiv_pos_as_xyz
  1  'x, y, z'
loop_
 _atom_site_type_symbol
 _atom_site_label
 _atom_site_symmetry_multiplicity
 _atom_site_fract_x
 _atom_site_fract_y
 _atom_site_fract_z
 _atom_site_occupancy
  Ba  Ba0  1  0.18071232  0.75000000  0.75000000  1
  Ba  Ba1  1  0.31928768  0.25000000  0.75000000  1
  Ba  Ba2  1  0.68071232  0.75000000  0.25000000  1
  Ba  Ba3  1  0.81928768  0.25000000  0.25000000  1
  Ca  Ca4  1  0.25000000  0.00000000  0.18342736  1
  Ca  Ca5  1  0.25000000  0.50000000  0.31657264  1
  Ca  Ca6  1  0.75000000  0.50000000  0.68342736  1
  Ca  Ca7  1  0.75000000  0.00000000  0.81657264  1
  I  I8  1  0.03699183  0.03285359  0.68988607  1
  I  I9  1  0.03699183  0.46714641  0.81011393  1
  I  I10  1  0.14520545  0.20799595  0.04445255  1
  I  I11  1  0.14520545  0.29200405  0.45554745  1
  I  I12  1  0.35479455  0.79200405  0.04445255  1
  I  I13  1  0.35479455  0.70799595  0.45554745  1
  I  I14  1  0.46300817  0.53285359  0.81011393  1
  I  I15  1  0.46300817  0.96714641  0.68988607  1
  I  I16  1  0.53699183  0.03285359  0.31011393  1
  I  I17  1  0.53699183  0.46714641  0.18988607  1
  I  I18  1  0.64520545  0.29200405  0.54445255  1
  I  I19  1  0.64520545  0.20799595  0.95554745  1
  I  I20  1  0.85479455  0.70799595  0.54445255  1
  I  I21  1  0.85479455  0.79200405  0.95554745  1
  I  I22  1  0.96300817  0.53285359  0.18988607  1
  I  I23  1  0.96300817  0.96714641  0.31011393  1
