# generated using pymatgen
data_Li3Ni2(PO3)7
_symmetry_space_group_name_H-M   'P 1'
_cell_length_a   6.86712884
_cell_length_b   6.93535646
_cell_length_c   18.50889097
_cell_angle_alpha   86.20658050
_cell_angle_beta   99.95766540
_cell_angle_gamma   111.62389094
_symmetry_Int_Tables_number   1
_chemical_formula_structural   Li3Ni2(PO3)7
_chemical_formula_sum   'Li6 Ni4 P14 O42'
_cell_volume   807.11901308
_cell_formula_units_Z   2
loop_
 _symmetry_equiv_pos_site_id
 _symmetry_equiv_pos_as_xyz
  1  'x, y, z'
loop_
 _atom_site_type_symbol
 _atom_site_label
 _atom_site_symmetry_multiplicity
 _atom_site_fract_x
 _atom_site_fract_y
 _atom_site_fract_z
 _atom_site_occupancy
  Li  Li0  1  0.27629280  0.79055300  0.75587672  1
  Li  Li1  1  0.43722142  0.26409048  0.55091222  1
  Li  Li2  1  0.81148082  0.88648928  0.87593172  1
  Li  Li3  1  0.18851918  0.11351072  0.12406828  1
  Li  Li4  1  0.56277858  0.73590952  0.44908778  1
  Li  Li5  1  0.72370720  0.20944700  0.24412328  1
  Ni  Ni6  1  0.61955480  0.82741462  0.61747236  1
  Ni  Ni7  1  0.33165795  0.11986825  0.87296417  1
  Ni  Ni8  1  0.66834205  0.88013175  0.12703583  1
  Ni  Ni9  1  0.38044520  0.17258538  0.38252764  1
  P  P10  1  0.30676598  0.72719995  0.97466202  1
  P  P11  1  0.20324854  0.77760739  0.49737758  1
  P  P12  1  0.98957474  0.67486913  0.07266296  1
  P  P13  1  0.08953975  0.41847437  0.39850243  1
  P  P14  1  0.05142469  0.10868671  0.71736028  1
  P  P15  1  0.34308225  0.83972675  0.26687322  1
  P  P16  1  0.45795329  0.45581132  0.74815138  1
  P  P17  1  0.54204671  0.54418868  0.25184862  1
  P  P18  1  0.65691775  0.16027325  0.73312678  1
  P  P19  1  0.94857531  0.89131329  0.28263972  1
  P  P20  1  0.91046025  0.58152563  0.60149757  1
  P  P21  1  0.01042526  0.32513087  0.92733704  1
  P  P22  1  0.79675146  0.22239261  0.50262242  1
  P  P23  1  0.69323402  0.27280005  0.02533798  1
  O  O24  1  0.11161108  0.76369848  0.00190696  1
  O  O25  1  0.99447540  0.72892762  0.53289357  1
  O  O26  1  0.31718686  0.82316002  0.89923806  1
  O  O27  1  0.06508967  0.64112746  0.66973130  1
  O  O28  1  0.23698526  0.47940123  0.96859028  1
  O  O29  1  0.05356492  0.13738191  0.90561063  1
  O  O30  1  0.10579550  0.64788415  0.42218903  1
  O  O31  1  0.28632271  0.00706509  0.48226381  1
  O  O32  1  0.08877939  0.77715443  0.25518668  1
  O  O33  1  0.50459229  0.79176176  0.02989962  1
  O  O34  1  0.12860090  0.99100441  0.78058684  1
  O  O35  1  0.25185104  0.29897481  0.69420455  1
  O  O36  1  0.35349411  0.68437873  0.54178306  1
  O  O37  1  0.10048413  0.56330073  0.12428879  1
  O  O38  1  0.31869912  0.43107580  0.40710860  1
  O  O39  1  0.41952010  0.41618656  0.82599976  1
  O  O40  1  0.44572759  0.92806166  0.34348981  1
  O  O41  1  0.42802134  0.96574503  0.20202796  1
  O  O42  1  0.06793829  0.01603176  0.34922751  1
  O  O43  1  0.50728048  0.67355180  0.71896505  1
  O  O44  1  0.35356149  0.61290206  0.26721313  1
  O  O45  1  0.64643851  0.38709794  0.73278687  1
  O  O46  1  0.49271952  0.32644820  0.28103495  1
  O  O47  1  0.93206171  0.98396824  0.65077249  1
  O  O48  1  0.57197866  0.03425497  0.79797204  1
  O  O49  1  0.55427241  0.07193834  0.65651019  1
  O  O50  1  0.58047990  0.58381344  0.17400024  1
  O  O51  1  0.68130088  0.56892420  0.59289140  1
  O  O52  1  0.89951587  0.43669927  0.87571121  1
  O  O53  1  0.64650589  0.31562127  0.45821694  1
  O  O54  1  0.74814896  0.70102519  0.30579545  1
  O  O55  1  0.87139910  0.00899559  0.21941316  1
  O  O56  1  0.49540771  0.20823824  0.97010038  1
  O  O57  1  0.91122061  0.22284557  0.74481332  1
  O  O58  1  0.71367729  0.99293491  0.51773619  1
  O  O59  1  0.89420450  0.35211585  0.57781097  1
  O  O60  1  0.94643508  0.86261809  0.09438937  1
  O  O61  1  0.76301474  0.52059877  0.03140972  1
  O  O62  1  0.93491033  0.35887254  0.33026870  1
  O  O63  1  0.68281314  0.17683998  0.10076194  1
  O  O64  1  0.00552460  0.27107238  0.46710643  1
  O  O65  1  0.88838892  0.23630152  0.99809304  1
