# generated using pymatgen
data_CaMn2O4
_symmetry_space_group_name_H-M   'P 1'
_cell_length_a   2.98320570
_cell_length_b   8.60675159
_cell_length_c   7.46842457
_cell_angle_alpha   71.87444572
_cell_angle_beta   78.48444480
_cell_angle_gamma   80.02284429
_symmetry_Int_Tables_number   1
_chemical_formula_structural   CaMn2O4
_chemical_formula_sum   'Ca2 Mn4 O8'
_cell_volume   177.29662009
_cell_formula_units_Z   2
loop_
 _symmetry_equiv_pos_site_id
 _symmetry_equiv_pos_as_xyz
  1  'x, y, z'
loop_
 _atom_site_type_symbol
 _atom_site_label
 _atom_site_symmetry_multiplicity
 _atom_site_fract_x
 _atom_site_fract_y
 _atom_site_fract_z
 _atom_site_occupancy
  Ca  Ca0  1  0.33603237  0.16505437  0.16270473  1
  Ca  Ca1  1  0.65832517  0.81230172  0.87139968  1
  Mn  Mn2  1  0.59942726  0.17598708  0.62547919  1
  Mn  Mn3  1  0.14311211  0.50430002  0.20950479  1
  Mn  Mn4  1  0.85229349  0.47325554  0.82231169  1
  Mn  Mn5  1  0.39619409  0.80070345  0.40681557  1
  O  O6  1  0.86816890  0.69633555  0.56737982  1
  O  O7  1  0.42992468  0.32152835  0.81876991  1
  O  O8  1  0.56552319  0.65590439  0.21310720  1
  O  O9  1  0.12851500  0.27929644  0.46394841  1
  O  O10  1  0.11101240  0.02212888  0.75630359  1
  O  O11  1  0.74259685  0.37108592  0.14378101  1
  O  O12  1  0.88445954  0.95473228  0.27604934  1
  O  O13  1  0.25269295  0.60672100  0.88806408  1
