# generated using pymatgen
data_Li2Fe2Si3O10
_symmetry_space_group_name_H-M   'P 1'
_cell_length_a   9.18317617
_cell_length_b   9.81775784
_cell_length_c   6.85606658
_cell_angle_alpha   69.56365303
_cell_angle_beta   68.08103388
_cell_angle_gamma   82.51063880
_symmetry_Int_Tables_number   1
_chemical_formula_structural   Li2Fe2Si3O10
_chemical_formula_sum   'Li4 Fe4 Si6 O20'
_cell_volume   537.35524216
_cell_formula_units_Z   2
loop_
 _symmetry_equiv_pos_site_id
 _symmetry_equiv_pos_as_xyz
  1  'x, y, z'
loop_
 _atom_site_type_symbol
 _atom_site_label
 _atom_site_symmetry_multiplicity
 _atom_site_fract_x
 _atom_site_fract_y
 _atom_site_fract_z
 _atom_site_occupancy
  Li  Li0  1  0.32497649  0.90087328  0.67946182  1
  Li  Li1  1  0.82497649  0.59912672  0.83033511  1
  Li  Li2  1  0.17502351  0.40087328  0.25443931  1
  Li  Li3  1  0.67502351  0.09912672  0.90531159  1
  Fe  Fe4  1  0.77088167  0.95647202  0.51606484  1
  Fe  Fe5  1  0.27088167  0.54352798  0.72253686  1
  Fe  Fe6  1  0.72911833  0.45647202  0.53694651  1
  Fe  Fe7  1  0.22911833  0.04352798  0.24341853  1
  Si  Si8  1  0.04374110  0.79294384  0.71944331  1
  Si  Si9  1  0.54374110  0.70705616  0.76238715  1
  Si  Si10  1  0.50000000  0.50000000  0.24991999  1
  Si  Si11  1  0.45625890  0.29294384  0.01318341  1
  Si  Si12  1  0.95625890  0.20705616  0.55612725  1
  Si  Si13  1  0.00000000  1.00000000  -0.00008001  1
  O  O14  1  0.84313562  0.96487949  0.22011513  1
  O  O15  1  0.56005371  0.88557737  0.66831392  1
  O  O16  1  0.19201734  0.87382950  0.49686744  1
  O  O17  1  0.05020874  0.86002061  0.90649362  1
  O  O18  1  0.87216158  0.81579292  0.69496926  1
  O  O19  1  0.37216158  0.68420708  0.76076218  1
  O  O20  1  0.55020874  0.63997939  0.01651423  1
  O  O21  1  0.69201734  0.62617050  0.62069695  1
  O  O22  1  0.06005371  0.61442263  0.80389029  1
  O  O23  1  0.34313562  0.53512051  0.43499463  1
  O  O24  1  0.65686438  0.46487949  0.31325175  1
  O  O25  1  0.93994629  0.38557737  0.47836763  1
  O  O26  1  0.30798266  0.37382950  0.93888578  1
  O  O27  1  0.44979126  0.36002061  0.20670236  1
  O  O28  1  0.62783842  0.31579292  0.81713084  1
  O  O29  1  0.12783842  0.18420708  0.38292276  1
  O  O30  1  0.94979126  0.13997939  0.81672297  1
  O  O31  1  0.80798266  0.12617050  0.56271529  1
  O  O32  1  0.43994629  0.11442263  0.11394400  1
  O  O33  1  0.15686438  0.03512051  0.02813124  1
