# generated using pymatgen
data_Li4MnCo3O8
_symmetry_space_group_name_H-M   'P 1'
_cell_length_a   5.96664085
_cell_length_b   5.82359106
_cell_length_c   5.86697606
_cell_angle_alpha   90.53691380
_cell_angle_beta   119.08743864
_cell_angle_gamma   118.78589254
_symmetry_Int_Tables_number   1
_chemical_formula_structural   Li4MnCo3O8
_chemical_formula_sum   'Li4 Mn1 Co3 O8'
_cell_volume   148.03629790
_cell_formula_units_Z   1
loop_
 _symmetry_equiv_pos_site_id
 _symmetry_equiv_pos_as_xyz
  1  'x, y, z'
loop_
 _atom_site_type_symbol
 _atom_site_label
 _atom_site_symmetry_multiplicity
 _atom_site_fract_x
 _atom_site_fract_y
 _atom_site_fract_z
 _atom_site_occupancy
  Li  Li0  1  -0.00000090  0.50000241  0.49999664  1
  Li  Li1  1  0.49999793  0.50000122  0.49999628  1
  Li  Li2  1  0.99999023  0.99999674  0.50000001  1
  Li  Li3  1  0.49999610  0.00000204  0.49999948  1
  Mn  Mn4  1  0.00003588  0.00002503  0.00001072  1
  Co  Co5  1  0.99999327  0.50000413  0.00000132  1
  Co  Co6  1  0.50000867  0.50000897  -0.00000254  1
  Co  Co7  1  0.49999400  0.99999124  0.99999143  1
  O  O8  1  0.01397543  0.76320570  0.77563249  1
  O  O9  1  0.48368230  0.74408714  0.76428676  1
  O  O10  1  0.48017965  0.73856120  0.23104882  1
  O  O11  1  0.01394422  0.25166543  0.77634551  1
  O  O12  1  0.98603725  0.74832454  0.22363908  1
  O  O13  1  0.51981322  0.26143370  0.76894710  1
  O  O14  1  0.51630116  0.25590316  0.23571508  1
  O  O15  1  0.98601059  0.23678435  0.22437483  1
