# generated using pymatgen
data_FeNi3Sn2(PO4)6
_symmetry_space_group_name_H-M   'P 1'
_cell_length_a   8.50176723
_cell_length_b   8.50176716
_cell_length_c   8.50176732
_cell_angle_alpha   61.54910920
_cell_angle_beta   61.54910892
_cell_angle_gamma   61.54910827
_symmetry_Int_Tables_number   1
_chemical_formula_structural   FeNi3Sn2(PO4)6
_chemical_formula_sum   'Fe1 Ni3 Sn2 P6 O24'
_cell_volume   449.62754625
_cell_formula_units_Z   1
loop_
 _symmetry_equiv_pos_site_id
 _symmetry_equiv_pos_as_xyz
  1  'x, y, z'
loop_
 _atom_site_type_symbol
 _atom_site_label
 _atom_site_symmetry_multiplicity
 _atom_site_fract_x
 _atom_site_fract_y
 _atom_site_fract_z
 _atom_site_occupancy
  Fe  Fe0  1  0.85050786  0.85050786  0.85050786  1
  Ni  Ni1  1  0.14762435  0.14762435  0.14762435  1
  Ni  Ni2  1  0.35335905  0.35335905  0.35335905  1
  Ni  Ni3  1  0.64656411  0.64656411  0.64656411  1
  Sn  Sn4  1  0.00125145  0.00125145  0.00125145  1
  Sn  Sn5  1  0.50032127  0.50032127  0.50032127  1
  P  P6  1  0.04588371  0.74904083  0.45283803  1
  P  P7  1  0.45283803  0.04588371  0.74904083  1
  P  P8  1  0.25067470  0.54621429  0.95383412  1
  P  P9  1  0.54621429  0.95383412  0.25067470  1
  P  P10  1  0.95383412  0.25067470  0.54621429  1
  P  P11  1  0.74904083  0.45283803  0.04588371  1
  O  O12  1  0.10271825  0.32142252  0.51274030  1
  O  O13  1  0.32142252  0.51274030  0.10271825  1
  O  O14  1  0.06664283  0.90455919  0.24956353  1
  O  O15  1  0.51274030  0.10271825  0.32142252  1
  O  O16  1  0.00360223  0.82423158  0.60491650  1
  O  O17  1  0.24990297  0.59635884  0.43803302  1
  O  O18  1  0.24956353  0.06664283  0.90455919  1
  O  O19  1  0.43803302  0.24990297  0.59635884  1
  O  O20  1  0.17809365  0.39792647  0.98919014  1
  O  O21  1  0.59635884  0.43803302  0.24990297  1
  O  O22  1  0.09291505  0.75224259  0.93373087  1
  O  O23  1  0.39792647  0.98919014  0.17809365  1
  O  O24  1  0.60491650  0.00360223  0.82423158  1
  O  O25  1  0.90455919  0.24956353  0.06664283  1
  O  O26  1  0.40305516  0.56814985  0.74840971  1
  O  O27  1  0.82423158  0.60491650  0.00360223  1
  O  O28  1  0.56814985  0.74840971  0.40305516  1
  O  O29  1  0.75224259  0.93373087  0.09291505  1
  O  O30  1  0.74840971  0.40305516  0.56814985  1
  O  O31  1  0.98919014  0.17809365  0.39792647  1
  O  O32  1  0.48939757  0.89768782  0.67639259  1
  O  O33  1  0.93373087  0.09291505  0.75224259  1
  O  O34  1  0.67639259  0.48939757  0.89768782  1
  O  O35  1  0.89768782  0.67639259  0.48939757  1
