# generated using pymatgen
data_Li2Si2NiO6
_symmetry_space_group_name_H-M   'P 1'
_cell_length_a   11.62285189
_cell_length_b   11.35099837
_cell_length_c   6.33097513
_cell_angle_alpha   73.80704617
_cell_angle_beta   74.19582933
_cell_angle_gamma   85.64412526
_symmetry_Int_Tables_number   1
_chemical_formula_structural   Li2Si2NiO6
_chemical_formula_sum   'Li12 Si12 Ni6 O36'
_cell_volume   771.79415603
_cell_formula_units_Z   6
loop_
 _symmetry_equiv_pos_site_id
 _symmetry_equiv_pos_as_xyz
  1  'x, y, z'
loop_
 _atom_site_type_symbol
 _atom_site_label
 _atom_site_symmetry_multiplicity
 _atom_site_fract_x
 _atom_site_fract_y
 _atom_site_fract_z
 _atom_site_occupancy
  Li  Li0  1  0.75409833  0.00000000  0.12295033  1
  Li  Li1  1  0.99582381  0.00000000  0.50208759  1
  Li  Li2  1  0.42662101  0.14387144  0.96254099  1
  Li  Li3  1  0.13825302  0.22047365  0.55941016  1
  Li  Li4  1  0.63825302  0.27952635  0.52988382  1
  Li  Li5  1  0.92662101  0.35612856  0.85641242  1
  Li  Li6  1  0.49582381  0.50000000  0.25208759  1
  Li  Li7  1  0.25409833  0.50000000  0.87295033  1
  Li  Li8  1  0.92662101  0.64387144  0.21696657  1
  Li  Li9  1  0.63825302  0.72047365  0.83186217  1
  Li  Li10  1  0.13825302  0.77952635  0.30233682  1
  Li  Li11  1  0.42662101  0.85612856  0.61083800  1
  Si  Si12  1  0.68203129  0.00000000  0.65898435  1
  Si  Si13  1  0.01327135  0.00000000  0.99336382  1
  Si  Si14  1  0.48919252  0.10721771  0.44650716  1
  Si  Si15  1  0.13598039  0.20755707  0.08114678  1
  Si  Si16  1  0.63598039  0.29244293  0.03870385  1
  Si  Si17  1  0.98919252  0.39278229  0.30372388  1
  Si  Si18  1  0.18203129  0.50000000  0.40898435  1
  Si  Si19  1  0.51327135  0.50000000  0.74336382  1
  Si  Si20  1  0.98919252  0.60721771  0.70708361  1
  Si  Si21  1  0.63598039  0.70755707  0.32531576  1
  Si  Si22  1  0.13598039  0.79244293  0.78287383  1
  Si  Si23  1  0.48919252  0.89278229  0.06430132  1
  Ni  Ni24  1  0.25229105  0.00000000  0.37385498  1
  Ni  Ni25  1  0.85773936  0.18330921  0.69834590  1
  Ni  Ni26  1  0.35773936  0.31669079  0.63165512  1
  Ni  Ni27  1  0.75229105  0.50000000  0.12385498  1
  Ni  Ni28  1  0.35773936  0.68330921  0.01060553  1
  Ni  Ni29  1  0.85773936  0.81669079  0.44391474  1
  O  O30  1  0.60144639  0.00778125  0.47238381  1
  O  O31  1  0.93137696  0.02463410  0.81402553  1
  O  O32  1  0.36900668  0.02824099  0.51681457  1
  O  O33  1  0.12763532  0.12489801  0.34122817  1
  O  O34  1  0.10075283  0.12409450  0.92553761  1
  O  O35  1  0.74932698  0.13140777  0.56696178  1
  O  O36  1  0.52495841  0.18816100  0.17056095  1
  O  O37  1  0.76741164  0.23187897  0.97151046  1
  O  O38  1  0.48510957  0.19231499  0.61899596  1
  O  O39  1  0.98510957  0.30768501  0.56131094  1
  O  O40  1  0.26741164  0.26812103  0.95338943  1
  O  O41  1  0.02495841  0.31183900  0.10872195  1
  O  O42  1  0.24932698  0.36859223  0.44836955  1
  O  O43  1  0.60075283  0.37590550  0.79963211  1
  O  O44  1  0.62763532  0.37510199  0.21612618  1
  O  O45  1  0.86900668  0.47175901  0.29505456  1
  O  O46  1  0.43137696  0.47536590  0.58865963  1
  O  O47  1  0.10144639  0.49221875  0.23016506  1
  O  O48  1  0.10144639  0.50778125  0.66838855  1
  O  O49  1  0.43137696  0.52463410  0.97996341  1
  O  O50  1  0.86900668  0.52824099  0.83593876  1
  O  O51  1  0.62763532  0.62489801  0.15623750  1
  O  O52  1  0.60075283  0.62409450  0.59961406  1
  O  O53  1  0.24932698  0.63140777  0.30230247  1
  O  O54  1  0.02495841  0.68816100  0.86631864  1
  O  O55  1  0.26741164  0.73187897  0.77919892  1
  O  O56  1  0.98510957  0.69231499  0.45358049  1
  O  O57  1  0.48510957  0.80768501  0.89589447  1
  O  O58  1  0.76741164  0.76812103  0.26107790  1
  O  O59  1  0.52495841  0.81183900  0.30447964  1
  O  O60  1  0.74932698  0.86859223  0.68371025  1
  O  O61  1  0.10075283  0.87590550  0.97370856  1
  O  O62  1  0.12763532  0.87510199  0.53113651  1
  O  O63  1  0.36900668  0.97175901  0.11417975  1
  O  O64  1  0.93137696  0.97536590  0.25459751  1
  O  O65  1  0.60144639  0.99221875  0.92616980  1
