# generated using pymatgen
data_Li2FePO5
_symmetry_space_group_name_H-M   'P 1'
_cell_length_a   13.40021177
_cell_length_b   12.84521653
_cell_length_c   5.12431582
_cell_angle_alpha   90.00000000
_cell_angle_beta   90.00000000
_cell_angle_gamma   60.40652325
_symmetry_Int_Tables_number   1
_chemical_formula_structural   Li2FePO5
_chemical_formula_sum   'Li16 Fe8 P8 O40'
_cell_volume   766.98013923
_cell_formula_units_Z   8
loop_
 _symmetry_equiv_pos_site_id
 _symmetry_equiv_pos_as_xyz
  1  'x, y, z'
loop_
 _atom_site_type_symbol
 _atom_site_label
 _atom_site_symmetry_multiplicity
 _atom_site_fract_x
 _atom_site_fract_y
 _atom_site_fract_z
 _atom_site_occupancy
  Li  Li0  1  0.36265998  0.81647146  0.72126305  1
  Li  Li1  1  0.08077803  0.57579890  0.76054378  1
  Li  Li2  1  0.14401751  0.67447432  0.21381903  1
  Li  Li3  1  0.57856698  0.83443794  0.72375583  1
  Li  Li4  1  0.42143302  0.66556206  0.22375583  1
  Li  Li5  1  0.85598249  0.82552568  0.71381903  1
  Li  Li6  1  0.36265998  0.31647146  0.77873695  1
  Li  Li7  1  0.08077803  0.07579890  0.73945622  1
  Li  Li8  1  0.91922197  0.92420110  0.26054378  1
  Li  Li9  1  0.63734002  0.68352854  0.22126305  1
  Li  Li10  1  0.14401751  0.17447432  0.28618097  1
  Li  Li11  1  0.57856698  0.33443794  0.77624417  1
  Li  Li12  1  0.42143302  0.16556206  0.27624417  1
  Li  Li13  1  0.85598249  0.32552568  0.78618097  1
  Li  Li14  1  0.91922197  0.42420110  0.23945622  1
  Li  Li15  1  0.63734002  0.18352854  0.27873695  1
  Fe  Fe16  1  0.06246688  0.80816576  0.72902722  1
  Fe  Fe17  1  0.43424922  0.87570110  0.25738974  1
  Fe  Fe18  1  0.06246688  0.30816576  0.77097278  1
  Fe  Fe19  1  0.56575078  0.62429890  0.75738974  1
  Fe  Fe20  1  0.43424922  0.37570110  0.24261026  1
  Fe  Fe21  1  0.93753312  0.69183424  0.22902722  1
  Fe  Fe22  1  0.56575078  0.12429890  0.74261026  1
  Fe  Fe23  1  0.93753312  0.19183424  0.27097278  1
  P  P24  1  0.16168066  0.90929217  0.22597761  1
  P  P25  1  0.66240452  0.92448284  0.23225162  1
  P  P26  1  0.16168066  0.40929217  0.27402239  1
  P  P27  1  0.33759548  0.57551716  0.73225162  1
  P  P28  1  0.66240452  0.42448284  0.26774838  1
  P  P29  1  0.83831934  0.59070783  0.72597761  1
  P  P30  1  0.33759548  0.07551716  0.76774838  1
  P  P31  1  0.83831934  0.09070783  0.77402239  1
  O  O32  1  0.13351772  0.91271314  0.92841113  1
  O  O33  1  0.99133463  0.78519393  0.02646229  1
  O  O34  1  0.12011753  0.83256473  0.37524863  1
  O  O35  1  0.39113675  0.95563899  0.61627474  1
  O  O36  1  0.29285932  0.85079873  0.26824133  1
  O  O37  1  0.10126033  0.53785927  0.15416712  1
  O  O38  1  0.20826771  0.64626303  0.80490237  1
  O  O39  1  0.64366903  0.95098977  0.93156134  1
  O  O40  1  0.49698025  0.77740936  0.96508773  1
  O  O41  1  0.13351772  0.41271314  0.57158887  1
  O  O42  1  0.99133463  0.28519393  0.47353771  1
  O  O43  1  0.60385511  0.85227994  0.32357590  1
  O  O44  1  0.39614489  0.64772006  0.82357590  1
  O  O45  1  0.12011753  0.33256473  0.12475137  1
  O  O46  1  0.50301975  0.72259064  0.46508773  1
  O  O47  1  0.35633097  0.54901023  0.43156134  1
  O  O48  1  0.39113675  0.45563899  0.88372526  1
  O  O49  1  0.29285932  0.35079873  0.23175867  1
  O  O50  1  0.79173229  0.85373697  0.30490237  1
  O  O51  1  0.89873967  0.96214073  0.65416712  1
  O  O52  1  0.10126033  0.03785927  0.34583288  1
  O  O53  1  0.20826771  0.14626303  0.69509763  1
  O  O54  1  0.70714068  0.64920127  0.76824133  1
  O  O55  1  0.60886325  0.54436101  0.11627474  1
  O  O56  1  0.64366903  0.45098977  0.56843866  1
  O  O57  1  0.49698025  0.27740936  0.53491227  1
  O  O58  1  0.87988247  0.66743527  0.87524863  1
  O  O59  1  0.60385511  0.35227994  0.17642410  1
  O  O60  1  0.39614489  0.14772006  0.67642410  1
  O  O61  1  0.00866537  0.71480607  0.52646229  1
  O  O62  1  0.86648228  0.58728686  0.42841113  1
  O  O63  1  0.50301975  0.22259064  0.03491227  1
  O  O64  1  0.35633097  0.04901023  0.06843866  1
  O  O65  1  0.79173229  0.35373697  0.19509763  1
  O  O66  1  0.89873967  0.46214073  0.84583288  1
  O  O67  1  0.70714068  0.14920127  0.73175867  1
  O  O68  1  0.60886325  0.04436101  0.38372526  1
  O  O69  1  0.87988247  0.16743527  0.62475137  1
  O  O70  1  0.00866537  0.21480607  0.97353771  1
  O  O71  1  0.86648228  0.08728686  0.07158887  1
