# generated using pymatgen
data_NbC2NCl8
_symmetry_space_group_name_H-M   'P 1'
_cell_length_a   6.16204346
_cell_length_b   6.16204346
_cell_length_c   16.75697374
_cell_angle_alpha   90.00000000
_cell_angle_beta   90.00000000
_cell_angle_gamma   82.50485432
_symmetry_Int_Tables_number   1
_chemical_formula_structural   NbC2NCl8
_chemical_formula_sum   'Nb2 C4 N2 Cl16'
_cell_volume   630.83896649
_cell_formula_units_Z   2
loop_
 _symmetry_equiv_pos_site_id
 _symmetry_equiv_pos_as_xyz
  1  'x, y, z'
loop_
 _atom_site_type_symbol
 _atom_site_label
 _atom_site_symmetry_multiplicity
 _atom_site_fract_x
 _atom_site_fract_y
 _atom_site_fract_z
 _atom_site_occupancy
  Nb  Nb0  1  0.40500257  0.40500257  0.37432730  1
  Nb  Nb1  1  0.59499743  0.59499743  0.87432730  1
  C  C2  1  0.06606631  0.06606631  0.14369609  1
  C  C3  1  0.93393369  0.93393369  0.64369609  1
  C  C4  1  0.15454747  0.15454747  0.21626502  1
  C  C5  1  0.84545253  0.84545253  0.71626502  1
  N  N6  1  0.22823918  0.22823918  0.27241204  1
  N  N7  1  0.77175982  0.77175982  0.77241204  1
  Cl  Cl8  1  0.29072824  0.93001090  0.08855470  1
  Cl  Cl9  1  0.70927076  0.06998810  0.58855470  1
  Cl  Cl10  1  0.93001090  0.29072824  0.08855470  1
  Cl  Cl11  1  0.06998810  0.70927076  0.58855470  1
  Cl  Cl12  1  0.55553887  0.55553887  0.26023727  1
  Cl  Cl13  1  0.44446113  0.44446113  0.76023827  1
  Cl  Cl14  1  0.88162620  0.88162620  0.17197388  1
  Cl  Cl15  1  0.11837380  0.11837380  0.67197388  1
  Cl  Cl16  1  0.58142908  0.58142908  0.46992868  1
  Cl  Cl17  1  0.41857092  0.41857092  0.96992868  1
  Cl  Cl18  1  0.09645267  0.66892226  0.36231522  1
  Cl  Cl19  1  0.90354733  0.33107774  0.86231522  1
  Cl  Cl20  1  0.66892226  0.09645267  0.36231522  1
  Cl  Cl21  1  0.33107774  0.90354733  0.86231522  1
  Cl  Cl22  1  0.20435359  0.20435359  0.46042890  1
  Cl  Cl23  1  0.79564741  0.79564741  0.96042890  1
