# generated using pymatgen
data_EuAgAu2
_symmetry_space_group_name_H-M   'P 1'
_cell_length_a   5.04888035
_cell_length_b   5.04879916
_cell_length_c   5.04886479
_cell_angle_alpha   59.99959638
_cell_angle_beta   60.00009067
_cell_angle_gamma   59.99934207
_symmetry_Int_Tables_number   1
_chemical_formula_structural   EuAgAu2
_chemical_formula_sum   'Eu1 Ag1 Au2'
_cell_volume   91.00363280
_cell_formula_units_Z   1
loop_
 _symmetry_equiv_pos_site_id
 _symmetry_equiv_pos_as_xyz
  1  'x, y, z'
loop_
 _atom_site_type_symbol
 _atom_site_label
 _atom_site_symmetry_multiplicity
 _atom_site_fract_x
 _atom_site_fract_y
 _atom_site_fract_z
 _atom_site_occupancy
  Eu  Eu0  1  0.74999884  0.74999921  0.74999973  1
  Ag  Ag1  1  0.25000003  0.24999998  0.24999984  1
  Au  Au2  1  0.50000086  0.49999849  0.49999995  1
  Au  Au3  1  0.99999928  0.00000132  0.99999949  1
