# generated using pymatgen
data_MgV2(BiO5)2
_symmetry_space_group_name_H-M   'P 1'
_cell_length_a   5.44774740
_cell_length_b   8.27075378
_cell_length_c   11.11616163
_cell_angle_alpha   90.00000000
_cell_angle_beta   90.00000000
_cell_angle_gamma   108.36461866
_symmetry_Int_Tables_number   1
_chemical_formula_structural   MgV2(BiO5)2
_chemical_formula_sum   'Mg2 V4 Bi4 O20'
_cell_volume   475.35218648
_cell_formula_units_Z   2
loop_
 _symmetry_equiv_pos_site_id
 _symmetry_equiv_pos_as_xyz
  1  'x, y, z'
loop_
 _atom_site_type_symbol
 _atom_site_label
 _atom_site_symmetry_multiplicity
 _atom_site_fract_x
 _atom_site_fract_y
 _atom_site_fract_z
 _atom_site_occupancy
  Mg  Mg0  1  0.36894248  0.82668803  0.08199033  1
  Mg  Mg1  1  0.13105752  0.67331197  0.58199033  1
  V  V2  1  0.80045167  0.95538739  0.64342750  1
  V  V3  1  0.20499280  0.03201587  0.35174491  1
  V  V4  1  0.69954833  0.54461261  0.14342750  1
  V  V5  1  0.29500720  0.46798413  0.85174491  1
  Bi  Bi6  1  0.11150932  0.16409835  0.08729299  1
  Bi  Bi7  1  0.86824479  0.83427149  0.90248839  1
  Bi  Bi8  1  0.63175521  0.66572851  0.40248839  1
  Bi  Bi9  1  0.38849068  0.33590165  0.58729299  1
  O  O10  1  0.52423730  0.34850469  0.08114630  1
  O  O11  1  0.05509481  0.33157737  0.94313061  1
  O  O12  1  0.49322350  0.66076795  0.19208138  1
  O  O13  1  0.75262916  0.52923448  0.54168068  1
  O  O14  1  0.82118017  0.51181547  0.27850222  1
  O  O15  1  0.33331717  0.97818720  0.22338230  1
  O  O16  1  0.53495519  0.83084516  0.55265377  1
  O  O17  1  0.44490519  0.16842263  0.44313061  1
  O  O18  1  0.26560459  0.50389900  0.47194700  1
  O  O19  1  0.97576270  0.15149531  0.58114630  1
  O  O20  1  0.16668283  0.52181280  0.72338230  1
  O  O21  1  0.46131143  0.65911336  0.93456344  1
  O  O22  1  0.03868857  0.84088664  0.43456344  1
  O  O23  1  0.67881983  0.98818453  0.77850222  1
  O  O24  1  0.74737084  0.97076552  0.04168068  1
  O  O25  1  0.23439541  0.99610100  0.97194700  1
  O  O26  1  0.50295198  0.36683312  0.79251516  1
  O  O27  1  0.96504481  0.66915484  0.05265377  1
  O  O28  1  0.00677650  0.83923205  0.69208138  1
  O  O29  1  0.99704802  0.13316688  0.29251516  1
