# generated using pymatgen
data_LiNi2OF3
_symmetry_space_group_name_H-M   'P 1'
_cell_length_a   5.97792735
_cell_length_b   6.08651566
_cell_length_c   8.61039998
_cell_angle_alpha   90.00000000
_cell_angle_beta   90.00000000
_cell_angle_gamma   90.00000000
_symmetry_Int_Tables_number   1
_chemical_formula_structural   LiNi2OF3
_chemical_formula_sum   'Li4 Ni8 O4 F12'
_cell_volume   313.28723762
_cell_formula_units_Z   4
loop_
 _symmetry_equiv_pos_site_id
 _symmetry_equiv_pos_as_xyz
  1  'x, y, z'
loop_
 _atom_site_type_symbol
 _atom_site_label
 _atom_site_symmetry_multiplicity
 _atom_site_fract_x
 _atom_site_fract_y
 _atom_site_fract_z
 _atom_site_occupancy
  Li  Li0  1  0.75000000  0.02682400  0.10652612  1
  Li  Li1  1  0.75000000  0.52682400  0.39347388  1
  Li  Li2  1  0.25000000  0.47317600  0.60652612  1
  Li  Li3  1  0.25000000  0.97317600  0.89347388  1
  Ni  Ni4  1  0.50000000  0.50000000  0.00000000  1
  Ni  Ni5  1  0.00000000  0.50000000  0.00000000  1
  Ni  Ni6  1  0.25000000  0.24614442  0.26162330  1
  Ni  Ni7  1  0.25000000  0.74614442  0.23837670  1
  Ni  Ni8  1  0.00000000  0.00000000  0.50000000  1
  Ni  Ni9  1  0.50000000  0.00000000  0.50000000  1
  Ni  Ni10  1  0.75000000  0.75385558  0.73837670  1
  Ni  Ni11  1  0.75000000  0.25385558  0.76162330  1
  O  O12  1  0.75000000  0.29285550  0.98590428  1
  O  O13  1  0.75000000  0.79285550  0.51409572  1
  O  O14  1  0.25000000  0.20714450  0.48590428  1
  O  O15  1  0.25000000  0.70714450  0.01409572  1
  F  F16  1  0.75000000  0.74994060  0.98032166  1
  F  F17  1  0.01154463  0.99508513  0.24879943  1
  F  F18  1  0.48845537  0.99508513  0.24879943  1
  F  F19  1  0.48845537  0.49508513  0.25120057  1
  F  F20  1  0.01154463  0.49508513  0.25120057  1
  F  F21  1  0.75000000  0.24994060  0.51967834  1
  F  F22  1  0.25000000  0.75005940  0.48032166  1
  F  F23  1  0.51154463  0.50491487  0.74879943  1
  F  F24  1  0.98845537  0.50491487  0.74879943  1
  F  F25  1  0.51154463  0.00491487  0.75120057  1
  F  F26  1  0.98845537  0.00491487  0.75120057  1
  F  F27  1  0.25000000  0.25005940  0.01967834  1
