# generated using pymatgen
data_LiNi(PO3)3
_symmetry_space_group_name_H-M   'P 1'
_cell_length_a   10.21665283
_cell_length_b   12.79355025
_cell_length_c   5.19366169
_cell_angle_alpha   90.00000000
_cell_angle_beta   90.00000000
_cell_angle_gamma   90.00000000
_symmetry_Int_Tables_number   1
_chemical_formula_structural   LiNi(PO3)3
_chemical_formula_sum   'Li4 Ni4 P12 O36'
_cell_volume   678.84929597
_cell_formula_units_Z   4
loop_
 _symmetry_equiv_pos_site_id
 _symmetry_equiv_pos_as_xyz
  1  'x, y, z'
loop_
 _atom_site_type_symbol
 _atom_site_label
 _atom_site_symmetry_multiplicity
 _atom_site_fract_x
 _atom_site_fract_y
 _atom_site_fract_z
 _atom_site_occupancy
  Li  Li0  1  0.06226193  0.89937741  0.57266660  1
  Li  Li1  1  0.43773807  0.10062259  0.07266660  1
  Li  Li2  1  0.56226193  0.60062259  0.42733340  1
  Li  Li3  1  0.93773807  0.39937741  0.92733340  1
  Ni  Ni4  1  0.11266309  0.15402823  0.09622947  1
  Ni  Ni5  1  0.38733691  0.84597177  0.59622947  1
  Ni  Ni6  1  0.61266309  0.34597177  0.90377053  1
  Ni  Ni7  1  0.88733691  0.65402823  0.40377053  1
  P  P8  1  0.08331009  0.62712033  0.88467793  1
  P  P9  1  0.12711313  0.36877168  0.39427268  1
  P  P10  1  0.22838437  0.80813969  0.08130284  1
  P  P11  1  0.27161563  0.19186031  0.58130284  1
  P  P12  1  0.37288687  0.63122832  0.89427268  1
  P  P13  1  0.41668991  0.37287967  0.38467793  1
  P  P14  1  0.58331009  0.87287967  0.11532207  1
  P  P15  1  0.62711313  0.13122832  0.60572732  1
  P  P16  1  0.72838437  0.69186031  0.91869716  1
  P  P17  1  0.77161563  0.30813969  0.41869716  1
  P  P18  1  0.87288687  0.86877168  0.10572732  1
  P  P19  1  0.91668991  0.12712033  0.61532207  1
  O  O20  1  0.99198472  0.56061056  0.04038531  1
  O  O21  1  0.04586893  0.66131664  0.61731429  1
  O  O22  1  0.03137591  0.43811375  0.52224051  1
  O  O23  1  0.10542849  0.73108387  0.06353428  1
  O  O24  1  0.09646004  0.31819950  0.13500608  1
  O  O25  1  0.15368373  0.27351484  0.59532747  1
  O  O26  1  0.22917927  0.86412295  0.33575170  1
  O  O27  1  0.23615568  0.86991190  0.83314164  1
  O  O28  1  0.22862853  0.57739329  0.87870744  1
  O  O29  1  0.27137147  0.42260671  0.37870744  1
  O  O30  1  0.26384432  0.13008810  0.33314164  1
  O  O31  1  0.27082073  0.13587705  0.83575170  1
  O  O32  1  0.34631627  0.72648516  0.09532747  1
  O  O33  1  0.40353996  0.68180050  0.63500608  1
  O  O34  1  0.39457151  0.26891613  0.56353428  1
  O  O35  1  0.46862409  0.56188625  0.02224051  1
  O  O36  1  0.45413107  0.33868336  0.11731429  1
  O  O37  1  0.50801528  0.43938944  0.54038531  1
  O  O38  1  0.49198472  0.93938944  0.95961469  1
  O  O39  1  0.54586893  0.83868336  0.38268571  1
  O  O40  1  0.53137591  0.06188625  0.47775949  1
  O  O41  1  0.60542849  0.76891613  0.93646572  1
  O  O42  1  0.59646004  0.18180050  0.86499392  1
  O  O43  1  0.65368373  0.22648516  0.40467253  1
  O  O44  1  0.72917927  0.63587705  0.66424830  1
  O  O45  1  0.73615568  0.63008810  0.16685836  1
  O  O46  1  0.72862853  0.92260671  0.12129256  1
  O  O47  1  0.77137147  0.07739329  0.62129256  1
  O  O48  1  0.76384432  0.36991190  0.66685836  1
  O  O49  1  0.77082073  0.36412295  0.16424830  1
  O  O50  1  0.84631627  0.77351484  0.90467253  1
  O  O51  1  0.90353996  0.81819950  0.36499392  1
  O  O52  1  0.89457151  0.23108387  0.43646572  1
  O  O53  1  0.96862409  0.93811375  0.97775949  1
  O  O54  1  0.95413107  0.16131664  0.88268571  1
  O  O55  1  0.00801528  0.06061056  0.45961469  1
