# generated using pymatgen
data_Li7Ni2P7O24
_symmetry_space_group_name_H-M   'P 1'
_cell_length_a   15.11314700
_cell_length_b   5.06777001
_cell_length_c   12.21751514
_cell_angle_alpha   90.00000000
_cell_angle_beta   97.09134660
_cell_angle_gamma   90.00000000
_symmetry_Int_Tables_number   1
_chemical_formula_structural   Li7Ni2P7O24
_chemical_formula_sum   'Li14 Ni4 P14 O48'
_cell_volume   928.58106507
_cell_formula_units_Z   2
loop_
 _symmetry_equiv_pos_site_id
 _symmetry_equiv_pos_as_xyz
  1  'x, y, z'
loop_
 _atom_site_type_symbol
 _atom_site_label
 _atom_site_symmetry_multiplicity
 _atom_site_fract_x
 _atom_site_fract_y
 _atom_site_fract_z
 _atom_site_occupancy
  Li  Li0  1  0.05799544  0.72748647  0.51933435  1
  Li  Li1  1  0.13618152  0.82582914  0.88749414  1
  Li  Li2  1  0.05799544  0.27251353  0.01933435  1
  Li  Li3  1  0.13618152  0.17417086  0.38749414  1
  Li  Li4  1  0.40717744  0.15698292  0.55871091  1
  Li  Li5  1  0.40717744  0.84301708  0.05871091  1
  Li  Li6  1  0.50000000  0.70156767  0.75000000  1
  Li  Li7  1  0.50000000  0.29843233  0.25000000  1
  Li  Li8  1  0.59282256  0.15698292  0.94128909  1
  Li  Li9  1  0.59282256  0.84301708  0.44128909  1
  Li  Li10  1  0.86381848  0.82582914  0.61250586  1
  Li  Li11  1  0.94200456  0.72748647  0.98066565  1
  Li  Li12  1  0.86381848  0.17417086  0.11250586  1
  Li  Li13  1  0.94200456  0.27251353  0.48066565  1
  Ni  Ni14  1  0.28401461  0.63804968  0.70877884  1
  Ni  Ni15  1  0.28401461  0.36195032  0.20877884  1
  Ni  Ni16  1  0.71598539  0.63804968  0.79122116  1
  Ni  Ni17  1  0.71598539  0.36195032  0.29122116  1
  P  P18  1  0.00000000  0.44359007  0.75000000  1
  P  P19  1  0.00000000  0.55640993  0.25000000  1
  P  P20  1  0.13853180  0.13465537  0.65608581  1
  P  P21  1  0.13853180  0.86534463  0.15608581  1
  P  P22  1  0.27264293  0.37959862  0.94978467  1
  P  P23  1  0.27264293  0.62040138  0.44978467  1
  P  P24  1  0.39314586  0.14617335  0.80584792  1
  P  P25  1  0.39314586  0.85382665  0.30584792  1
  P  P26  1  0.60685414  0.14617335  0.69415208  1
  P  P27  1  0.60685414  0.85382665  0.19415208  1
  P  P28  1  0.72735707  0.37959862  0.55021533  1
  P  P29  1  0.72735707  0.62040138  0.05021533  1
  P  P30  1  0.86146820  0.13465537  0.84391419  1
  P  P31  1  0.86146820  0.86534463  0.34391419  1
  O  O32  1  0.01547796  0.59155859  0.85827788  1
  O  O33  1  0.01547796  0.40844141  0.35827788  1
  O  O34  1  0.08175759  0.24020533  0.75307726  1
  O  O35  1  0.07671825  0.13125413  0.54720308  1
  O  O36  1  0.08175759  0.75979467  0.25307726  1
  O  O37  1  0.07671825  0.86874587  0.04720308  1
  O  O38  1  0.16828038  0.86487589  0.70258635  1
  O  O39  1  0.18841029  0.25750162  0.98404078  1
  O  O40  1  0.21596341  0.32349758  0.65101338  1
  O  O41  1  0.16828038  0.13512411  0.20258635  1
  O  O42  1  0.18841029  0.74249838  0.48404078  1
  O  O43  1  0.24780949  0.60675467  0.86714283  1
  O  O44  1  0.21596341  0.67650242  0.15101338  1
  O  O45  1  0.24780949  0.39324533  0.36714283  1
  O  O46  1  0.31437023  0.13698839  0.88509102  1
  O  O47  1  0.31437023  0.86301161  0.38509102  1
  O  O48  1  0.36086794  0.96264933  0.70764072  1
  O  O49  1  0.34435952  0.53263937  0.54186057  1
  O  O50  1  0.40113284  0.43319073  0.76735366  1
  O  O51  1  0.36086794  0.03735067  0.20764072  1
  O  O52  1  0.34435952  0.46736063  0.04186057  1
  O  O53  1  0.40113284  0.56680927  0.26735366  1
  O  O54  1  0.47507669  0.03237539  0.87417639  1
  O  O55  1  0.47507669  0.96762461  0.37417639  1
  O  O56  1  0.52492331  0.03237539  0.62582361  1
  O  O57  1  0.52492331  0.96762461  0.12582361  1
  O  O58  1  0.59886716  0.43319073  0.73264634  1
  O  O59  1  0.65564048  0.53263937  0.95813943  1
  O  O60  1  0.63913206  0.96264933  0.79235928  1
  O  O61  1  0.59886716  0.56680927  0.23264634  1
  O  O62  1  0.65564048  0.46736063  0.45813943  1
  O  O63  1  0.63913206  0.03735067  0.29235928  1
  O  O64  1  0.68562977  0.13698839  0.61490898  1
  O  O65  1  0.68562977  0.86301161  0.11490898  1
  O  O66  1  0.75219051  0.60675467  0.63285717  1
  O  O67  1  0.78403659  0.32349758  0.84898662  1
  O  O68  1  0.75219051  0.39324533  0.13285717  1
  O  O69  1  0.81158971  0.25750162  0.51595922  1
  O  O70  1  0.83171962  0.86487589  0.79741365  1
  O  O71  1  0.78403659  0.67650242  0.34898662  1
  O  O72  1  0.81158971  0.74249838  0.01595922  1
  O  O73  1  0.83171962  0.13512411  0.29741365  1
  O  O74  1  0.92328175  0.13125413  0.95279692  1
  O  O75  1  0.91824241  0.24020533  0.74692274  1
  O  O76  1  0.92328175  0.86874587  0.45279692  1
  O  O77  1  0.91824241  0.75979467  0.24692274  1
  O  O78  1  0.98452204  0.59155859  0.64172212  1
  O  O79  1  0.98452204  0.40844141  0.14172212  1
