# generated using pymatgen
data_CaMn2O4
_symmetry_space_group_name_H-M   'P 1'
_cell_length_a   2.98419423
_cell_length_b   8.59982213
_cell_length_c   7.63370428
_cell_angle_alpha   70.41210293
_cell_angle_beta   78.76582496
_cell_angle_gamma   80.03538395
_symmetry_Int_Tables_number   1
_chemical_formula_structural   CaMn2O4
_chemical_formula_sum   'Ca2 Mn4 O8'
_cell_volume   179.79946396
_cell_formula_units_Z   2
loop_
 _symmetry_equiv_pos_site_id
 _symmetry_equiv_pos_as_xyz
  1  'x, y, z'
loop_
 _atom_site_type_symbol
 _atom_site_label
 _atom_site_symmetry_multiplicity
 _atom_site_fract_x
 _atom_site_fract_y
 _atom_site_fract_z
 _atom_site_occupancy
  Ca  Ca0  1  0.33719942  0.16194149  0.16515769  1
  Ca  Ca1  1  0.64885678  0.82064405  0.88717974  1
  Mn  Mn2  1  0.59752852  0.18541686  0.62562459  1
  Mn  Mn3  1  0.14761112  0.50241420  0.20492170  1
  Mn  Mn4  1  0.85068881  0.48236803  0.82033607  1
  Mn  Mn5  1  0.40214967  0.78855112  0.40862984  1
  O  O6  1  0.88728282  0.67028471  0.55688342  1
  O  O7  1  0.42966604  0.33041249  0.81444155  1
  O  O8  1  0.56925529  0.65451583  0.20962225  1
  O  O9  1  0.13404708  0.27967623  0.45751330  1
  O  O10  1  0.10407316  0.03262588  0.76537434  1
  O  O11  1  0.74701841  0.37165601  0.13686866  1
  O  O12  1  0.88206774  0.94967772  0.28741534  1
  O  O13  1  0.25124615  0.61963936  0.88186551  1
