# generated using pymatgen
data_LiFePO5
_symmetry_space_group_name_H-M   'P 1'
_cell_length_a   6.79937876
_cell_length_b   6.94582351
_cell_length_c   8.14270410
_cell_angle_alpha   90.32287949
_cell_angle_beta   92.04519988
_cell_angle_gamma   115.22677850
_symmetry_Int_Tables_number   1
_chemical_formula_structural   LiFePO5
_chemical_formula_sum   'Li4 Fe4 P4 O20'
_cell_volume   347.56770415
_cell_formula_units_Z   4
loop_
 _symmetry_equiv_pos_site_id
 _symmetry_equiv_pos_as_xyz
  1  'x, y, z'
loop_
 _atom_site_type_symbol
 _atom_site_label
 _atom_site_symmetry_multiplicity
 _atom_site_fract_x
 _atom_site_fract_y
 _atom_site_fract_z
 _atom_site_occupancy
  Li  Li0  1  0.30140183  0.79957142  0.43124368  1
  Li  Li1  1  0.20828815  0.27338273  0.07005556  1
  Li  Li2  1  0.79171185  0.72661727  0.92994444  1
  Li  Li3  1  0.69859817  0.20042858  0.56875632  1
  Fe  Fe4  1  0.24668797  0.49746220  0.74826336  1
  Fe  Fe5  1  0.24641766  0.99709538  0.75394527  1
  Fe  Fe6  1  0.75358234  0.00290462  0.24605473  1
  Fe  Fe7  1  0.75331203  0.50253780  0.25173664  1
  P  P8  1  0.23977957  0.75454653  0.08854352  1
  P  P9  1  0.26084607  0.24153693  0.41229088  1
  P  P10  1  0.73915393  0.75846307  0.58770912  1
  P  P11  1  0.76022043  0.24545347  0.91145648  1
  O  O12  1  0.13454373  0.86613735  0.97516672  1
  O  O13  1  0.08822392  0.64025356  0.22976140  1
  O  O14  1  0.22841399  0.74101155  0.66915865  1
  O  O15  1  0.28819553  0.59033491  0.98601373  1
  O  O16  1  0.20022552  0.39280366  0.51870276  1
  O  O17  1  0.44658695  0.92327828  0.17884099  1
  O  O18  1  0.05886403  0.07987809  0.31251810  1
  O  O19  1  0.27154150  0.25845365  0.83188097  1
  O  O20  1  0.64231503  0.88264228  0.47849506  1
  O  O21  1  0.41903412  0.36775137  0.27828544  1
  O  O22  1  0.58096588  0.63224863  0.72171456  1
  O  O23  1  0.35768497  0.11735772  0.52150494  1
  O  O24  1  0.72845850  0.74154635  0.16811903  1
  O  O25  1  0.94113597  0.92012191  0.68748190  1
  O  O26  1  0.55341305  0.07672172  0.82115901  1
  O  O27  1  0.79977448  0.60719634  0.48129724  1
  O  O28  1  0.71180447  0.40966509  0.01398627  1
  O  O29  1  0.77158601  0.25898845  0.33084135  1
  O  O30  1  0.91177608  0.35974644  0.77023860  1
  O  O31  1  0.86545627  0.13386265  0.02483328  1
