# generated using pymatgen
data_Li4Mn2Nb3Cr3O16
_symmetry_space_group_name_H-M   'P 1'
_cell_length_a   6.09290564
_cell_length_b   6.14223213
_cell_length_c   10.04940402
_cell_angle_alpha   89.99868923
_cell_angle_beta   90.12329960
_cell_angle_gamma   120.26694643
_symmetry_Int_Tables_number   1
_chemical_formula_structural   Li4Mn2Nb3Cr3O16
_chemical_formula_sum   'Li4 Mn2 Nb3 Cr3 O16'
_cell_volume   324.82224549
_cell_formula_units_Z   1
loop_
 _symmetry_equiv_pos_site_id
 _symmetry_equiv_pos_as_xyz
  1  'x, y, z'
loop_
 _atom_site_type_symbol
 _atom_site_label
 _atom_site_symmetry_multiplicity
 _atom_site_fract_x
 _atom_site_fract_y
 _atom_site_fract_z
 _atom_site_occupancy
  Li  Li0  1  0.33369673  0.66686571  0.90348927  1
  Li  Li1  1  0.01380129  0.00691545  0.00441560  1
  Li  Li2  1  0.01860473  0.00931536  0.49139385  1
  Li  Li3  1  0.67275758  0.33638410  0.37340807  1
  Mn  Mn4  1  0.31357833  0.65680734  0.48102468  1
  Mn  Mn5  1  0.65749937  0.32876633  0.01618871  1
  Nb  Nb6  1  0.65773715  0.82886011  0.21627026  1
  Nb  Nb7  1  0.82518394  0.66014513  0.71533914  1
  Nb  Nb8  1  0.82514194  0.16501962  0.71531002  1
  Cr  Cr9  1  0.16776877  0.83190280  0.21505587  1
  Cr  Cr10  1  0.16774947  0.33587710  0.21505087  1
  Cr  Cr11  1  0.33344640  0.16674208  0.71499359  1
  O  O12  1  0.14856655  0.84149174  0.60821082  1
  O  O13  1  0.03549393  0.51775437  0.32854326  1
  O  O14  1  0.33692882  0.66847624  0.10446460  1
  O  O15  1  0.00039866  0.00019927  0.31300847  1
  O  O16  1  0.99984452  0.99993176  0.81746450  1
  O  O17  1  0.14855445  0.30710008  0.60821056  1
  O  O18  1  0.49266083  0.97126062  0.33169779  1
  O  O19  1  0.49264967  0.52139746  0.33169128  1
  O  O20  1  0.31073235  0.15537925  0.10828983  1
  O  O21  1  0.68346596  0.84175519  0.60483247  1
  O  O22  1  0.52089346  0.49009557  0.82690273  1
  O  O23  1  0.52090576  0.03084056  0.82690929  1
  O  O24  1  0.66794055  0.33399492  0.60432721  1
  O  O25  1  0.84029196  0.68989210  0.10359354  1
  O  O26  1  0.97344343  0.48672749  0.82415655  1
  O  O27  1  0.84026543  0.15040325  0.10359715  1
