# generated using pymatgen
data_LiNi(PO3)4
_symmetry_space_group_name_H-M   'P 1'
_cell_length_a   7.26243188
_cell_length_b   8.76576051
_cell_length_c   7.63361520
_cell_angle_alpha   90.00000000
_cell_angle_beta   92.16316647
_cell_angle_gamma   90.00000000
_symmetry_Int_Tables_number   1
_chemical_formula_structural   LiNi(PO3)4
_chemical_formula_sum   'Li2 Ni2 P8 O24'
_cell_volume   485.61528003
_cell_formula_units_Z   2
loop_
 _symmetry_equiv_pos_site_id
 _symmetry_equiv_pos_as_xyz
  1  'x, y, z'
loop_
 _atom_site_type_symbol
 _atom_site_label
 _atom_site_symmetry_multiplicity
 _atom_site_fract_x
 _atom_site_fract_y
 _atom_site_fract_z
 _atom_site_occupancy
  Li  Li0  1  0.21761627  0.21286646  0.14913713  1
  Li  Li1  1  0.78238373  0.71286646  0.85086287  1
  Ni  Ni2  1  0.22638705  0.98113532  0.66657968  1
  Ni  Ni3  1  0.77361295  0.48113532  0.33341932  1
  P  P4  1  0.12208515  0.62189726  0.56909636  1
  P  P5  1  0.15084964  0.57872849  0.19542991  1
  P  P6  1  0.43225376  0.39303850  0.61938961  1
  P  P7  1  0.57804484  0.29654258  0.97055297  1
  P  P8  1  0.42195516  0.79654258  0.02944703  1
  P  P9  1  0.56774624  0.89303850  0.38061039  1
  P  P10  1  0.84915036  0.07872849  0.80457009  1
  P  P11  1  0.87791485  0.12189726  0.43090364  1
  O  O12  1  0.05581910  0.08557540  0.84085051  1
  O  O13  1  0.04871893  0.02556444  0.45175290  1
  O  O14  1  0.10485531  0.76749447  0.67112494  1
  O  O15  1  0.20359169  0.66155235  0.38038425  1
  O  O16  1  0.28841296  0.52761193  0.66577371  1
  O  O17  1  0.37095895  0.90212781  0.88081443  1
  O  O18  1  0.23990906  0.69637039  0.06391664  1
  O  O19  1  0.41390440  0.19593165  0.98967394  1
  O  O20  1  0.33036431  0.24502237  0.59921933  1
  O  O21  1  0.23751241  0.42486845  0.18823286  1
  O  O22  1  0.44849756  0.94694320  0.52475839  1
  O  O23  1  0.56303001  0.39945895  0.79584997  1
  O  O24  1  0.43696999  0.89945895  0.20415003  1
  O  O25  1  0.55150244  0.44694320  0.47524161  1
  O  O26  1  0.76248759  0.92486845  0.81176714  1
  O  O27  1  0.66963569  0.74502237  0.40078067  1
  O  O28  1  0.58609560  0.69593165  0.01032606  1
  O  O29  1  0.76009094  0.19637039  0.93608336  1
  O  O30  1  0.62904105  0.40212781  0.11918557  1
  O  O31  1  0.71158704  0.02761193  0.33422629  1
  O  O32  1  0.79640831  0.16155235  0.61961575  1
  O  O33  1  0.89514469  0.26749447  0.32887506  1
  O  O34  1  0.95128107  0.52556444  0.54824710  1
  O  O35  1  0.94418090  0.58557540  0.15914949  1
