# generated using pymatgen
data_Co2(CO3)3
_symmetry_space_group_name_H-M   'P 1'
_cell_length_a   7.64467231
_cell_length_b   7.44659018
_cell_length_c   7.62132045
_cell_angle_alpha   109.38456434
_cell_angle_beta   108.96576708
_cell_angle_gamma   108.43863574
_symmetry_Int_Tables_number   1
_chemical_formula_structural   Co2(CO3)3
_chemical_formula_sum   'Co4 C6 O18'
_cell_volume   340.49765686
_cell_formula_units_Z   2
loop_
 _symmetry_equiv_pos_site_id
 _symmetry_equiv_pos_as_xyz
  1  'x, y, z'
loop_
 _atom_site_type_symbol
 _atom_site_label
 _atom_site_symmetry_multiplicity
 _atom_site_fract_x
 _atom_site_fract_y
 _atom_site_fract_z
 _atom_site_occupancy
  Co  Co0  1  0.04434848  0.54617452  0.16542818  1
  Co  Co1  1  0.16882946  0.05175337  0.54994980  1
  Co  Co2  1  0.47663273  0.44537597  0.44215436  1
  Co  Co3  1  0.54426297  0.16073050  0.03937594  1
  C  C4  1  0.16695781  0.24875201  0.93963968  1
  C  C5  1  0.25245210  0.94481513  0.16857667  1
  C  C6  1  0.40254758  0.79816962  0.58090598  1
  C  C7  1  0.58993804  0.40142469  0.80811669  1
  C  C8  1  0.80667630  0.60118809  0.40680430  1
  C  C9  1  0.93595430  0.16931185  0.24973550  1
  O  O10  1  0.06539728  0.35668287  0.94547078  1
  O  O11  1  0.07762115  0.77445976  0.08913115  1
  O  O12  1  0.08668911  0.07157055  0.76481547  1
  O  O13  1  0.08775002  0.34988484  0.30471319  1
  O  O14  1  0.39552329  0.96670829  0.70078320  1
  O  O15  1  0.33962797  0.74513690  0.38258192  1
  O  O16  1  0.46891443  0.68889971  0.65498896  1
  O  O17  1  0.39329135  0.34312214  0.75474158  1
  O  O18  1  0.36007153  0.94635412  0.06923156  1
  O  O19  1  0.31515170  0.11266461  0.34773962  1
  O  O20  1  0.34362991  0.30873021  0.09853056  1
  O  O21  1  0.70394508  0.39584618  0.97648451  1
  O  O22  1  0.67138059  0.46138135  0.70355646  1
  O  O23  1  0.71517019  0.69819708  0.47903858  1
  O  O24  1  0.72582488  0.39354467  0.34692847  1
  O  O25  1  0.97316214  0.70024033  0.39593167  1
  O  O26  1  0.76030553  0.07793205  0.07549932  1
  O  O27  1  0.95049908  0.06964359  0.35942590  1
