# generated using pymatgen
data_MgCr2(CuO4)2
_symmetry_space_group_name_H-M   'P 1'
_cell_length_a   6.49987176
_cell_length_b   8.24956457
_cell_length_c   11.89302794
_cell_angle_alpha   90.00000000
_cell_angle_beta   90.27232428
_cell_angle_gamma   90.00000000
_symmetry_Int_Tables_number   1
_chemical_formula_structural   MgCr2(CuO4)2
_chemical_formula_sum   'Mg4 Cr8 Cu8 O32'
_cell_volume   637.71017731
_cell_formula_units_Z   4
loop_
 _symmetry_equiv_pos_site_id
 _symmetry_equiv_pos_as_xyz
  1  'x, y, z'
loop_
 _atom_site_type_symbol
 _atom_site_label
 _atom_site_symmetry_multiplicity
 _atom_site_fract_x
 _atom_site_fract_y
 _atom_site_fract_z
 _atom_site_occupancy
  Mg  Mg0  1  0.11517903  0.15927424  0.04865240  1
  Mg  Mg1  1  0.88482097  0.84072576  0.95134760  1
  Mg  Mg2  1  0.88482097  0.65927424  0.45134760  1
  Mg  Mg3  1  0.11517903  0.34072576  0.54865240  1
  Cr  Cr4  1  0.10216309  0.46149005  0.84570567  1
  Cr  Cr5  1  0.10216309  0.03850995  0.34570567  1
  Cr  Cr6  1  0.61161948  0.08555919  0.13135777  1
  Cr  Cr7  1  0.89783691  0.96149005  0.65429433  1
  Cr  Cr8  1  0.38838052  0.91444081  0.86864223  1
  Cr  Cr9  1  0.38838052  0.58555919  0.36864223  1
  Cr  Cr10  1  0.61161948  0.41444081  0.63135777  1
  Cr  Cr11  1  0.89783691  0.53850995  0.15429433  1
  Cu  Cu12  1  0.75934238  0.18246939  0.87079421  1
  Cu  Cu13  1  0.38240515  0.05917651  0.63386143  1
  Cu  Cu14  1  0.61759485  0.94082349  0.36613857  1
  Cu  Cu15  1  0.24065762  0.81753061  0.12920579  1
  Cu  Cu16  1  0.75934238  0.31753061  0.37079421  1
  Cu  Cu17  1  0.38240515  0.44082349  0.13386143  1
  Cu  Cu18  1  0.24065762  0.68246939  0.62920579  1
  Cu  Cu19  1  0.61759485  0.55917651  0.86613857  1
  O  O20  1  0.03664153  0.22554144  0.39471197  1
  O  O21  1  0.67089845  0.01084238  0.59948414  1
  O  O22  1  0.18685323  0.57452051  0.47226934  1
  O  O23  1  0.81314677  0.07452051  0.02773066  1
  O  O24  1  0.03664153  0.27445856  0.89471197  1
  O  O25  1  0.96335847  0.77445856  0.60528803  1
  O  O26  1  0.07777694  0.10225202  0.61680951  1
  O  O27  1  0.51379394  0.89468094  0.13941023  1
  O  O28  1  0.51379394  0.60531906  0.63941023  1
  O  O29  1  0.31593245  0.86780055  0.72947287  1
  O  O30  1  0.68406755  0.36780055  0.77052713  1
  O  O31  1  0.48620606  0.10531906  0.86058977  1
  O  O32  1  0.92222306  0.89774798  0.38319049  1
  O  O33  1  0.87910844  0.53964201  0.29437086  1
  O  O34  1  0.41456328  0.28247222  0.58539693  1
  O  O35  1  0.41456328  0.21752778  0.08539693  1
  O  O36  1  0.12089156  0.03964201  0.20562914  1
  O  O37  1  0.48620606  0.39468094  0.36058977  1
  O  O38  1  0.12089156  0.46035799  0.70562914  1
  O  O39  1  0.81314677  0.42547949  0.52773066  1
  O  O40  1  0.67089845  0.48915762  0.09948414  1
  O  O41  1  0.68406755  0.13219945  0.27052713  1
  O  O42  1  0.96335847  0.72554144  0.10528803  1
  O  O43  1  0.07777694  0.39774798  0.11680951  1
  O  O44  1  0.18685323  0.92547949  0.97226934  1
  O  O45  1  0.58543672  0.78247222  0.91460307  1
  O  O46  1  0.32910155  0.98915762  0.40051586  1
  O  O47  1  0.32910155  0.51084238  0.90051586  1
  O  O48  1  0.92222306  0.60225202  0.88319049  1
  O  O49  1  0.58543672  0.71752778  0.41460307  1
  O  O50  1  0.31593245  0.63219945  0.22947287  1
  O  O51  1  0.87910844  0.96035799  0.79437086  1
