# generated using pymatgen
data_MgV2O4
_symmetry_space_group_name_H-M   'P 1'
_cell_length_a   3.02393271
_cell_length_b   7.65120946
_cell_length_c   7.50363796
_cell_angle_alpha   76.24669329
_cell_angle_beta   78.21950465
_cell_angle_gamma   78.37493984
_symmetry_Int_Tables_number   1
_chemical_formula_structural   MgV2O4
_chemical_formula_sum   'Mg2 V4 O8'
_cell_volume   162.93003139
_cell_formula_units_Z   2
loop_
 _symmetry_equiv_pos_site_id
 _symmetry_equiv_pos_as_xyz
  1  'x, y, z'
loop_
 _atom_site_type_symbol
 _atom_site_label
 _atom_site_symmetry_multiplicity
 _atom_site_fract_x
 _atom_site_fract_y
 _atom_site_fract_z
 _atom_site_occupancy
  Mg  Mg0  1  0.31407525  0.16076976  0.20740904  1
  Mg  Mg1  1  0.67712681  0.81175746  0.82526386  1
  V  V2  1  0.62868184  0.16850455  0.56231973  1
  V  V3  1  0.13125912  0.52363665  0.20314768  1
  V  V4  1  0.85660373  0.44898742  0.82713325  1
  V  V5  1  0.36121550  0.80173069  0.46939530  1
  O  O6  1  0.85584275  0.66687569  0.61302869  1
  O  O7  1  0.46223669  0.30507505  0.76228569  1
  O  O8  1  0.52555820  0.66806189  0.26856240  1
  O  O9  1  0.13229596  0.30426688  0.41876432  1
  O  O10  1  0.16254451  0.97458769  0.68584947  1
  O  O11  1  0.77496813  0.34224258  0.10047109  1
  O  O12  1  0.82660333  0.99760296  0.34881410  1
  O  O13  1  0.21579516  0.63295071  0.93156938  1
