# generated using pymatgen
data_MnN
_symmetry_space_group_name_H-M   'P 1'
_cell_length_a   2.95076296
_cell_length_b   2.95076296
_cell_length_c   5.27915395
_cell_angle_alpha   90.00000000
_cell_angle_beta   90.00000000
_cell_angle_gamma   120.01221510
_symmetry_Int_Tables_number   1
_chemical_formula_structural   MnN
_chemical_formula_sum   'Mn2 N2'
_cell_volume   39.80248027
_cell_formula_units_Z   2
loop_
 _symmetry_equiv_pos_site_id
 _symmetry_equiv_pos_as_xyz
  1  'x, y, z'
loop_
 _atom_site_type_symbol
 _atom_site_label
 _atom_site_symmetry_multiplicity
 _atom_site_fract_x
 _atom_site_fract_y
 _atom_site_fract_z
 _atom_site_occupancy
  Mn  Mn0  1  0.33338832  0.66661168  0.48777237  1
  Mn  Mn1  1  0.66661168  0.33338832  0.98777237  1
  N  N2  1  0.33335691  0.66664309  0.13422763  1
  N  N3  1  0.66664309  0.33335691  0.63422763  1
