# generated using pymatgen
data_Ca2Mn2(SiO4)3
_symmetry_space_group_name_H-M   'P 1'
_cell_length_a   10.36532814
_cell_length_b   10.36532838
_cell_length_c   10.36532817
_cell_angle_alpha   110.07507627
_cell_angle_beta   109.17014183
_cell_angle_gamma   109.17014018
_symmetry_Int_Tables_number   1
_chemical_formula_structural   Ca2Mn2(SiO4)3
_chemical_formula_sum   'Ca8 Mn8 Si12 O48'
_cell_volume   857.21752610
_cell_formula_units_Z   4
loop_
 _symmetry_equiv_pos_site_id
 _symmetry_equiv_pos_as_xyz
  1  'x, y, z'
loop_
 _atom_site_type_symbol
 _atom_site_label
 _atom_site_symmetry_multiplicity
 _atom_site_fract_x
 _atom_site_fract_y
 _atom_site_fract_z
 _atom_site_occupancy
  Ca  Ca0  1  0.87918209  0.62918109  0.25000100  1
  Ca  Ca1  1  0.62081891  0.87081891  0.75000000  1
  Ca  Ca2  1  0.87918109  0.75000000  0.62918009  1
  Ca  Ca3  1  0.62081891  0.24999900  0.87081891  1
  Ca  Ca4  1  0.12081791  0.37081891  0.75000000  1
  Ca  Ca5  1  0.37918209  0.12918109  0.25000000  1
  Ca  Ca6  1  0.12081891  0.24999900  0.37081791  1
  Ca  Ca7  1  0.37918109  0.75000000  0.12918109  1
  Mn  Mn8  1  0.50000000  0.50000000  0.50000000  1
  Mn  Mn9  1  0.50000000  0.50000000  0.00000000  1
  Mn  Mn10  1  0.50000000  0.00000000  0.50000000  1
  Mn  Mn11  1  0.50000000  0.00000000  0.00000000  1
  Mn  Mn12  1  0.00000000  0.00000000  0.50000000  1
  Mn  Mn13  1  0.00000000  0.50000000  0.00000000  1
  Mn  Mn14  1  0.00000000  0.00000000  0.00000000  1
  Mn  Mn15  1  0.00000000  0.50000000  0.50000000  1
  Si  Si16  1  0.25000100  0.12500000  0.87500000  1
  Si  Si17  1  0.62544175  0.75000000  0.37544175  1
  Si  Si18  1  0.25000000  0.62500000  0.37500000  1
  Si  Si19  1  0.37455925  0.62455825  0.75000000  1
  Si  Si20  1  0.75000000  0.37500000  0.62500000  1
  Si  Si21  1  0.87455825  0.12455825  0.75000000  1
  Si  Si22  1  0.12544175  0.87544175  0.25000000  1
  Si  Si23  1  0.12544175  0.75000000  0.87544175  1
  Si  Si24  1  0.62544175  0.37544175  0.25000000  1
  Si  Si25  1  0.37455825  0.24999900  0.62455825  1
  Si  Si26  1  0.75000000  0.87500000  0.12500000  1
  Si  Si27  1  0.87455725  0.24999900  0.12455825  1
  O  O28  1  0.69608211  0.69097790  0.08879541  1
  O  O29  1  0.68898062  0.10732197  0.99059730  1
  O  O30  1  0.61672367  0.69838232  0.50940170  1
  O  O31  1  0.50229938  0.61128208  0.69358472  1
  O  O32  1  0.08230365  0.88871792  0.39101731  1
  O  O33  1  0.39781751  0.08879541  0.89271230  1
  O  O34  1  0.10218249  0.99489579  0.69097790  1
  O  O35  1  0.61672367  0.41834135  0.10732197  1
  O  O36  1  0.50229938  0.39101731  0.80871466  1
  O  O37  1  0.88327633  0.99059830  0.80161768  1
  O  O38  1  0.41769735  0.10898269  0.61128308  1
  O  O39  1  0.81101938  0.50940270  0.39267803  1
  O  O40  1  0.99769962  0.80641528  0.88871792  1
  O  O41  1  0.08230365  0.69358472  0.69128534  1
  O  O42  1  0.68897962  0.08165865  0.69838232  1
  O  O43  1  0.10218249  0.60728670  0.41120459  1
  O  O44  1  0.81101938  0.80161768  0.41834135  1
  O  O45  1  0.39781751  0.80902310  0.50510521  1
  O  O46  1  0.41769735  0.80871566  0.80641528  1
  O  O47  1  0.80391689  0.89271330  0.99489479  1
  O  O48  1  0.30391789  0.49489479  0.39271330  1
  O  O49  1  0.88327633  0.39267803  0.08165865  1
  O  O50  1  0.99769962  0.69128534  0.10898169  1
  O  O51  1  0.69608211  0.50510521  0.60728670  1
  O  O52  1  0.30391789  0.30902310  0.91120459  1
  O  O53  1  0.31101938  0.89267803  0.00940170  1
  O  O54  1  0.38327633  0.30161768  0.49059730  1
  O  O55  1  0.49770062  0.38871792  0.30641528  1
  O  O56  1  0.91769735  0.11128308  0.60898269  1
  O  O57  1  0.60218149  0.91120359  0.10728570  1
  O  O58  1  0.89781751  0.00510521  0.30902210  1
  O  O59  1  0.38327633  0.58165865  0.89267803  1
  O  O60  1  0.49770062  0.60898269  0.19128534  1
  O  O61  1  0.11672367  0.00940270  0.19838232  1
  O  O62  1  0.58230265  0.89101731  0.38871792  1
  O  O63  1  0.18898062  0.49059730  0.60732097  1
  O  O64  1  0.00230038  0.19358472  0.11128308  1
  O  O65  1  0.91769735  0.30641528  0.30871566  1
  O  O66  1  0.31101938  0.91834035  0.30161768  1
  O  O67  1  0.89781751  0.39271330  0.58879541  1
  O  O68  1  0.18898062  0.19838232  0.58165865  1
  O  O69  1  0.60218249  0.19097790  0.49489579  1
  O  O70  1  0.58230265  0.19128534  0.19358472  1
  O  O71  1  0.19608311  0.10728770  0.00510521  1
  O  O72  1  0.19608211  0.58879541  0.19097790  1
  O  O73  1  0.11672367  0.60732197  0.91834135  1
  O  O74  1  0.00230038  0.30871566  0.89101831  1
  O  O75  1  0.80391789  0.41120459  0.80902210  1
