# generated using pymatgen
data_Y5Mn3(NiO6)3
_symmetry_space_group_name_H-M   'P 1'
_cell_length_a   15.84842030
_cell_length_b   5.51617325
_cell_length_c   7.48311749
_cell_angle_alpha   90.00000000
_cell_angle_beta   89.95541654
_cell_angle_gamma   90.00000000
_symmetry_Int_Tables_number   1
_chemical_formula_structural   Y5Mn3(NiO6)3
_chemical_formula_sum   'Y10 Mn6 Ni6 O36'
_cell_volume   654.19362947
_cell_formula_units_Z   2
loop_
 _symmetry_equiv_pos_site_id
 _symmetry_equiv_pos_as_xyz
  1  'x, y, z'
loop_
 _atom_site_type_symbol
 _atom_site_label
 _atom_site_symmetry_multiplicity
 _atom_site_fract_x
 _atom_site_fract_y
 _atom_site_fract_z
 _atom_site_occupancy
  Y  Y0  1  0.49535025  0.43662216  0.74705596  1
  Y  Y1  1  0.82902321  0.43433285  0.74983652  1
  Y  Y2  1  0.00848787  0.92992379  0.75338666  1
  Y  Y3  1  0.33638183  0.93457679  0.74960095  1
  Y  Y4  1  0.67268888  0.92606054  0.74847690  1
  Y  Y5  1  0.17268888  0.57393946  0.24847690  1
  Y  Y6  1  0.50848787  0.57007621  0.25338666  1
  Y  Y7  1  0.83638183  0.56542321  0.24960095  1
  Y  Y8  1  0.32902321  0.06566715  0.24983652  1
  Y  Y9  1  0.99535025  0.06337784  0.24705596  1
  Mn  Mn10  1  0.16820365  0.01951040  0.98963214  1
  Mn  Mn11  1  0.50393399  0.00646822  0.00421971  1
  Mn  Mn12  1  0.82957919  0.00337813  0.00508845  1
  Mn  Mn13  1  0.00393399  0.49353178  0.50421971  1
  Mn  Mn14  1  0.32957919  0.49662187  0.50508845  1
  Mn  Mn15  1  0.66820365  0.48048960  0.48963214  1
  Ni  Ni16  1  0.16604253  0.01931924  0.50508216  1
  Ni  Ni17  1  0.50344975  0.00193180  0.49685218  1
  Ni  Ni18  1  0.83251375  -0.00031923  0.49794898  1
  Ni  Ni19  1  0.00344975  0.49806820  0.99685218  1
  Ni  Ni20  1  0.33251375  0.50031923  0.99794898  1
  Ni  Ni21  1  0.66604253  0.48068076  0.00508216  1
  O  O22  1  0.06253414  0.18382233  0.96708085  1
  O  O23  1  0.40125585  0.19223689  0.94877705  1
  O  O24  1  0.73905694  0.19731218  0.93060451  1
  O  O25  1  0.09498624  0.69565626  0.54282814  1
  O  O26  1  0.42926061  0.70067181  0.55111498  1
  O  O27  1  0.76590694  0.68773731  0.54596439  1
  O  O28  1  0.26590694  0.81226269  0.04596439  1
  O  O29  1  0.59498624  0.80434374  0.04282814  1
  O  O30  1  0.92926061  0.79932819  0.05111498  1
  O  O31  1  0.23905694  0.30268782  0.43060451  1
  O  O32  1  0.56253414  0.31617767  0.46708085  1
  O  O33  1  0.90125585  0.30776311  0.44877705  1
  O  O34  1  0.05563261  0.17981447  0.53376355  1
  O  O35  1  0.39553434  0.20804727  0.55158206  1
  O  O36  1  0.73555245  0.21176348  0.56477363  1
  O  O37  1  0.09999919  0.73662147  0.96830262  1
  O  O38  1  0.43577757  0.71153811  0.94637932  1
  O  O39  1  0.76783857  0.69953283  0.94907944  1
  O  O40  1  0.26783857  0.80046717  0.44907944  1
  O  O41  1  0.59999919  0.76337853  0.46830262  1
  O  O42  1  0.93577757  0.78846189  0.44637932  1
  O  O43  1  0.23555245  0.28823652  0.06477363  1
  O  O44  1  0.55563261  0.32018553  0.03376355  1
  O  O45  1  0.89553434  0.29195273  0.05158206  1
  O  O46  1  0.03483036  0.47025843  0.25440267  1
  O  O47  1  0.36867131  0.47681775  0.25421062  1
  O  O48  1  0.69921132  0.46428930  0.25097987  1
  O  O49  1  0.13618140  0.97670196  0.25365551  1
  O  O50  1  0.46768886  0.97231390  0.24628111  1
  O  O51  1  0.80412743  0.97038044  0.24431905  1
  O  O52  1  0.30412743  0.52961956  0.74431905  1
  O  O53  1  0.63618140  0.52329804  0.75365551  1
  O  O54  1  0.96768886  0.52768610  0.74628111  1
  O  O55  1  0.19921132  0.03571070  0.75097987  1
  O  O56  1  0.53483036  0.02974157  0.75440267  1
  O  O57  1  0.86867131  0.02318225  0.75421062  1
