# generated using pymatgen
data_Al5(NiO4)3
_symmetry_space_group_name_H-M   'P 1'
_cell_length_a   5.69702801
_cell_length_b   5.69989021
_cell_length_c   17.21325888
_cell_angle_alpha   59.25527524
_cell_angle_beta   60.90973644
_cell_angle_gamma   59.79442927
_symmetry_Int_Tables_number   1
_chemical_formula_structural   Al5(NiO4)3
_chemical_formula_sum   'Al10 Ni6 O24'
_cell_volume   394.94828424
_cell_formula_units_Z   2
loop_
 _symmetry_equiv_pos_site_id
 _symmetry_equiv_pos_as_xyz
  1  'x, y, z'
loop_
 _atom_site_type_symbol
 _atom_site_label
 _atom_site_symmetry_multiplicity
 _atom_site_fract_x
 _atom_site_fract_y
 _atom_site_fract_z
 _atom_site_occupancy
  Al  Al0  1  0.50150292  0.99492251  0.16621680  1
  Al  Al1  1  0.49796392  0.49999445  0.00075524  1
  Al  Al2  1  0.11478980  0.14017951  0.37673478  1
  Al  Al3  1  0.50621329  0.49402059  0.16606835  1
  Al  Al4  1  0.12178685  0.13798065  0.70646340  1
  Al  Al5  1  0.50072766  0.49835389  0.50018037  1
  Al  Al6  1  0.87292152  0.85867309  0.29776858  1
  Al  Al7  1  0.50298718  0.00170982  0.83202667  1
  Al  Al8  1  0.49832677  0.51091223  0.83157905  1
  Al  Al9  1  0.88292565  0.86089259  0.62283224  1
  Ni  Ni10  1  0.11849990  0.13883581  0.03526182  1
  Ni  Ni11  1  0.49623216  0.49473164  0.33679337  1
  Ni  Ni12  1  0.99839895  0.49091285  0.16985496  1
  Ni  Ni13  1  0.50135689  0.50558912  0.66358148  1
  Ni  Ni14  1  0.99952182  0.49791481  0.50110359  1
  Ni  Ni15  1  0.99397536  0.50870829  0.83295751  1
  O  O16  1  0.27830749  0.24991247  0.08537529  1
  O  O17  1  0.25741847  0.24927899  0.24559135  1
  O  O18  1  0.27569673  0.71140056  0.08632537  1
  O  O19  1  0.70375952  0.25334872  0.09448805  1
  O  O20  1  0.26445723  0.74147672  0.24857716  1
  O  O21  1  0.24331701  0.28303031  0.41472689  1
  O  O22  1  0.73832999  0.24920337  0.24942792  1
  O  O23  1  0.73011180  0.72463046  0.10590645  1
  O  O24  1  0.25997947  0.75407516  0.42133135  1
  O  O25  1  0.24276000  0.27931812  0.57982187  1
  O  O26  1  0.72972692  0.74687596  0.25183061  1
  O  O27  1  0.73358539  0.28256359  0.41514381  1
  O  O28  1  0.25821216  0.25925514  0.75170044  1
  O  O29  1  0.26596241  0.71715484  0.58486795  1
  O  O30  1  0.74020265  0.24736187  0.57856782  1
  O  O31  1  0.30400184  0.25205494  0.89834364  1
  O  O32  1  0.75487313  0.71934940  0.42328104  1
  O  O33  1  0.25197117  0.74722050  0.75320845  1
  O  O34  1  0.73190915  0.26168830  0.75041888  1
  O  O35  1  0.75642556  0.71685266  0.58483782  1
  O  O36  1  0.30784701  0.73732088  0.90737085  1
  O  O37  1  0.73821660  0.30303139  0.90944769  1
  O  O38  1  0.72434491  0.76618345  0.74981698  1
  O  O39  1  0.73808172  0.73263232  0.91038315  1
