# generated using pymatgen
data_Ca5Mn2(NiO6)2
_symmetry_space_group_name_H-M   'P 1'
_cell_length_a   6.38401947
_cell_length_b   6.38039518
_cell_length_c   6.38401966
_cell_angle_alpha   93.01965389
_cell_angle_beta   93.38302055
_cell_angle_gamma   93.01964975
_symmetry_Int_Tables_number   1
_chemical_formula_structural   Ca5Mn2(NiO6)2
_chemical_formula_sum   'Ca5 Mn2 Ni2 O12'
_cell_volume   258.81769856
_cell_formula_units_Z   1
loop_
 _symmetry_equiv_pos_site_id
 _symmetry_equiv_pos_as_xyz
  1  'x, y, z'
loop_
 _atom_site_type_symbol
 _atom_site_label
 _atom_site_symmetry_multiplicity
 _atom_site_fract_x
 _atom_site_fract_y
 _atom_site_fract_z
 _atom_site_occupancy
  Ca  Ca0  1  0.60914335  0.88496826  0.25556279  1
  Ca  Ca1  1  0.76305952  0.39334703  0.12258782  1
  Ca  Ca2  1  0.37741318  0.10665197  0.73694048  1
  Ca  Ca3  1  0.89057602  0.25000000  0.60942298  1
  Ca  Ca4  1  0.24443721  0.61503274  0.89085665  1
  Mn  Mn5  1  0.49656732  0.49789024  0.49970042  1
  Mn  Mn6  1  0.00029858  0.00210876  0.00343168  1
  Ni  Ni7  1  0.74830416  0.75000000  0.75169584  1
  Ni  Ni8  1  0.25063120  0.25000000  0.24936880  1
  O  O9  1  0.21993812  0.40012926  0.54922914  1
  O  O10  1  0.78577510  0.57924428  0.47926032  1
  O  O11  1  0.58239810  0.47158428  0.79622767  1
  O  O12  1  0.48501031  0.79104769  0.58935984  1
  O  O13  1  0.02073968  0.92075572  0.71422490  1
  O  O14  1  0.91064016  0.70895231  0.01498969  1
  O  O15  1  0.29156065  0.96941088  0.06267205  1
  O  O16  1  0.07496963  0.29083022  0.95497742  1
  O  O17  1  0.95077186  0.09986974  0.28006288  1
  O  O18  1  0.54502258  0.20917078  0.42503037  1
  O  O19  1  0.43732695  0.53058912  0.20843935  1
  O  O20  1  0.70377233  0.02841572  0.91760290  1
