# generated using pymatgen
data_V4ZnS8
_symmetry_space_group_name_H-M   'P 1'
_cell_length_a   7.46767071
_cell_length_b   7.46767043
_cell_length_c   7.46767158
_cell_angle_alpha   50.88476634
_cell_angle_beta   50.88476189
_cell_angle_gamma   50.88476727
_symmetry_Int_Tables_number   1
_chemical_formula_structural   V4ZnS8
_chemical_formula_sum   'V4 Zn1 S8'
_cell_volume   231.17679991
_cell_formula_units_Z   1
loop_
 _symmetry_equiv_pos_site_id
 _symmetry_equiv_pos_as_xyz
  1  'x, y, z'
loop_
 _atom_site_type_symbol
 _atom_site_label
 _atom_site_symmetry_multiplicity
 _atom_site_fract_x
 _atom_site_fract_y
 _atom_site_fract_z
 _atom_site_occupancy
  V  V0  1  0.50000100  0.99999900  0.50000100  1
  V  V1  1  0.99999900  0.50000000  0.50000100  1
  V  V2  1  0.50000000  0.50000000  0.00000000  1
  V  V3  1  0.00000000  0.00000000  0.00000000  1
  Zn  Zn4  1  0.50000000  0.50000100  0.49999900  1
  S  S5  1  0.75476720  0.26129703  0.75476719  1
  S  S6  1  0.24523180  0.24523280  0.73870298  1
  S  S7  1  0.24523180  0.73870397  0.24523181  1
  S  S8  1  0.73870198  0.24523280  0.24523281  1
  S  S9  1  0.25820587  0.25820687  0.25820586  1
  S  S10  1  0.74179413  0.74179413  0.74179414  1
  S  S11  1  0.26129802  0.75476820  0.75476719  1
  S  S12  1  0.75476820  0.75476820  0.26129702  1
