# generated using pymatgen
data_Ca5(MnN3)2
_symmetry_space_group_name_H-M   'P 1'
_cell_length_a   4.96343314
_cell_length_b   6.84875595
_cell_length_c   6.36669078
_cell_angle_alpha   103.04930896
_cell_angle_beta   90.00000000
_cell_angle_gamma   90.00000000
_symmetry_Int_Tables_number   1
_chemical_formula_structural   Ca5(MnN3)2
_chemical_formula_sum   'Ca5 Mn2 N6'
_cell_volume   210.83616064
_cell_formula_units_Z   1
loop_
 _symmetry_equiv_pos_site_id
 _symmetry_equiv_pos_as_xyz
  1  'x, y, z'
loop_
 _atom_site_type_symbol
 _atom_site_label
 _atom_site_symmetry_multiplicity
 _atom_site_fract_x
 _atom_site_fract_y
 _atom_site_fract_z
 _atom_site_occupancy
  Ca  Ca0  1  0.25000000  0.92661942  0.69452682  1
  Ca  Ca1  1  0.75000000  0.59513080  0.37677742  1
  Ca  Ca2  1  0.75000000  0.65804053  0.89663538  1
  Ca  Ca3  1  0.25000000  0.39091368  0.60808549  1
  Ca  Ca4  1  0.75000000  0.09751367  0.29438572  1
  Mn  Mn5  1  0.75000000  0.20303384  0.79589894  1
  Mn  Mn6  1  0.25000000  0.78970243  0.20918583  1
  N  N7  1  0.75000000  0.94613010  0.70051707  1
  N  N8  1  0.25000000  0.63772704  0.39452041  1
  N  N9  1  0.75000000  0.36677609  0.60934188  1
  N  N10  1  0.25000000  0.69723413  0.93264033  1
  N  N11  1  0.25000000  0.03664049  0.33954198  1
  N  N12  1  0.75000000  0.32600378  0.05226774  1
