# generated using pymatgen
data_CaCo2(SiO3)4
_symmetry_space_group_name_H-M   'P 1'
_cell_length_a   5.27480396
_cell_length_b   6.50231674
_cell_length_c   6.50231697
_cell_angle_alpha   84.44978737
_cell_angle_beta   77.50285282
_cell_angle_gamma   77.50285214
_symmetry_Int_Tables_number   1
_chemical_formula_structural   CaCo2(SiO3)4
_chemical_formula_sum   'Ca1 Co2 Si4 O12'
_cell_volume   212.28505258
_cell_formula_units_Z   1
loop_
 _symmetry_equiv_pos_site_id
 _symmetry_equiv_pos_as_xyz
  1  'x, y, z'
loop_
 _atom_site_type_symbol
 _atom_site_label
 _atom_site_symmetry_multiplicity
 _atom_site_fract_x
 _atom_site_fract_y
 _atom_site_fract_z
 _atom_site_occupancy
  Ca  Ca0  1  0.75000000  0.30219374  0.69780626  1
  Co  Co1  1  0.25000000  0.09006471  0.90993629  1
  Co  Co2  1  0.74999900  0.88899201  0.11100699  1
  Si  Si3  1  0.27521045  0.19879959  0.37979317  1
  Si  Si4  1  0.22478955  0.62020583  0.80120041  1
  Si  Si5  1  0.77438615  0.38015828  0.19775646  1
  Si  Si6  1  0.72561385  0.80224354  0.61984272  1
  O  O7  1  0.51419227  0.32739138  0.37181604  1
  O  O8  1  0.98580673  0.62818396  0.67260862  1
  O  O9  1  0.50309849  0.65521059  0.63822476  1
  O  O10  1  0.99690151  0.36177524  0.34478841  1
  O  O11  1  0.18511732  0.10740765  0.62083784  1
  O  O12  1  0.31488268  0.37916216  0.89259235  1
  O  O13  1  0.79871259  0.90790274  0.38736375  1
  O  O14  1  0.70128741  0.61263625  0.09209726  1
  O  O15  1  0.87737628  0.19707959  0.02290825  1
  O  O16  1  0.62262472  0.97709075  0.80291941  1
  O  O17  1  0.36657282  0.04156024  0.18146328  1
  O  O18  1  0.13342718  0.81853672  0.95844076  1
