# generated using pymatgen
data_Ca2CoRhO6
_symmetry_space_group_name_H-M   'P 1'
_cell_length_a   6.30848796
_cell_length_b   6.48024967
_cell_length_c   6.48070019
_cell_angle_alpha   91.61646607
_cell_angle_beta   93.64020445
_cell_angle_gamma   93.76167203
_symmetry_Int_Tables_number   1
_chemical_formula_structural   Ca2CoRhO6
_chemical_formula_sum   'Ca4 Co2 Rh2 O12'
_cell_volume   263.69115118
_cell_formula_units_Z   2
loop_
 _symmetry_equiv_pos_site_id
 _symmetry_equiv_pos_as_xyz
  1  'x, y, z'
loop_
 _atom_site_type_symbol
 _atom_site_label
 _atom_site_symmetry_multiplicity
 _atom_site_fract_x
 _atom_site_fract_y
 _atom_site_fract_z
 _atom_site_occupancy
  Ca  Ca0  1  0.74935688  0.37918777  0.12118629  1
  Ca  Ca1  1  0.12118951  0.76054529  0.37916031  1
  Ca  Ca2  1  0.25075334  0.61684356  0.88440746  1
  Ca  Ca3  1  0.38024009  0.12002950  0.73956643  1
  Co  Co4  1  0.75136459  0.75557313  0.74302627  1
  Co  Co5  1  0.24938728  0.25046253  0.25047896  1
  Rh  Rh6  1  0.98932384  0.99809255  0.99700854  1
  Rh  Rh7  1  0.51081917  0.50237729  0.50300206  1
  O  O8  1  0.29218897  0.98109409  0.08087819  1
  O  O9  1  0.80103904  0.57922019  0.45929810  1
  O  O10  1  0.03770848  0.88647051  0.70526009  1
  O  O11  1  0.09406139  0.29912974  0.98733959  1
  O  O12  1  0.46397122  0.79368519  0.61554743  1
  O  O13  1  0.40611853  0.51473511  0.20246292  1
  O  O14  1  0.92510458  0.69524848  0.03269805  1
  O  O15  1  0.20726089  0.41841465  0.51844699  1
  O  O16  1  0.69987555  0.04202134  0.92048072  1
  O  O17  1  0.99895190  0.09798254  0.29157094  1
  O  O18  1  0.57295832  0.46359358  0.80494327  1
  O  O19  1  0.50025343  0.20815696  0.40092741  1
