# generated using pymatgen
data_Ba3Y5(CoO5)3
_symmetry_space_group_name_H-M   'P 1'
_cell_length_a   17.18118069
_cell_length_b   7.15005260
_cell_length_c   12.01964231
_cell_angle_alpha   90.00000000
_cell_angle_beta   90.00000000
_cell_angle_gamma   90.01444932
_symmetry_Int_Tables_number   1
_chemical_formula_structural   Ba3Y5(CoO5)3
_chemical_formula_sum   'Ba12 Y20 Co12 O60'
_cell_volume   1476.56908693
_cell_formula_units_Z   4
loop_
 _symmetry_equiv_pos_site_id
 _symmetry_equiv_pos_as_xyz
  1  'x, y, z'
loop_
 _atom_site_type_symbol
 _atom_site_label
 _atom_site_symmetry_multiplicity
 _atom_site_fract_x
 _atom_site_fract_y
 _atom_site_fract_z
 _atom_site_occupancy
  Ba  Ba0  1  0.08333534  0.95741215  0.89275862  1
  Ba  Ba1  1  0.41908886  0.91345734  0.89222736  1
  Ba  Ba2  1  0.74716136  0.91978368  0.89674239  1
  Ba  Ba3  1  0.25283864  0.08021632  0.10325761  1
  Ba  Ba4  1  0.58091114  0.08654266  0.10777264  1
  Ba  Ba5  1  0.91666466  0.04258785  0.10724138  1
  Ba  Ba6  1  0.24716136  0.41978368  0.60325761  1
  Ba  Ba7  1  0.58333534  0.45741215  0.60724138  1
  Ba  Ba8  1  0.91908886  0.41345734  0.60777264  1
  Ba  Ba9  1  0.08091114  0.58654266  0.39222736  1
  Ba  Ba10  1  0.41666466  0.54258785  0.39275862  1
  Ba  Ba11  1  0.75283864  0.58021632  0.39674239  1
  Y  Y12  1  0.08379084  0.12287096  0.29476565  1
  Y  Y13  1  0.75034078  0.11811166  0.29392227  1
  Y  Y14  1  0.24965922  0.88188834  0.70607773  1
  Y  Y15  1  0.91620916  0.87712904  0.70523435  1
  Y  Y16  1  0.25034078  0.61811166  0.20607773  1
  Y  Y17  1  0.58379084  0.62287096  0.20523435  1
  Y  Y18  1  0.41620916  0.37712904  0.79476565  1
  Y  Y19  1  0.74965922  0.38188834  0.79392227  1
  Y  Y20  1  0.07870089  0.39047909  0.06445409  1
  Y  Y21  1  0.41778747  0.39930816  0.08670299  1
  Y  Y22  1  0.75435836  0.39765713  0.07632949  1
  Y  Y23  1  0.24564164  0.60234287  0.92367051  1
  Y  Y24  1  0.58221253  0.60069184  0.91329701  1
  Y  Y25  1  0.92129911  0.60952091  0.93554591  1
  Y  Y26  1  0.25435836  0.89765713  0.42367051  1
  Y  Y27  1  0.57870089  0.89047909  0.43554591  1
  Y  Y28  1  0.91778747  0.89930816  0.41329701  1
  Y  Y29  1  0.08221253  0.10069184  0.58670299  1
  Y  Y30  1  0.42129911  0.10952091  0.56445409  1
  Y  Y31  1  0.74564164  0.10234287  0.57632949  1
  Co  Co32  1  0.08242881  0.65395579  0.66701440  1
  Co  Co33  1  0.41734483  0.69949102  0.65283867  1
  Co  Co34  1  0.74903667  0.69949465  0.65392846  1
  Co  Co35  1  0.25096333  0.30050535  0.34607154  1
  Co  Co36  1  0.58265517  0.30050898  0.34716133  1
  Co  Co37  1  0.91757119  0.34604421  0.33298560  1
  Co  Co38  1  0.24903667  0.19949465  0.84607154  1
  Co  Co39  1  0.58242881  0.15395579  0.83298560  1
  Co  Co40  1  0.91734483  0.19949102  0.84716133  1
  Co  Co41  1  0.08265517  0.80050898  0.15283867  1
  Co  Co42  1  0.41757119  0.84604421  0.16701440  1
  Co  Co43  1  0.75096333  0.80050535  0.15392846  1
  O  O44  1  0.32208890  0.18277441  0.44318988  1
  O  O45  1  0.65983900  0.16936145  0.43188412  1
  O  O46  1  0.99715604  0.17016088  0.43647220  1
  O  O47  1  0.16341691  0.83553155  0.56408130  1
  O  O48  1  0.48830347  0.81548512  0.55761342  1
  O  O49  1  0.82698416  0.82570453  0.56627756  1
  O  O50  1  0.01169653  0.68451488  0.05761342  1
  O  O51  1  0.33658309  0.66446845  0.06408130  1
  O  O52  1  0.67301584  0.67429547  0.06627756  1
  O  O53  1  0.17791110  0.31722559  0.94318988  1
  O  O54  1  0.50284396  0.32983912  0.93647220  1
  O  O55  1  0.84016100  0.33063855  0.93188412  1
  O  O56  1  0.00284396  0.82983912  0.56352780  1
  O  O57  1  0.34016100  0.83063855  0.56811588  1
  O  O58  1  0.67791110  0.81722559  0.55681012  1
  O  O59  1  0.17301584  0.17429547  0.43372244  1
  O  O60  1  0.51169653  0.18451488  0.44238658  1
  O  O61  1  0.83658309  0.16446845  0.43591870  1
  O  O62  1  0.32698416  0.32570453  0.93372244  1
  O  O63  1  0.66341691  0.33553155  0.93591870  1
  O  O64  1  0.98830347  0.31548512  0.94238658  1
  O  O65  1  0.15983900  0.66936145  0.06811588  1
  O  O66  1  0.49715604  0.67016088  0.06352780  1
  O  O67  1  0.82208890  0.68277441  0.05681012  1
  O  O68  1  0.17075933  0.35465805  0.23275566  1
  O  O69  1  0.50808130  0.36543265  0.22867095  1
  O  O70  1  0.83324609  0.33538346  0.22595018  1
  O  O71  1  0.99799436  0.66159666  0.77488255  1
  O  O72  1  0.33562521  0.64256734  0.76832017  1
  O  O73  1  0.67389419  0.63533083  0.77147263  1
  O  O74  1  0.16437479  0.85743266  0.26832017  1
  O  O75  1  0.50200564  0.83840334  0.27488255  1
  O  O76  1  0.82610581  0.86466917  0.27147263  1
  O  O77  1  0.32924067  0.14534195  0.73275566  1
  O  O78  1  0.66675391  0.16461654  0.72595018  1
  O  O79  1  0.99191870  0.13456735  0.72867095  1
  O  O80  1  0.16675391  0.66461654  0.77404982  1
  O  O81  1  0.49191870  0.63456735  0.77132905  1
  O  O82  1  0.82924067  0.64534195  0.76724434  1
  O  O83  1  0.32610581  0.36466917  0.22852737  1
  O  O84  1  0.66437479  0.35743266  0.23167983  1
  O  O85  1  0.00200564  0.33840334  0.22511745  1
  O  O86  1  0.17389419  0.13533083  0.72852737  1
  O  O87  1  0.49799436  0.16159666  0.72511745  1
  O  O88  1  0.83562521  0.14256734  0.73167983  1
  O  O89  1  0.00808130  0.86543265  0.27132905  1
  O  O90  1  0.33324609  0.83538346  0.27404982  1
  O  O91  1  0.67075933  0.85465805  0.26724434  1
  O  O92  1  0.08693599  0.06823380  0.10213371  1
  O  O93  1  0.41685553  0.06311554  0.09364295  1
  O  O94  1  0.74744647  0.07003912  0.10015806  1
  O  O95  1  0.25255353  0.92996088  0.89984194  1
  O  O96  1  0.58314447  0.93688446  0.90635705  1
  O  O97  1  0.91306401  0.93176620  0.89786629  1
  O  O98  1  0.24744647  0.57003912  0.39984194  1
  O  O99  1  0.58693599  0.56823380  0.39786629  1
  O  O100  1  0.91685553  0.56311554  0.40635705  1
  O  O101  1  0.08314447  0.43688446  0.59364295  1
  O  O102  1  0.41306401  0.43176620  0.60213371  1
  O  O103  1  0.75255353  0.42996088  0.60015806  1
