# generated using pymatgen
data_Ca3Co2(TeO6)2
_symmetry_space_group_name_H-M   'P 1'
_cell_length_a   5.38699098
_cell_length_b   5.50484187
_cell_length_c   7.81994437
_cell_angle_alpha   90.60186555
_cell_angle_beta   90.87371434
_cell_angle_gamma   92.02575469
_symmetry_Int_Tables_number   1
_chemical_formula_structural   Ca3Co2(TeO6)2
_chemical_formula_sum   'Ca3 Co2 Te2 O12'
_cell_volume   231.71077935
_cell_formula_units_Z   1
loop_
 _symmetry_equiv_pos_site_id
 _symmetry_equiv_pos_as_xyz
  1  'x, y, z'
loop_
 _atom_site_type_symbol
 _atom_site_label
 _atom_site_symmetry_multiplicity
 _atom_site_fract_x
 _atom_site_fract_y
 _atom_site_fract_z
 _atom_site_occupancy
  Ca  Ca0  1  0.98918275  0.05197751  0.25146769  1
  Ca  Ca1  1  0.00767741  0.95338900  0.74900439  1
  Ca  Ca2  1  0.47990777  0.44373368  0.75274573  1
  Co  Co3  1  0.50184748  0.99264294  0.01555151  1
  Co  Co4  1  0.98672624  0.50122167  0.48295246  1
  Te  Te5  1  0.99866241  0.50483290  0.00562439  1
  Te  Te6  1  0.49757991  0.98560524  0.49566329  1
  O  O7  1  0.71722178  0.28326601  0.46167000  1
  O  O8  1  0.19863316  0.22308909  0.95344736  1
  O  O9  1  0.80117781  0.81309819  0.46510424  1
  O  O10  1  0.28981793  0.71821794  0.94601657  1
  O  O11  1  0.90880638  0.52032530  0.76250097  1
  O  O12  1  0.58270580  0.02127315  0.73843661  1
  O  O13  1  0.28343194  0.70627141  0.55579278  1
  O  O14  1  0.22009640  0.19507272  0.54147584  1
  O  O15  1  0.08650571  0.47664490  0.24244318  1
  O  O16  1  0.70882384  0.28165795  0.03718496  1
  O  O17  1  0.40760987  0.97513657  0.25759886  1
  O  O18  1  0.82058341  0.80095082  0.03646219  1
