# generated using pymatgen
data_Zn2CrWO6
_symmetry_space_group_name_H-M   'P 1'
_cell_length_a   5.24009997
_cell_length_b   5.28696317
_cell_length_c   7.71420028
_cell_angle_alpha   90.00000000
_cell_angle_beta   89.61202726
_cell_angle_gamma   90.00000000
_symmetry_Int_Tables_number   1
_chemical_formula_structural   Zn2CrWO6
_chemical_formula_sum   'Zn4 Cr2 W2 O12'
_cell_volume   213.71096761
_cell_formula_units_Z   2
loop_
 _symmetry_equiv_pos_site_id
 _symmetry_equiv_pos_as_xyz
  1  'x, y, z'
loop_
 _atom_site_type_symbol
 _atom_site_label
 _atom_site_symmetry_multiplicity
 _atom_site_fract_x
 _atom_site_fract_y
 _atom_site_fract_z
 _atom_site_occupancy
  Zn  Zn0  1  0.00806199  0.03027907  0.25098481  1
  Zn  Zn1  1  0.49193801  0.53028007  0.24901519  1
  Zn  Zn2  1  0.99193901  0.96972193  0.74901519  1
  Zn  Zn3  1  0.50806099  0.46972093  0.75098481  1
  Cr  Cr4  1  0.50000000  0.00000000  0.00000000  1
  Cr  Cr5  1  0.00000100  0.49999900  0.50000000  1
  W  W6  1  0.50000000  0.00000000  0.49999900  1
  W  W7  1  0.00000000  0.49999900  0.00000000  1
  O  O8  1  0.67330582  0.32332026  0.43034912  1
  O  O9  1  0.82669418  0.82332126  0.06965088  1
  O  O10  1  0.32669318  0.67667974  0.56965088  1
  O  O11  1  0.17330682  0.17667874  0.93034912  1
  O  O12  1  0.17820270  0.17301154  0.56008975  1
  O  O13  1  0.32179730  0.67301054  0.93991025  1
  O  O14  1  0.82179830  0.82698846  0.43991025  1
  O  O15  1  0.67820170  0.32698946  0.06008975  1
  O  O16  1  0.11502327  0.41601456  0.24867968  1
  O  O17  1  0.38497773  0.91601556  0.25131932  1
  O  O18  1  0.61502327  0.08398444  0.74868068  1
  O  O19  1  0.88497773  0.58398544  0.75132032  1
