# generated using pymatgen
data_Zn(CoO2)2
_symmetry_space_group_name_H-M   'P 1'
_cell_length_a   5.86038716
_cell_length_b   5.80683754
_cell_length_c   17.49214647
_cell_angle_alpha   60.05531896
_cell_angle_beta   59.72493872
_cell_angle_gamma   60.33039146
_symmetry_Int_Tables_number   1
_chemical_formula_structural   Zn(CoO2)2
_chemical_formula_sum   'Zn6 Co12 O24'
_cell_volume   421.24305134
_cell_formula_units_Z   6
loop_
 _symmetry_equiv_pos_site_id
 _symmetry_equiv_pos_as_xyz
  1  'x, y, z'
loop_
 _atom_site_type_symbol
 _atom_site_label
 _atom_site_symmetry_multiplicity
 _atom_site_fract_x
 _atom_site_fract_y
 _atom_site_fract_z
 _atom_site_occupancy
  Zn  Zn0  1  0.13879376  0.11807240  0.04172732  1
  Zn  Zn1  1  0.49988136  0.50195090  0.33210609  1
  Zn  Zn2  1  0.99952039  0.49992783  0.16690110  1
  Zn  Zn3  1  0.49902835  0.49913385  0.66763984  1
  Zn  Zn4  1  0.99984475  0.50019332  0.49975514  1
  Zn  Zn5  1  0.99949393  0.49910414  0.83394869  1
  Co  Co6  1  0.49903870  0.00588215  0.16503293  1
  Co  Co7  1  0.13075688  0.11810307  0.37782132  1
  Co  Co8  1  0.49838052  0.49900267  0.00126325  1
  Co  Co9  1  0.49884775  0.50058894  0.16491025  1
  Co  Co10  1  0.50170532  0.99967294  0.49954847  1
  Co  Co11  1  0.13221013  0.11807884  0.71056680  1
  Co  Co12  1  0.50060754  0.49900896  0.50020240  1
  Co  Co13  1  0.50069792  0.99611203  0.83472827  1
  Co  Co14  1  0.86899268  0.88386283  0.28767987  1
  Co  Co15  1  0.50022911  0.49955552  0.83464372  1
  Co  Co16  1  0.86793012  0.88179886  0.62272609  1
  Co  Co17  1  0.86459249  0.87916319  0.95872930  1
  O  O18  1  0.28196374  0.25628303  0.08470621  1
  O  O19  1  0.27872484  0.24611615  0.24302118  1
  O  O20  1  0.28192527  0.70764596  0.08476281  1
  O  O21  1  0.70973991  0.26517621  0.08673114  1
  O  O22  1  0.27068968  0.23438767  0.42301571  1
  O  O23  1  0.27225542  0.75633576  0.23831062  1
  O  O24  1  0.27938933  0.24611628  0.57614355  1
  O  O25  1  0.73181202  0.27522413  0.24166392  1
  O  O26  1  0.27053803  0.72554511  0.42313139  1
  O  O27  1  0.71426615  0.75603727  0.09122795  1
  O  O28  1  0.72792846  0.24751703  0.42564124  1
  O  O29  1  0.73171679  0.76786468  0.24172785  1
  O  O30  1  0.27077061  0.22948381  0.75771856  1
  O  O31  1  0.27250116  0.75230343  0.57424486  1
  O  O32  1  0.73048093  0.27437984  0.57675034  1
  O  O33  1  0.27048822  0.72686257  0.75773729  1
  O  O34  1  0.28103998  0.25399457  0.90363272  1
  O  O35  1  0.72157880  0.75346502  0.42371452  1
  O  O36  1  0.72991499  0.24366011  0.76086281  1
  O  O37  1  0.73001656  0.76496325  0.57691908  1
  O  O38  1  0.28318499  0.73672899  0.91443932  1
  O  O39  1  0.71654426  0.27971891  0.91768196  1
  O  O40  1  0.72579152  0.74974231  0.75844600  1
  O  O41  1  0.71618564  0.75123347  0.91783914  1
