# generated using pymatgen
data_TiZnF5
_symmetry_space_group_name_H-M   'P 1'
_cell_length_a   5.40204312
_cell_length_b   5.40204269
_cell_length_c   7.59500862
_cell_angle_alpha   97.96203257
_cell_angle_beta   111.31715775
_cell_angle_gamma   107.10635220
_symmetry_Int_Tables_number   1
_chemical_formula_structural   TiZnF5
_chemical_formula_sum   'Ti2 Zn2 F10'
_cell_volume   189.69334252
_cell_formula_units_Z   2
loop_
 _symmetry_equiv_pos_site_id
 _symmetry_equiv_pos_as_xyz
  1  'x, y, z'
loop_
 _atom_site_type_symbol
 _atom_site_label
 _atom_site_symmetry_multiplicity
 _atom_site_fract_x
 _atom_site_fract_y
 _atom_site_fract_z
 _atom_site_occupancy
  Ti  Ti0  1  0.00000000  0.00000000  0.00000000  1
  Ti  Ti1  1  0.50000000  0.00000000  0.50000000  1
  Zn  Zn2  1  0.27119034  0.52119034  0.75000000  1
  Zn  Zn3  1  0.72880966  0.47880966  0.25000000  1
  F  F4  1  0.37455443  0.12455443  0.25000000  1
  F  F5  1  0.62544557  0.87544557  0.75000000  1
  F  F6  1  0.59237754  0.73168628  0.37245348  1
  F  F7  1  0.85923180  0.21992405  0.12754652  1
  F  F8  1  0.75034039  0.68213354  0.04500541  1
  F  F9  1  0.13712813  0.70533498  0.45499459  1
  F  F10  1  0.24965961  0.31786646  0.95499459  1
  F  F11  1  0.86287187  0.29466502  0.54500541  1
  F  F12  1  0.14076820  0.78007595  0.87245348  1
  F  F13  1  0.40762246  0.26831372  0.62754652  1
