# generated using pymatgen
data_ZnAgF5
_symmetry_space_group_name_H-M   'P 1'
_cell_length_a   5.35314583
_cell_length_b   7.97094679
_cell_length_c   10.13544661
_cell_angle_alpha   90.00000000
_cell_angle_beta   90.00000000
_cell_angle_gamma   110.94561756
_symmetry_Int_Tables_number   1
_chemical_formula_structural   ZnAgF5
_chemical_formula_sum   'Zn4 Ag4 F20'
_cell_volume   403.89792474
_cell_formula_units_Z   4
loop_
 _symmetry_equiv_pos_site_id
 _symmetry_equiv_pos_as_xyz
  1  'x, y, z'
loop_
 _atom_site_type_symbol
 _atom_site_label
 _atom_site_symmetry_multiplicity
 _atom_site_fract_x
 _atom_site_fract_y
 _atom_site_fract_z
 _atom_site_occupancy
  Zn  Zn0  1  0.48543804  0.75236539  0.00274046  1
  Zn  Zn1  1  0.51456196  0.74763461  0.50274046  1
  Zn  Zn2  1  0.51456196  0.24763461  0.99725954  1
  Zn  Zn3  1  0.48543804  0.25236539  0.49725954  1
  Ag  Ag4  1  0.89639729  0.60139295  0.75383552  1
  Ag  Ag5  1  0.10360271  0.89860705  0.25383552  1
  Ag  Ag6  1  0.10360271  0.39860705  0.24616448  1
  Ag  Ag7  1  0.89639729  0.10139295  0.74616448  1
  F  F8  1  0.59360617  0.57267177  0.89534504  1
  F  F9  1  0.40639383  0.92732823  0.39534504  1
  F  F10  1  0.40639383  0.42732823  0.10465496  1
  F  F11  1  0.59360617  0.07267177  0.60465496  1
  F  F12  1  0.63076602  0.48979796  0.60200409  1
  F  F13  1  0.36923398  0.01020204  0.10200409  1
  F  F14  1  0.36923398  0.51020204  0.39799591  1
  F  F15  1  0.63076602  0.98979796  0.89799591  1
  F  F16  1  0.84803529  0.80282487  0.41287878  1
  F  F17  1  0.15196471  0.69717513  0.91287878  1
  F  F18  1  0.15196471  0.19717513  0.58712122  1
  F  F19  1  0.84803529  0.30282487  0.08712122  1
  F  F20  1  0.77381490  0.84151863  0.12289723  1
  F  F21  1  0.22618510  0.65848137  0.62289723  1
  F  F22  1  0.22618510  0.15848137  0.87710277  1
  F  F23  1  0.77381490  0.34151863  0.37710277  1
  F  F24  1  0.84807616  0.83866029  0.68432197  1
  F  F25  1  0.15192384  0.66133971  0.18432197  1
  F  F26  1  0.15192384  0.16133971  0.31567803  1
  F  F27  1  0.84807616  0.33866029  0.81567803  1
