# generated using pymatgen
data_Mg2TaFeO6
_symmetry_space_group_name_H-M   'P 1'
_cell_length_a   5.19045779
_cell_length_b   5.42053961
_cell_length_c   7.61816174
_cell_angle_alpha   90.00000000
_cell_angle_beta   90.00000000
_cell_angle_gamma   89.33696360
_symmetry_Int_Tables_number   1
_chemical_formula_structural   Mg2TaFeO6
_chemical_formula_sum   'Mg4 Ta2 Fe2 O12'
_cell_volume   214.32325444
_cell_formula_units_Z   2
loop_
 _symmetry_equiv_pos_site_id
 _symmetry_equiv_pos_as_xyz
  1  'x, y, z'
loop_
 _atom_site_type_symbol
 _atom_site_label
 _atom_site_symmetry_multiplicity
 _atom_site_fract_x
 _atom_site_fract_y
 _atom_site_fract_z
 _atom_site_occupancy
  Mg  Mg0  1  0.00688761  0.95753961  0.25000000  1
  Mg  Mg1  1  0.48707574  0.43054234  0.25000000  1
  Mg  Mg2  1  0.51292426  0.56945766  0.75000000  1
  Mg  Mg3  1  0.99311239  0.04246039  0.75000000  1
  Ta  Ta4  1  0.00000000  0.50000000  0.00000000  1
  Ta  Ta5  1  0.00000000  0.50000000  0.50000000  1
  Fe  Fe6  1  0.50000000  0.00000000  0.00000000  1
  Fe  Fe7  1  0.50000000  0.00000000  0.50000000  1
  O  O8  1  0.82483625  0.81095064  0.56867766  1
  O  O9  1  0.31364847  0.67948832  0.43033930  1
  O  O10  1  0.17516375  0.18904936  0.43132234  1
  O  O11  1  0.68635153  0.32051168  0.93033930  1
  O  O12  1  0.13285982  0.44091670  0.75000000  1
  O  O13  1  0.68635153  0.32051168  0.56966070  1
  O  O14  1  0.31364847  0.67948832  0.06966070  1
  O  O15  1  0.82483625  0.81095064  0.93132234  1
  O  O16  1  0.63077515  0.06815250  0.25000000  1
  O  O17  1  0.17516375  0.18904936  0.06867766  1
  O  O18  1  0.36922485  0.93184750  0.75000000  1
  O  O19  1  0.86714018  0.55908330  0.25000000  1
