# generated using pymatgen
data_Ti2Zn3O7
_symmetry_space_group_name_H-M   'P 1'
_cell_length_a   5.24991607
_cell_length_b   5.25434967
_cell_length_c   9.54689269
_cell_angle_alpha   105.97311654
_cell_angle_beta   90.00000000
_cell_angle_gamma   90.00000000
_symmetry_Int_Tables_number   1
_chemical_formula_structural   Ti2Zn3O7
_chemical_formula_sum   'Ti4 Zn6 O14'
_cell_volume   253.18232808
_cell_formula_units_Z   2
loop_
 _symmetry_equiv_pos_site_id
 _symmetry_equiv_pos_as_xyz
  1  'x, y, z'
loop_
 _atom_site_type_symbol
 _atom_site_label
 _atom_site_symmetry_multiplicity
 _atom_site_fract_x
 _atom_site_fract_y
 _atom_site_fract_z
 _atom_site_occupancy
  Ti  Ti0  1  0.75213341  0.35693734  0.20696603  1
  Ti  Ti1  1  0.25213341  0.64306266  0.79303397  1
  Ti  Ti2  1  0.25213341  0.85002869  0.20696603  1
  Ti  Ti3  1  0.75213341  0.14997131  0.79303397  1
  Zn  Zn4  1  0.71797494  0.74337294  1.00000000  1
  Zn  Zn5  1  0.21797494  0.25662706  0.00000000  1
  Zn  Zn6  1  0.79860483  0.58058694  0.60413344  1
  Zn  Zn7  1  0.29860483  0.41941306  0.39586656  1
  Zn  Zn8  1  0.79860483  0.97645250  0.39586656  1
  Zn  Zn9  1  0.29860483  0.02354750  0.60413344  1
  O  O10  1  0.69126099  0.94126201  0.59028602  1
  O  O11  1  0.19126099  0.05873799  0.40971398  1
  O  O12  1  0.19126099  0.64902301  0.59028602  1
  O  O13  1  0.69126099  0.35097699  0.40971398  1
  O  O14  1  0.07342920  0.29552604  0.74320999  1
  O  O15  1  0.57342920  0.70447396  0.25679001  1
  O  O16  1  0.57342920  0.44768396  0.74320999  1
  O  O17  1  0.07342920  0.55231604  0.25679001  1
  O  O18  1  0.92896897  0.84494984  0.84228425  1
  O  O19  1  0.42896897  0.15505016  0.15771575  1
  O  O20  1  0.81323225  0.36321990  0.00000000  1
  O  O21  1  0.31323225  0.63678010  1.00000000  1
  O  O22  1  0.92896897  0.00266559  0.15771575  1
  O  O23  1  0.42896897  0.99733441  0.84228425  1
