# generated using pymatgen
data_Ca3Si4(MoO7)2
_symmetry_space_group_name_H-M   'P 1'
_cell_length_a   7.82372201
_cell_length_b   9.60755261
_cell_length_c   9.89646722
_cell_angle_alpha   63.68260953
_cell_angle_beta   66.71665300
_cell_angle_gamma   65.97311763
_symmetry_Int_Tables_number   1
_chemical_formula_structural   Ca3Si4(MoO7)2
_chemical_formula_sum   'Ca6 Si8 Mo4 O28'
_cell_volume   587.68154802
_cell_formula_units_Z   2
loop_
 _symmetry_equiv_pos_site_id
 _symmetry_equiv_pos_as_xyz
  1  'x, y, z'
loop_
 _atom_site_type_symbol
 _atom_site_label
 _atom_site_symmetry_multiplicity
 _atom_site_fract_x
 _atom_site_fract_y
 _atom_site_fract_z
 _atom_site_occupancy
  Ca  Ca0  1  0.83854974  0.93918634  0.46417959  1
  Ca  Ca1  1  0.24191568  0.56081366  0.03582041  1
  Ca  Ca2  1  0.75808432  0.43918634  0.96417959  1
  Ca  Ca3  1  0.66613758  0.25000000  0.75000000  1
  Ca  Ca4  1  0.16145026  0.06081366  0.53582041  1
  Ca  Ca5  1  0.33386242  0.75000000  0.25000000  1
  Si  Si6  1  0.47005001  0.29735437  0.34439439  1
  Si  Si7  1  0.88820022  0.79735437  0.84439439  1
  Si  Si8  1  0.47851127  0.89119744  0.85033649  1
  Si  Si9  1  0.77995580  0.39119744  0.35033649  1
  Si  Si10  1  0.11179978  0.20264563  0.15560561  1
  Si  Si11  1  0.52148873  0.10880256  0.14966351  1
  Si  Si12  1  0.22004420  0.60880256  0.64966351  1
  Si  Si13  1  0.52994999  0.70264563  0.65560561  1
  Mo  Mo14  1  0.20515687  0.25000000  0.75000000  1
  Mo  Mo15  1  0.79484313  0.75000000  0.25000000  1
  Mo  Mo16  1  0.00000000  0.00000000  0.00000000  1
  Mo  Mo17  1  0.00000000  0.50000000  0.50000000  1
  O  O18  1  0.12113747  0.67106517  0.50684292  1
  O  O19  1  0.06951063  0.58795086  0.26172189  1
  O  O20  1  0.52453186  0.92524273  0.19066232  1
  O  O21  1  0.08081662  0.08795086  0.76172189  1
  O  O22  1  0.72332756  0.69548094  0.50786855  1
  O  O23  1  0.94402791  0.37288236  0.18175463  1
  O  O24  1  0.35956210  0.42524273  0.69066232  1
  O  O25  1  0.92667706  0.80451906  0.99213145  1
  O  O26  1  0.05597209  0.62711764  0.81824537  1
  O  O27  1  0.33823177  0.74656549  0.59276036  1
  O  O28  1  0.93048937  0.41204914  0.73827811  1
  O  O29  1  0.27667244  0.30451906  0.49213145  1
  O  O30  1  0.49866590  0.12711764  0.31824537  1
  O  O31  1  0.70095344  0.17106517  0.00684292  1
  O  O32  1  0.32244238  0.24656549  0.09276036  1
  O  O33  1  0.07332294  0.19548094  0.00786855  1
  O  O34  1  0.10289487  0.05430160  0.31844064  1
  O  O35  1  0.66176823  0.25343451  0.40723964  1
  O  O36  1  0.47563611  0.44569840  0.18155936  1
  O  O37  1  0.67755762  0.75343451  0.90723964  1
  O  O38  1  0.50133410  0.87288236  0.68175463  1
  O  O39  1  0.91918338  0.91204914  0.23827811  1
  O  O40  1  0.52436389  0.55430160  0.81844064  1
  O  O41  1  0.47546814  0.07475727  0.80933768  1
  O  O42  1  0.89710513  0.94569840  0.68155936  1
  O  O43  1  0.64043790  0.57475727  0.30933768  1
  O  O44  1  0.29904656  0.82893483  0.99315708  1
  O  O45  1  0.87886253  0.32893483  0.49315708  1
