# generated using pymatgen
data_ZnMoO3
_symmetry_space_group_name_H-M   'P 1'
_cell_length_a   5.31391445
_cell_length_b   5.33854321
_cell_length_c   7.97055033
_cell_angle_alpha   90.00139779
_cell_angle_beta   89.99945228
_cell_angle_gamma   90.00003712
_symmetry_Int_Tables_number   1
_chemical_formula_structural   ZnMoO3
_chemical_formula_sum   'Zn4 Mo4 O12'
_cell_volume   226.11305042
_cell_formula_units_Z   4
loop_
 _symmetry_equiv_pos_site_id
 _symmetry_equiv_pos_as_xyz
  1  'x, y, z'
loop_
 _atom_site_type_symbol
 _atom_site_label
 _atom_site_symmetry_multiplicity
 _atom_site_fract_x
 _atom_site_fract_y
 _atom_site_fract_z
 _atom_site_occupancy
  Zn  Zn0  1  0.01650733  0.02187492  0.25001492  1
  Zn  Zn1  1  0.51651928  0.47813065  0.74999914  1
  Zn  Zn2  1  0.48348072  0.52186952  0.25000056  1
  Zn  Zn3  1  0.98349270  0.97812507  0.74998477  1
  Mo  Mo4  1  0.49999991  0.99999994  0.99999983  1
  Mo  Mo5  1  0.00000006  0.50000002  0.99999985  1
  Mo  Mo6  1  0.99999987  0.50000021  0.49999992  1
  Mo  Mo7  1  0.49999996  0.00000005  0.49999995  1
  O  O8  1  0.88246159  0.59755212  0.75000311  1
  O  O9  1  0.38245610  0.90245195  0.25000033  1
  O  O10  1  0.61754401  0.09754824  0.74999954  1
  O  O11  1  0.11753846  0.40244817  0.24999668  1
  O  O12  1  0.66382650  0.32458077  0.43131058  1
  O  O13  1  0.16382471  0.17542039  0.56868512  1
  O  O14  1  0.83616338  0.82457789  0.06870062  1
  O  O15  1  0.33617152  0.67541512  0.93130502  1
  O  O16  1  0.66382839  0.32458488  0.06869481  1
  O  O17  1  0.16383639  0.17542208  0.93129921  1
  O  O18  1  0.33617356  0.67541989  0.56868929  1
  O  O19  1  0.83617556  0.82458011  0.43131473  1
