# generated using pymatgen
data_V2ZnS4
_symmetry_space_group_name_H-M   'P 1'
_cell_length_a   7.06907649
_cell_length_b   7.06907763
_cell_length_c   7.15252432
_cell_angle_alpha   119.61480718
_cell_angle_beta   119.61481091
_cell_angle_gamma   89.99999361
_symmetry_Int_Tables_number   1
_chemical_formula_structural   V2ZnS4
_chemical_formula_sum   'V4 Zn2 S8'
_cell_volume   255.65220626
_cell_formula_units_Z   2
loop_
 _symmetry_equiv_pos_site_id
 _symmetry_equiv_pos_as_xyz
  1  'x, y, z'
loop_
 _atom_site_type_symbol
 _atom_site_label
 _atom_site_symmetry_multiplicity
 _atom_site_fract_x
 _atom_site_fract_y
 _atom_site_fract_z
 _atom_site_occupancy
  V  V0  1  0.00000000  0.00000000  0.50000000  1
  V  V1  1  0.00000000  0.50000000  0.00000000  1
  V  V2  1  0.50000000  0.00000000  0.50000000  1
  V  V3  1  0.00000000  0.00000000  0.00000000  1
  Zn  Zn4  1  0.37500000  0.62500000  0.75000000  1
  Zn  Zn5  1  0.62500000  0.37500000  0.25000000  1
  S  S6  1  0.76152807  0.77532882  0.52305615  1
  S  S7  1  0.75227368  0.23847192  0.97694385  1
  S  S8  1  0.22467117  0.23847193  0.97694385  1
  S  S9  1  0.23847193  0.22467118  0.47694385  1
  S  S10  1  0.23847192  0.75227368  0.47694385  1
  S  S11  1  0.24772632  0.76152808  0.02305615  1
  S  S12  1  0.76152808  0.24772632  0.52305615  1
  S  S13  1  0.77532883  0.76152807  0.02305615  1
