# generated using pymatgen
data_Zn2SbMoO6
_symmetry_space_group_name_H-M   'P 1'
_cell_length_a   5.38011728
_cell_length_b   5.40282840
_cell_length_c   8.07721957
_cell_angle_alpha   90.00000000
_cell_angle_beta   90.00000000
_cell_angle_gamma   90.83203549
_symmetry_Int_Tables_number   1
_chemical_formula_structural   Zn2SbMoO6
_chemical_formula_sum   'Zn4 Sb2 Mo2 O12'
_cell_volume   234.76265450
_cell_formula_units_Z   2
loop_
 _symmetry_equiv_pos_site_id
 _symmetry_equiv_pos_as_xyz
  1  'x, y, z'
loop_
 _atom_site_type_symbol
 _atom_site_label
 _atom_site_symmetry_multiplicity
 _atom_site_fract_x
 _atom_site_fract_y
 _atom_site_fract_z
 _atom_site_occupancy
  Zn  Zn0  1  0.48912957  0.53266657  0.75000000  1
  Zn  Zn1  1  0.51087043  0.46733343  0.25000000  1
  Zn  Zn2  1  0.01947402  0.01488006  0.75000000  1
  Zn  Zn3  1  0.98052598  0.98511994  0.25000000  1
  Sb  Sb4  1  0.00000000  0.50000000  0.50000000  1
  Sb  Sb5  1  0.00000000  0.50000000  0.00000000  1
  Mo  Mo6  1  0.50000000  0.00000000  0.50000000  1
  Mo  Mo7  1  0.50000000  0.00000000  0.00000000  1
  O  O8  1  0.34616817  0.67255304  0.42973662  1
  O  O9  1  0.17278449  0.16952556  0.07293820  1
  O  O10  1  0.65383183  0.32744696  0.92973662  1
  O  O11  1  0.82721551  0.83047444  0.57293820  1
  O  O12  1  0.17278449  0.16952556  0.42706180  1
  O  O13  1  0.82721551  0.83047444  0.92706180  1
  O  O14  1  0.88732275  0.59848460  0.25000000  1
  O  O15  1  0.34616817  0.67255304  0.07026338  1
  O  O16  1  0.37666823  0.89875855  0.75000000  1
  O  O17  1  0.65383183  0.32744696  0.57026338  1
  O  O18  1  0.11267725  0.40151540  0.75000000  1
  O  O19  1  0.62333177  0.10124145  0.25000000  1
