# generated using pymatgen
data_NaMnO2
_symmetry_space_group_name_H-M   'P 1'
_cell_length_a   2.88643709
_cell_length_b   5.82077003
_cell_length_c   11.48347519
_cell_angle_alpha   86.01453456
_cell_angle_beta   90.00426232
_cell_angle_gamma   89.99387893
_symmetry_Int_Tables_number   1
_chemical_formula_structural   NaMnO2
_chemical_formula_sum   'Na4 Mn4 O8'
_cell_volume   192.47057799
_cell_formula_units_Z   4
loop_
 _symmetry_equiv_pos_site_id
 _symmetry_equiv_pos_as_xyz
  1  'x, y, z'
loop_
 _atom_site_type_symbol
 _atom_site_label
 _atom_site_symmetry_multiplicity
 _atom_site_fract_x
 _atom_site_fract_y
 _atom_site_fract_z
 _atom_site_occupancy
  Na  Na0  1  0.46853382  0.54175708  0.50857828  1
  Na  Na1  1  0.96873681  0.49708331  0.00088845  1
  Na  Na2  1  0.96929524  0.90756151  0.75068675  1
  Na  Na3  1  0.96840136  0.07252249  0.23475545  1
  Mn  Mn4  1  0.46902186  0.39734136  0.74298859  1
  Mn  Mn5  1  0.46843053  0.57107912  0.26778079  1
  Mn  Mn6  1  0.96952533  0.99852656  0.99265507  1
  Mn  Mn7  1  0.96901651  0.05039045  0.48677344  1
  O  O8  1  0.96862275  0.57108830  0.66415264  1
  O  O9  1  0.96809710  0.69595347  0.17350589  1
  O  O10  1  0.46872209  0.81994696  0.92478384  1
  O  O11  1  0.46959113  0.91413697  0.39843133  1
  O  O12  1  0.96857873  0.25987588  0.83577274  1
  O  O13  1  0.96820710  0.40703870  0.35725556  1
  O  O14  1  0.46967610  0.13282264  0.59106974  1
  O  O15  1  0.46863152  0.16287119  0.06993543  1
