# generated using pymatgen
data_Mg6CdCu
_symmetry_space_group_name_H-M   'P 1'
_cell_length_a   6.17362905
_cell_length_b   6.17362859
_cell_length_c   5.00847951
_cell_angle_alpha   90.00000000
_cell_angle_beta   90.00000000
_cell_angle_gamma   120.57964016
_symmetry_Int_Tables_number   1
_chemical_formula_structural   Mg6CdCu
_chemical_formula_sum   'Mg6 Cd1 Cu1'
_cell_volume   164.34298444
_cell_formula_units_Z   1
loop_
 _symmetry_equiv_pos_site_id
 _symmetry_equiv_pos_as_xyz
  1  'x, y, z'
loop_
 _atom_site_type_symbol
 _atom_site_label
 _atom_site_symmetry_multiplicity
 _atom_site_fract_x
 _atom_site_fract_y
 _atom_site_fract_z
 _atom_site_occupancy
  Mg  Mg0  1  0.16559824  0.83416356  0.25000000  1
  Mg  Mg1  1  0.66583644  0.33440176  0.25000000  1
  Mg  Mg2  1  0.66739499  0.83260501  0.25000000  1
  Mg  Mg3  1  0.33049744  0.65374795  0.75000000  1
  Mg  Mg4  1  0.84625205  0.16950256  0.75000000  1
  Mg  Mg5  1  0.83211030  0.66788970  0.75000000  1
  Cd  Cd6  1  0.33219873  0.16780127  0.75000000  1
  Cu  Cu7  1  0.16011180  0.33988820  0.25000000  1
