# generated using pymatgen
data_Sn5(S2Cl)2
_symmetry_space_group_name_H-M   'P 1'
_cell_length_a   10.58993754
_cell_length_b   7.31650657
_cell_length_c   14.79741992
_cell_angle_alpha   89.80146174
_cell_angle_beta   141.65416732
_cell_angle_gamma   69.99204192
_symmetry_Int_Tables_number   1
_chemical_formula_structural   Sn5(S2Cl)2
_chemical_formula_sum   'Sn10 S8 Cl4'
_cell_volume   591.28367129
_cell_formula_units_Z   2
loop_
 _symmetry_equiv_pos_site_id
 _symmetry_equiv_pos_as_xyz
  1  'x, y, z'
loop_
 _atom_site_type_symbol
 _atom_site_label
 _atom_site_symmetry_multiplicity
 _atom_site_fract_x
 _atom_site_fract_y
 _atom_site_fract_z
 _atom_site_occupancy
  Sn  Sn0  1  0.00161508  0.09030482  0.74767128  1
  Sn  Sn1  1  0.99838492  0.90969718  0.25232872  1
  Sn  Sn2  1  0.70173591  0.62062768  0.13333511  1
  Sn  Sn3  1  0.30006102  0.32681003  0.36708424  1
  Sn  Sn4  1  0.29826409  0.37937132  0.86666489  1
  Sn  Sn5  1  0.69993898  0.67318897  0.63291576  1
  Sn  Sn6  1  0.45530956  0.19260903  0.71189929  1
  Sn  Sn7  1  0.54469044  0.80739097  0.28810071  1
  Sn  Sn8  1  0.54663678  0.64720987  0.78879918  1
  Sn  Sn9  1  0.45336322  0.35279013  0.21120082  1
  S  S10  1  0.30586883  0.00897511  0.49182243  1
  S  S11  1  0.57929563  0.08159863  0.14173264  1
  S  S12  1  0.69740681  0.31369161  0.01193962  1
  S  S13  1  0.41730715  0.66155511  0.35700553  1
  S  S14  1  0.69413317  0.99102489  0.50817857  1
  S  S15  1  0.42070537  0.91840137  0.85826836  1
  S  S16  1  0.30259219  0.68630939  0.98806038  1
  S  S17  1  0.58269185  0.33844589  0.64299447  1
  Cl  Cl18  1  0.88079886  0.81093136  0.94621606  1
  Cl  Cl19  1  0.11920114  0.18906864  0.05378394  1
  Cl  Cl20  1  0.11870046  0.69301248  0.55266186  1
  Cl  Cl21  1  0.88129954  0.30698752  0.44733814  1
