# generated using pymatgen
data_Mg6CdCu
_symmetry_space_group_name_H-M   'P 1'
_cell_length_a   6.16123062
_cell_length_b   6.30773217
_cell_length_c   4.94454215
_cell_angle_alpha   90.00000000
_cell_angle_beta   90.00000000
_cell_angle_gamma   120.78974115
_symmetry_Int_Tables_number   1
_chemical_formula_structural   Mg6CdCu
_chemical_formula_sum   'Mg6 Cd1 Cu1'
_cell_volume   165.07679428
_cell_formula_units_Z   1
loop_
 _symmetry_equiv_pos_site_id
 _symmetry_equiv_pos_as_xyz
  1  'x, y, z'
loop_
 _atom_site_type_symbol
 _atom_site_label
 _atom_site_symmetry_multiplicity
 _atom_site_fract_x
 _atom_site_fract_y
 _atom_site_fract_z
 _atom_site_occupancy
  Mg  Mg0  1  0.66955556  0.33419885  0.25000000  1
  Mg  Mg1  1  0.66955556  0.83535571  0.25000000  1
  Mg  Mg2  1  0.32704367  0.17149068  0.75000000  1
  Mg  Mg3  1  0.32704367  0.65555399  0.75000000  1
  Mg  Mg4  1  0.84235320  0.17117710  0.75000000  1
  Mg  Mg5  1  0.83267934  0.66634017  0.75000000  1
  Cd  Cd6  1  0.16658925  0.83329412  0.25000000  1
  Cu  Cu7  1  0.16517975  0.33258937  0.25000000  1
