# generated using pymatgen
data_NaMg6Sn
_symmetry_space_group_name_H-M   'P 1'
_cell_length_a   6.55013532
_cell_length_b   6.46718266
_cell_length_c   5.16689224
_cell_angle_alpha   90.00000000
_cell_angle_beta   90.00000000
_cell_angle_gamma   119.58195190
_symmetry_Int_Tables_number   1
_chemical_formula_structural   NaMg6Sn
_chemical_formula_sum   'Na1 Mg6 Sn1'
_cell_volume   190.34415422
_cell_formula_units_Z   1
loop_
 _symmetry_equiv_pos_site_id
 _symmetry_equiv_pos_as_xyz
  1  'x, y, z'
loop_
 _atom_site_type_symbol
 _atom_site_label
 _atom_site_symmetry_multiplicity
 _atom_site_fract_x
 _atom_site_fract_y
 _atom_site_fract_z
 _atom_site_occupancy
  Na  Na0  1  0.16601595  0.83300747  0.25000000  1
  Mg  Mg1  1  0.66730046  0.33525320  0.25000000  1
  Mg  Mg2  1  0.66730046  0.83204626  0.25000000  1
  Mg  Mg3  1  0.33637552  0.16727488  0.75000000  1
  Mg  Mg4  1  0.33637552  0.66910164  0.75000000  1
  Mg  Mg5  1  0.82849792  0.16424946  0.75000000  1
  Mg  Mg6  1  0.82966902  0.66483501  0.75000000  1
  Sn  Sn7  1  0.16846514  0.33423207  0.25000000  1
