# generated using pymatgen
data_CaMn2O4
_symmetry_space_group_name_H-M   'P 1'
_cell_length_a   5.68916581
_cell_length_b   5.79322009
_cell_length_c   10.95291864
_cell_angle_alpha   90.00125499
_cell_angle_beta   92.07890517
_cell_angle_gamma   90.00099091
_symmetry_Int_Tables_number   1
_chemical_formula_structural   CaMn2O4
_chemical_formula_sum   'Ca4 Mn8 O16'
_cell_volume   360.75515216
_cell_formula_units_Z   4
loop_
 _symmetry_equiv_pos_site_id
 _symmetry_equiv_pos_as_xyz
  1  'x, y, z'
loop_
 _atom_site_type_symbol
 _atom_site_label
 _atom_site_symmetry_multiplicity
 _atom_site_fract_x
 _atom_site_fract_y
 _atom_site_fract_z
 _atom_site_occupancy
  Ca  Ca0  1  0.23160462  0.41976944  0.09451323  1
  Ca  Ca1  1  0.77091007  0.58043801  0.90579815  1
  Ca  Ca2  1  0.22909396  0.08045547  0.59420176  1
  Ca  Ca3  1  0.76838211  0.91976568  0.40548916  1
  Mn  Mn4  1  0.86133104  0.95484011  0.12467090  1
  Mn  Mn5  1  0.36553148  0.91276481  0.15034538  1
  Mn  Mn6  1  0.63429982  0.08745524  0.84926160  1
  Mn  Mn7  1  0.13860585  0.04535105  0.87502689  1
  Mn  Mn8  1  0.63447459  0.41275905  0.34964298  1
  Mn  Mn9  1  0.13867499  0.45485810  0.37533001  1
  Mn  Mn10  1  0.86138010  0.54536588  0.62497609  1
  Mn  Mn11  1  0.36567882  0.58747501  0.65074768  1
  O  O12  1  0.62117413  0.09537771  0.22554982  1
  O  O13  1  0.11889246  0.10603141  0.21143725  1
  O  O14  1  0.88113145  0.89423691  0.78805635  1
  O  O15  1  0.37850234  0.90529313  0.77390912  1
  O  O16  1  0.88111818  0.60603561  0.28855784  1
  O  O17  1  0.37883720  0.59538274  0.27444834  1
  O  O18  1  0.62146872  0.40529337  0.72609191  1
  O  O19  1  0.11884272  0.39425049  0.71194466  1
  O  O20  1  0.60338976  0.77598424  0.05322250  1
  O  O21  1  0.10543394  0.78307184  0.03987634  1
  O  O22  1  0.89433416  0.21622396  0.96005697  1
  O  O23  1  0.39658820  0.22310249  0.94688322  1
  O  O24  1  0.60339695  0.72312388  0.55312661  1
  O  O25  1  0.10564978  0.71623235  0.53994771  1
  O  O26  1  0.89456448  0.28308057  0.46011613  1
  O  O27  1  0.39661008  0.27599343  0.44677142  1
