# generated using pymatgen
data_NaMg6Sn
_symmetry_space_group_name_H-M   'P 1'
_cell_length_a   6.49670655
_cell_length_b   6.49670599
_cell_length_c   5.19390966
_cell_angle_alpha   90.00000000
_cell_angle_beta   90.00000000
_cell_angle_gamma   119.73680448
_symmetry_Int_Tables_number   1
_chemical_formula_structural   NaMg6Sn
_chemical_formula_sum   'Na1 Mg6 Sn1'
_cell_volume   190.35189060
_cell_formula_units_Z   1
loop_
 _symmetry_equiv_pos_site_id
 _symmetry_equiv_pos_as_xyz
  1  'x, y, z'
loop_
 _atom_site_type_symbol
 _atom_site_label
 _atom_site_symmetry_multiplicity
 _atom_site_fract_x
 _atom_site_fract_y
 _atom_site_fract_z
 _atom_site_occupancy
  Na  Na0  1  0.33340594  0.16659406  0.75000000  1
  Mg  Mg1  1  0.16328857  0.82920075  0.25000000  1
  Mg  Mg2  1  0.67079925  0.33671143  0.25000000  1
  Mg  Mg3  1  0.66731435  0.83268565  0.25000000  1
  Mg  Mg4  1  0.33259049  0.66761963  0.75000000  1
  Mg  Mg5  1  0.83238037  0.16740951  0.75000000  1
  Mg  Mg6  1  0.83455915  0.66544085  0.75000000  1
  Sn  Sn7  1  0.16566187  0.33433813  0.25000000  1
