# generated using pymatgen
data_NaCeMg14
_symmetry_space_group_name_H-M   'P 1'
_cell_length_a   6.56265156
_cell_length_b   6.56265100
_cell_length_c   10.32111768
_cell_angle_alpha   90.00000000
_cell_angle_beta   90.00000000
_cell_angle_gamma   120.00000282
_symmetry_Int_Tables_number   1
_chemical_formula_structural   NaCeMg14
_chemical_formula_sum   'Na1 Ce1 Mg14'
_cell_volume   384.96035364
_cell_formula_units_Z   1
loop_
 _symmetry_equiv_pos_site_id
 _symmetry_equiv_pos_as_xyz
  1  'x, y, z'
loop_
 _atom_site_type_symbol
 _atom_site_label
 _atom_site_symmetry_multiplicity
 _atom_site_fract_x
 _atom_site_fract_y
 _atom_site_fract_z
 _atom_site_occupancy
  Na  Na0  1  0.16666700  0.33333300  0.62500000  1
  Ce  Ce1  1  0.16666700  0.33333300  0.12500000  1
  Mg  Mg2  1  0.17827650  0.83913775  0.12500000  1
  Mg  Mg3  1  0.16919520  0.83459710  0.62500000  1
  Mg  Mg4  1  0.66086225  0.32172350  0.12500000  1
  Mg  Mg5  1  0.66540290  0.33080480  0.62500000  1
  Mg  Mg6  1  0.66086225  0.83913775  0.12500000  1
  Mg  Mg7  1  0.66540290  0.83459710  0.62500000  1
  Mg  Mg8  1  0.33623493  0.16376507  0.37766622  1
  Mg  Mg9  1  0.33623493  0.16376507  0.87233378  1
  Mg  Mg10  1  0.33623493  0.67247086  0.37766622  1
  Mg  Mg11  1  0.33623493  0.67247086  0.87233378  1
  Mg  Mg12  1  0.82752914  0.16376507  0.37766622  1
  Mg  Mg13  1  0.82752914  0.16376507  0.87233378  1
  Mg  Mg14  1  0.83333300  0.66666700  0.36817987  1
  Mg  Mg15  1  0.83333300  0.66666700  0.88182013  1
