# generated using pymatgen
data_NaMg14Cu
_symmetry_space_group_name_H-M   'P 1'
_cell_length_a   6.38728456
_cell_length_b   6.38728404
_cell_length_c   10.07190571
_cell_angle_alpha   90.00000000
_cell_angle_beta   90.00000000
_cell_angle_gamma   120.00000269
_symmetry_Int_Tables_number   1
_chemical_formula_structural   NaMg14Cu
_chemical_formula_sum   'Na1 Mg14 Cu1'
_cell_volume   355.85638749
_cell_formula_units_Z   1
loop_
 _symmetry_equiv_pos_site_id
 _symmetry_equiv_pos_as_xyz
  1  'x, y, z'
loop_
 _atom_site_type_symbol
 _atom_site_label
 _atom_site_symmetry_multiplicity
 _atom_site_fract_x
 _atom_site_fract_y
 _atom_site_fract_z
 _atom_site_occupancy
  Na  Na0  1  0.16666700  0.33333300  0.62500000  1
  Mg  Mg1  1  0.16205969  0.83102934  0.12500000  1
  Mg  Mg2  1  0.17041181  0.83520540  0.62500000  1
  Mg  Mg3  1  0.66897066  0.33794031  0.12500000  1
  Mg  Mg4  1  0.66479460  0.32958819  0.62500000  1
  Mg  Mg5  1  0.66897066  0.83102934  0.12500000  1
  Mg  Mg6  1  0.66479460  0.83520540  0.62500000  1
  Mg  Mg7  1  0.33026586  0.16973414  0.36158698  1
  Mg  Mg8  1  0.33026586  0.16973414  0.88841302  1
  Mg  Mg9  1  0.33026586  0.66053271  0.36158698  1
  Mg  Mg10  1  0.33026586  0.66053271  0.88841302  1
  Mg  Mg11  1  0.83946729  0.16973414  0.36158698  1
  Mg  Mg12  1  0.83946729  0.16973414  0.88841302  1
  Mg  Mg13  1  0.83333300  0.66666700  0.37850654  1
  Mg  Mg14  1  0.83333300  0.66666700  0.87149346  1
  Cu  Cu15  1  0.16666700  0.33333300  0.12500000  1
