# generated using pymatgen
data_LaZn2Co
_symmetry_space_group_name_H-M   'P 1'
_cell_length_a   4.43417663
_cell_length_b   6.83986470
_cell_length_c   6.83986470
_cell_angle_alpha   134.45106640
_cell_angle_beta   90.00000000
_cell_angle_gamma   90.00000000
_symmetry_Int_Tables_number   1
_chemical_formula_structural   LaZn2Co
_chemical_formula_sum   'La2 Zn4 Co2'
_cell_volume   148.08608295
_cell_formula_units_Z   2
loop_
 _symmetry_equiv_pos_site_id
 _symmetry_equiv_pos_as_xyz
  1  'x, y, z'
loop_
 _atom_site_type_symbol
 _atom_site_label
 _atom_site_symmetry_multiplicity
 _atom_site_fract_x
 _atom_site_fract_y
 _atom_site_fract_z
 _atom_site_occupancy
  La  La0  1  0.75000000  0.79672227  0.20327773  1
  La  La1  1  0.25000000  0.20327773  0.79672227  1
  Zn  Zn2  1  0.75000000  0.31488905  0.20074811  1
  Zn  Zn3  1  0.25000000  0.68511095  0.79925189  1
  Zn  Zn4  1  0.75000000  0.79925189  0.68511095  1
  Zn  Zn5  1  0.25000000  0.20074811  0.31488905  1
  Co  Co6  1  0.75000000  0.38243044  0.61756956  1
  Co  Co7  1  0.25000000  0.61756956  0.38243044  1
