# generated using pymatgen
data_Te4MoW3(SeS)2
_symmetry_space_group_name_H-M   'P 1'
_cell_length_a   3.39739393
_cell_length_b   3.39740444
_cell_length_c   41.15675689
_cell_angle_alpha   90.00309238
_cell_angle_beta   90.00000000
_cell_angle_gamma   119.99989778
_symmetry_Int_Tables_number   1
_chemical_formula_structural   Te4MoW3(SeS)2
_chemical_formula_sum   'Te4 Mo1 W3 Se2 S2'
_cell_volume   411.40103508
_cell_formula_units_Z   1
loop_
 _symmetry_equiv_pos_site_id
 _symmetry_equiv_pos_as_xyz
  1  'x, y, z'
loop_
 _atom_site_type_symbol
 _atom_site_label
 _atom_site_symmetry_multiplicity
 _atom_site_fract_x
 _atom_site_fract_y
 _atom_site_fract_z
 _atom_site_occupancy
  Te  Te0  1  0.33340724  0.66681548  0.70575248  1
  Te  Te1  1  0.66664996  0.33329893  0.42184617  1
  Te  Te2  1  0.66668610  0.33337119  0.51337151  1
  Te  Te3  1  0.33333486  0.66667071  0.61421898  1
  Mo  Mo4  1  0.66667932  0.33335865  0.28135587  1
  W  W5  1  0.33328109  0.66656219  0.09391956  1
  W  W6  1  0.33333241  0.66666482  0.46760337  1
  W  W7  1  0.66670103  0.33340207  0.66003801  1
  Se  Se8  1  0.33335140  0.66670380  0.32144849  1
  Se  Se9  1  0.33334853  0.66669805  0.24132002  1
  S  S10  1  0.66659976  0.33319852  0.05736170  1
  S  S11  1  0.66662829  0.33325559  0.13051184  1
