# generated using pymatgen
data_Te3W2S
_symmetry_space_group_name_H-M   'P 1'
_cell_length_a   3.45457745
_cell_length_b   3.45457938
_cell_length_c   39.44256114
_cell_angle_alpha   90.00024490
_cell_angle_beta   90.00002516
_cell_angle_gamma   119.99997469
_symmetry_Int_Tables_number   1
_chemical_formula_structural   Te3W2S
_chemical_formula_sum   'Te6 W4 S2'
_cell_volume   407.64860458
_cell_formula_units_Z   2
loop_
 _symmetry_equiv_pos_site_id
 _symmetry_equiv_pos_as_xyz
  1  'x, y, z'
loop_
 _atom_site_type_symbol
 _atom_site_label
 _atom_site_symmetry_multiplicity
 _atom_site_fract_x
 _atom_site_fract_y
 _atom_site_fract_z
 _atom_site_occupancy
  Te  Te0  1  0.33335436  0.66670937  0.32889529  1
  Te  Te1  1  0.33335816  0.66671694  0.70468454  1
  Te  Te2  1  0.66664523  0.33328996  0.42250848  1
  Te  Te3  1  0.66664826  0.33329602  0.51676543  1
  Te  Te4  1  0.33335078  0.66670223  0.23460082  1
  Te  Te5  1  0.33335187  0.66670437  0.61041167  1
  W  W6  1  0.33331358  0.66662630  0.09394768  1
  W  W7  1  0.33331232  0.66662410  0.46969524  1
  W  W8  1  0.66668773  0.33337613  0.28178714  1
  W  W9  1  0.66668670  0.33337410  0.65757789  1
  S  S10  1  0.66664602  0.33329157  0.05608027  1
  S  S11  1  0.66664498  0.33328891  0.13179355  1
