# generated using pymatgen
data_Te4MoW3(SeS)2
_symmetry_space_group_name_H-M   'P 1'
_cell_length_a   3.39912657
_cell_length_b   3.39913785
_cell_length_c   38.78385743
_cell_angle_alpha   90.00003026
_cell_angle_beta   90.00000000
_cell_angle_gamma   119.99989011
_symmetry_Int_Tables_number   1
_chemical_formula_structural   Te4MoW3(SeS)2
_chemical_formula_sum   'Te4 Mo1 W3 Se2 S2'
_cell_volume   388.07728943
_cell_formula_units_Z   1
loop_
 _symmetry_equiv_pos_site_id
 _symmetry_equiv_pos_as_xyz
  1  'x, y, z'
loop_
 _atom_site_type_symbol
 _atom_site_label
 _atom_site_symmetry_multiplicity
 _atom_site_fract_x
 _atom_site_fract_y
 _atom_site_fract_z
 _atom_site_occupancy
  Te  Te0  1  0.33335352  0.66670803  0.33033367  1
  Te  Te1  1  0.33335346  0.66670791  0.70609086  1
  Te  Te2  1  0.33335275  0.66670650  0.23322306  1
  Te  Te3  1  0.33335193  0.66670486  0.60897530  1
  Mo  Mo4  1  0.33331101  0.66662203  0.46966934  1
  W  W5  1  0.33331139  0.66662279  0.09393432  1
  W  W6  1  0.66668926  0.33337851  0.28181220  1
  W  W7  1  0.66668890  0.33337780  0.65754460  1
  Se  Se8  1  0.66664759  0.33329418  0.42716792  1
  Se  Se9  1  0.66664772  0.33329445  0.51214245  1
  S  S10  1  0.66664608  0.33329115  0.05507278  1
  S  S11  1  0.66664639  0.33329178  0.13278150  1
