# generated using pymatgen
data_Mg14CdCo
_symmetry_space_group_name_H-M   'P 1'
_cell_length_a   6.28491809
_cell_length_b   6.28491760
_cell_length_c   9.90916743
_cell_angle_alpha   90.00000000
_cell_angle_beta   90.00000000
_cell_angle_gamma   120.00000262
_symmetry_Int_Tables_number   1
_chemical_formula_structural   Mg14CdCo
_chemical_formula_sum   'Mg14 Cd1 Co1'
_cell_volume   338.97447516
_cell_formula_units_Z   1
loop_
 _symmetry_equiv_pos_site_id
 _symmetry_equiv_pos_as_xyz
  1  'x, y, z'
loop_
 _atom_site_type_symbol
 _atom_site_label
 _atom_site_symmetry_multiplicity
 _atom_site_fract_x
 _atom_site_fract_y
 _atom_site_fract_z
 _atom_site_occupancy
  Mg  Mg0  1  0.16310904  0.83155402  0.12500000  1
  Mg  Mg1  1  0.16824142  0.83412021  0.62500000  1
  Mg  Mg2  1  0.66844598  0.33689096  0.12500000  1
  Mg  Mg3  1  0.66587979  0.33175858  0.62500000  1
  Mg  Mg4  1  0.66844598  0.83155402  0.12500000  1
  Mg  Mg5  1  0.66587979  0.83412021  0.62500000  1
  Mg  Mg6  1  0.32648009  0.17351991  0.36454539  1
  Mg  Mg7  1  0.32648009  0.17351991  0.88545461  1
  Mg  Mg8  1  0.32648009  0.65296117  0.36454539  1
  Mg  Mg9  1  0.32648009  0.65296117  0.88545461  1
  Mg  Mg10  1  0.84703883  0.17351991  0.36454539  1
  Mg  Mg11  1  0.84703883  0.17351991  0.88545461  1
  Mg  Mg12  1  0.83333300  0.66666700  0.37712358  1
  Mg  Mg13  1  0.83333300  0.66666700  0.87287642  1
  Cd  Cd14  1  0.16666700  0.33333300  0.62500000  1
  Co  Co15  1  0.16666700  0.33333300  0.12500000  1
