# generated using pymatgen
data_Te4MoW3(SeS)2
_symmetry_space_group_name_H-M   'P 1'
_cell_length_a   3.39799316
_cell_length_b   3.39798508
_cell_length_c   38.74466811
_cell_angle_alpha   90.00009580
_cell_angle_beta   90.00000000
_cell_angle_gamma   120.00007865
_symmetry_Int_Tables_number   1
_chemical_formula_structural   Te4MoW3(SeS)2
_chemical_formula_sum   'Te4 Mo1 W3 Se2 S2'
_cell_volume   387.42371448
_cell_formula_units_Z   1
loop_
 _symmetry_equiv_pos_site_id
 _symmetry_equiv_pos_as_xyz
  1  'x, y, z'
loop_
 _atom_site_type_symbol
 _atom_site_label
 _atom_site_symmetry_multiplicity
 _atom_site_fract_x
 _atom_site_fract_y
 _atom_site_fract_z
 _atom_site_occupancy
  Te  Te0  1  0.33335390  0.66670880  0.70611963  1
  Te  Te1  1  0.66664728  0.33329356  0.04532445  1
  Te  Te2  1  0.66664912  0.33329723  0.14250850  1
  Te  Te3  1  0.33335234  0.66670568  0.60894670  1
  Mo  Mo4  1  0.66668851  0.33337703  0.28180726  1
  W  W5  1  0.33331252  0.66662505  0.09390570  1
  W  W6  1  0.33331204  0.66662408  0.46965251  1
  W  W7  1  0.66668917  0.33337834  0.65754306  1
  Se  Se8  1  0.33335402  0.66670905  0.32432739  1
  Se  Se9  1  0.33335235  0.66670570  0.23929821  1
  S  S10  1  0.66664315  0.33328529  0.43077590  1
  S  S11  1  0.66664559  0.33329018  0.50853870  1
