# generated using pymatgen
data_Zn3Sb2O7
_symmetry_space_group_name_H-M   'P 1'
_cell_length_a   5.45722301
_cell_length_b   5.51960578
_cell_length_c   10.10579758
_cell_angle_alpha   105.84828007
_cell_angle_beta   90.00000000
_cell_angle_gamma   90.00000000
_symmetry_Int_Tables_number   1
_chemical_formula_structural   Zn3Sb2O7
_chemical_formula_sum   'Zn6 Sb4 O14'
_cell_volume   292.83306237
_cell_formula_units_Z   2
loop_
 _symmetry_equiv_pos_site_id
 _symmetry_equiv_pos_as_xyz
  1  'x, y, z'
loop_
 _atom_site_type_symbol
 _atom_site_label
 _atom_site_symmetry_multiplicity
 _atom_site_fract_x
 _atom_site_fract_y
 _atom_site_fract_z
 _atom_site_occupancy
  Zn  Zn0  1  0.74408083  0.74373581  1.00000000  1
  Zn  Zn1  1  0.24408083  0.25626419  0.00000000  1
  Zn  Zn2  1  0.78731675  0.58140025  0.58738705  1
  Zn  Zn3  1  0.28731675  0.41859975  0.41261295  1
  Zn  Zn4  1  0.78731675  0.99401220  0.41261295  1
  Zn  Zn5  1  0.28731675  0.00598780  0.58738705  1
  Sb  Sb6  1  0.75317537  0.36290853  0.20911784  1
  Sb  Sb7  1  0.25317537  0.63709147  0.79088216  1
  Sb  Sb8  1  0.25317537  0.84620930  0.20911783  1
  Sb  Sb9  1  0.75317537  0.15379070  0.79088217  1
  O  O10  1  0.65965535  0.93122096  0.58973715  1
  O  O11  1  0.15965535  0.06877904  0.41026285  1
  O  O12  1  0.15965535  0.65851519  0.58973715  1
  O  O13  1  0.65965535  0.34148481  0.41026285  1
  O  O14  1  0.07617338  0.26893631  0.71584139  1
  O  O15  1  0.57617338  0.73106369  0.28415861  1
  O  O16  1  0.57617338  0.44690508  0.71584139  1
  O  O17  1  0.07617338  0.55309492  0.28415861  1
  O  O18  1  0.91696241  0.84499005  0.84463132  1
  O  O19  1  0.41696241  0.15500995  0.15536868  1
  O  O20  1  0.88935465  0.39259724  0.00000000  1
  O  O21  1  0.38935465  0.60740276  1.00000000  1
  O  O22  1  0.91696241  0.00035872  0.15536868  1
  O  O23  1  0.41696241  0.99964128  0.84463132  1
