# generated using pymatgen
data_CaMg14TiO16
_symmetry_space_group_name_H-M   'P 1'
_cell_length_a   8.63573976
_cell_length_b   8.65349601
_cell_length_c   4.31476040
_cell_angle_alpha   90.00000000
_cell_angle_beta   90.00000000
_cell_angle_gamma   90.00000000
_symmetry_Int_Tables_number   1
_chemical_formula_structural   CaMg14TiO16
_chemical_formula_sum   'Ca1 Mg14 Ti1 O16'
_cell_volume   322.43919504
_cell_formula_units_Z   1
loop_
 _symmetry_equiv_pos_site_id
 _symmetry_equiv_pos_as_xyz
  1  'x, y, z'
loop_
 _atom_site_type_symbol
 _atom_site_label
 _atom_site_symmetry_multiplicity
 _atom_site_fract_x
 _atom_site_fract_y
 _atom_site_fract_z
 _atom_site_occupancy
  Ca  Ca0  1  -0.00000000  -0.00000000  -0.00000000  1
  Mg  Mg1  1  0.50000000  -0.00000000  -0.00000000  1
  Mg  Mg2  1  0.50000000  0.50000000  -0.00000000  1
  Mg  Mg3  1  -0.00000000  0.25201982  0.50000000  1
  Mg  Mg4  1  -0.00000000  0.74798018  0.50000000  1
  Mg  Mg5  1  0.50000000  0.25021065  0.50000000  1
  Mg  Mg6  1  0.50000000  0.74978935  0.50000000  1
  Mg  Mg7  1  0.25622598  -0.00000000  0.50000000  1
  Mg  Mg8  1  0.25312125  0.50000000  0.50000000  1
  Mg  Mg9  1  0.74377402  -0.00000000  0.50000000  1
  Mg  Mg10  1  0.74687875  0.50000000  0.50000000  1
  Mg  Mg11  1  0.25439927  0.25216226  -0.00000000  1
  Mg  Mg12  1  0.25439927  0.74783774  -0.00000000  1
  Mg  Mg13  1  0.74560073  0.25216226  0.00000000  1
  Mg  Mg14  1  0.74560073  0.74783774  0.00000000  1
  Ti  Ti15  1  -0.00000000  0.50000000  -0.00000000  1
  O  O16  1  0.26395781  -0.00000000  -0.00000000  1
  O  O17  1  0.25717800  0.50000000  -0.00000000  1
  O  O18  1  0.73604219  -0.00000000  0.00000000  1
  O  O19  1  0.74282200  0.50000000  0.00000000  1
  O  O20  1  0.24904687  0.25024151  0.50000000  1
  O  O21  1  0.24904687  0.74975849  0.50000000  1
  O  O22  1  0.75095313  0.25024151  0.50000000  1
  O  O23  1  0.75095313  0.74975849  0.50000000  1
  O  O24  1  -0.00000000  -0.00000000  0.50000000  1
  O  O25  1  -0.00000000  0.50000000  0.50000000  1
  O  O26  1  0.50000000  -0.00000000  0.50000000  1
  O  O27  1  0.50000000  0.50000000  0.50000000  1
  O  O28  1  -0.00000000  0.25818104  -0.00000000  1
  O  O29  1  -0.00000000  0.74181896  0.00000000  1
  O  O30  1  0.50000000  0.25199771  0.00000000  1
  O  O31  1  0.50000000  0.74800229  -0.00000000  1
