# generated using pymatgen
data_Zn2Fe3O8
_symmetry_space_group_name_H-M   'P 1'
_cell_length_a   5.03128914
_cell_length_b   5.90775122
_cell_length_c   5.93700856
_cell_angle_alpha   119.83711920
_cell_angle_beta   108.17414987
_cell_angle_gamma   89.99999701
_symmetry_Int_Tables_number   1
_chemical_formula_structural   Zn2Fe3O8
_chemical_formula_sum   'Zn2 Fe3 O8'
_cell_volume   142.83904513
_cell_formula_units_Z   1
loop_
 _symmetry_equiv_pos_site_id
 _symmetry_equiv_pos_as_xyz
  1  'x, y, z'
loop_
 _atom_site_type_symbol
 _atom_site_label
 _atom_site_symmetry_multiplicity
 _atom_site_fract_x
 _atom_site_fract_y
 _atom_site_fract_z
 _atom_site_occupancy
  Zn  Zn0  1  0.65327322  0.71693772  0.43387444  1
  Zn  Zn1  1  0.34672578  0.28306328  0.56612556  1
  Fe  Fe2  1  0.50000000  0.99999900  0.00000000  1
  Fe  Fe3  1  0.99999900  0.73747339  1.00000000  1
  Fe  Fe4  1  0.99999900  0.26252661  0.00000000  1
  O  O5  1  0.07603029  0.39003959  0.78008019  1
  O  O6  1  0.92396971  0.60995941  0.21991981  1
  O  O7  1  0.07731495  0.89084294  0.78168587  1
  O  O8  1  0.92268505  0.10915606  0.21831313  1
  O  O9  1  0.39964717  0.34601593  0.23357380  1
  O  O10  1  0.39964717  0.88755787  0.23357380  1
  O  O11  1  0.60035383  0.11244113  0.76642620  1
  O  O12  1  0.60035383  0.65398407  0.76642620  1
