# generated using pymatgen
data_YMg30AlO32
_symmetry_space_group_name_H-M   'P 1'
_cell_length_a   8.63650812
_cell_length_b   8.63267840
_cell_length_c   8.63267840
_cell_angle_alpha   90.00000000
_cell_angle_beta   90.00000000
_cell_angle_gamma   90.00000000
_symmetry_Int_Tables_number   1
_chemical_formula_structural   YMg30AlO32
_chemical_formula_sum   'Y1 Mg30 Al1 O32'
_cell_volume   643.61967228
_cell_formula_units_Z   1
loop_
 _symmetry_equiv_pos_site_id
 _symmetry_equiv_pos_as_xyz
  1  'x, y, z'
loop_
 _atom_site_type_symbol
 _atom_site_label
 _atom_site_symmetry_multiplicity
 _atom_site_fract_x
 _atom_site_fract_y
 _atom_site_fract_z
 _atom_site_occupancy
  Y  Y0  1  -0.00000000  0.50000000  0.50000000  1
  Mg  Mg1  1  -0.00000000  0.00000000  0.50000000  1
  Mg  Mg2  1  -0.00000000  0.50000000  -0.00000000  1
  Mg  Mg3  1  0.50000000  0.00000000  -0.00000000  1
  Mg  Mg4  1  0.50000000  0.00000000  0.50000000  1
  Mg  Mg5  1  0.50000000  0.50000000  -0.00000000  1
  Mg  Mg6  1  0.50000000  0.50000000  0.50000000  1
  Mg  Mg7  1  0.00000000  0.24399145  0.24399145  1
  Mg  Mg8  1  -0.00000000  0.24399145  0.75600855  1
  Mg  Mg9  1  -0.00000000  0.75600855  0.24399145  1
  Mg  Mg10  1  -0.00000000  0.75600855  0.75600855  1
  Mg  Mg11  1  0.50000000  0.24922748  0.24922748  1
  Mg  Mg12  1  0.50000000  0.24922748  0.75077252  1
  Mg  Mg13  1  0.50000000  0.75077252  0.24922748  1
  Mg  Mg14  1  0.50000000  0.75077252  0.75077252  1
  Mg  Mg15  1  0.25218528  0.00000000  0.24938190  1
  Mg  Mg16  1  0.25218528  0.00000000  0.75061810  1
  Mg  Mg17  1  0.25726006  0.50000000  0.24378025  1
  Mg  Mg18  1  0.25726006  0.50000000  0.75621975  1
  Mg  Mg19  1  0.74781472  0.00000000  0.24938190  1
  Mg  Mg20  1  0.74781472  0.00000000  0.75061810  1
  Mg  Mg21  1  0.74273994  0.50000000  0.24378025  1
  Mg  Mg22  1  0.74273994  0.50000000  0.75621975  1
  Mg  Mg23  1  0.25218528  0.24938190  -0.00000000  1
  Mg  Mg24  1  0.25726006  0.24378025  0.50000000  1
  Mg  Mg25  1  0.25218528  0.75061810  -0.00000000  1
  Mg  Mg26  1  0.25726006  0.75621975  0.50000000  1
  Mg  Mg27  1  0.74781472  0.24938190  -0.00000000  1
  Mg  Mg28  1  0.74273994  0.24378025  0.50000000  1
  Mg  Mg29  1  0.74781472  0.75061810  -0.00000000  1
  Mg  Mg30  1  0.74273994  0.75621975  0.50000000  1
  Al  Al31  1  -0.00000000  0.00000000  -0.00000000  1
  O  O32  1  0.23454231  0.00000000  -0.00000000  1
  O  O33  1  0.24990102  0.00000000  0.50000000  1
  O  O34  1  0.24990102  0.50000000  -0.00000000  1
  O  O35  1  0.25875835  0.50000000  0.50000000  1
  O  O36  1  0.76545769  0.00000000  -0.00000000  1
  O  O37  1  0.75009898  0.00000000  0.50000000  1
  O  O38  1  0.75009898  0.50000000  -0.00000000  1
  O  O39  1  0.74124165  0.50000000  0.50000000  1
  O  O40  1  0.24994030  0.25000564  0.25000564  1
  O  O41  1  0.24994030  0.25000564  0.74999436  1
  O  O42  1  0.24994030  0.74999436  0.25000564  1
  O  O43  1  0.24994030  0.74999436  0.74999436  1
  O  O44  1  0.75005970  0.25000564  0.25000564  1
  O  O45  1  0.75005970  0.25000564  0.74999436  1
  O  O46  1  0.75005970  0.74999436  0.25000564  1
  O  O47  1  0.75005970  0.74999436  0.74999436  1
  O  O48  1  -0.00000000  0.00000000  0.23295468  1
  O  O49  1  -0.00000000  0.00000000  0.76704532  1
  O  O50  1  -0.00000000  0.50000000  0.23941907  1
  O  O51  1  0.00000000  0.50000000  0.76058093  1
  O  O52  1  0.50000000  0.00000000  0.24765525  1
  O  O53  1  0.50000000  0.00000000  0.75234475  1
  O  O54  1  0.50000000  0.50000000  0.24832055  1
  O  O55  1  0.50000000  0.50000000  0.75167945  1
  O  O56  1  -0.00000000  0.23295468  -0.00000000  1
  O  O57  1  -0.00000000  0.23941907  0.50000000  1
  O  O58  1  -0.00000000  0.76704532  -0.00000000  1
  O  O59  1  0.00000000  0.76058093  0.50000000  1
  O  O60  1  0.50000000  0.24765525  -0.00000000  1
  O  O61  1  0.50000000  0.24832055  0.50000000  1
  O  O62  1  0.50000000  0.75234475  -0.00000000  1
  O  O63  1  0.50000000  0.75167945  0.50000000  1
