# generated using pymatgen
data_ZnCr4O8
_symmetry_space_group_name_H-M   'P 1'
_cell_length_a   2.98573660
_cell_length_b   7.23362106
_cell_length_c   7.37675399
_cell_angle_alpha   80.44144931
_cell_angle_beta   78.32936429
_cell_angle_gamma   78.09076682
_symmetry_Int_Tables_number   1
_chemical_formula_structural   ZnCr4O8
_chemical_formula_sum   'Zn1 Cr4 O8'
_cell_volume   151.37864848
_cell_formula_units_Z   1
loop_
 _symmetry_equiv_pos_site_id
 _symmetry_equiv_pos_as_xyz
  1  'x, y, z'
loop_
 _atom_site_type_symbol
 _atom_site_label
 _atom_site_symmetry_multiplicity
 _atom_site_fract_x
 _atom_site_fract_y
 _atom_site_fract_z
 _atom_site_occupancy
  Zn  Zn0  1  0.33658936  0.13099661  0.19597895  1
  Cr  Cr1  1  0.63404744  0.16922058  0.56287263  1
  Cr  Cr2  1  0.14105639  0.51031559  0.20771029  1
  Cr  Cr3  1  0.84108424  0.48203232  0.83602153  1
  Cr  Cr4  1  0.35082633  0.80286059  0.49573708  1
  O  O5  1  0.85766838  0.66801470  0.61664431  1
  O  O6  1  0.45611121  0.33352463  0.75444191  1
  O  O7  1  0.53280092  0.64900892  0.28557190  1
  O  O8  1  0.13699768  0.30942618  0.41674239  1
  O  O9  1  0.16910827  0.00586845  0.65581125  1
  O  O10  1  0.78731725  0.32792928  0.09768131  1
  O  O11  1  0.83376371  0.97909206  0.35344437  1
  O  O12  1  0.22010982  0.60781910  0.95198807  1
