# generated using pymatgen
data_Ta3Pd
_symmetry_space_group_name_H-M   'P 1'
_cell_length_a   5.14797686
_cell_length_b   5.14797686
_cell_length_c   5.14797686
_cell_angle_alpha   133.56287199
_cell_angle_beta   133.56287199
_cell_angle_gamma   67.77156332
_symmetry_Int_Tables_number   1
_chemical_formula_structural   Ta3Pd
_chemical_formula_sum   'Ta3 Pd1'
_cell_volume   70.41211091
_cell_formula_units_Z   1
loop_
 _symmetry_equiv_pos_site_id
 _symmetry_equiv_pos_as_xyz
  1  'x, y, z'
loop_
 _atom_site_type_symbol
 _atom_site_label
 _atom_site_symmetry_multiplicity
 _atom_site_fract_x
 _atom_site_fract_y
 _atom_site_fract_z
 _atom_site_occupancy
  Ta  Ta0  1  0.74999900  0.25000000  0.49999900  1
  Ta  Ta1  1  0.25000000  0.74999900  0.49999900  1
  Ta  Ta2  1  0.50000000  0.50000000  -0.00000000  1
  Pd  Pd3  1  -0.00000000  0.00000000  -0.00000000  1
