# generated using pymatgen
data_Mg2CrN2
_symmetry_space_group_name_H-M   'P 1'
_cell_length_a   4.46289362
_cell_length_b   5.43659145
_cell_length_c   6.24703770
_cell_angle_alpha   61.96568989
_cell_angle_beta   69.07161639
_cell_angle_gamma   65.76692146
_symmetry_Int_Tables_number   1
_chemical_formula_structural   Mg2CrN2
_chemical_formula_sum   'Mg4 Cr2 N4'
_cell_volume   119.42970774
_cell_formula_units_Z   2
loop_
 _symmetry_equiv_pos_site_id
 _symmetry_equiv_pos_as_xyz
  1  'x, y, z'
loop_
 _atom_site_type_symbol
 _atom_site_label
 _atom_site_symmetry_multiplicity
 _atom_site_fract_x
 _atom_site_fract_y
 _atom_site_fract_z
 _atom_site_occupancy
  Mg  Mg0  1  0.67582104  0.25579072  0.39256820  1
  Mg  Mg1  1  0.32417896  0.74420928  0.60743180  1
  Mg  Mg2  1  0.02635699  0.71061650  0.23666853  1
  Mg  Mg3  1  0.97364301  0.28938350  0.76333147  1
  Cr  Cr4  1  0.36138401  0.14716549  0.13006749  1
  Cr  Cr5  1  0.63861599  0.85283451  0.86993251  1
  N  N6  1  0.17830554  0.24843828  0.39495165  1
  N  N7  1  0.82169446  0.75156172  0.60504835  1
  N  N8  1  0.48555766  0.24940131  0.77948336  1
  N  N9  1  0.51444234  0.75059869  0.22051664  1
