# generated using pymatgen
data_NaMg30BO31
_symmetry_space_group_name_H-M   'P 1'
_cell_length_a   8.55545505
_cell_length_b   8.66678167
_cell_length_c   8.43320429
_cell_angle_alpha   90.00000000
_cell_angle_beta   90.00000000
_cell_angle_gamma   90.00000000
_symmetry_Int_Tables_number   1
_chemical_formula_structural   NaMg30BO31
_chemical_formula_sum   'Na1 Mg30 B1 O31'
_cell_volume   625.30743281
_cell_formula_units_Z   1
loop_
 _symmetry_equiv_pos_site_id
 _symmetry_equiv_pos_as_xyz
  1  'x, y, z'
loop_
 _atom_site_type_symbol
 _atom_site_label
 _atom_site_symmetry_multiplicity
 _atom_site_fract_x
 _atom_site_fract_y
 _atom_site_fract_z
 _atom_site_occupancy
  Na  Na0  1  0.00906709  -0.00000000  -0.00000000  1
  Mg  Mg1  1  0.00010365  0.50000000  -0.00000000  1
  Mg  Mg2  1  0.00258648  0.50000000  0.50000000  1
  Mg  Mg3  1  0.49925327  -0.00000000  0.00000000  1
  Mg  Mg4  1  0.50549770  -0.00000000  0.50000000  1
  Mg  Mg5  1  0.50014761  0.50000000  0.00000000  1
  Mg  Mg6  1  0.49851108  0.50000000  0.50000000  1
  Mg  Mg7  1  0.00020262  0.25660595  0.25633504  1
  Mg  Mg8  1  0.00020262  0.25660595  0.74366496  1
  Mg  Mg9  1  0.00020262  0.74339405  0.25633504  1
  Mg  Mg10  1  0.00020262  0.74339405  0.74366496  1
  Mg  Mg11  1  0.50041723  0.24971817  0.24990595  1
  Mg  Mg12  1  0.50041723  0.24971817  0.75009405  1
  Mg  Mg13  1  0.50041723  0.75028183  0.24990595  1
  Mg  Mg14  1  0.50041723  0.75028183  0.75009405  1
  Mg  Mg15  1  0.25381095  -0.00000000  0.26541729  1
  Mg  Mg16  1  0.25381095  -0.00000000  0.73458271  1
  Mg  Mg17  1  0.25070904  0.50000000  0.25122990  1
  Mg  Mg18  1  0.25070904  0.50000000  0.74877010  1
  Mg  Mg19  1  0.74762797  -0.00000000  0.24447488  1
  Mg  Mg20  1  0.74762797  -0.00000000  0.75552512  1
  Mg  Mg21  1  0.74987656  0.50000000  0.24784480  1
  Mg  Mg22  1  0.74987656  0.50000000  0.75215520  1
  Mg  Mg23  1  0.24753472  0.25231206  0.00000000  1
  Mg  Mg24  1  0.24616118  0.24425110  0.50000000  1
  Mg  Mg25  1  0.24753472  0.74768794  -0.00000000  1
  Mg  Mg26  1  0.24616118  0.75574890  0.50000000  1
  Mg  Mg27  1  0.75331466  0.24915395  0.00000000  1
  Mg  Mg28  1  0.75206013  0.26178723  0.50000000  1
  Mg  Mg29  1  0.75331466  0.75084605  -0.00000000  1
  Mg  Mg30  1  0.75206013  0.73821277  0.50000000  1
  B  B31  1  0.93710652  -0.00000000  0.50000000  1
  O  O32  1  0.27561056  -0.00000000  0.50000000  1
  O  O33  1  0.25237574  0.50000000  -0.00000000  1
  O  O34  1  0.25394989  0.50000000  0.50000000  1
  O  O35  1  0.74547106  -0.00000000  -0.00000000  1
  O  O36  1  0.76551424  -0.00000000  0.50000000  1
  O  O37  1  0.74789274  0.50000000  -0.00000000  1
  O  O38  1  0.74605273  0.50000000  0.50000000  1
  O  O39  1  0.24828804  0.24802810  0.25163154  1
  O  O40  1  0.24828804  0.24802810  0.74836846  1
  O  O41  1  0.24828804  0.75197190  0.25163154  1
  O  O42  1  0.24828804  0.75197190  0.74836846  1
  O  O43  1  0.75234442  0.24747189  0.25020889  1
  O  O44  1  0.75234442  0.24747189  0.74979111  1
  O  O45  1  0.75234442  0.75252811  0.25020889  1
  O  O46  1  0.75234442  0.75252811  0.74979111  1
  O  O47  1  0.99189812  -0.00000000  0.33755473  1
  O  O48  1  0.99189812  -0.00000000  0.66244527  1
  O  O49  1  0.00006798  0.50000000  0.24855263  1
  O  O50  1  0.00006798  0.50000000  0.75144737  1
  O  O51  1  0.50636140  -0.00000000  0.25146591  1
  O  O52  1  0.50636140  -0.00000000  0.74853409  1
  O  O53  1  0.50043020  0.50000000  0.24981409  1
  O  O54  1  0.50043020  0.50000000  0.75018591  1
  O  O55  1  0.99994359  0.25849749  0.00000000  1
  O  O56  1  0.99662178  0.26894849  0.50000000  1
  O  O57  1  0.99994359  0.74150251  0.00000000  1
  O  O58  1  0.99662178  0.73105151  0.50000000  1
  O  O59  1  0.50006473  0.25063124  -0.00000000  1
  O  O60  1  0.50644519  0.24954499  0.50000000  1
  O  O61  1  0.50006473  0.74936876  -0.00000000  1
  O  O62  1  0.50644519  0.75045501  0.50000000  1
