# generated using pymatgen
data_Ca2Mg
_symmetry_space_group_name_H-M   'P 1'
_cell_length_a   13.95473314
_cell_length_b   3.70553353
_cell_length_c   8.51543838
_cell_angle_alpha   90.00000000
_cell_angle_beta   103.65404146
_cell_angle_gamma   90.00000000
_symmetry_Int_Tables_number   1
_chemical_formula_structural   Ca2Mg
_chemical_formula_sum   'Ca8 Mg4'
_cell_volume   427.88674138
_cell_formula_units_Z   4
loop_
 _symmetry_equiv_pos_site_id
 _symmetry_equiv_pos_as_xyz
  1  'x, y, z'
loop_
 _atom_site_type_symbol
 _atom_site_label
 _atom_site_symmetry_multiplicity
 _atom_site_fract_x
 _atom_site_fract_y
 _atom_site_fract_z
 _atom_site_occupancy
  Ca  Ca0  1  0.99250201  -0.00000000  0.00918377  1
  Ca  Ca1  1  0.16467781  0.50000000  0.34471610  1
  Ca  Ca2  1  0.34667840  0.00000000  0.65393362  1
  Ca  Ca3  1  0.21975198  0.50000000  0.93902754  1
  Ca  Ca4  1  0.49250201  0.50000000  0.00918377  1
  Ca  Ca5  1  0.66467781  0.00000000  0.34471610  1
  Ca  Ca6  1  0.84667840  0.50000000  0.65393362  1
  Ca  Ca7  1  0.71975198  -0.00000000  0.93902754  1
  Mg  Mg8  1  0.38650326  -0.00000000  0.27562051  1
  Mg  Mg9  1  0.05655354  0.00000000  0.61085146  1
  Mg  Mg10  1  0.88650326  0.50000000  0.27562051  1
  Mg  Mg11  1  0.55655354  0.50000000  0.61085146  1
