# generated using pymatgen
data_VZn(SiO3)2
_symmetry_space_group_name_H-M   'P 1'
_cell_length_a   5.27030097
_cell_length_b   9.03491991
_cell_length_c   18.83906910
_cell_angle_alpha   90.00000000
_cell_angle_beta   90.00000000
_cell_angle_gamma   90.00000000
_symmetry_Int_Tables_number   1
_chemical_formula_structural   VZn(SiO3)2
_chemical_formula_sum   'V8 Zn8 Si16 O48'
_cell_volume   897.05519017
_cell_formula_units_Z   8
loop_
 _symmetry_equiv_pos_site_id
 _symmetry_equiv_pos_as_xyz
  1  'x, y, z'
loop_
 _atom_site_type_symbol
 _atom_site_label
 _atom_site_symmetry_multiplicity
 _atom_site_fract_x
 _atom_site_fract_y
 _atom_site_fract_z
 _atom_site_occupancy
  V  V0  1  0.35026207  0.97759108  0.12238121  1
  V  V1  1  0.64973793  0.02240892  0.87761879  1
  V  V2  1  0.85026207  0.02240892  0.37761879  1
  V  V3  1  0.14973793  0.97759108  0.62238121  1
  V  V4  1  0.35026207  0.47759108  0.37761879  1
  V  V5  1  0.64973793  0.52240892  0.62238121  1
  V  V6  1  0.85026207  0.52240892  0.12238121  1
  V  V7  1  0.14973793  0.47759108  0.87761879  1
  Zn  Zn8  1  0.63343981  0.14843630  0.62323649  1
  Zn  Zn9  1  0.36656019  0.85156370  0.37676351  1
  Zn  Zn10  1  0.63343981  0.64843630  0.87676351  1
  Zn  Zn11  1  0.13343981  0.85156370  0.87676351  1
  Zn  Zn12  1  0.86656019  0.14843630  0.12323649  1
  Zn  Zn13  1  0.36656019  0.35156370  0.12323649  1
  Zn  Zn14  1  0.13343981  0.35156370  0.62323649  1
  Zn  Zn15  1  0.86656019  0.64843630  0.37676351  1
  Si  Si16  1  0.54841084  0.65876274  0.23229318  1
  Si  Si17  1  0.69927908  0.83673896  0.52489538  1
  Si  Si18  1  0.80072092  0.83673896  0.02489538  1
  Si  Si19  1  0.95158916  0.15876274  0.76770682  1
  Si  Si20  1  0.04841084  0.34123726  0.26770682  1
  Si  Si21  1  0.45158916  0.84123726  0.73229318  1
  Si  Si22  1  0.19927908  0.66326104  0.52489538  1
  Si  Si23  1  0.69927908  0.33673896  0.97510462  1
  Si  Si24  1  0.80072092  0.33673896  0.47510462  1
  Si  Si25  1  0.95158916  0.65876274  0.73229318  1
  Si  Si26  1  0.45158916  0.34123726  0.76770682  1
  Si  Si27  1  0.54841084  0.15876274  0.26770682  1
  Si  Si28  1  0.30072092  0.16326104  0.47510462  1
  Si  Si29  1  0.04841084  0.84123726  0.23229318  1
  Si  Si30  1  0.30072092  0.66326104  0.02489538  1
  Si  Si31  1  0.19927908  0.16326104  0.97510462  1
  O  O32  1  0.96348749  0.50193966  0.69187031  1
  O  O33  1  0.30020147  0.01766502  0.93541628  1
  O  O34  1  0.03651251  0.49806034  0.30812969  1
  O  O35  1  0.70162951  0.33907063  0.06192596  1
  O  O36  1  0.20162951  0.16092937  0.06192596  1
  O  O37  1  0.89755475  0.19900591  0.94847620  1
  O  O38  1  0.96672940  0.65670753  0.81880477  1
  O  O39  1  0.03327060  0.84329247  0.31880477  1
  O  O40  1  0.70162951  0.83907063  0.43807404  1
  O  O41  1  0.96672940  0.15670753  0.68119523  1
  O  O42  1  0.46348749  0.49806034  0.80812969  1
  O  O43  1  0.79837049  0.33907063  0.56192596  1
  O  O44  1  0.69979853  0.98233498  0.06458372  1
  O  O45  1  0.46672940  0.84329247  0.81880477  1
  O  O46  1  0.53651251  0.00193966  0.30812969  1
  O  O47  1  0.30020147  0.51766502  0.56458372  1
  O  O48  1  0.46348749  0.99806034  0.69187031  1
  O  O49  1  0.17110983  0.77651835  0.70255412  1
  O  O50  1  0.32889017  0.77651835  0.20255412  1
  O  O51  1  0.60244525  0.69900591  0.05152380  1
  O  O52  1  0.79837049  0.83907063  0.93807404  1
  O  O53  1  0.53327060  0.65670753  0.31880477  1
  O  O54  1  0.80020147  0.48233498  0.93541628  1
  O  O55  1  0.17110983  0.27651835  0.79744588  1
  O  O56  1  0.29837049  0.16092937  0.56192596  1
  O  O57  1  0.53327060  0.15670753  0.18119523  1
  O  O58  1  0.69979853  0.48233498  0.43541628  1
  O  O59  1  0.20162951  0.66092937  0.43807404  1
  O  O60  1  0.19979853  0.51766502  0.06458372  1
  O  O61  1  0.67110983  0.72348165  0.70255412  1
  O  O62  1  0.03651251  0.99806034  0.19187031  1
  O  O63  1  0.82889017  0.72348165  0.20255412  1
  O  O64  1  0.82889017  0.22348165  0.29744588  1
  O  O65  1  0.80020147  0.98233498  0.56458372  1
  O  O66  1  0.29837049  0.66092937  0.93807404  1
  O  O67  1  0.19979853  0.01766502  0.43541628  1
  O  O68  1  0.32889017  0.27651835  0.29744588  1
  O  O69  1  0.10244525  0.80099409  0.05152380  1
  O  O70  1  0.39755475  0.80099409  0.55152380  1
  O  O71  1  0.67110983  0.22348165  0.79744588  1
  O  O72  1  0.39755475  0.30099409  0.94847620  1
  O  O73  1  0.60244525  0.19900591  0.44847620  1
  O  O74  1  0.10244525  0.30099409  0.44847620  1
  O  O75  1  0.46672940  0.34329247  0.68119523  1
  O  O76  1  0.53651251  0.50193966  0.19187031  1
  O  O77  1  0.89755475  0.69900591  0.55152380  1
  O  O78  1  0.03327060  0.34329247  0.18119523  1
  O  O79  1  0.96348749  0.00193966  0.80812969  1
