# generated using pymatgen
data_KCeMg30O32
_symmetry_space_group_name_H-M   'P 1'
_cell_length_a   8.66685852
_cell_length_b   8.67277323
_cell_length_c   8.67277323
_cell_angle_alpha   90.00000000
_cell_angle_beta   90.00000000
_cell_angle_gamma   90.00000000
_symmetry_Int_Tables_number   1
_chemical_formula_structural   KCeMg30O32
_chemical_formula_sum   'K1 Ce1 Mg30 O32'
_cell_volume   651.89505829
_cell_formula_units_Z   1
loop_
 _symmetry_equiv_pos_site_id
 _symmetry_equiv_pos_as_xyz
  1  'x, y, z'
loop_
 _atom_site_type_symbol
 _atom_site_label
 _atom_site_symmetry_multiplicity
 _atom_site_fract_x
 _atom_site_fract_y
 _atom_site_fract_z
 _atom_site_occupancy
  K  K0  1  -0.00000000  -0.00000000  0.00000000  1
  Ce  Ce1  1  -0.00000000  0.50000000  0.50000000  1
  Mg  Mg2  1  -0.00000000  -0.00000000  0.50000000  1
  Mg  Mg3  1  -0.00000000  0.50000000  0.00000000  1
  Mg  Mg4  1  0.50000000  -0.00000000  -0.00000000  1
  Mg  Mg5  1  0.50000000  -0.00000000  0.50000000  1
  Mg  Mg6  1  0.50000000  0.50000000  0.00000000  1
  Mg  Mg7  1  0.50000000  0.50000000  0.50000000  1
  Mg  Mg8  1  -0.00000000  0.24245563  0.24245563  1
  Mg  Mg9  1  -0.00000000  0.24245563  0.75754437  1
  Mg  Mg10  1  -0.00000000  0.75754437  0.24245563  1
  Mg  Mg11  1  -0.00000000  0.75754437  0.75754437  1
  Mg  Mg12  1  0.50000000  0.24842400  0.24842400  1
  Mg  Mg13  1  0.50000000  0.24842400  0.75157600  1
  Mg  Mg14  1  0.50000000  0.75157600  0.24842400  1
  Mg  Mg15  1  0.50000000  0.75157600  0.75157600  1
  Mg  Mg16  1  0.25215738  -0.00000000  0.25007546  1
  Mg  Mg17  1  0.25215738  -0.00000000  0.74992454  1
  Mg  Mg18  1  0.25776155  0.50000000  0.24114304  1
  Mg  Mg19  1  0.25776155  0.50000000  0.75885696  1
  Mg  Mg20  1  0.74784262  -0.00000000  0.25007546  1
  Mg  Mg21  1  0.74784262  -0.00000000  0.74992454  1
  Mg  Mg22  1  0.74223845  0.50000000  0.24114304  1
  Mg  Mg23  1  0.74223845  0.50000000  0.75885696  1
  Mg  Mg24  1  0.25215738  0.25007546  -0.00000000  1
  Mg  Mg25  1  0.25776155  0.24114304  0.50000000  1
  Mg  Mg26  1  0.25215738  0.74992454  0.00000000  1
  Mg  Mg27  1  0.25776155  0.75885696  0.50000000  1
  Mg  Mg28  1  0.74784262  0.25007546  0.00000000  1
  Mg  Mg29  1  0.74223845  0.24114304  0.50000000  1
  Mg  Mg30  1  0.74784262  0.74992454  -0.00000000  1
  Mg  Mg31  1  0.74223845  0.75885696  0.50000000  1
  O  O32  1  0.27366729  -0.00000000  -0.00000000  1
  O  O33  1  0.25638327  -0.00000000  0.50000000  1
  O  O34  1  0.25638327  0.50000000  -0.00000000  1
  O  O35  1  0.26528816  0.50000000  0.50000000  1
  O  O36  1  0.72633271  -0.00000000  0.00000000  1
  O  O37  1  0.74361673  -0.00000000  0.50000000  1
  O  O38  1  0.74361673  0.50000000  0.00000000  1
  O  O39  1  0.73471184  0.50000000  0.50000000  1
  O  O40  1  0.24905850  0.25090583  0.25090583  1
  O  O41  1  0.24905850  0.25090583  0.74909417  1
  O  O42  1  0.24905850  0.74909417  0.25090583  1
  O  O43  1  0.24905850  0.74909417  0.74909417  1
  O  O44  1  0.75094150  0.25090583  0.25090583  1
  O  O45  1  0.75094150  0.25090583  0.74909417  1
  O  O46  1  0.75094150  0.74909417  0.25090583  1
  O  O47  1  0.75094150  0.74909417  0.74909417  1
  O  O48  1  -0.00000000  -0.00000000  0.27221461  1
  O  O49  1  -0.00000000  -0.00000000  0.72778539  1
  O  O50  1  -0.00000000  0.50000000  0.23822221  1
  O  O51  1  -0.00000000  0.50000000  0.76177779  1
  O  O52  1  0.50000000  -0.00000000  0.25459550  1
  O  O53  1  0.50000000  -0.00000000  0.74540450  1
  O  O54  1  0.50000000  0.50000000  0.24919276  1
  O  O55  1  0.50000000  0.50000000  0.75080724  1
  O  O56  1  -0.00000000  0.27221461  -0.00000000  1
  O  O57  1  -0.00000000  0.23822221  0.50000000  1
  O  O58  1  -0.00000000  0.72778539  -0.00000000  1
  O  O59  1  -0.00000000  0.76177779  0.50000000  1
  O  O60  1  0.50000000  0.25459550  0.00000000  1
  O  O61  1  0.50000000  0.24919276  0.50000000  1
  O  O62  1  0.50000000  0.74540450  0.00000000  1
  O  O63  1  0.50000000  0.75080724  0.50000000  1
