# generated using pymatgen
data_Mg30NbCdO32
_symmetry_space_group_name_H-M   'P 1'
_cell_length_a   8.58722962
_cell_length_b   8.59086480
_cell_length_c   8.59086480
_cell_angle_alpha   90.00000000
_cell_angle_beta   90.00000000
_cell_angle_gamma   90.00000000
_symmetry_Int_Tables_number   1
_chemical_formula_structural   Mg30NbCdO32
_chemical_formula_sum   'Mg30 Nb1 Cd1 O32'
_cell_volume   633.76294708
_cell_formula_units_Z   1
loop_
 _symmetry_equiv_pos_site_id
 _symmetry_equiv_pos_as_xyz
  1  'x, y, z'
loop_
 _atom_site_type_symbol
 _atom_site_label
 _atom_site_symmetry_multiplicity
 _atom_site_fract_x
 _atom_site_fract_y
 _atom_site_fract_z
 _atom_site_occupancy
  Mg  Mg0  1  -0.00000000  0.00000000  0.50000000  1
  Mg  Mg1  1  -0.00000000  0.50000000  -0.00000000  1
  Mg  Mg2  1  0.50000000  0.00000000  -0.00000000  1
  Mg  Mg3  1  0.50000000  0.00000000  0.50000000  1
  Mg  Mg4  1  0.50000000  0.50000000  -0.00000000  1
  Mg  Mg5  1  0.50000000  0.50000000  0.50000000  1
  Mg  Mg6  1  -0.00000000  0.24961610  0.24961610  1
  Mg  Mg7  1  -0.00000000  0.24961610  0.75038390  1
  Mg  Mg8  1  -0.00000000  0.75038390  0.24961610  1
  Mg  Mg9  1  -0.00000000  0.75038390  0.75038390  1
  Mg  Mg10  1  0.50000000  0.25002813  0.25002813  1
  Mg  Mg11  1  0.50000000  0.25002813  0.74997187  1
  Mg  Mg12  1  0.50000000  0.74997187  0.25002813  1
  Mg  Mg13  1  0.50000000  0.74997187  0.74997187  1
  Mg  Mg14  1  0.25176646  0.00000000  0.25181161  1
  Mg  Mg15  1  0.25176646  0.00000000  0.74818839  1
  Mg  Mg16  1  0.25227022  0.50000000  0.24781102  1
  Mg  Mg17  1  0.25227022  0.50000000  0.75218898  1
  Mg  Mg18  1  0.74823354  0.00000000  0.25181161  1
  Mg  Mg19  1  0.74823354  0.00000000  0.74818839  1
  Mg  Mg20  1  0.74772978  0.50000000  0.24781102  1
  Mg  Mg21  1  0.74772978  0.50000000  0.75218898  1
  Mg  Mg22  1  0.25176646  0.25181161  -0.00000000  1
  Mg  Mg23  1  0.25227022  0.24781102  0.50000000  1
  Mg  Mg24  1  0.25176646  0.74818839  -0.00000000  1
  Mg  Mg25  1  0.25227022  0.75218898  0.50000000  1
  Mg  Mg26  1  0.74823354  0.25181161  -0.00000000  1
  Mg  Mg27  1  0.74772978  0.24781102  0.50000000  1
  Mg  Mg28  1  0.74823354  0.74818839  -0.00000000  1
  Mg  Mg29  1  0.74772978  0.75218898  0.50000000  1
  Nb  Nb30  1  -0.00000000  0.00000000  -0.00000000  1
  Cd  Cd31  1  -0.00000000  0.50000000  0.50000000  1
  O  O32  1  0.26222285  0.00000000  -0.00000000  1
  O  O33  1  0.25319572  0.00000000  0.50000000  1
  O  O34  1  0.25319572  0.50000000  -0.00000000  1
  O  O35  1  0.26413856  0.50000000  0.50000000  1
  O  O36  1  0.73777715  0.00000000  -0.00000000  1
  O  O37  1  0.74680428  0.00000000  0.50000000  1
  O  O38  1  0.74680428  0.50000000  -0.00000000  1
  O  O39  1  0.73586144  0.50000000  0.50000000  1
  O  O40  1  0.24938281  0.25016383  0.25016383  1
  O  O41  1  0.24938281  0.25016383  0.74983617  1
  O  O42  1  0.24938281  0.74983617  0.25016383  1
  O  O43  1  0.24938281  0.74983617  0.74983617  1
  O  O44  1  0.75061719  0.25016383  0.25016383  1
  O  O45  1  0.75061719  0.25016383  0.74983617  1
  O  O46  1  0.75061719  0.74983617  0.25016383  1
  O  O47  1  0.75061719  0.74983617  0.74983617  1
  O  O48  1  -0.00000000  0.00000000  0.26087520  1
  O  O49  1  -0.00000000  0.00000000  0.73912480  1
  O  O50  1  -0.00000000  0.50000000  0.23733300  1
  O  O51  1  -0.00000000  0.50000000  0.76266700  1
  O  O52  1  0.50000000  0.00000000  0.25095862  1
  O  O53  1  0.50000000  0.00000000  0.74904138  1
  O  O54  1  0.50000000  0.50000000  0.24846917  1
  O  O55  1  0.50000000  0.50000000  0.75153083  1
  O  O56  1  -0.00000000  0.26087520  -0.00000000  1
  O  O57  1  -0.00000000  0.23733300  0.50000000  1
  O  O58  1  -0.00000000  0.73912480  -0.00000000  1
  O  O59  1  -0.00000000  0.76266700  0.50000000  1
  O  O60  1  0.50000000  0.25095862  -0.00000000  1
  O  O61  1  0.50000000  0.24846917  0.50000000  1
  O  O62  1  0.50000000  0.74904138  -0.00000000  1
  O  O63  1  0.50000000  0.75153083  0.50000000  1
