# generated using pymatgen
data_Ba2Mo2F11
_symmetry_space_group_name_H-M   'P 1'
_cell_length_a   8.03345821
_cell_length_b   8.03345769
_cell_length_c   14.64604821
_cell_angle_alpha   90.00000000
_cell_angle_beta   90.00000000
_cell_angle_gamma   119.99999419
_symmetry_Int_Tables_number   1
_chemical_formula_structural   Ba2Mo2F11
_chemical_formula_sum   'Ba6 Mo6 F33'
_cell_volume   818.57064438
_cell_formula_units_Z   3
loop_
 _symmetry_equiv_pos_site_id
 _symmetry_equiv_pos_as_xyz
  1  'x, y, z'
loop_
 _atom_site_type_symbol
 _atom_site_label
 _atom_site_symmetry_multiplicity
 _atom_site_fract_x
 _atom_site_fract_y
 _atom_site_fract_z
 _atom_site_occupancy
  Ba  Ba0  1  0.60171187  0.19301799  0.64998110  1
  Ba  Ba1  1  0.15392713  0.40964262  0.80750096  1
  Ba  Ba2  1  0.59130712  0.39828813  0.98331410  1
  Ba  Ba3  1  0.59035738  0.74428350  0.47416696  1
  Ba  Ba4  1  0.25571650  0.84607287  0.14083396  1
  Ba  Ba5  1  0.80698201  0.40869288  0.31664710  1
  Mo  Mo6  1  0.60227309  0.93343075  0.88854051  1
  Mo  Mo7  1  0.85563800  0.77327146  0.72941501  1
  Mo  Mo8  1  0.22672854  0.08236655  0.39608101  1
  Mo  Mo9  1  0.33115866  0.39772691  0.22187351  1
  Mo  Mo10  1  0.91763345  0.14436200  0.06274801  1
  Mo  Mo11  1  0.06656925  0.66884134  0.55520651  1
  F  F12  1  0.62664575  0.01427276  0.03352539  1
  F  F13  1  0.49562544  0.66258306  0.94442151  1
  F  F14  1  0.38762801  0.37335425  0.36685839  1
  F  F15  1  0.19693265  0.53004746  0.50116631  1
  F  F16  1  0.51358493  0.29899498  0.17792704  1
  F  F17  1  0.92283261  0.58446188  0.16357153  1
  F  F18  1  0.46995254  0.66688518  0.16783331  1
  F  F19  1  0.41553812  0.33837173  0.83023853  1
  F  F20  1  0.78540905  0.48641507  0.51126004  1
  F  F21  1  0.21229262  0.31573508  0.08692310  1
  F  F22  1  0.33311482  0.80306735  0.83450031  1
  F  F23  1  0.98572724  0.61237199  0.70019239  1
  F  F24  1  0.32733897  0.05468536  0.00477995  1
  F  F25  1  0.94676212  0.38266433  0.00711639  1
  F  F26  1  0.72734639  0.67266103  0.33811295  1
  F  F27  1  0.33741694  0.83304339  0.61108751  1
  F  F28  1  0.91593423  0.08017400  0.92461815  1
  F  F29  1  0.10344246  0.78770738  0.42025610  1
  F  F30  1  0.98899487  0.08097677  0.41183370  1
  F  F31  1  0.94531464  0.27265361  0.67144595  1
  F  F32  1  0.09198190  0.01100513  0.74516770  1
  F  F33  1  0.61733567  0.56409679  0.67378339  1
  F  F34  1  0.43590321  0.05323788  0.34044939  1
  F  F35  1  0.16423977  0.08406577  0.25795115  1
  F  F36  1  0.68426492  0.89655754  0.75359010  1
  F  F37  1  0.70100402  0.21459095  0.84459404  1
  F  F38  1  0.16695661  0.50437456  0.27775451  1
  F  F39  1  0.82194624  0.68912251  0.85474835  1
  F  F40  1  0.86717627  0.17805376  0.18808135  1
  F  F41  1  0.91902323  0.90801810  0.07850070  1
  F  F42  1  0.66162827  0.07716739  0.49690453  1
  F  F43  1  0.91982600  0.83576023  0.59128415  1
  F  F44  1  0.31087749  0.13282373  0.52141435  1
