# generated using pymatgen
data_ZnCr4(CuO4)3
_symmetry_space_group_name_H-M   'P 1'
_cell_length_a   6.36634010
_cell_length_b   6.36634000
_cell_length_c   6.36634075
_cell_angle_alpha   109.47121772
_cell_angle_beta   109.47121740
_cell_angle_gamma   109.47121675
_symmetry_Int_Tables_number   1
_chemical_formula_structural   ZnCr4(CuO4)3
_chemical_formula_sum   'Zn1 Cr4 Cu3 O12'
_cell_volume   198.63131028
_cell_formula_units_Z   1
loop_
 _symmetry_equiv_pos_site_id
 _symmetry_equiv_pos_as_xyz
  1  'x, y, z'
loop_
 _atom_site_type_symbol
 _atom_site_label
 _atom_site_symmetry_multiplicity
 _atom_site_fract_x
 _atom_site_fract_y
 _atom_site_fract_z
 _atom_site_occupancy
  Zn  Zn0  1  0.00000000  -0.00000000  0.00000000  1
  Cr  Cr1  1  0.00000000  -0.00000000  0.50000000  1
  Cr  Cr2  1  0.00000000  0.50000000  0.00000000  1
  Cr  Cr3  1  0.50000000  0.50000000  0.50000000  1
  Cr  Cr4  1  0.50000000  -0.00000000  0.00000000  1
  Cu  Cu5  1  0.50000000  0.50000000  0.00000000  1
  Cu  Cu6  1  0.00000000  0.50000000  0.50000000  1
  Cu  Cu7  1  0.50000000  -0.00000000  0.50000000  1
  O  O8  1  0.83121008  0.31036990  0.14158099  1
  O  O9  1  0.16878992  0.68963010  0.85841901  1
  O  O10  1  0.83121008  0.68963010  0.52084118  1
  O  O11  1  0.31036990  0.47915882  0.16878992  1
  O  O12  1  0.47915882  0.16878992  0.31036990  1
  O  O13  1  0.14158099  0.83121008  0.31036990  1
  O  O14  1  0.68963010  0.85841901  0.16878992  1
  O  O15  1  0.52084118  0.83121008  0.68963010  1
  O  O16  1  0.16878992  0.31036990  0.47915882  1
  O  O17  1  0.68963010  0.52084118  0.83121008  1
  O  O18  1  0.85841901  0.16878992  0.68963010  1
  O  O19  1  0.31036990  0.14158099  0.83121008  1
