# generated using pymatgen
data_Mg3Ta6(FeO6)4
_symmetry_space_group_name_H-M   'P 1'
_cell_length_a   7.03800008
_cell_length_b   8.26082068
_cell_length_c   10.24519873
_cell_angle_alpha   106.25151641
_cell_angle_beta   103.20848586
_cell_angle_gamma   102.57924220
_symmetry_Int_Tables_number   1
_chemical_formula_structural   Mg3Ta6(FeO6)4
_chemical_formula_sum   'Mg3 Ta6 Fe4 O24'
_cell_volume   530.82813825
_cell_formula_units_Z   1
loop_
 _symmetry_equiv_pos_site_id
 _symmetry_equiv_pos_as_xyz
  1  'x, y, z'
loop_
 _atom_site_type_symbol
 _atom_site_label
 _atom_site_symmetry_multiplicity
 _atom_site_fract_x
 _atom_site_fract_y
 _atom_site_fract_z
 _atom_site_occupancy
  Mg  Mg0  1  -0.00000000  0.50000000  0.50000000  1
  Mg  Mg1  1  0.27739988  0.27772678  0.79300676  1
  Mg  Mg2  1  0.72260012  0.72227322  0.20699324  1
  Ta  Ta3  1  0.77781041  0.32681840  0.72660068  1
  Ta  Ta4  1  0.22218959  0.67318160  0.27339932  1
  Ta  Ta5  1  0.89522870  0.91327379  0.66986512  1
  Ta  Ta6  1  0.40742699  0.73098909  0.87946354  1
  Ta  Ta7  1  0.10477130  0.08672621  0.33013488  1
  Ta  Ta8  1  0.59257301  0.26901091  0.12053646  1
  Fe  Fe9  1  0.37918951  0.95258185  0.60820418  1
  Fe  Fe10  1  0.62081049  0.04741815  0.39179582  1
  Fe  Fe11  1  0.04384940  0.20757701  0.01302787  1
  Fe  Fe12  1  0.95615060  0.79242299  0.98697213  1
  O  O13  1  0.87606007  0.68525968  0.58085484  1
  O  O14  1  0.12393993  0.31474032  0.41914516  1
  O  O15  1  0.27155765  0.50026011  0.75838930  1
  O  O16  1  0.72844235  0.49973989  0.24161070  1
  O  O17  1  0.78607832  0.30202454  0.53836444  1
  O  O18  1  0.21392168  0.69797546  0.46163556  1
  O  O19  1  0.66356626  0.97710241  0.57837776  1
  O  O20  1  0.33643374  0.02289759  0.42162224  1
  O  O21  1  0.65863978  0.74711848  0.01059787  1
  O  O22  1  0.34136022  0.25288152  0.98940213  1
  O  O23  1  0.48637496  0.77722660  0.27301742  1
  O  O24  1  0.51362504  0.22277340  0.72698258  1
  O  O25  1  0.14046099  0.02875958  0.64668778  1
  O  O26  1  0.07180926  0.06277447  0.13686469  1
  O  O27  1  0.92819074  0.93722553  0.86313531  1
  O  O28  1  0.56191204  0.13470451  0.23764835  1
  O  O29  1  0.43808796  0.86529549  0.76235165  1
  O  O30  1  0.16127276  0.44052551  0.16595488  1
  O  O31  1  0.83872724  0.55947349  0.83404512  1
  O  O32  1  0.98190215  0.24109037  0.81844765  1
  O  O33  1  0.01809785  0.75890963  0.18155235  1
  O  O34  1  0.23214380  0.79326151  0.97989901  1
  O  O35  1  0.76785620  0.20673849  0.02010099  1
  O  O36  1  0.85953901  0.97124042  0.35331222  1
