# generated using pymatgen
data_ZnCo(Si2O5)2
_symmetry_space_group_name_H-M   'P 1'
_cell_length_a   7.30577502
_cell_length_b   7.30577502
_cell_length_c   14.94198073
_cell_angle_alpha   90.00000000
_cell_angle_beta   90.00000000
_cell_angle_gamma   90.00000000
_symmetry_Int_Tables_number   1
_chemical_formula_structural   ZnCo(Si2O5)2
_chemical_formula_sum   'Zn4 Co4 Si16 O40'
_cell_volume   797.51848890
_cell_formula_units_Z   4
loop_
 _symmetry_equiv_pos_site_id
 _symmetry_equiv_pos_as_xyz
  1  'x, y, z'
loop_
 _atom_site_type_symbol
 _atom_site_label
 _atom_site_symmetry_multiplicity
 _atom_site_fract_x
 _atom_site_fract_y
 _atom_site_fract_z
 _atom_site_occupancy
  Zn  Zn0  1  0.25000000  0.75000000  0.50000000  1
  Zn  Zn1  1  0.75000000  0.25000000  0.50000000  1
  Zn  Zn2  1  0.75000000  0.25000000  -0.00000000  1
  Zn  Zn3  1  0.25000000  0.75000000  -0.00000000  1
  Co  Co4  1  0.25000000  0.25000000  0.57052678  1
  Co  Co5  1  0.75000000  0.75000000  0.92947322  1
  Co  Co6  1  0.75000000  0.75000000  0.42947422  1
  Co  Co7  1  0.25000000  0.25000000  0.07052578  1
  Si  Si8  1  0.91085249  0.49018440  0.64500113  1
  Si  Si9  1  0.58914751  0.00981560  0.64500113  1
  Si  Si10  1  0.99018440  0.41085249  0.85499887  1
  Si  Si11  1  0.49018440  0.58914751  0.64500113  1
  Si  Si12  1  0.00981560  0.91085249  0.64500113  1
  Si  Si13  1  0.08914751  0.99018440  0.85499887  1
  Si  Si14  1  0.41085249  0.50981560  0.85499887  1
  Si  Si15  1  0.50981560  0.08914751  0.85499887  1
  Si  Si16  1  0.08914751  0.50981560  0.35499887  1
  Si  Si17  1  0.41085249  0.99018440  0.35499887  1
  Si  Si18  1  0.00981560  0.58914751  0.14500113  1
  Si  Si19  1  0.50981560  0.41085249  0.35499887  1
  Si  Si20  1  0.99018440  0.08914751  0.35499887  1
  Si  Si21  1  0.91085249  0.00981560  0.14500113  1
  Si  Si22  1  0.58914751  0.49018440  0.14500113  1
  Si  Si23  1  0.49018440  0.91085249  0.14500113  1
  O  O24  1  0.98307853  0.33570585  0.57577919  1
  O  O25  1  0.51692147  0.16429415  0.57577919  1
  O  O26  1  0.83570585  0.48307853  0.92422081  1
  O  O27  1  0.33570585  0.51692147  0.57577919  1
  O  O28  1  0.16429415  0.98307853  0.57577919  1
  O  O29  1  0.01692147  0.83570585  0.92422081  1
  O  O30  1  0.48307853  0.66429415  0.92422081  1
  O  O31  1  0.66429415  0.01692147  0.92422081  1
  O  O32  1  0.01692147  0.66429415  0.42422081  1
  O  O33  1  0.48307853  0.83570585  0.42422081  1
  O  O34  1  0.16429415  0.51692147  0.07577919  1
  O  O35  1  0.66429415  0.48307853  0.42422081  1
  O  O36  1  0.83570585  0.01692147  0.42422081  1
  O  O37  1  0.98307853  0.16429415  0.07577919  1
  O  O38  1  0.51692147  0.33570585  0.07577919  1
  O  O39  1  0.00220356  0.30844397  0.37408004  1
  O  O40  1  0.33570585  0.98307853  0.07577919  1
  O  O41  1  0.50220356  0.80844397  0.62591996  1
  O  O42  1  0.19155603  0.49779644  0.87408004  1
  O  O43  1  0.69155603  0.50220356  0.62591996  1
  O  O44  1  0.80844397  0.99779644  0.62591996  1
  O  O45  1  0.00220356  0.19155603  0.87408004  1
  O  O46  1  0.49779644  0.30844397  0.87408004  1
  O  O47  1  0.30844397  0.00220356  0.87408004  1
  O  O48  1  0.44471687  0.94471687  0.25000000  1
  O  O49  1  0.55528313  0.44471687  0.25000000  1
  O  O50  1  0.94471687  0.05528413  0.25000000  1
  O  O51  1  0.05528413  0.55528313  0.25000000  1
  O  O52  1  0.55528313  0.05528413  0.75000000  1
  O  O53  1  0.44471687  0.55528313  0.75000000  1
  O  O54  1  0.05528413  0.94471687  0.75000000  1
  O  O55  1  0.94471687  0.44471687  0.75000000  1
  O  O56  1  0.69155603  0.99779644  0.12591996  1
  O  O57  1  0.50220356  0.69155603  0.12591996  1
  O  O58  1  0.99779644  0.80844397  0.12591996  1
  O  O59  1  0.19155603  0.00220356  0.37408004  1
  O  O60  1  0.30844397  0.49779644  0.37408004  1
  O  O61  1  0.80844397  0.50220356  0.12591996  1
  O  O62  1  0.49779644  0.19155603  0.37408004  1
  O  O63  1  0.99779644  0.69155603  0.62591996  1
