# generated using pymatgen
data_CaMnBiO5
_symmetry_space_group_name_H-M   'P 1'
_cell_length_a   5.54451961
_cell_length_b   11.34745072
_cell_length_c   15.57922593
_cell_angle_alpha   90.00000000
_cell_angle_beta   90.00000000
_cell_angle_gamma   90.00000000
_symmetry_Int_Tables_number   1
_chemical_formula_structural   CaMnBiO5
_chemical_formula_sum   'Ca8 Mn8 Bi8 O40'
_cell_volume   980.18511866
_cell_formula_units_Z   8
loop_
 _symmetry_equiv_pos_site_id
 _symmetry_equiv_pos_as_xyz
  1  'x, y, z'
loop_
 _atom_site_type_symbol
 _atom_site_label
 _atom_site_symmetry_multiplicity
 _atom_site_fract_x
 _atom_site_fract_y
 _atom_site_fract_z
 _atom_site_occupancy
  Ca  Ca0  1  0.50200719  0.35877148  0.44869545  1
  Ca  Ca1  1  0.00200719  0.14122852  0.44869545  1
  Ca  Ca2  1  0.00200719  0.64122852  0.05130455  1
  Ca  Ca3  1  0.99799281  0.35877148  0.94869545  1
  Ca  Ca4  1  0.49799281  0.14122852  0.94869545  1
  Ca  Ca5  1  0.99799281  0.85877148  0.55130455  1
  Ca  Ca6  1  0.49799281  0.64122852  0.55130455  1
  Ca  Ca7  1  0.50200719  0.85877148  0.05130455  1
  Mn  Mn8  1  0.98238471  0.40456714  0.59849991  1
  Mn  Mn9  1  0.51761529  0.90456714  0.40150009  1
  Mn  Mn10  1  0.01761529  0.59543286  0.40150009  1
  Mn  Mn11  1  0.48238471  0.09543286  0.59849991  1
  Mn  Mn12  1  0.01761529  0.09543286  0.09849991  1
  Mn  Mn13  1  0.98238471  0.90456714  0.90150009  1
  Mn  Mn14  1  0.51761529  0.40456714  0.09849991  1
  Mn  Mn15  1  0.48238471  0.59543286  0.90150009  1
  Bi  Bi16  1  0.95202565  0.84674377  0.23256371  1
  Bi  Bi17  1  0.04797435  0.15325623  0.76743629  1
  Bi  Bi18  1  0.54797435  0.34674377  0.76743629  1
  Bi  Bi19  1  0.04797435  0.65325623  0.73256371  1
  Bi  Bi20  1  0.45202565  0.15325623  0.26743629  1
  Bi  Bi21  1  0.45202565  0.65325623  0.23256371  1
  Bi  Bi22  1  0.54797435  0.84674377  0.73256371  1
  Bi  Bi23  1  0.95202565  0.34674377  0.26743629  1
  O  O24  1  0.93747832  0.33059259  0.69618675  1
  O  O25  1  0.29482971  0.04645561  0.06729305  1
  O  O26  1  0.20517029  0.54645561  0.93270695  1
  O  O27  1  0.23860450  0.76585291  0.15187298  1
  O  O28  1  0.26139550  0.26585291  0.84812702  1
  O  O29  1  0.93747832  0.83059259  0.80381325  1
  O  O30  1  0.26139550  0.76585291  0.65187298  1
  O  O31  1  0.56252168  0.83059259  0.30381325  1
  O  O32  1  0.29482971  0.54645561  0.43270695  1
  O  O33  1  0.06252168  0.66940741  0.30381325  1
  O  O34  1  0.56252168  0.33059259  0.19618575  1
  O  O35  1  0.62377900  0.18187677  0.52570601  1
  O  O36  1  0.79482971  0.95354439  0.43270695  1
  O  O37  1  0.76139550  0.73414709  0.65187298  1
  O  O38  1  0.16809365  0.02320240  0.87388188  1
  O  O39  1  0.79482971  0.45354439  0.06729305  1
  O  O40  1  0.06252168  0.16940741  0.19618575  1
  O  O41  1  0.73860450  0.23414709  0.34812702  1
  O  O42  1  0.12377900  0.81812323  0.97429399  1
  O  O43  1  0.20517029  0.04645561  0.56729305  1
  O  O44  1  0.37622100  0.81812323  0.47429399  1
  O  O45  1  0.83190635  0.97679760  0.12611812  1
  O  O46  1  0.76139550  0.23414709  0.84812702  1
  O  O47  1  0.66809365  0.97679760  0.62611812  1
  O  O48  1  0.37622100  0.31812323  0.02570601  1
  O  O49  1  0.12377900  0.31812323  0.52570601  1
  O  O50  1  0.70517029  0.45354439  0.56729305  1
  O  O51  1  0.70517029  0.95354439  0.93270695  1
  O  O52  1  0.66809365  0.47679760  0.87388188  1
  O  O53  1  0.87622100  0.68187677  0.47429399  1
  O  O54  1  0.87622100  0.18187677  0.02570601  1
  O  O55  1  0.62377900  0.68187677  0.97429399  1
  O  O56  1  0.83190635  0.47679760  0.37388188  1
  O  O57  1  0.73860450  0.73414709  0.15187298  1
  O  O58  1  0.23860450  0.26585291  0.34812702  1
  O  O59  1  0.16809365  0.52320240  0.62611812  1
  O  O60  1  0.33190635  0.52320240  0.12611812  1
  O  O61  1  0.43747832  0.16940741  0.69618675  1
  O  O62  1  0.33190635  0.02320240  0.37388188  1
  O  O63  1  0.43747832  0.66940741  0.80381325  1
