# generated using pymatgen
data_Sr2YCrCu2O7
_symmetry_space_group_name_H-M   'P 1'
_cell_length_a   5.48444161
_cell_length_b   5.57340813
_cell_length_c   12.27132229
_cell_angle_alpha   103.29025702
_cell_angle_beta   103.08870786
_cell_angle_gamma   89.37739941
_symmetry_Int_Tables_number   1
_chemical_formula_structural   Sr2YCrCu2O7
_chemical_formula_sum   'Sr4 Y2 Cr2 Cu4 O14'
_cell_volume   355.23230162
_cell_formula_units_Z   2
loop_
 _symmetry_equiv_pos_site_id
 _symmetry_equiv_pos_as_xyz
  1  'x, y, z'
loop_
 _atom_site_type_symbol
 _atom_site_label
 _atom_site_symmetry_multiplicity
 _atom_site_fract_x
 _atom_site_fract_y
 _atom_site_fract_z
 _atom_site_occupancy
  Sr  Sr0  1  0.34432807  0.33278021  0.70725782  1
  Sr  Sr1  1  0.64000714  0.66600841  0.29450644  1
  Sr  Sr2  1  0.84713926  0.87146536  0.70698234  1
  Sr  Sr3  1  0.13744126  0.12720146  0.29413302  1
  Y  Y4  1  0.98829352  0.99938250  0.00082375  1
  Y  Y5  1  0.48799869  0.49943527  0.00044055  1
  Cr  Cr6  1  0.28128918  0.68548469  0.50078559  1
  Cr  Cr7  1  0.77713921  0.32501556  0.50060144  1
  Cu  Cu8  1  0.92239244  0.43636349  0.87120185  1
  Cu  Cu9  1  0.05326239  0.56419048  0.13326103  1
  Cu  Cu10  1  0.42096014  0.93156987  0.86804835  1
  Cu  Cu11  1  0.55159075  0.06613620  0.13022147  1
  O  O12  1  0.10934618  0.36874113  0.50088816  1
  O  O13  1  0.65312491  0.63455372  0.50049757  1
  O  O14  1  0.18569316  0.19962941  0.87523346  1
  O  O15  1  0.31133130  0.80102618  0.12579968  1
  O  O16  1  0.68637151  0.17591308  0.87543964  1
  O  O17  1  0.81119788  0.82541905  0.12605031  1
  O  O18  1  0.65965495  0.67127226  0.87174279  1
  O  O19  1  0.78863853  0.32667146  0.13086956  1
  O  O20  1  0.15903026  0.69605193  0.87072647  1
  O  O21  1  0.28799804  0.30024498  0.12946934  1
  O  O22  1  0.28930697  0.86788582  0.64683375  1
  O  O23  1  0.63164971  0.13135746  0.36442431  1
  O  O24  1  0.76567463  0.26557399  0.63604670  1
  O  O25  1  0.14719393  0.72326903  0.35460960  1
