# generated using pymatgen
data_LaMgFeNiO6
_symmetry_space_group_name_H-M   'P 1'
_cell_length_a   5.44941094
_cell_length_b   5.32298055
_cell_length_c   7.61682940
_cell_angle_alpha   89.76811242
_cell_angle_beta   90.00000000
_cell_angle_gamma   90.00000000
_symmetry_Int_Tables_number   1
_chemical_formula_structural   LaMgFeNiO6
_chemical_formula_sum   'La2 Mg2 Fe2 Ni2 O12'
_cell_volume   220.94038677
_cell_formula_units_Z   2
loop_
 _symmetry_equiv_pos_site_id
 _symmetry_equiv_pos_as_xyz
  1  'x, y, z'
loop_
 _atom_site_type_symbol
 _atom_site_label
 _atom_site_symmetry_multiplicity
 _atom_site_fract_x
 _atom_site_fract_y
 _atom_site_fract_z
 _atom_site_occupancy
  La  La0  1  0.03475788  0.99262755  0.24976949  1
  La  La1  1  0.46524212  0.49262755  0.74976949  1
  Mg  Mg2  1  0.55701181  0.52752982  0.24832264  1
  Mg  Mg3  1  0.94298819  0.02752982  0.74832264  1
  Fe  Fe4  1  0.50153799  0.00091139  0.00219036  1
  Fe  Fe5  1  0.99846201  0.50091139  0.50219036  1
  Ni  Ni6  1  0.49731711  0.00065023  0.49828218  1
  Ni  Ni7  1  0.00268289  0.50065023  0.99828218  1
  O  O8  1  0.02004657  0.62966298  0.74423341  1
  O  O9  1  0.20465297  0.18739253  0.94125430  1
  O  O10  1  0.19523998  0.19784609  0.55701186  1
  O  O11  1  0.30476002  0.69784609  0.05701186  1
  O  O12  1  0.29534703  0.68739253  0.44125430  1
  O  O13  1  0.47995343  0.12966298  0.24423241  1
  O  O14  1  0.54854555  0.92827342  0.75427552  1
  O  O15  1  0.73761120  0.27007118  0.55605901  1
  O  O16  1  0.73443762  0.26503580  0.94860024  1
  O  O17  1  0.76556238  0.76503580  0.44860024  1
  O  O18  1  0.76238880  0.77007118  0.05605901  1
  O  O19  1  0.95145445  0.42827342  0.25427552  1
