# generated using pymatgen
data_CaBiSbO5
_symmetry_space_group_name_H-M   'P 1'
_cell_length_a   5.66711610
_cell_length_b   11.60573976
_cell_length_c   16.36996594
_cell_angle_alpha   90.00000000
_cell_angle_beta   90.00000000
_cell_angle_gamma   90.00000000
_symmetry_Int_Tables_number   1
_chemical_formula_structural   CaBiSbO5
_chemical_formula_sum   'Ca8 Bi8 Sb8 O40'
_cell_volume   1076.67025180
_cell_formula_units_Z   8
loop_
 _symmetry_equiv_pos_site_id
 _symmetry_equiv_pos_as_xyz
  1  'x, y, z'
loop_
 _atom_site_type_symbol
 _atom_site_label
 _atom_site_symmetry_multiplicity
 _atom_site_fract_x
 _atom_site_fract_y
 _atom_site_fract_z
 _atom_site_occupancy
  Ca  Ca0  1  0.49942390  0.35975654  0.44722282  1
  Ca  Ca1  1  0.99942390  0.14024346  0.44722282  1
  Ca  Ca2  1  0.99942390  0.64024346  0.05277718  1
  Ca  Ca3  1  0.00057610  0.35975654  0.94722282  1
  Ca  Ca4  1  0.50057610  0.14024346  0.94722282  1
  Ca  Ca5  1  0.00057610  0.85975654  0.55277718  1
  Ca  Ca6  1  0.50057610  0.64024346  0.55277718  1
  Ca  Ca7  1  0.49942390  0.85975654  0.05277718  1
  Bi  Bi8  1  0.95032875  0.84240372  0.22706669  1
  Bi  Bi9  1  0.04967125  0.15759628  0.77293331  1
  Bi  Bi10  1  0.54967125  0.34240372  0.77293331  1
  Bi  Bi11  1  0.04967125  0.65759628  0.72706669  1
  Bi  Bi12  1  0.45032875  0.15759628  0.27293331  1
  Bi  Bi13  1  0.45032875  0.65759628  0.22706669  1
  Bi  Bi14  1  0.54967125  0.84240372  0.72706669  1
  Bi  Bi15  1  0.95032875  0.34240372  0.27293331  1
  Sb  Sb16  1  0.98467310  0.40091071  0.59594508  1
  Sb  Sb17  1  0.51532690  0.90091071  0.40405492  1
  Sb  Sb18  1  0.01532690  0.59908929  0.40405492  1
  Sb  Sb19  1  0.48467310  0.09908929  0.59594508  1
  Sb  Sb20  1  0.01532690  0.09908929  0.09594508  1
  Sb  Sb21  1  0.98467310  0.90091071  0.90405492  1
  Sb  Sb22  1  0.51532690  0.40091071  0.09594508  1
  Sb  Sb23  1  0.48467310  0.59908929  0.90405492  1
  O  O24  1  0.93023325  0.32546276  0.69934319  1
  O  O25  1  0.31142364  0.04349534  0.06023616  1
  O  O26  1  0.18857636  0.54349534  0.93976384  1
  O  O27  1  0.24052380  0.76798204  0.15281159  1
  O  O28  1  0.25947620  0.26798204  0.84718841  1
  O  O29  1  0.93023325  0.82546276  0.80065681  1
  O  O30  1  0.25947620  0.76798204  0.65281159  1
  O  O31  1  0.56976675  0.82546276  0.30065681  1
  O  O32  1  0.31142364  0.54349534  0.43976384  1
  O  O33  1  0.06976675  0.67453724  0.30065681  1
  O  O34  1  0.56976675  0.32546276  0.19934319  1
  O  O35  1  0.64865256  0.19318747  0.52066913  1
  O  O36  1  0.81142364  0.95650466  0.43976384  1
  O  O37  1  0.75947620  0.73201796  0.65281159  1
  O  O38  1  0.17674532  0.03082264  0.87296569  1
  O  O39  1  0.81142364  0.45650466  0.06023616  1
  O  O40  1  0.06976675  0.17453724  0.19934319  1
  O  O41  1  0.74052380  0.23201796  0.34718841  1
  O  O42  1  0.14865256  0.80681253  0.97933087  1
  O  O43  1  0.18857636  0.04349534  0.56023616  1
  O  O44  1  0.35134744  0.80681253  0.47933087  1
  O  O45  1  0.82325468  0.96917736  0.12703431  1
  O  O46  1  0.75947620  0.23201796  0.84718841  1
  O  O47  1  0.67674532  0.96917736  0.62703431  1
  O  O48  1  0.35134744  0.30681253  0.02066913  1
  O  O49  1  0.14865256  0.30681253  0.52066913  1
  O  O50  1  0.68857636  0.45650466  0.56023616  1
  O  O51  1  0.68857636  0.95650466  0.93976384  1
  O  O52  1  0.67674532  0.46917736  0.87296569  1
  O  O53  1  0.85134744  0.69318747  0.47933087  1
  O  O54  1  0.85134744  0.19318747  0.02066913  1
  O  O55  1  0.64865256  0.69318747  0.97933087  1
  O  O56  1  0.82325468  0.46917736  0.37296569  1
  O  O57  1  0.74052380  0.73201796  0.15281159  1
  O  O58  1  0.24052380  0.26798204  0.34718841  1
  O  O59  1  0.17674532  0.53082264  0.62703431  1
  O  O60  1  0.32325468  0.53082264  0.12703431  1
  O  O61  1  0.43023325  0.17453724  0.69934319  1
  O  O62  1  0.32325468  0.03082264  0.37296569  1
  O  O63  1  0.43023325  0.67453724  0.80065681  1
