# generated using pymatgen
data_ZnCoO3
_symmetry_space_group_name_H-M   'P 1'
_cell_length_a   4.97813286
_cell_length_b   5.03293842
_cell_length_c   7.28657164
_cell_angle_alpha   90.00678967
_cell_angle_beta   90.00056704
_cell_angle_gamma   89.99794776
_symmetry_Int_Tables_number   1
_chemical_formula_structural   ZnCoO3
_chemical_formula_sum   'Zn4 Co4 O12'
_cell_volume   182.56239977
_cell_formula_units_Z   4
loop_
 _symmetry_equiv_pos_site_id
 _symmetry_equiv_pos_as_xyz
  1  'x, y, z'
loop_
 _atom_site_type_symbol
 _atom_site_label
 _atom_site_symmetry_multiplicity
 _atom_site_fract_x
 _atom_site_fract_y
 _atom_site_fract_z
 _atom_site_occupancy
  Zn  Zn0  1  0.99375407  0.05116226  0.24999581  1
  Zn  Zn1  1  0.49371511  0.44883055  0.74999263  1
  Zn  Zn2  1  0.50628594  0.55117001  0.25000679  1
  Zn  Zn3  1  0.00624516  0.94883734  0.75000354  1
  Co  Co4  1  0.49999907  0.00000062  0.00000030  1
  Co  Co5  1  0.00000082  0.49999983  0.00000044  1
  Co  Co6  1  0.00000091  0.49999970  0.49999962  1
  Co  Co7  1  0.49999898  0.00000064  0.49999950  1
  O  O8  1  0.88128412  0.55729685  0.75000455  1
  O  O9  1  0.38129420  0.94271619  0.25002379  1
  O  O10  1  0.61870475  0.05728363  0.74997585  1
  O  O11  1  0.11871712  0.44270251  0.24999566  1
  O  O12  1  0.68672612  0.31193087  0.43610207  1
  O  O13  1  0.18673221  0.18806157  0.56392891  1
  O  O14  1  0.81329375  0.81192420  0.06392778  1
  O  O15  1  0.31323653  0.68804619  0.93610036  1
  O  O16  1  0.68676349  0.31195391  0.06389974  1
  O  O17  1  0.18670668  0.18807557  0.93607216  1
  O  O18  1  0.31327265  0.68807043  0.56389780  1
  O  O19  1  0.81326833  0.81193913  0.43607069  1
