# generated using pymatgen
data_VAs2O7
_symmetry_space_group_name_H-M   'P 1'
_cell_length_a   7.14858209
_cell_length_b   9.13760607
_cell_length_c   9.45436835
_cell_angle_alpha   90.00000000
_cell_angle_beta   106.51216300
_cell_angle_gamma   90.00000000
_symmetry_Int_Tables_number   1
_chemical_formula_structural   VAs2O7
_chemical_formula_sum   'V4 As8 O28'
_cell_volume   592.09923919
_cell_formula_units_Z   4
loop_
 _symmetry_equiv_pos_site_id
 _symmetry_equiv_pos_as_xyz
  1  'x, y, z'
loop_
 _atom_site_type_symbol
 _atom_site_label
 _atom_site_symmetry_multiplicity
 _atom_site_fract_x
 _atom_site_fract_y
 _atom_site_fract_z
 _atom_site_occupancy
  V  V0  1  0.80365097  0.07271173  0.70791544  1
  V  V1  1  0.19634903  0.57271173  0.79208456  1
  V  V2  1  0.19634903  0.92728827  0.29208456  1
  V  V3  1  0.80365097  0.42728827  0.20791544  1
  As  As4  1  0.41559035  0.24979432  0.76075372  1
  As  As5  1  0.58440965  0.74979432  0.73924628  1
  As  As6  1  0.58440965  0.75020568  0.23924628  1
  As  As7  1  0.41559035  0.25020568  0.26075372  1
  As  As8  1  0.02715207  0.29559416  0.96018027  1
  As  As9  1  0.97284793  0.79559416  0.53981973  1
  As  As10  1  0.97284793  0.70440584  0.03981973  1
  As  As11  1  0.02715207  0.20440584  0.46018027  1
  O  O12  1  0.84600053  0.32889213  0.04610499  1
  O  O13  1  0.15399947  0.82889213  0.45389501  1
  O  O14  1  0.15399947  0.67110787  0.95389501  1
  O  O15  1  0.84600053  0.17110787  0.54610499  1
  O  O16  1  0.36852409  0.44047100  0.75354964  1
  O  O17  1  0.63147591  0.94047100  0.74645036  1
  O  O18  1  0.63147591  0.55952900  0.24645036  1
  O  O19  1  0.36852409  0.05952900  0.25354964  1
  O  O20  1  0.38052269  0.16810041  0.90580545  1
  O  O21  1  0.61947731  0.66810041  0.59419455  1
  O  O22  1  0.61947731  0.83189959  0.09419455  1
  O  O23  1  0.38052269  0.33189959  0.40580545  1
  O  O24  1  0.24480026  0.17218643  0.59738636  1
  O  O25  1  0.75519974  0.67218643  0.90261364  1
  O  O26  1  0.75519974  0.82781357  0.40261364  1
  O  O27  1  0.24480026  0.32781357  0.09738636  1
  O  O28  1  0.02063229  0.08457662  0.32089260  1
  O  O29  1  0.97936771  0.58457662  0.17910740  1
  O  O30  1  0.97936771  0.91542338  0.67910740  1
  O  O31  1  0.02063229  0.41542338  0.82089260  1
  O  O32  1  0.63801235  0.26440880  0.22843691  1
  O  O33  1  0.36198765  0.76440880  0.27156309  1
  O  O34  1  0.36198765  0.73559120  0.77156309  1
  O  O35  1  0.63801235  0.23559120  0.72843691  1
  O  O36  1  0.99018014  0.37916937  0.38777363  1
  O  O37  1  0.00981986  0.87916937  0.11222637  1
  O  O38  1  0.00981986  0.62083063  0.61222637  1
  O  O39  1  0.99018014  0.12083063  0.88777363  1
