# generated using pymatgen
data_AlCo3Se2ClO8
_symmetry_space_group_name_H-M   'P 1'
_cell_length_a   5.87335641
_cell_length_b   8.18707383
_cell_length_c   9.76929789
_cell_angle_alpha   83.72129866
_cell_angle_beta   99.32251081
_cell_angle_gamma   91.33765557
_symmetry_Int_Tables_number   1
_chemical_formula_structural   AlCo3Se2ClO8
_chemical_formula_sum   'Al2 Co6 Se4 Cl2 O16'
_cell_volume   460.76986570
_cell_formula_units_Z   2
loop_
 _symmetry_equiv_pos_site_id
 _symmetry_equiv_pos_as_xyz
  1  'x, y, z'
loop_
 _atom_site_type_symbol
 _atom_site_label
 _atom_site_symmetry_multiplicity
 _atom_site_fract_x
 _atom_site_fract_y
 _atom_site_fract_z
 _atom_site_occupancy
  Al  Al0  1  0.29810548  0.13880765  0.23062725  1
  Al  Al1  1  0.70292508  0.86131497  0.76895346  1
  Co  Co2  1  0.49822921  0.00018159  0.99893323  1
  Co  Co3  1  0.50032501  0.00007928  0.49988522  1
  Co  Co4  1  0.99857151  0.99935156  0.00103465  1
  Co  Co5  1  0.80224324  0.23262110  0.75411358  1
  Co  Co6  1  0.19842877  0.76715657  0.24611325  1
  Co  Co7  1  0.00049840  0.00047201  0.49997211  1
  Se  Se8  1  0.78751145  0.34988547  0.08285093  1
  Se  Se9  1  0.21208802  0.64976740  0.91732576  1
  Se  Se10  1  0.71050604  0.37079198  0.42027439  1
  Se  Se11  1  0.28961096  0.62965301  0.58006916  1
  Cl  Cl12  1  0.20619912  0.16986774  0.80503637  1
  Cl  Cl13  1  0.79438912  0.83005225  0.19428821  1
  O  O14  1  0.28870517  0.96313030  0.13000008  1
  O  O15  1  0.23346316  0.61216806  0.09187132  1
  O  O16  1  0.69128524  0.38588525  0.59114584  1
  O  O17  1  0.55358220  0.21462568  0.10540961  1
  O  O18  1  0.52943445  0.77029458  0.62074847  1
  O  O19  1  0.06570140  0.75759135  0.58019806  1
  O  O20  1  0.71111575  0.03660133  0.86985039  1
  O  O21  1  0.02746464  0.21136196  0.11749725  1
  O  O22  1  0.93494874  0.24332613  0.42003847  1
  O  O23  1  0.97201819  0.78815878  0.88288248  1
  O  O24  1  0.22149990  0.98422982  0.37206266  1
  O  O25  1  0.77911989  0.01606658  0.62775130  1
  O  O26  1  0.44558061  0.78508256  0.89439466  1
  O  O27  1  0.47122918  0.22984935  0.37911503  1
  O  O28  1  0.76655449  0.38752985  0.90833117  1
  O  O29  1  0.30866259  0.61409282  0.40922464  1
