# generated using pymatgen
data_Mg2Nb2MoO8
_symmetry_space_group_name_H-M   'P 1'
_cell_length_a   5.33678222
_cell_length_b   6.01314828
_cell_length_c   10.20536563
_cell_angle_alpha   107.22949616
_cell_angle_beta   90.35949593
_cell_angle_gamma   89.98234611
_symmetry_Int_Tables_number   1
_chemical_formula_structural   Mg2Nb2MoO8
_chemical_formula_sum   'Mg4 Nb4 Mo2 O16'
_cell_volume   312.79623062
_cell_formula_units_Z   2
loop_
 _symmetry_equiv_pos_site_id
 _symmetry_equiv_pos_as_xyz
  1  'x, y, z'
loop_
 _atom_site_type_symbol
 _atom_site_label
 _atom_site_symmetry_multiplicity
 _atom_site_fract_x
 _atom_site_fract_y
 _atom_site_fract_z
 _atom_site_occupancy
  Mg  Mg0  1  0.76280594  0.42329785  0.54861778  1
  Mg  Mg1  1  0.73604042  0.87397551  0.44836275  1
  Mg  Mg2  1  0.23588138  0.57972272  0.44952752  1
  Mg  Mg3  1  0.26376315  0.12920338  0.55038814  1
  Nb  Nb4  1  0.74350806  0.27739367  0.23717352  1
  Nb  Nb5  1  0.75612360  0.03884399  0.76112769  1
  Nb  Nb6  1  0.25546653  0.72520107  0.76162669  1
  Nb  Nb7  1  0.24399743  0.96437148  0.23746151  1
  Mo  Mo8  1  0.74999257  0.65227335  0.99933373  1
  Mo  Mo9  1  0.24997846  0.35031042  0.99943041  1
  O  O10  1  0.07505974  0.18618715  0.14040735  1
  O  O11  1  0.42513149  0.04433533  0.85837849  1
  O  O12  1  0.92490050  0.81646906  0.85854027  1
  O  O13  1  0.57465910  0.95771945  0.14019582  1
  O  O14  1  0.59282359  0.43657578  0.11695290  1
  O  O15  1  0.90724565  0.31828181  0.88174306  1
  O  O16  1  0.40678972  0.56568699  0.88161998  1
  O  O17  1  0.09303369  0.68420857  0.11707090  1
  O  O18  1  0.44402264  0.28901077  0.36861973  1
  O  O19  1  0.05650814  0.91883146  0.63056792  1
  O  O20  1  0.37133606  0.84105979  0.38796900  1
  O  O21  1  0.12732022  0.45174517  0.61102385  1
  O  O22  1  0.62828772  0.16242390  0.61100667  1
  O  O23  1  0.87205165  0.55146596  0.38757905  1
  O  O24  1  0.94238869  0.08379952  0.36757482  1
  O  O25  1  0.55618286  0.71437285  0.63116444  1
