# generated using pymatgen
data_MgMn2O4
_symmetry_space_group_name_H-M   'P 1'
_cell_length_a   2.99725271
_cell_length_b   5.17602531
_cell_length_c   9.57791408
_cell_angle_alpha   90.00000000
_cell_angle_beta   90.00000000
_cell_angle_gamma   106.82995569
_symmetry_Int_Tables_number   1
_chemical_formula_structural   MgMn2O4
_chemical_formula_sum   'Mg2 Mn4 O8'
_cell_volume   142.22599342
_cell_formula_units_Z   2
loop_
 _symmetry_equiv_pos_site_id
 _symmetry_equiv_pos_as_xyz
  1  'x, y, z'
loop_
 _atom_site_type_symbol
 _atom_site_label
 _atom_site_symmetry_multiplicity
 _atom_site_fract_x
 _atom_site_fract_y
 _atom_site_fract_z
 _atom_site_occupancy
  Mg  Mg0  1  0.39444015  0.78888030  0.75000000  1
  Mg  Mg1  1  0.60555985  0.21111970  0.25000000  1
  Mn  Mn2  1  0.86633088  0.73266177  0.07063731  1
  Mn  Mn3  1  0.13366912  0.26733823  0.92936269  1
  Mn  Mn4  1  0.86633088  0.73266177  0.42936269  1
  Mn  Mn5  1  0.13366912  0.26733823  0.57063731  1
  O  O6  1  0.21894229  0.43788557  0.38611100  1
  O  O7  1  0.78105771  0.56211443  0.61388900  1
  O  O8  1  0.78105771  0.56211443  0.88611100  1
  O  O9  1  0.21894229  0.43788557  0.11388900  1
  O  O10  1  0.95760605  0.91521210  0.25000000  1
  O  O11  1  0.04239395  0.08478790  0.75000000  1
  O  O12  1  0.50000000  -0.00000000  -0.00000000  1
  O  O13  1  0.50000000  -0.00000000  0.50000000  1
