# generated using pymatgen
data_HoZn(BiO3)2
_symmetry_space_group_name_H-M   'P 1'
_cell_length_a   5.60167973
_cell_length_b   6.38579787
_cell_length_c   8.57271159
_cell_angle_alpha   90.00340821
_cell_angle_beta   89.99852563
_cell_angle_gamma   90.01353007
_symmetry_Int_Tables_number   1
_chemical_formula_structural   HoZn(BiO3)2
_chemical_formula_sum   'Ho2 Zn2 Bi4 O12'
_cell_volume   306.65612439
_cell_formula_units_Z   2
loop_
 _symmetry_equiv_pos_site_id
 _symmetry_equiv_pos_as_xyz
  1  'x, y, z'
loop_
 _atom_site_type_symbol
 _atom_site_label
 _atom_site_symmetry_multiplicity
 _atom_site_fract_x
 _atom_site_fract_y
 _atom_site_fract_z
 _atom_site_occupancy
  Ho  Ho0  1  0.04203736  0.91524899  0.74991297  1
  Ho  Ho1  1  0.54219094  0.58473907  0.25006427  1
  Zn  Zn2  1  0.53196531  0.66037021  0.74996294  1
  Zn  Zn3  1  0.03203443  0.83958359  0.25002836  1
  Bi  Bi4  1  0.00748708  0.46820696  0.99244163  1
  Bi  Bi5  1  0.00754776  0.46828579  0.50749135  1
  Bi  Bi6  1  0.50765663  0.03175951  0.49248089  1
  Bi  Bi7  1  0.50759721  0.03181558  0.00756378  1
  O  O8  1  0.15233900  0.50816911  0.25017589  1
  O  O9  1  0.14911073  0.14860803  0.93127874  1
  O  O10  1  0.14918904  0.14880030  0.56869274  1
  O  O11  1  0.29979056  0.72172010  0.91800806  1
  O  O12  1  0.29974689  0.72170267  0.58179273  1
  O  O13  1  0.35999016  0.92840762  0.25012311  1
  O  O14  1  0.65265842  0.99183432  0.74982088  1
  O  O15  1  0.64929588  0.35143488  0.43121817  1
  O  O16  1  0.64915754  0.35166025  0.06885558  1
  O  O17  1  0.80000513  0.77807322  0.08192092  1
  O  O18  1  0.79995740  0.77813526  0.41829690  1
  O  O19  1  0.86024153  0.57144653  0.74987109  1
