# generated using pymatgen
data_Zn(WO3)2
_symmetry_space_group_name_H-M   'P 1'
_cell_length_a   5.34741193
_cell_length_b   5.47209039
_cell_length_c   7.67083854
_cell_angle_alpha   90.00267503
_cell_angle_beta   89.99085281
_cell_angle_gamma   90.01118252
_symmetry_Int_Tables_number   1
_chemical_formula_structural   Zn(WO3)2
_chemical_formula_sum   'Zn2 W4 O12'
_cell_volume   224.46039929
_cell_formula_units_Z   2
loop_
 _symmetry_equiv_pos_site_id
 _symmetry_equiv_pos_as_xyz
  1  'x, y, z'
loop_
 _atom_site_type_symbol
 _atom_site_label
 _atom_site_symmetry_multiplicity
 _atom_site_fract_x
 _atom_site_fract_y
 _atom_site_fract_z
 _atom_site_occupancy
  Zn  Zn0  1  0.50187047  0.48261101  0.24800657  1
  Zn  Zn1  1  0.00233576  0.01243272  0.75224691  1
  W  W2  1  0.50210159  0.99511998  0.00097827  1
  W  W3  1  0.00200720  0.50476136  0.99887629  1
  W  W4  1  0.00302694  0.50399180  0.50129139  1
  W  W5  1  0.50304018  0.99542758  0.49881196  1
  O  O6  1  0.67809323  0.30780902  0.44440729  1
  O  O7  1  0.17778225  0.19212174  0.55639850  1
  O  O8  1  0.79919354  0.78695814  0.04931980  1
  O  O9  1  0.30015647  0.71245151  0.95127826  1
  O  O10  1  0.30142699  0.71478645  0.54842368  1
  O  O11  1  0.80014662  0.78464016  0.45067845  1
  O  O12  1  0.18100742  0.19009610  0.94329759  1
  O  O13  1  0.68178371  0.30979704  0.05605301  1
  O  O14  1  0.13540044  0.47368104  0.24943557  1
  O  O15  1  0.63594972  0.02618760  0.75061369  1
  O  O16  1  0.40697227  0.97370846  0.24903886  1
  O  O17  1  0.90988519  0.53347728  0.75073290  1
