# generated using pymatgen
data_Mg2AgWO6
_symmetry_space_group_name_H-M   'P 1'
_cell_length_a   5.40659581
_cell_length_b   5.83907706
_cell_length_c   7.66385889
_cell_angle_alpha   95.54728958
_cell_angle_beta   131.10555665
_cell_angle_gamma   120.05164232
_symmetry_Int_Tables_number   1
_chemical_formula_structural   Mg2AgWO6
_chemical_formula_sum   'Mg2 Ag1 W1 O6'
_cell_volume   119.50761944
_cell_formula_units_Z   1
loop_
 _symmetry_equiv_pos_site_id
 _symmetry_equiv_pos_as_xyz
  1  'x, y, z'
loop_
 _atom_site_type_symbol
 _atom_site_label
 _atom_site_symmetry_multiplicity
 _atom_site_fract_x
 _atom_site_fract_y
 _atom_site_fract_z
 _atom_site_occupancy
  Mg  Mg0  1  0.00945247  0.57743495  0.20925520  1
  Mg  Mg1  1  0.01859949  0.59158151  0.71153209  1
  Ag  Ag2  1  0.00117088  0.00742501  0.49409779  1
  W  W3  1  0.00646295  0.98440889  0.00783548  1
  O  O4  1  0.67269294  0.77091114  0.07072153  1
  O  O5  1  0.30060483  0.09121782  0.92323884  1
  O  O6  1  0.33565293  0.43677630  0.25586355  1
  O  O7  1  0.37456401  0.77064655  0.63018895  1
  O  O8  1  0.53312215  0.08886633  0.37970676  1
  O  O9  1  0.75345235  0.51919250  0.82698581  1
