# generated using pymatgen
data_Ca(SbO2)2
_symmetry_space_group_name_H-M   'P 1'
_cell_length_a   6.76072161
_cell_length_b   6.75265491
_cell_length_c   21.57828849
_cell_angle_alpha   61.35480581
_cell_angle_beta   63.62793008
_cell_angle_gamma   65.33432385
_symmetry_Int_Tables_number   1
_chemical_formula_structural   Ca(SbO2)2
_chemical_formula_sum   'Ca6 Sb12 O24'
_cell_volume   747.93838222
_cell_formula_units_Z   6
loop_
 _symmetry_equiv_pos_site_id
 _symmetry_equiv_pos_as_xyz
  1  'x, y, z'
loop_
 _atom_site_type_symbol
 _atom_site_label
 _atom_site_symmetry_multiplicity
 _atom_site_fract_x
 _atom_site_fract_y
 _atom_site_fract_z
 _atom_site_occupancy
  Ca  Ca0  1  0.15902663  0.14509772  0.02927092  1
  Ca  Ca1  1  0.10800371  0.15060034  0.36269230  1
  Ca  Ca2  1  0.46647047  0.47131295  0.00651300  1
  Ca  Ca3  1  0.07933770  0.06911310  0.71881515  1
  Ca  Ca4  1  0.87399913  0.86301695  0.30615230  1
  Ca  Ca5  1  0.94427031  0.92392777  0.60282924  1
  Sb  Sb6  1  0.04055179  0.43444557  0.18182442  1
  Sb  Sb7  1  0.59431066  0.54504613  0.12029428  1
  Sb  Sb8  1  0.98416931  0.47894661  0.52764984  1
  Sb  Sb9  1  0.48732382  0.99593294  0.17365100  1
  Sb  Sb10  1  0.50583016  0.56344823  0.32498237  1
  Sb  Sb11  1  0.53537480  0.56347079  0.46630454  1
  Sb  Sb12  1  0.00055826  0.51134172  0.79525243  1
  Sb  Sb13  1  0.43433529  0.04445985  0.49874627  1
  Sb  Sb14  1  0.51184483  0.98202381  0.83345400  1
  Sb  Sb15  1  0.51060766  0.51362431  0.66082962  1
  Sb  Sb16  1  0.42812364  0.46084844  0.86130405  1
  Sb  Sb17  1  0.84575368  0.91349652  0.93200513  1
  O  O18  1  0.20324045  0.22830302  0.11990613  1
  O  O19  1  0.32389590  0.25111889  0.22180354  1
  O  O20  1  0.33175833  0.70562285  0.07933734  1
  O  O21  1  0.72449730  0.28815041  0.07916844  1
  O  O22  1  0.27113561  0.78466344  0.26638614  1
  O  O23  1  0.16748281  0.10237114  0.47123697  1
  O  O24  1  0.87722520  0.22952799  0.28109444  1
  O  O25  1  0.80143231  0.74582873  0.03899492  1
  O  O26  1  0.35003539  0.76164815  0.39187819  1
  O  O27  1  0.15686892  0.19347891  0.59228242  1
  O  O28  1  0.68342208  0.80403918  0.25152721  1
  O  O29  1  0.79520839  0.47143795  0.38306128  1
  O  O30  1  0.34950879  0.75139132  0.58267542  1
  O  O31  1  0.23188461  0.35321097  0.71776119  1
  O  O32  1  0.70944547  0.32660544  0.59035838  1
  O  O33  1  0.66161165  0.83091127  0.43447326  1
  O  O34  1  0.28203424  0.20152471  0.89008115  1
  O  O35  1  0.20670944  0.67038706  0.79012203  1
  O  O36  1  0.83200252  0.68415689  0.58599145  1
  O  O37  1  0.71308982  0.19108483  0.78368930  1
  O  O38  1  0.19699467  0.53438488  0.95015532  1
  O  O39  1  0.88374274  0.81820467  0.72476480  1
  O  O40  1  0.57157930  0.17799867  0.95561007  1
  O  O41  1  0.66530920  0.76379489  0.91507080  1
