# generated using pymatgen
data_Mn3AlO6
_symmetry_space_group_name_H-M   'P 1'
_cell_length_a   17.82481099
_cell_length_b   5.99795704
_cell_length_c   5.99795774
_cell_angle_alpha   59.12790683
_cell_angle_beta   60.87761668
_cell_angle_gamma   60.87761948
_symmetry_Int_Tables_number   1
_chemical_formula_structural   Mn3AlO6
_chemical_formula_sum   'Mn12 Al4 O24'
_cell_volume   456.17939784
_cell_formula_units_Z   4
loop_
 _symmetry_equiv_pos_site_id
 _symmetry_equiv_pos_as_xyz
  1  'x, y, z'
loop_
 _atom_site_type_symbol
 _atom_site_label
 _atom_site_symmetry_multiplicity
 _atom_site_fract_x
 _atom_site_fract_y
 _atom_site_fract_z
 _atom_site_occupancy
  Mn  Mn0  1  0.00212696  0.50500560  0.99288109  1
  Mn  Mn1  1  0.33120604  0.49499440  0.00711891  1
  Mn  Mn2  1  0.66666700  0.50000000  -0.00000000  1
  Mn  Mn3  1  0.99929829  0.99828111  0.99828111  1
  Mn  Mn4  1  0.33403471  0.00171889  0.00171889  1
  Mn  Mn5  1  0.66666700  -0.00000000  0.00000000  1
  Mn  Mn6  1  0.16666700  -0.00000000  0.00000000  1
  Mn  Mn7  1  0.49370576  0.00885095  0.00885095  1
  Mn  Mn8  1  0.83962724  0.99114905  0.99114905  1
  Mn  Mn9  1  0.00212696  0.99288109  0.50500560  1
  Mn  Mn10  1  0.33120604  0.00711891  0.49499440  1
  Mn  Mn11  1  0.66666700  -0.00000000  0.50000000  1
  Al  Al12  1  0.22089703  0.61145584  0.61145584  1
  Al  Al13  1  0.53596424  0.62884203  0.62884203  1
  Al  Al14  1  0.11243597  0.38854416  0.38854416  1
  Al  Al15  1  0.79736976  0.37115797  0.37115797  1
  O  O16  1  0.09995721  0.73253070  0.73253070  1
  O  O17  1  0.41562864  0.75196393  0.75196393  1
  O  O18  1  0.72251473  0.78162234  0.78162234  1
  O  O19  1  0.07425529  0.25597212  0.76405205  1
  O  O20  1  0.40614652  0.24106646  0.80839209  1
  O  O21  1  0.75792625  0.23793327  0.74839262  1
  O  O22  1  0.07425529  0.76405205  0.25597212  1
  O  O23  1  0.40614652  0.80839209  0.24106646  1
  O  O24  1  0.75792625  0.74839262  0.23793327  1
  O  O25  1  0.07361007  0.25836927  0.25836927  1
  O  O26  1  0.39946203  0.25054273  0.25054273  1
  O  O27  1  0.74857649  0.25479773  0.25479773  1
  O  O28  1  0.25907771  0.74402788  0.23594795  1
  O  O29  1  0.57540775  0.76206673  0.25160738  1
  O  O30  1  0.92718648  0.75893354  0.19160791  1
  O  O31  1  0.23337579  0.26746930  0.26746930  1
  O  O32  1  0.61081927  0.21837766  0.21837766  1
  O  O33  1  0.91770436  0.24803607  0.24803607  1
  O  O34  1  0.25907771  0.23594795  0.74402788  1
  O  O35  1  0.57540775  0.25160738  0.76206673  1
  O  O36  1  0.92718648  0.19160791  0.75893354  1
  O  O37  1  0.25972393  0.74163073  0.74163073  1
  O  O38  1  0.58475651  0.74520227  0.74520227  1
  O  O39  1  0.93387097  0.74945727  0.74945727  1
