# generated using pymatgen
data_Sr4CaCr2(SO3)2
_symmetry_space_group_name_H-M   'P 1'
_cell_length_a   3.96283318
_cell_length_b   3.96283318
_cell_length_c   16.58110850
_cell_angle_alpha   90.00000000
_cell_angle_beta   90.00000000
_cell_angle_gamma   90.00000000
_symmetry_Int_Tables_number   1
_chemical_formula_structural   Sr4CaCr2(SO3)2
_chemical_formula_sum   'Sr4 Ca1 Cr2 S2 O6'
_cell_volume   260.39050409
_cell_formula_units_Z   1
loop_
 _symmetry_equiv_pos_site_id
 _symmetry_equiv_pos_as_xyz
  1  'x, y, z'
loop_
 _atom_site_type_symbol
 _atom_site_label
 _atom_site_symmetry_multiplicity
 _atom_site_fract_x
 _atom_site_fract_y
 _atom_site_fract_z
 _atom_site_occupancy
  Sr  Sr0  1  0.75000000  0.75000000  0.20464203  1
  Sr  Sr1  1  0.25000000  0.25000000  0.79535797  1
  Sr  Sr2  1  0.75000000  0.75000000  0.41801320  1
  Sr  Sr3  1  0.25000000  0.25000000  0.58198680  1
  Ca  Ca4  1  0.25000000  0.75000000  0.00000000  1
  Cr  Cr5  1  0.25000000  0.25000000  0.31869879  1
  Cr  Cr6  1  0.75000000  0.75000000  0.68130121  1
  S  S7  1  0.25000000  0.25000000  0.11254552  1
  S  S8  1  0.75000000  0.75000000  0.88745448  1
  O  O9  1  0.75000000  0.25000000  0.30163509  1
  O  O10  1  0.25000000  0.75000000  0.30139263  1
  O  O11  1  0.25000000  0.75000000  0.69860737  1
  O  O12  1  0.75000000  0.25000000  0.69836491  1
  O  O13  1  0.25000000  0.25000000  0.43455744  1
  O  O14  1  0.75000000  0.75000000  0.56544256  1
