# generated using pymatgen
data_BaSr7Ti5Mn3O20
_symmetry_space_group_name_H-M   'P 1'
_cell_length_a   11.28424630
_cell_length_b   11.46069151
_cell_length_c   18.06285840
_cell_angle_alpha   108.71845880
_cell_angle_beta   108.13326837
_cell_angle_gamma   89.74352783
_symmetry_Int_Tables_number   1
_chemical_formula_structural   BaSr7Ti5Mn3O20
_chemical_formula_sum   'Ba4 Sr28 Ti20 Mn12 O80'
_cell_volume   2090.70256338
_cell_formula_units_Z   4
loop_
 _symmetry_equiv_pos_site_id
 _symmetry_equiv_pos_as_xyz
  1  'x, y, z'
loop_
 _atom_site_type_symbol
 _atom_site_label
 _atom_site_symmetry_multiplicity
 _atom_site_fract_x
 _atom_site_fract_y
 _atom_site_fract_z
 _atom_site_occupancy
  Ba  Ba0  1  0.30811690  0.06226817  0.11588347  1
  Ba  Ba1  1  0.31556008  0.56098380  0.11716901  1
  Ba  Ba2  1  0.81040263  0.06746790  0.11709129  1
  Ba  Ba3  1  0.05824727  0.80127562  0.11271729  1
  Sr  Sr4  1  0.30659983  0.06174796  0.61000916  1
  Sr  Sr5  1  0.31290537  0.55893532  0.61106453  1
  Sr  Sr6  1  0.80724404  0.06362820  0.60773203  1
  Sr  Sr7  1  0.80532519  0.55926732  0.10777896  1
  Sr  Sr8  1  0.80289932  0.55845681  0.61102192  1
  Sr  Sr9  1  0.20100307  0.44033474  0.39336848  1
  Sr  Sr10  1  0.19835069  0.43759220  0.88899185  1
  Sr  Sr11  1  0.20162350  0.93454324  0.39472704  1
  Sr  Sr12  1  0.20404732  0.93802622  0.88990279  1
  Sr  Sr13  1  0.70029675  0.43720710  0.39596188  1
  Sr  Sr14  1  0.69669183  0.44232602  0.88604651  1
  Sr  Sr15  1  0.69848428  0.93841344  0.38811907  1
  Sr  Sr16  1  0.68977133  0.93474373  0.88856022  1
  Sr  Sr17  1  0.05606066  0.29684255  0.10665610  1
  Sr  Sr18  1  0.05368823  0.29442693  0.61032321  1
  Sr  Sr19  1  0.05759522  0.80591588  0.61194006  1
  Sr  Sr20  1  0.55289068  0.29357269  0.10283586  1
  Sr  Sr21  1  0.56081307  0.29643984  0.60879154  1
  Sr  Sr22  1  0.56157714  0.79933660  0.11165033  1
  Sr  Sr23  1  0.56046121  0.79814769  0.60967544  1
  Sr  Sr24  1  0.44846649  0.20412606  0.39350865  1
  Sr  Sr25  1  0.44175498  0.19414354  0.88719242  1
  Sr  Sr26  1  0.45057569  0.69966938  0.39105153  1
  Sr  Sr27  1  0.44890486  0.70501833  0.88965800  1
  Sr  Sr28  1  0.94686259  0.20853746  0.39324664  1
  Sr  Sr29  1  0.95074714  0.19874139  0.88665327  1
  Sr  Sr30  1  0.94837615  0.70317789  0.39320566  1
  Sr  Sr31  1  0.94544962  0.69759841  0.88838433  1
  Ti  Ti32  1  0.99468476  0.99002089  0.98165359  1
  Ti  Ti33  1  0.00316025  0.99964713  0.49829900  1
  Ti  Ti34  1  0.99727219  0.49109707  0.98596976  1
  Ti  Ti35  1  0.00948309  0.50830905  0.51097192  1
  Ti  Ti36  1  0.50285479  0.99869943  0.00079930  1
  Ti  Ti37  1  0.50559115  0.99879556  0.49883472  1
  Ti  Ti38  1  0.49824748  0.49150018  0.98481953  1
  Ti  Ti39  1  0.50396730  0.49921660  0.49968875  1
  Ti  Ti40  1  0.25237774  0.24889216  0.99784887  1
  Ti  Ti41  1  0.25887097  0.25291387  0.50829001  1
  Ti  Ti42  1  0.25545868  0.74910925  0.99766247  1
  Ti  Ti43  1  0.26238448  0.75456612  0.51358350  1
  Ti  Ti44  1  0.74755270  0.24777786  0.98821676  1
  Ti  Ti45  1  0.75301580  0.24756405  0.49836337  1
  Ti  Ti46  1  0.75102666  0.74900738  0.99843341  1
  Ti  Ti47  1  0.75990794  0.75364367  0.50817823  1
  Ti  Ti48  1  0.11524775  0.09406822  0.26000832  1
  Ti  Ti49  1  0.10935684  0.58226412  0.25010264  1
  Ti  Ti50  1  0.63183115  0.58358419  0.25486797  1
  Ti  Ti51  1  0.83788589  0.42139236  0.25093599  1
  Mn  Mn52  1  0.10890042  0.09371144  0.74865683  1
  Mn  Mn53  1  0.10962602  0.59273158  0.75146762  1
  Mn  Mn54  1  0.61427227  0.10073786  0.25224148  1
  Mn  Mn55  1  0.60654710  0.09090471  0.74623054  1
  Mn  Mn56  1  0.60823089  0.59337512  0.74852644  1
  Mn  Mn57  1  0.37018132  0.39629760  0.25196299  1
  Mn  Mn58  1  0.35574203  0.40900455  0.74819938  1
  Mn  Mn59  1  0.37326915  0.90697373  0.25372116  1
  Mn  Mn60  1  0.36029926  0.90909579  0.75224620  1
  Mn  Mn61  1  0.85691402  0.40517547  0.74522356  1
  Mn  Mn62  1  0.85976729  0.89425962  0.25204689  1
  Mn  Mn63  1  0.85408388  0.90965249  0.74620470  1
  O  O64  1  0.12591386  0.12377897  0.49026043  1
  O  O65  1  0.12003404  0.12172672  0.99140536  1
  O  O66  1  0.12599843  0.62186776  0.49005914  1
  O  O67  1  0.12265363  0.61816421  0.99150951  1
  O  O68  1  0.62587621  0.12120419  0.49142959  1
  O  O69  1  0.62686549  0.12803139  0.99212782  1
  O  O70  1  0.62708679  0.62288597  0.49093830  1
  O  O71  1  0.62423110  0.61946882  0.99232564  1
  O  O72  1  0.12736663  0.37730046  0.00483393  1
  O  O73  1  0.13017484  0.37737999  0.50304545  1
  O  O74  1  0.12592739  0.87861711  0.00217619  1
  O  O75  1  0.13616062  0.87298666  0.50624637  1
  O  O76  1  0.63242724  0.37964721  0.00551713  1
  O  O77  1  0.63246944  0.37777133  0.50718257  1
  O  O78  1  0.63132962  0.87474658  0.00563547  1
  O  O79  1  0.63498658  0.87350289  0.50550881  1
  O  O80  1  0.37212487  0.12027141  0.49062033  1
  O  O81  1  0.37359528  0.12136996  0.99114682  1
  O  O82  1  0.37267989  0.62145674  0.49081842  1
  O  O83  1  0.37969800  0.61811547  0.99326844  1
  O  O84  1  0.87743221  0.11818458  0.49171865  1
  O  O85  1  0.87714576  0.12406949  0.99474093  1
  O  O86  1  0.87748325  0.62121324  0.49317246  1
  O  O87  1  0.87536525  0.61571069  0.99203356  1
  O  O88  1  0.38475016  0.37870228  0.00334996  1
  O  O89  1  0.38168655  0.37978730  0.50853497  1
  O  O90  1  0.38291650  0.87672548  0.00363490  1
  O  O91  1  0.38082642  0.87505548  0.50685973  1
  O  O92  1  0.88325184  0.38028455  0.00712766  1
  O  O93  1  0.88674781  0.38474394  0.50824668  1
  O  O94  1  0.88088804  0.88177033  0.00253715  1
  O  O95  1  0.88319987  0.87842043  0.50755885  1
  O  O96  1  0.08695321  0.11273222  0.15892302  1
  O  O97  1  0.07493517  0.07728109  0.62332243  1
  O  O98  1  0.08017756  0.59028774  0.14587295  1
  O  O99  1  0.07613723  0.58453441  0.62595462  1
  O  O100  1  0.56778219  0.08034512  0.12326989  1
  O  O101  1  0.57015898  0.07765291  0.62197225  1
  O  O102  1  0.59572468  0.60071796  0.15210763  1
  O  O103  1  0.56970816  0.58263420  0.62397839  1
  O  O104  1  0.44238705  0.41779191  0.37608694  1
  O  O105  1  0.44704330  0.41490300  0.87026597  1
  O  O106  1  0.44785364  0.91351638  0.37540908  1
  O  O107  1  0.44910197  0.92263568  0.87489753  1
  O  O108  1  0.92606478  0.41492783  0.35682901  1
  O  O109  1  0.94280946  0.41626183  0.87085201  1
  O  O110  1  0.94928440  0.91313368  0.37509723  1
  O  O111  1  0.94322288  0.91804045  0.86853929  1
  O  O112  1  0.31772192  0.30434949  0.12403548  1
  O  O113  1  0.31993694  0.29516975  0.62463057  1
  O  O114  1  0.32243825  0.80362807  0.12579365  1
  O  O115  1  0.32261535  0.79236588  0.62751399  1
  O  O116  1  0.81787376  0.32009257  0.14086590  1
  O  O117  1  0.82324876  0.29414039  0.62300243  1
  O  O118  1  0.81833344  0.79408769  0.12526467  1
  O  O119  1  0.82214243  0.79183476  0.62497835  1
  O  O120  1  0.19547569  0.21264947  0.36105503  1
  O  O121  1  0.19342690  0.20582487  0.87399959  1
  O  O122  1  0.19421438  0.70265950  0.34896483  1
  O  O123  1  0.19809798  0.70287094  0.87598504  1
  O  O124  1  0.70527441  0.20833132  0.37733281  1
  O  O125  1  0.69740735  0.20706445  0.87294811  1
  O  O126  1  0.70266491  0.70384711  0.35886961  1
  O  O127  1  0.69666130  0.70093980  0.87456870  1
  O  O128  1  0.44098686  0.07529558  0.26043698  1
  O  O129  1  0.42562386  0.07424321  0.74809249  1
  O  O130  1  0.46668735  0.55517570  0.26012634  1
  O  O131  1  0.42568775  0.57492938  0.75013905  1
  O  O132  1  0.95795689  0.05899316  0.26153616  1
  O  O133  1  0.92437549  0.07443582  0.74671705  1
  O  O134  1  0.95002889  0.55798801  0.25316043  1
  O  O135  1  0.92667769  0.57433999  0.74923563  1
  O  O136  1  0.18414108  0.43969528  0.25046650  1
  O  O137  1  0.17445782  0.42333874  0.74880757  1
  O  O138  1  0.19275370  0.95312904  0.26018379  1
  O  O139  1  0.17745112  0.92585021  0.75059412  1
  O  O140  1  0.66582794  0.41061225  0.24962105  1
  O  O141  1  0.67574876  0.42417353  0.74709839  1
  O  O142  1  0.68328763  0.93392353  0.25002593  1
  O  O143  1  0.67433072  0.92476084  0.74982592  1
