# generated using pymatgen
data_Na2CoSe2
_symmetry_space_group_name_H-M   'P 1'
_cell_length_a   5.82960098
_cell_length_b   6.50125149
_cell_length_c   7.44184741
_cell_angle_alpha   115.90011541
_cell_angle_beta   113.05889169
_cell_angle_gamma   90.00000000
_symmetry_Int_Tables_number   1
_chemical_formula_structural   Na2CoSe2
_chemical_formula_sum   'Na4 Co2 Se4'
_cell_volume   228.40179418
_cell_formula_units_Z   2
loop_
 _symmetry_equiv_pos_site_id
 _symmetry_equiv_pos_as_xyz
  1  'x, y, z'
loop_
 _atom_site_type_symbol
 _atom_site_label
 _atom_site_symmetry_multiplicity
 _atom_site_fract_x
 _atom_site_fract_y
 _atom_site_fract_z
 _atom_site_occupancy
  Na  Na0  1  0.64216452  0.81219018  0.28432904  1
  Na  Na1  1  0.35783548  0.18780982  0.71567096  1
  Na  Na2  1  0.14216452  0.47213886  0.28432904  1
  Na  Na3  1  0.85783548  0.52786114  0.71567096  1
  Co  Co4  1  0.75000000  0.00000000  0.00000000  1
  Co  Co5  1  0.25000000  0.00000000  0.00000000  1
  Se  Se6  1  0.38682543  0.67684014  0.77365087  1
  Se  Se7  1  0.61317457  0.32315986  0.22634913  1
  Se  Se8  1  0.88682543  0.09681073  0.77365087  1
  Se  Se9  1  0.11317457  0.90318927  0.22634913  1
