# generated using pymatgen
data_CeSe2
_symmetry_space_group_name_H-M   'P 1'
_cell_length_a   4.27629799
_cell_length_b   4.27629777
_cell_length_c   16.02985520
_cell_angle_alpha   82.71005028
_cell_angle_beta   82.71005063
_cell_angle_gamma   60.09545005
_symmetry_Int_Tables_number   1
_chemical_formula_structural   CeSe2
_chemical_formula_sum   'Ce1 Se2'
_cell_volume   251.35984478
_cell_formula_units_Z   1
loop_
 _symmetry_equiv_pos_site_id
 _symmetry_equiv_pos_as_xyz
  1  'x, y, z'
loop_
 _atom_site_type_symbol
 _atom_site_label
 _atom_site_symmetry_multiplicity
 _atom_site_fract_x
 _atom_site_fract_y
 _atom_site_fract_z
 _atom_site_occupancy
  Ce  Ce0  1  0.99925460  0.99925460  0.00677771  1
  Se  Se1  1  0.36274261  0.36274261  0.91465818  1
  Se  Se2  1  0.63700279  0.63700279  0.09856411  1
