# generated using pymatgen
data_CaSnF5
_symmetry_space_group_name_H-M   'P 1'
_cell_length_a   5.86583332
_cell_length_b   8.22831303
_cell_length_c   10.79127867
_cell_angle_alpha   90.00000000
_cell_angle_beta   90.00000000
_cell_angle_gamma   110.15861966
_symmetry_Int_Tables_number   1
_chemical_formula_structural   CaSnF5
_chemical_formula_sum   'Ca4 Sn4 F20'
_cell_volume   488.94471260
_cell_formula_units_Z   4
loop_
 _symmetry_equiv_pos_site_id
 _symmetry_equiv_pos_as_xyz
  1  'x, y, z'
loop_
 _atom_site_type_symbol
 _atom_site_label
 _atom_site_symmetry_multiplicity
 _atom_site_fract_x
 _atom_site_fract_y
 _atom_site_fract_z
 _atom_site_occupancy
  Ca  Ca0  1  0.47376989  0.74706009  0.01668862  1
  Ca  Ca1  1  0.52623011  0.75293991  0.51668862  1
  Ca  Ca2  1  0.52623011  0.25293991  0.98331138  1
  Ca  Ca3  1  0.47376989  0.24706009  0.48331138  1
  Sn  Sn4  1  0.89708182  0.60068534  0.75370907  1
  Sn  Sn5  1  0.10291818  0.89931466  0.25370907  1
  Sn  Sn6  1  0.10291818  0.39931466  0.24629093  1
  Sn  Sn7  1  0.89708182  0.10068534  0.74629093  1
  F  F8  1  0.59934424  0.55500115  0.89017439  1
  F  F9  1  0.40065576  0.94499885  0.39017439  1
  F  F10  1  0.40065576  0.44499885  0.10982561  1
  F  F11  1  0.59934424  0.05500115  0.60982561  1
  F  F12  1  0.63048937  0.49998144  0.60417470  1
  F  F13  1  0.36951063  0.00001856  0.10417470  1
  F  F14  1  0.36951063  0.50001856  0.39582530  1
  F  F15  1  0.63048937  -0.00001856  0.89582530  1
  F  F16  1  0.86346033  0.80626368  0.40461852  1
  F  F17  1  0.13653967  0.69373632  0.90461852  1
  F  F18  1  0.13653967  0.19373632  0.59538148  1
  F  F19  1  0.86346033  0.30626368  0.09538148  1
  F  F20  1  0.80913354  0.85533396  0.13000304  1
  F  F21  1  0.19086646  0.64466604  0.63000304  1
  F  F22  1  0.19086646  0.14466604  0.86999696  1
  F  F23  1  0.80913354  0.35533396  0.36999696  1
  F  F24  1  0.83912283  0.83534032  0.69737815  1
  F  F25  1  0.16087717  0.66465968  0.19737815  1
  F  F26  1  0.16087717  0.16465968  0.30262185  1
  F  F27  1  0.83912283  0.33534032  0.80262185  1
