# generated using pymatgen
data_CeSe2
_symmetry_space_group_name_H-M   'P 1'
_cell_length_a   4.30141402
_cell_length_b   4.29726596
_cell_length_c   9.64117963
_cell_angle_alpha   77.50105913
_cell_angle_beta   89.99999979
_cell_angle_gamma   120.03193370
_symmetry_Int_Tables_number   1
_chemical_formula_structural   CeSe2
_chemical_formula_sum   'Ce1 Se2'
_cell_volume   149.38675777
_cell_formula_units_Z   1
loop_
 _symmetry_equiv_pos_site_id
 _symmetry_equiv_pos_as_xyz
  1  'x, y, z'
loop_
 _atom_site_type_symbol
 _atom_site_label
 _atom_site_symmetry_multiplicity
 _atom_site_fract_x
 _atom_site_fract_y
 _atom_site_fract_z
 _atom_site_occupancy
  Ce  Ce0  1  0.00000000  0.00000000  -0.00000000  1
  Se  Se1  1  0.61668119  0.23336238  0.15522793  1
  Se  Se2  1  0.38331881  0.76663762  0.84477207  1
