# generated using pymatgen
data_Sr5Ca3Ti5Mn3O20
_symmetry_space_group_name_H-M   'P 1'
_cell_length_a   11.14137333
_cell_length_b   11.39708689
_cell_length_c   17.63679377
_cell_angle_alpha   108.81652054
_cell_angle_beta   108.65315936
_cell_angle_gamma   89.86799390
_symmetry_Int_Tables_number   1
_chemical_formula_structural   Sr5Ca3Ti5Mn3O20
_chemical_formula_sum   'Sr20 Ca12 Ti20 Mn12 O80'
_cell_volume   1995.72803628
_cell_formula_units_Z   4
loop_
 _symmetry_equiv_pos_site_id
 _symmetry_equiv_pos_as_xyz
  1  'x, y, z'
loop_
 _atom_site_type_symbol
 _atom_site_label
 _atom_site_symmetry_multiplicity
 _atom_site_fract_x
 _atom_site_fract_y
 _atom_site_fract_z
 _atom_site_occupancy
  Sr  Sr0  1  0.30844457  0.06053002  0.61053639  1
  Sr  Sr1  1  0.31018754  0.55880569  0.61172751  1
  Sr  Sr2  1  0.80696169  0.06262642  0.60964275  1
  Sr  Sr3  1  0.80812250  0.55958677  0.61374253  1
  Sr  Sr4  1  0.19895290  0.43443982  0.38882375  1
  Sr  Sr5  1  0.19769620  0.44014122  0.89061424  1
  Sr  Sr6  1  0.69568359  0.43470228  0.39055702  1
  Sr  Sr7  1  0.69371160  0.93690979  0.38470551  1
  Sr  Sr8  1  0.69480065  0.93719693  0.89091408  1
  Sr  Sr9  1  0.05632822  0.29721524  0.61155678  1
  Sr  Sr10  1  0.05910054  0.80523963  0.61421319  1
  Sr  Sr11  1  0.56105391  0.29955178  0.61216438  1
  Sr  Sr12  1  0.56001396  0.80080827  0.61196449  1
  Sr  Sr13  1  0.44531612  0.19982076  0.38535245  1
  Sr  Sr14  1  0.44489533  0.19779401  0.88977442  1
  Sr  Sr15  1  0.44583307  0.70215572  0.38737132  1
  Sr  Sr16  1  0.44748655  0.70346449  0.89222080  1
  Sr  Sr17  1  0.94352325  0.20062832  0.38696610  1
  Sr  Sr18  1  0.94890506  0.19812285  0.88941767  1
  Sr  Sr19  1  0.94729149  0.70611404  0.38933178  1
  Ca  Ca20  1  0.30631438  0.06695801  0.10825699  1
  Ca  Ca21  1  0.30391784  0.56553538  0.10391443  1
  Ca  Ca22  1  0.79955772  0.06648680  0.10533462  1
  Ca  Ca23  1  0.80330652  0.56702235  0.10208739  1
  Ca  Ca24  1  0.19715552  0.93348519  0.39310468  1
  Ca  Ca25  1  0.20321503  0.93671973  0.89433706  1
  Ca  Ca26  1  0.69706214  0.44046922  0.89151176  1
  Ca  Ca27  1  0.05637192  0.28655829  0.10386253  1
  Ca  Ca28  1  0.05271161  0.78883484  0.10560320  1
  Ca  Ca29  1  0.54902708  0.28493247  0.10220717  1
  Ca  Ca30  1  0.55512367  0.79490548  0.10944784  1
  Ca  Ca31  1  0.94638845  0.70372585  0.89295761  1
  Ti  Ti32  1  0.00577434  0.99408158  0.99686733  1
  Ti  Ti33  1  0.00384005  0.99967804  0.49709283  1
  Ti  Ti34  1  0.00257654  0.49554490  0.99516635  1
  Ti  Ti35  1  0.00623494  0.50477035  0.50478195  1
  Ti  Ti36  1  0.50627968  0.00107153  0.00516356  1
  Ti  Ti37  1  0.50205874  0.99935744  0.49659925  1
  Ti  Ti38  1  0.50594988  0.49715848  0.99760999  1
  Ti  Ti39  1  0.50460675  0.50006077  0.49953602  1
  Ti  Ti40  1  0.25680653  0.25146603  0.00365700  1
  Ti  Ti41  1  0.25732135  0.24933316  0.50488568  1
  Ti  Ti42  1  0.25703896  0.75546866  0.00579858  1
  Ti  Ti43  1  0.25839105  0.75172334  0.50791355  1
  Ti  Ti44  1  0.75491503  0.25390199  0.99971915  1
  Ti  Ti45  1  0.75285084  0.24839805  0.49836152  1
  Ti  Ti46  1  0.75864748  0.75268740  0.00420544  1
  Ti  Ti47  1  0.75785673  0.75127233  0.50597657  1
  Ti  Ti48  1  0.10086724  0.08283808  0.24507526  1
  Ti  Ti49  1  0.10231494  0.58733467  0.24353519  1
  Ti  Ti50  1  0.60521888  0.58430013  0.24303885  1
  Ti  Ti51  1  0.84802097  0.41032742  0.24383211  1
  Mn  Mn52  1  0.11394934  0.09539953  0.75278913  1
  Mn  Mn53  1  0.11083137  0.60203743  0.75494062  1
  Mn  Mn54  1  0.60374770  0.09275804  0.24545294  1
  Mn  Mn55  1  0.61256187  0.09933287  0.75087734  1
  Mn  Mn56  1  0.61554039  0.59585556  0.75368519  1
  Mn  Mn57  1  0.36041315  0.39705996  0.24566557  1
  Mn  Mn58  1  0.36327905  0.40632956  0.75194893  1
  Mn  Mn59  1  0.35673942  0.90475444  0.24631713  1
  Mn  Mn60  1  0.36101854  0.90528130  0.75490150  1
  Mn  Mn61  1  0.85934622  0.40761229  0.75270754  1
  Mn  Mn62  1  0.85722808  0.89757807  0.24518025  1
  Mn  Mn63  1  0.86434370  0.90401317  0.75226782  1
  O  O64  1  0.12528822  0.11871210  0.48576838  1
  O  O65  1  0.12720653  0.12019050  0.99405709  1
  O  O66  1  0.12277812  0.61990230  0.48603348  1
  O  O67  1  0.12319670  0.62376907  0.99340884  1
  O  O68  1  0.62358048  0.12145852  0.48973007  1
  O  O69  1  0.62960448  0.12787635  0.99434369  1
  O  O70  1  0.62507506  0.62184674  0.48923825  1
  O  O71  1  0.63049077  0.61995599  0.99399872  1
  O  O72  1  0.13992602  0.38525651  0.02166865  1
  O  O73  1  0.12950571  0.37414842  0.50191052  1
  O  O74  1  0.13997288  0.88556570  0.02173970  1
  O  O75  1  0.13385838  0.87375648  0.50333012  1
  O  O76  1  0.64204243  0.38541785  0.02162068  1
  O  O77  1  0.63273196  0.37795350  0.50690881  1
  O  O78  1  0.64134861  0.88054426  0.01887645  1
  O  O79  1  0.63230932  0.87392129  0.50463884  1
  O  O80  1  0.36753111  0.11495336  0.48439773  1
  O  O81  1  0.37445038  0.11714817  0.99144948  1
  O  O82  1  0.37112231  0.61928566  0.48733745  1
  O  O83  1  0.37953218  0.61852167  0.99526632  1
  O  O84  1  0.87542353  0.11822609  0.48979615  1
  O  O85  1  0.88063142  0.12233231  0.99811215  1
  O  O86  1  0.87319824  0.61838420  0.48740183  1
  O  O87  1  0.87827777  0.61589158  0.99099878  1
  O  O88  1  0.39176456  0.38721287  0.01863739  1
  O  O89  1  0.38016895  0.37634870  0.50444136  1
  O  O90  1  0.39012566  0.88714134  0.01968657  1
  O  O91  1  0.37792622  0.87598438  0.50307146  1
  O  O92  1  0.89226732  0.38990065  0.02234539  1
  O  O93  1  0.88337873  0.38128394  0.50550597  1
  O  O94  1  0.89296558  0.88750728  0.01961919  1
  O  O95  1  0.88092598  0.87643729  0.50357815  1
  O  O96  1  0.09581097  0.10951922  0.14670137  1
  O  O97  1  0.07773852  0.07908133  0.62542086  1
  O  O98  1  0.09027129  0.61115609  0.14386227  1
  O  O99  1  0.07394754  0.58611809  0.62625794  1
  O  O100  1  0.58481370  0.09939757  0.12793322  1
  O  O101  1  0.57007261  0.08255664  0.62378760  1
  O  O102  1  0.59428849  0.60808464  0.14291366  1
  O  O103  1  0.57289480  0.58324247  0.62636451  1
  O  O104  1  0.44292060  0.41716535  0.36936700  1
  O  O105  1  0.45643278  0.41351959  0.87716858  1
  O  O106  1  0.44300078  0.91423871  0.36964284  1
  O  O107  1  0.45378853  0.91594946  0.87899372  1
  O  O108  1  0.93201134  0.41138963  0.35496981  1
  O  O109  1  0.95087260  0.41010076  0.87704226  1
  O  O110  1  0.95190563  0.91564916  0.36953828  1
  O  O111  1  0.95402524  0.90790292  0.87765886  1
  O  O112  1  0.33224762  0.28101032  0.12831499  1
  O  O113  1  0.32325096  0.29165031  0.62550392  1
  O  O114  1  0.32730936  0.77931184  0.12899706  1
  O  O115  1  0.32163659  0.79184464  0.62735394  1
  O  O116  1  0.83409500  0.28854277  0.14018443  1
  O  O117  1  0.82489784  0.29588634  0.62719380  1
  O  O118  1  0.83936685  0.77814140  0.12792100  1
  O  O119  1  0.82604578  0.79004478  0.62651881  1
  O  O120  1  0.18483991  0.20067135  0.35030972  1
  O  O121  1  0.19804902  0.21540259  0.87812165  1
  O  O122  1  0.18384312  0.70493103  0.34933390  1
  O  O123  1  0.20084856  0.72118315  0.87979015  1
  O  O124  1  0.69583322  0.20537051  0.37090399  1
  O  O125  1  0.70277818  0.22242611  0.87868011  1
  O  O126  1  0.68758843  0.69604784  0.35171729  1
  O  O127  1  0.70909273  0.71257746  0.87839587  1
  O  O128  1  0.41490287  0.07188589  0.24052668  1
  O  O129  1  0.42886776  0.07076770  0.75107464  1
  O  O130  1  0.43677890  0.56500929  0.23920660  1
  O  O131  1  0.43003378  0.57421169  0.75252900  1
  O  O132  1  0.93250163  0.06748102  0.23944217  1
  O  O133  1  0.92865431  0.07110006  0.75026565  1
  O  O134  1  0.93342931  0.56039064  0.23977677  1
  O  O135  1  0.92699007  0.58243981  0.76029254  1
  O  O136  1  0.16836506  0.43743051  0.24037234  1
  O  O137  1  0.17916905  0.43168507  0.75159608  1
  O  O138  1  0.16071545  0.93152836  0.24746595  1
  O  O139  1  0.17819713  0.92590246  0.76054089  1
  O  O140  1  0.66811375  0.42557145  0.23931501  1
  O  O141  1  0.67639055  0.42405786  0.75866346  1
  O  O142  1  0.67101263  0.92192413  0.24052376  1
  O  O143  1  0.68172317  0.93139070  0.75285482  1
