# generated using pymatgen
data_MgSn
_symmetry_space_group_name_H-M   'P 1'
_cell_length_a   13.27313053
_cell_length_b   3.28726926
_cell_length_c   7.08107434
_cell_angle_alpha   90.00000000
_cell_angle_beta   105.77223843
_cell_angle_gamma   90.00000000
_symmetry_Int_Tables_number   1
_chemical_formula_structural   MgSn
_chemical_formula_sum   'Mg6 Sn6'
_cell_volume   297.33139074
_cell_formula_units_Z   6
loop_
 _symmetry_equiv_pos_site_id
 _symmetry_equiv_pos_as_xyz
  1  'x, y, z'
loop_
 _atom_site_type_symbol
 _atom_site_label
 _atom_site_symmetry_multiplicity
 _atom_site_fract_x
 _atom_site_fract_y
 _atom_site_fract_z
 _atom_site_occupancy
  Mg  Mg0  1  0.38641762  0.00000000  0.27901419  1
  Mg  Mg1  1  0.17200685  0.50000000  0.33565553  1
  Mg  Mg2  1  0.22195874  0.50000000  0.93695647  1
  Mg  Mg3  1  0.88641762  0.50000000  0.27901419  1
  Mg  Mg4  1  0.67200685  0.00000000  0.33565553  1
  Mg  Mg5  1  0.72195874  -0.00000000  0.93695647  1
  Sn  Sn6  1  0.50579639  0.50000000  0.01701764  1
  Sn  Sn7  1  0.05612806  0.00000000  0.60112912  1
  Sn  Sn8  1  0.32435935  -0.00000000  0.66356004  1
  Sn  Sn9  1  0.00579639  0.00000000  0.01701764  1
  Sn  Sn10  1  0.55612806  0.50000000  0.60112912  1
  Sn  Sn11  1  0.82435935  0.50000000  0.66356004  1
