# generated using pymatgen
data_ZnSnF5
_symmetry_space_group_name_H-M   'P 1'
_cell_length_a   5.50065064
_cell_length_b   8.27406155
_cell_length_c   10.44226417
_cell_angle_alpha   90.00000000
_cell_angle_beta   90.00000000
_cell_angle_gamma   110.53730136
_symmetry_Int_Tables_number   1
_chemical_formula_structural   ZnSnF5
_chemical_formula_sum   'Zn4 Sn4 F20'
_cell_volume   445.05050184
_cell_formula_units_Z   4
loop_
 _symmetry_equiv_pos_site_id
 _symmetry_equiv_pos_as_xyz
  1  'x, y, z'
loop_
 _atom_site_type_symbol
 _atom_site_label
 _atom_site_symmetry_multiplicity
 _atom_site_fract_x
 _atom_site_fract_y
 _atom_site_fract_z
 _atom_site_occupancy
  Zn  Zn0  1  0.50566507  0.76320181  0.99160017  1
  Zn  Zn1  1  0.49433493  0.73679819  0.49160017  1
  Zn  Zn2  1  0.49433493  0.23679819  0.00839983  1
  Zn  Zn3  1  0.50566507  0.26320181  0.50839983  1
  Sn  Sn4  1  0.90919121  0.60656225  0.75603174  1
  Sn  Sn5  1  0.09080879  0.89343775  0.25603174  1
  Sn  Sn6  1  0.09080879  0.39343775  0.24396826  1
  Sn  Sn7  1  0.90919121  0.10656225  0.74396826  1
  F  F8  1  0.60833976  0.58999421  0.88983715  1
  F  F9  1  0.39166024  0.91000579  0.38983715  1
  F  F10  1  0.39166024  0.41000579  0.11016285  1
  F  F11  1  0.60833976  0.08999421  0.61016285  1
  F  F12  1  0.64353485  0.48752097  0.60528542  1
  F  F13  1  0.35646515  0.01247903  0.10528542  1
  F  F14  1  0.35646515  0.51247903  0.39471458  1
  F  F15  1  0.64353485  0.98752097  0.89471458  1
  F  F16  1  0.84047005  0.80334184  0.41784195  1
  F  F17  1  0.15952995  0.69665816  0.91784195  1
  F  F18  1  0.15952995  0.19665816  0.58215805  1
  F  F19  1  0.84047005  0.30334184  0.08215805  1
  F  F20  1  0.75638488  0.83081927  0.13015977  1
  F  F21  1  0.24361512  0.66918073  0.63015977  1
  F  F22  1  0.24361512  0.16918073  0.86984023  1
  F  F23  1  0.75638488  0.33081927  0.36984023  1
  F  F24  1  0.85302811  0.84128702  0.69400282  1
  F  F25  1  0.14697189  0.65871298  0.19400282  1
  F  F26  1  0.14697189  0.15871298  0.30599718  1
  F  F27  1  0.85302811  0.34128702  0.80599718  1
