# generated using pymatgen
data_MgTi5
_symmetry_space_group_name_H-M   'P 1'
_cell_length_a   10.95323884
_cell_length_b   2.91026793
_cell_length_c   7.00717359
_cell_angle_alpha   90.00000000
_cell_angle_beta   104.74245743
_cell_angle_gamma   90.00000000
_symmetry_Int_Tables_number   1
_chemical_formula_structural   MgTi5
_chemical_formula_sum   'Mg2 Ti10'
_cell_volume   216.01333473
_cell_formula_units_Z   2
loop_
 _symmetry_equiv_pos_site_id
 _symmetry_equiv_pos_as_xyz
  1  'x, y, z'
loop_
 _atom_site_type_symbol
 _atom_site_label
 _atom_site_symmetry_multiplicity
 _atom_site_fract_x
 _atom_site_fract_y
 _atom_site_fract_z
 _atom_site_occupancy
  Mg  Mg0  1  0.39210045  0.00000000  0.28311323  1
  Mg  Mg1  1  0.89210045  0.50000000  0.28311323  1
  Ti  Ti2  1  -0.00016992  -0.00000000  0.98596862  1
  Ti  Ti3  1  0.16444503  0.50000000  0.33390974  1
  Ti  Ti4  1  0.06354670  0.00000000  0.61539398  1
  Ti  Ti5  1  0.33206535  0.00000000  0.67438785  1
  Ti  Ti6  1  0.21467939  0.50000000  0.94055958  1
  Ti  Ti7  1  0.49983008  0.50000000  0.98596862  1
  Ti  Ti8  1  0.66444503  0.00000000  0.33390974  1
  Ti  Ti9  1  0.56354670  0.50000000  0.61539398  1
  Ti  Ti10  1  0.83206535  0.50000000  0.67438785  1
  Ti  Ti11  1  0.71467939  0.00000000  0.94055958  1
