# generated using pymatgen
data_InMoS2
_symmetry_space_group_name_H-M   'P 1'
_cell_length_a   3.20373122
_cell_length_b   3.20373122
_cell_length_c   18.45743726
_cell_angle_alpha   90.00000000
_cell_angle_beta   90.00000000
_cell_angle_gamma   119.99171479
_symmetry_Int_Tables_number   1
_chemical_formula_structural   InMoS2
_chemical_formula_sum   'In2 Mo2 S4'
_cell_volume   164.07802960
_cell_formula_units_Z   2
loop_
 _symmetry_equiv_pos_site_id
 _symmetry_equiv_pos_as_xyz
  1  'x, y, z'
loop_
 _atom_site_type_symbol
 _atom_site_label
 _atom_site_symmetry_multiplicity
 _atom_site_fract_x
 _atom_site_fract_y
 _atom_site_fract_z
 _atom_site_occupancy
  In  In0  1  0.00000000  -0.00000000  0.50000000  1
  In  In1  1  0.00000000  -0.00000000  0.00000000  1
  Mo  Mo2  1  -0.00000905  0.00000905  0.75000000  1
  Mo  Mo3  1  0.00000905  -0.00000905  0.25000000  1
  S  S4  1  0.66671005  0.33328995  0.66473685  1
  S  S5  1  0.33328995  0.66671005  0.33526315  1
  S  S6  1  0.33328995  0.66671005  0.16473685  1
  S  S7  1  0.66671005  0.33328995  0.83526315  1
