# generated using pymatgen
data_YMg
_symmetry_space_group_name_H-M   'P 1'
_cell_length_a   5.49304012
_cell_length_b   3.47076810
_cell_length_c   17.54068290
_cell_angle_alpha   90.00000000
_cell_angle_beta   90.00000000
_cell_angle_gamma   90.00000000
_symmetry_Int_Tables_number   1
_chemical_formula_structural   YMg
_chemical_formula_sum   'Y6 Mg6'
_cell_volume   334.41431963
_cell_formula_units_Z   6
loop_
 _symmetry_equiv_pos_site_id
 _symmetry_equiv_pos_as_xyz
  1  'x, y, z'
loop_
 _atom_site_type_symbol
 _atom_site_label
 _atom_site_symmetry_multiplicity
 _atom_site_fract_x
 _atom_site_fract_y
 _atom_site_fract_z
 _atom_site_occupancy
  Y  Y0  1  0.00000000  -0.00000000  0.01011284  1
  Y  Y1  1  0.00000000  0.00000000  0.33417841  1
  Y  Y2  1  0.50000000  0.00000000  0.21173093  1
  Y  Y3  1  -0.00000000  0.50000000  0.51011284  1
  Y  Y4  1  0.00000000  0.50000000  0.83417841  1
  Y  Y5  1  0.50000000  0.50000000  0.71173093  1
  Mg  Mg6  1  -0.00000000  0.50000000  0.16820240  1
  Mg  Mg7  1  0.50000000  0.50000000  0.39137331  1
  Mg  Mg8  1  0.50000000  0.50000000  0.05106911  1
  Mg  Mg9  1  0.00000000  -0.00000000  0.66820240  1
  Mg  Mg10  1  0.50000000  -0.00000000  0.89137331  1
  Mg  Mg11  1  0.50000000  0.00000000  0.55106911  1
