# generated using pymatgen
data_CeSe2
_symmetry_space_group_name_H-M   'P 1'
_cell_length_a   9.68194977
_cell_length_b   10.63834660
_cell_length_c   12.93686169
_cell_angle_alpha   81.62450128
_cell_angle_beta   85.25049169
_cell_angle_gamma   99.41971780
_symmetry_Int_Tables_number   1
_chemical_formula_structural   CeSe2
_chemical_formula_sum   'Ce13 Se26'
_cell_volume   1292.72243331
_cell_formula_units_Z   13
loop_
 _symmetry_equiv_pos_site_id
 _symmetry_equiv_pos_as_xyz
  1  'x, y, z'
loop_
 _atom_site_type_symbol
 _atom_site_label
 _atom_site_symmetry_multiplicity
 _atom_site_fract_x
 _atom_site_fract_y
 _atom_site_fract_z
 _atom_site_occupancy
  Ce  Ce0  1  -0.00000000  -0.00000000  -0.00000000  1
  Ce  Ce1  1  0.77287981  0.30607127  0.92483734  1
  Ce  Ce2  1  0.22712019  0.69392873  0.07516266  1
  Ce  Ce3  1  0.30640773  0.92577742  0.77168919  1
  Ce  Ce4  1  0.69359227  0.07422258  0.22831081  1
  Ce  Ce5  1  0.92606475  0.77253428  0.30529307  1
  Ce  Ce6  1  0.07393525  0.22746572  0.69470693  1
  Ce  Ce7  1  0.84520753  0.53497108  0.61711788  1
  Ce  Ce8  1  0.15479247  0.46502892  0.38288212  1
  Ce  Ce9  1  0.53428539  0.61636518  0.84583144  1
  Ce  Ce10  1  0.46571461  0.38363482  0.15416856  1
  Ce  Ce11  1  0.61645706  0.84542590  0.53541292  1
  Ce  Ce12  1  0.38354294  0.15457410  0.46458708  1
  Se  Se13  1  0.06214179  0.26904261  0.91067802  1
  Se  Se14  1  0.93785821  0.73095739  0.08932198  1
  Se  Se15  1  0.28859570  0.96551286  0.98780594  1
  Se  Se16  1  0.71140430  0.03448714  0.01219406  1
  Se  Se17  1  0.98510837  0.04248107  0.21439599  1
  Se  Se18  1  0.01489163  0.95751893  0.78560401  1
  Se  Se19  1  0.36283346  0.19442574  0.68222206  1
  Se  Se20  1  0.63716654  0.80557426  0.31777794  1
  Se  Se21  1  0.21374289  0.73636026  0.28920869  1
  Se  Se22  1  0.78625711  0.26363974  0.71079131  1
  Se  Se23  1  0.75626120  0.34324059  0.14017936  1
  Se  Se24  1  0.24373880  0.65675941  0.85982064  1
  Se  Se25  1  0.13271037  0.49579260  0.60083379  1
  Se  Se26  1  0.86728963  0.50420740  0.39916621  1
  Se  Se27  1  0.51408381  0.65264195  0.06187417  1
  Se  Se28  1  0.48591619  0.34735805  0.93812583  1
  Se  Se29  1  0.67145015  0.11390872  0.44382191  1
  Se  Se30  1  0.32854985  0.88609128  0.55617809  1
  Se  Se31  1  0.82179122  0.57469593  0.83305184  1
  Se  Se32  1  0.17820878  0.42530407  0.16694816  1
  Se  Se33  1  0.59336535  0.88502783  0.75116684  1
  Se  Se34  1  0.40663465  0.11497217  0.24883316  1
  Se  Se35  1  0.90432432  0.80356503  0.52274916  1
  Se  Se36  1  0.09567568  0.19643497  0.47725084  1
  Se  Se37  1  0.44146220  0.42236006  0.36990936  1
  Se  Se38  1  0.55853780  0.57763994  0.63009064  1
