# generated using pymatgen
data_Zn(GaS2)2
_symmetry_space_group_name_H-M   'P 1'
_cell_length_a   3.71994256
_cell_length_b   3.71994272
_cell_length_c   12.60830744
_cell_angle_alpha   81.51679411
_cell_angle_beta   81.51679424
_cell_angle_gamma   59.99999857
_symmetry_Int_Tables_number   1
_chemical_formula_structural   Zn(GaS2)2
_chemical_formula_sum   'Zn1 Ga2 S4'
_cell_volume   148.89013959
_cell_formula_units_Z   1
loop_
 _symmetry_equiv_pos_site_id
 _symmetry_equiv_pos_as_xyz
  1  'x, y, z'
loop_
 _atom_site_type_symbol
 _atom_site_label
 _atom_site_symmetry_multiplicity
 _atom_site_fract_x
 _atom_site_fract_y
 _atom_site_fract_z
 _atom_site_occupancy
  Zn  Zn0  1  0.99939014  0.99939014  0.00183059  1
  Ga  Ga1  1  0.23872913  0.23872913  0.28381261  1
  Ga  Ga2  1  0.76013585  0.76013585  0.71959146  1
  S  S3  1  0.12068837  0.12068837  0.63793389  1
  S  S4  1  0.87820546  0.87820546  0.36538361  1
  S  S5  1  0.70080164  0.70080164  0.89759508  1
  S  S6  1  0.29804942  0.29804942  0.10585175  1
