# generated using pymatgen
data_Ca3Si3(SnO6)2
_symmetry_space_group_name_H-M   'P 1'
_cell_length_a   10.94771501
_cell_length_b   10.94771533
_cell_length_c   10.94771495
_cell_angle_alpha   109.47122196
_cell_angle_beta   109.47122253
_cell_angle_gamma   109.47121810
_symmetry_Int_Tables_number   1
_chemical_formula_structural   Ca3Si3(SnO6)2
_chemical_formula_sum   'Ca12 Si12 Sn8 O48'
_cell_volume   1010.06324062
_cell_formula_units_Z   4
loop_
 _symmetry_equiv_pos_site_id
 _symmetry_equiv_pos_as_xyz
  1  'x, y, z'
loop_
 _atom_site_type_symbol
 _atom_site_label
 _atom_site_symmetry_multiplicity
 _atom_site_fract_x
 _atom_site_fract_y
 _atom_site_fract_z
 _atom_site_occupancy
  Ca  Ca0  1  0.37500000  0.75000000  0.12500000  1
  Ca  Ca1  1  0.12500000  0.25000000  0.37500000  1
  Ca  Ca2  1  0.37500000  0.12500000  0.25000000  1
  Ca  Ca3  1  0.12500000  0.37500000  0.75000000  1
  Ca  Ca4  1  0.87500000  0.75000000  0.62500000  1
  Ca  Ca5  1  0.75000000  0.12500000  0.37500000  1
  Ca  Ca6  1  0.75000000  0.62500000  0.87500000  1
  Ca  Ca7  1  0.62500000  0.25000000  0.87500000  1
  Ca  Ca8  1  0.25000000  0.87500000  0.62500000  1
  Ca  Ca9  1  0.87500000  0.62500000  0.25000000  1
  Ca  Ca10  1  0.62500000  0.87500000  0.75000000  1
  Ca  Ca11  1  0.25000000  0.37500000  0.12500000  1
  Si  Si12  1  0.25000000  0.12500000  0.87500000  1
  Si  Si13  1  0.75000000  0.87500000  0.12500000  1
  Si  Si14  1  0.37500000  0.25000000  0.62500000  1
  Si  Si15  1  0.62500000  0.37500000  0.25000000  1
  Si  Si16  1  0.12500000  0.75000000  0.87500000  1
  Si  Si17  1  0.87500000  0.12500000  0.75000000  1
  Si  Si18  1  0.75000000  0.37500000  0.62500000  1
  Si  Si19  1  0.37500000  0.62500000  0.75000000  1
  Si  Si20  1  0.12500000  0.87500000  0.25000000  1
  Si  Si21  1  0.87500000  0.25000000  0.12500000  1
  Si  Si22  1  0.62500000  0.75000000  0.37500000  1
  Si  Si23  1  0.25000000  0.62500000  0.37500000  1
  Sn  Sn24  1  0.00000000  0.00000000  0.00000000  1
  Sn  Sn25  1  0.00000000  0.50000000  0.00000000  1
  Sn  Sn26  1  0.00000000  0.00000000  0.50000000  1
  Sn  Sn27  1  0.00000000  0.50000000  0.50000000  1
  Sn  Sn28  1  0.50000000  0.00000000  0.50000000  1
  Sn  Sn29  1  0.50000000  0.50000000  0.00000000  1
  Sn  Sn30  1  0.50000000  0.50000000  0.50000000  1
  Sn  Sn31  1  0.50000000  0.00000000  0.00000000  1
  O  O32  1  0.27965110  0.48489481  0.37598829  1
  O  O33  1  0.01510519  0.29475630  0.89109349  1
  O  O34  1  0.12401171  0.60890651  0.90366281  1
  O  O35  1  0.22034890  0.59633719  0.20524370  1
  O  O36  1  0.22034890  0.12401171  0.01510519  1
  O  O37  1  0.59633719  0.20524370  0.22034890  1
  O  O38  1  0.60890651  0.20524370  0.48489481  1
  O  O39  1  0.20524370  0.22034890  0.59633719  1
  O  O40  1  0.89109349  0.37598829  0.59633719  1
  O  O41  1  0.29475630  0.90366281  0.27965110  1
  O  O42  1  0.90366281  0.27965110  0.29475630  1
  O  O43  1  0.01510519  0.22034890  0.12401171  1
  O  O44  1  0.20524370  0.48489481  0.60890651  1
  O  O45  1  0.59633719  0.89109349  0.37598829  1
  O  O46  1  0.12401171  0.01510519  0.22034890  1
  O  O47  1  0.48489481  0.60890651  0.20524370  1
  O  O48  1  0.37598829  0.59633719  0.89109349  1
  O  O49  1  0.89109349  0.01510519  0.29475630  1
  O  O50  1  0.60890651  0.90366281  0.12401171  1
  O  O51  1  0.10890651  0.62401171  0.40366281  1
  O  O52  1  0.90366281  0.12401171  0.60890651  1
  O  O53  1  0.37598829  0.27965110  0.48489481  1
  O  O54  1  0.29475630  0.89109349  0.01510519  1
  O  O55  1  0.27965110  0.29475630  0.90366281  1
  O  O56  1  0.72034890  0.51510519  0.62401171  1
  O  O57  1  0.98489481  0.70524370  0.10890651  1
  O  O58  1  0.87598829  0.39109349  0.09633719  1
  O  O59  1  0.77965110  0.40366281  0.79475630  1
  O  O60  1  0.77965110  0.87598829  0.98489481  1
  O  O61  1  0.40366281  0.79475630  0.77965110  1
  O  O62  1  0.39109349  0.79475630  0.51510519  1
  O  O63  1  0.79475630  0.77965110  0.40366281  1
  O  O64  1  0.72034890  0.70524370  0.09633719  1
  O  O65  1  0.70524370  0.10890651  0.98489481  1
  O  O66  1  0.62401171  0.72034890  0.51510519  1
  O  O67  1  0.51510519  0.62401171  0.72034890  1
  O  O68  1  0.09633719  0.87598829  0.39109349  1
  O  O69  1  0.39109349  0.09633719  0.87598829  1
  O  O70  1  0.10890651  0.98489481  0.70524370  1
  O  O71  1  0.62401171  0.40366281  0.10890651  1
  O  O72  1  0.51510519  0.39109349  0.79475630  1
  O  O73  1  0.87598829  0.98489481  0.77965110  1
  O  O74  1  0.40366281  0.10890651  0.62401171  1
  O  O75  1  0.79475630  0.51510519  0.39109349  1
  O  O76  1  0.98489481  0.77965110  0.87598829  1
  O  O77  1  0.09633719  0.72034890  0.70524370  1
  O  O78  1  0.70524370  0.09633719  0.72034890  1
  O  O79  1  0.48489481  0.37598829  0.27965110  1
