# generated using pymatgen
data_CaMg2
_symmetry_space_group_name_H-M   'P 1'
_cell_length_a   5.49421103
_cell_length_b   11.25529082
_cell_length_c   5.51147486
_cell_angle_alpha   90.00000000
_cell_angle_beta   90.00000000
_cell_angle_gamma   90.00000000
_symmetry_Int_Tables_number   1
_chemical_formula_structural   CaMg2
_chemical_formula_sum   'Ca4 Mg8'
_cell_volume   340.82377954
_cell_formula_units_Z   4
loop_
 _symmetry_equiv_pos_site_id
 _symmetry_equiv_pos_as_xyz
  1  'x, y, z'
loop_
 _atom_site_type_symbol
 _atom_site_label
 _atom_site_symmetry_multiplicity
 _atom_site_fract_x
 _atom_site_fract_y
 _atom_site_fract_z
 _atom_site_occupancy
  Ca  Ca0  1  0.50000000  0.24998740  0.25000000  1
  Ca  Ca1  1  -0.00000000  0.25001260  0.75000000  1
  Ca  Ca2  1  -0.00000000  0.74998740  0.25000000  1
  Ca  Ca3  1  0.50000000  0.75001260  0.75000000  1
  Mg  Mg4  1  0.00000000  0.43298461  0.25000000  1
  Mg  Mg5  1  -0.00000000  0.06692806  0.25000000  1
  Mg  Mg6  1  0.50000000  0.43307194  0.75000000  1
  Mg  Mg7  1  0.50000000  0.06701539  0.75000000  1
  Mg  Mg8  1  0.50000000  0.93298461  0.25000000  1
  Mg  Mg9  1  0.50000000  0.56692806  0.25000000  1
  Mg  Mg10  1  0.00000000  0.93307194  0.75000000  1
  Mg  Mg11  1  0.00000000  0.56701539  0.75000000  1
