# generated using pymatgen
data_MgTi2
_symmetry_space_group_name_H-M   'P 1'
_cell_length_a   11.56946539
_cell_length_b   2.92895024
_cell_length_c   6.80064580
_cell_angle_alpha   90.00000000
_cell_angle_beta   103.32826972
_cell_angle_gamma   90.00000000
_symmetry_Int_Tables_number   1
_chemical_formula_structural   MgTi2
_chemical_formula_sum   'Mg4 Ti8'
_cell_volume   224.24222974
_cell_formula_units_Z   4
loop_
 _symmetry_equiv_pos_site_id
 _symmetry_equiv_pos_as_xyz
  1  'x, y, z'
loop_
 _atom_site_type_symbol
 _atom_site_label
 _atom_site_symmetry_multiplicity
 _atom_site_fract_x
 _atom_site_fract_y
 _atom_site_fract_z
 _atom_site_occupancy
  Mg  Mg0  1  0.47167969  0.00000000  0.19592001  1
  Mg  Mg1  1  0.02832031  0.50000000  0.80407999  1
  Mg  Mg2  1  0.97167969  0.50000000  0.19592001  1
  Mg  Mg3  1  0.52832031  -0.00000000  0.80407999  1
  Ti  Ti4  1  0.20758677  0.00000000  0.14681580  1
  Ti  Ti5  1  0.34861258  0.50000000  0.47458173  1
  Ti  Ti6  1  0.15138742  -0.00000000  0.52541827  1
  Ti  Ti7  1  0.29241323  0.50000000  0.85318420  1
  Ti  Ti8  1  0.70758677  0.50000000  0.14681580  1
  Ti  Ti9  1  0.84861258  -0.00000000  0.47458173  1
  Ti  Ti10  1  0.65138742  0.50000000  0.52541827  1
  Ti  Ti11  1  0.79241323  -0.00000000  0.85318420  1
