# generated using pymatgen
data_LiMg30BO31
_symmetry_space_group_name_H-M   'P 1'
_cell_length_a   8.54771290
_cell_length_b   8.61182638
_cell_length_c   8.40393628
_cell_angle_alpha   90.00000000
_cell_angle_beta   90.00000000
_cell_angle_gamma   90.00000000
_symmetry_Int_Tables_number   1
_chemical_formula_structural   LiMg30BO31
_chemical_formula_sum   'Li1 Mg30 B1 O31'
_cell_volume   618.62567846
_cell_formula_units_Z   1
loop_
 _symmetry_equiv_pos_site_id
 _symmetry_equiv_pos_as_xyz
  1  'x, y, z'
loop_
 _atom_site_type_symbol
 _atom_site_label
 _atom_site_symmetry_multiplicity
 _atom_site_fract_x
 _atom_site_fract_y
 _atom_site_fract_z
 _atom_site_occupancy
  Li  Li0  1  0.98635656  0.00000000  -0.00000000  1
  Mg  Mg1  1  0.99829453  0.50000000  0.00000000  1
  Mg  Mg2  1  0.99756515  0.50000000  0.50000000  1
  Mg  Mg3  1  0.50653971  -0.00000000  -0.00000000  1
  Mg  Mg4  1  0.49610164  -0.00000000  0.50000000  1
  Mg  Mg5  1  0.50154901  0.50000000  0.00000000  1
  Mg  Mg6  1  0.50193966  0.50000000  0.50000000  1
  Mg  Mg7  1  0.00015170  0.25309657  0.25571568  1
  Mg  Mg8  1  0.00015170  0.25309657  0.74428432  1
  Mg  Mg9  1  0.00015170  0.74690343  0.25571568  1
  Mg  Mg10  1  0.00015170  0.74690343  0.74428432  1
  Mg  Mg11  1  0.49967791  0.24964079  0.24973881  1
  Mg  Mg12  1  0.49967791  0.24964079  0.75026119  1
  Mg  Mg13  1  0.49967791  0.75035921  0.24973881  1
  Mg  Mg14  1  0.49967791  0.75035921  0.75026119  1
  Mg  Mg15  1  0.25063519  0.00000000  0.24313486  1
  Mg  Mg16  1  0.25063519  0.00000000  0.75686514  1
  Mg  Mg17  1  0.24981778  0.50000000  0.24829699  1
  Mg  Mg18  1  0.24981778  0.50000000  0.75170301  1
  Mg  Mg19  1  0.74836520  0.00000000  0.26128100  1
  Mg  Mg20  1  0.74836520  -0.00000000  0.73871900  1
  Mg  Mg21  1  0.75023941  0.50000000  0.25027733  1
  Mg  Mg22  1  0.75023941  0.50000000  0.74972267  1
  Mg  Mg23  1  0.24474978  0.24994028  0.00000000  1
  Mg  Mg24  1  0.24792445  0.26134360  0.50000000  1
  Mg  Mg25  1  0.24474978  0.75005972  0.00000000  1
  Mg  Mg26  1  0.24792445  0.73865640  0.50000000  1
  Mg  Mg27  1  0.75461247  0.24569215  -0.00000000  1
  Mg  Mg28  1  0.75462855  0.24304974  0.50000000  1
  Mg  Mg29  1  0.75461247  0.75430785  -0.00000000  1
  Mg  Mg30  1  0.75462855  0.75695026  0.50000000  1
  B  B31  1  0.05906821  0.00000000  0.50000000  1
  O  O32  1  0.23184176  -0.00000000  0.50000000  1
  O  O33  1  0.25017144  0.50000000  0.00000000  1
  O  O34  1  0.25402843  0.50000000  0.50000000  1
  O  O35  1  0.75245479  0.00000000  0.00000000  1
  O  O36  1  0.72458430  0.00000000  0.50000000  1
  O  O37  1  0.74971717  0.50000000  -0.00000000  1
  O  O38  1  0.74650089  0.50000000  0.50000000  1
  O  O39  1  0.24790358  0.24832017  0.25054543  1
  O  O40  1  0.24790358  0.24832017  0.74945457  1
  O  O41  1  0.24790358  0.75167983  0.25054543  1
  O  O42  1  0.24790358  0.75167983  0.74945457  1
  O  O43  1  0.75227530  0.24635286  0.25093804  1
  O  O44  1  0.75227530  0.24635286  0.74906196  1
  O  O45  1  0.75227530  0.75364714  0.25093804  1
  O  O46  1  0.75227530  0.75364714  0.74906196  1
  O  O47  1  0.00443754  0.00000000  0.33754368  1
  O  O48  1  0.00443754  -0.00000000  0.66245632  1
  O  O49  1  0.00002218  0.50000000  0.24661200  1
  O  O50  1  0.00002218  0.50000000  0.75338800  1
  O  O51  1  0.49415891  -0.00000000  0.24997523  1
  O  O52  1  0.49415891  0.00000000  0.75002477  1
  O  O53  1  0.50007840  0.50000000  0.24939163  1
  O  O54  1  0.50007840  0.50000000  0.75060837  1
  O  O55  1  0.99932774  0.24657383  -0.00000000  1
  O  O56  1  0.00378742  0.26875553  0.50000000  1
  O  O57  1  0.99932774  0.75342617  0.00000000  1
  O  O58  1  0.00378742  0.73124447  0.50000000  1
  O  O59  1  0.50058447  0.24962844  -0.00000000  1
  O  O60  1  0.49325687  0.24902970  0.50000000  1
  O  O61  1  0.50058447  0.75037156  0.00000000  1
  O  O62  1  0.49325687  0.75097030  0.50000000  1
