# generated using pymatgen
data_MgBi2
_symmetry_space_group_name_H-M   'P 1'
_cell_length_a   11.46263886
_cell_length_b   3.50730479
_cell_length_c   9.69247000
_cell_angle_alpha   90.00000000
_cell_angle_beta   115.37101707
_cell_angle_gamma   90.00000000
_symmetry_Int_Tables_number   1
_chemical_formula_structural   MgBi2
_chemical_formula_sum   'Mg4 Bi8'
_cell_volume   352.08361022
_cell_formula_units_Z   4
loop_
 _symmetry_equiv_pos_site_id
 _symmetry_equiv_pos_as_xyz
  1  'x, y, z'
loop_
 _atom_site_type_symbol
 _atom_site_label
 _atom_site_symmetry_multiplicity
 _atom_site_fract_x
 _atom_site_fract_y
 _atom_site_fract_z
 _atom_site_occupancy
  Mg  Mg0  1  0.18987018  -0.00000000  0.62635008  1
  Mg  Mg1  1  0.31012982  0.50000000  0.37364992  1
  Mg  Mg2  1  0.68987018  0.50000000  0.62635008  1
  Mg  Mg3  1  0.81012982  -0.00000000  0.37364992  1
  Bi  Bi4  1  0.34372210  0.50000000  0.92885821  1
  Bi  Bi5  1  0.47094530  0.00000000  0.66523677  1
  Bi  Bi6  1  0.02905470  0.50000000  0.33476323  1
  Bi  Bi7  1  0.15627790  0.00000000  0.07114179  1
  Bi  Bi8  1  0.84372210  0.00000000  0.92885821  1
  Bi  Bi9  1  0.97094530  0.50000000  0.66523677  1
  Bi  Bi10  1  0.52905470  0.00000000  0.33476323  1
  Bi  Bi11  1  0.65627790  0.50000000  0.07114179  1
