# generated using pymatgen
data_Li9Mn2Co5O16
_symmetry_space_group_name_H-M   'P 1'
_cell_length_a   5.09874539
_cell_length_b   9.77937971
_cell_length_c   5.84784768
_cell_angle_alpha   90.00000000
_cell_angle_beta   90.00000000
_cell_angle_gamma   99.65610586
_symmetry_Int_Tables_number   1
_chemical_formula_structural   Li9Mn2Co5O16
_chemical_formula_sum   'Li9 Mn2 Co5 O16'
_cell_volume   287.45754474
_cell_formula_units_Z   1
loop_
 _symmetry_equiv_pos_site_id
 _symmetry_equiv_pos_as_xyz
  1  'x, y, z'
loop_
 _atom_site_type_symbol
 _atom_site_label
 _atom_site_symmetry_multiplicity
 _atom_site_fract_x
 _atom_site_fract_y
 _atom_site_fract_z
 _atom_site_occupancy
  Li  Li0  1  0.25877708  0.26023407  0.25000000  1
  Li  Li1  1  0.74122292  0.73976593  0.25000000  1
  Li  Li2  1  0.75730620  0.26862861  0.50498478  1
  Li  Li3  1  0.24269380  0.73137139  0.50498478  1
  Li  Li4  1  0.24471040  0.26495210  0.75000000  1
  Li  Li5  1  0.75528960  0.73504790  0.75000000  1
  Li  Li6  1  0.75730620  0.26862861  0.99501522  1
  Li  Li7  1  0.24269380  0.73137139  0.99501522  1
  Li  Li8  1  0.00000000  0.50000000  0.75000000  1
  Mn  Mn9  1  0.00000000  -0.00000000  0.00248717  1
  Mn  Mn10  1  0.00000000  -0.00000000  0.49751283  1
  Co  Co11  1  0.50000000  0.50000000  -0.00745744  1
  Co  Co12  1  0.50000000  -0.00000000  0.25000000  1
  Co  Co13  1  0.00000000  0.50000000  0.25000000  1
  Co  Co14  1  0.50000000  0.50000000  0.50745744  1
  Co  Co15  1  0.50000000  -0.00000000  0.75000000  1
  O  O16  1  0.89593704  0.11345776  0.25000000  1
  O  O17  1  0.35083456  0.61563472  0.25000000  1
  O  O18  1  0.35925140  0.10617032  0.48651217  1
  O  O19  1  0.86505250  0.60819696  0.47834514  1
  O  O20  1  0.90329548  0.11456459  0.75000000  1
  O  O21  1  0.39565727  0.62362279  0.75000000  1
  O  O22  1  0.35925140  0.10617032  0.01348783  1
  O  O23  1  0.86505250  0.60819696  0.02165486  1
  O  O24  1  0.64916544  0.38436528  0.25000000  1
  O  O25  1  0.10406296  0.88654224  0.25000000  1
  O  O26  1  0.13494750  0.39180304  0.47834514  1
  O  O27  1  0.64074860  0.89382968  0.48651217  1
  O  O28  1  0.60434273  0.37637721  0.75000000  1
  O  O29  1  0.09670452  0.88543541  0.75000000  1
  O  O30  1  0.13494750  0.39180304  0.02165486  1
  O  O31  1  0.64074860  0.89382968  0.01348783  1
