# generated using pymatgen
data_Li9Mn2Co5O16
_symmetry_space_group_name_H-M   'P 1'
_cell_length_a   5.79964577
_cell_length_b   5.93785401
_cell_length_c   9.70814855
_cell_angle_alpha   98.25034736
_cell_angle_beta   90.00000059
_cell_angle_gamma   60.76700990
_symmetry_Int_Tables_number   1
_chemical_formula_structural   Li9Mn2Co5O16
_chemical_formula_sum   'Li9 Mn2 Co5 O16'
_cell_volume   287.77315381
_cell_formula_units_Z   1
loop_
 _symmetry_equiv_pos_site_id
 _symmetry_equiv_pos_as_xyz
  1  'x, y, z'
loop_
 _atom_site_type_symbol
 _atom_site_label
 _atom_site_symmetry_multiplicity
 _atom_site_fract_x
 _atom_site_fract_y
 _atom_site_fract_z
 _atom_site_occupancy
  Li  Li0  1  0.50327779  0.49344442  0.00634013  1
  Li  Li1  1  0.00225393  0.49549213  0.00292003  1
  Li  Li2  1  0.12095964  0.76083128  0.26393251  1
  Li  Li3  1  0.61820908  0.76083128  0.26393251  1
  Li  Li4  1  0.74949581  0.00100839  0.49438228  1
  Li  Li5  1  0.25106303  0.99787395  0.49821211  1
  Li  Li6  1  0.37500441  0.24826443  0.73793566  1
  Li  Li7  1  0.87673115  0.24826443  0.73793566  1
  Li  Li8  1  0.62117368  0.25765264  0.25282866  1
  Mn  Mn9  1  0.00063083  -0.00185357  0.00397955  1
  Mn  Mn10  1  0.50122274  -0.00185357  0.00397955  1
  Co  Co11  1  0.12294415  0.25411170  0.25235201  1
  Co  Co12  1  0.25550256  0.49281750  0.48945555  1
  Co  Co13  1  0.75167994  0.49281750  0.48945555  1
  Co  Co14  1  0.88002377  0.73995246  0.74351677  1
  Co  Co15  1  0.37809504  0.74380992  0.74441208  1
  O  O16  1  0.69357905  0.11284191  0.89251850  1
  O  O17  1  0.19938362  0.10123277  0.88607919  1
  O  O18  1  0.32073360  0.32922770  0.12214670  1
  O  O19  1  0.85003870  0.32922770  0.12214670  1
  O  O20  1  0.93361536  0.63276929  0.37663136  1
  O  O21  1  0.43532807  0.62934387  0.38356056  1
  O  O22  1  0.57155438  0.86070099  0.63050782  1
  O  O23  1  0.06774463  0.86070099  0.63050782  1
  O  O24  1  0.31430364  0.87139271  0.10999738  1
  O  O25  1  0.80936487  0.88127025  0.11041427  1
  O  O26  1  0.93946813  0.15556531  0.37507009  1
  O  O27  1  0.40496655  0.15556531  0.37507009  1
  O  O28  1  0.55440231  0.39119539  0.62278222  1
  O  O29  1  0.05374612  0.39250776  0.62514276  1
  O  O30  1  0.17003481  0.65649658  0.87592696  1
  O  O31  1  0.67346860  0.65649658  0.87592696  1
