# generated using pymatgen
data_Li9Mn2Co5O16
_symmetry_space_group_name_H-M   'P 1'
_cell_length_a   5.21867200
_cell_length_b   10.15468587
_cell_length_c   5.73640084
_cell_angle_alpha   106.40654148
_cell_angle_beta   89.99999979
_cell_angle_gamma   97.97166543
_symmetry_Int_Tables_number   1
_chemical_formula_structural   Li9Mn2Co5O16
_chemical_formula_sum   'Li9 Mn2 Co5 O16'
_cell_volume   288.55298921
_cell_formula_units_Z   1
loop_
 _symmetry_equiv_pos_site_id
 _symmetry_equiv_pos_as_xyz
  1  'x, y, z'
loop_
 _atom_site_type_symbol
 _atom_site_label
 _atom_site_symmetry_multiplicity
 _atom_site_fract_x
 _atom_site_fract_y
 _atom_site_fract_z
 _atom_site_occupancy
  Li  Li0  1  0.50725250  0.99549049  0.74774524  1
  Li  Li1  1  0.75441831  0.26077359  0.62833994  1
  Li  Li2  1  0.00525255  0.50643047  0.50321523  1
  Li  Li3  1  0.24059935  0.73708272  0.36592772  1
  Li  Li4  1  0.50218756  0.99106883  0.24553441  1
  Li  Li5  1  0.75441831  0.26077359  0.13243365  1
  Li  Li6  1  0.99363114  0.50791265  0.00395632  1
  Li  Li7  1  0.24059935  0.73708272  0.87115500  1
  Li  Li8  1  0.74669488  0.74647538  0.12323769  1
  Mn  Mn9  1  0.99537887  0.99684915  -0.00029571  1
  Mn  Mn10  1  0.99537887  0.99684915  0.49714485  1
  Co  Co11  1  0.25862314  0.25663781  0.87831890  1
  Co  Co12  1  0.51157420  0.50682244  0.75302029  1
  Co  Co13  1  0.75140874  0.74887742  0.62443871  1
  Co  Co14  1  0.24925183  0.25234126  0.37617063  1
  Co  Co15  1  0.51157420  0.50682244  0.25380215  1
  O  O16  1  0.13072005  0.89458523  0.69729262  1
  O  O17  1  0.33368924  0.12612008  0.55631665  1
  O  O18  1  0.61531265  0.38099743  0.44049872  1
  O  O19  1  0.84862677  0.62794248  0.32941029  1
  O  O20  1  0.12434714  0.89151362  0.19575681  1
  O  O21  1  0.33368924  0.12612008  0.06980343  1
  O  O22  1  0.61582385  0.37426958  0.93713479  1
  O  O23  1  0.84862677  0.62794248  0.79853219  1
  O  O24  1  0.88635808  0.11315294  0.80657647  1
  O  O25  1  0.14155997  0.36558362  0.67704231  1
  O  O26  1  0.37836195  0.62498919  0.56249460  1
  O  O27  1  0.67246972  0.87858071  0.45157624  1
  O  O28  1  0.87106547  0.10562343  0.30281172  1
  O  O29  1  0.14155997  0.36558362  0.18854131  1
  O  O30  1  0.36707562  0.61012467  0.05506234  1
  O  O31  1  0.67246972  0.87858071  0.92700447  1
