# generated using pymatgen
data_V3O2F5
_symmetry_space_group_name_H-M   'P 1'
_cell_length_a   7.54087917
_cell_length_b   13.73006962
_cell_length_c   6.43351911
_cell_angle_alpha   90.00000000
_cell_angle_beta   90.00000000
_cell_angle_gamma   90.00000000
_symmetry_Int_Tables_number   1
_chemical_formula_structural   V3O2F5
_chemical_formula_sum   'V12 O8 F20'
_cell_volume   666.10595565
_cell_formula_units_Z   4
loop_
 _symmetry_equiv_pos_site_id
 _symmetry_equiv_pos_as_xyz
  1  'x, y, z'
loop_
 _atom_site_type_symbol
 _atom_site_label
 _atom_site_symmetry_multiplicity
 _atom_site_fract_x
 _atom_site_fract_y
 _atom_site_fract_z
 _atom_site_occupancy
  V  V0  1  -0.00036111  0.11589297  0.00000000  1
  V  V1  1  0.25091122  0.24909621  0.24998380  1
  V  V2  1  0.25091122  0.24909621  0.75001620  1
  V  V3  1  0.24908878  0.74909621  0.25001620  1
  V  V4  1  0.24908878  0.74909621  0.74998380  1
  V  V5  1  0.50036111  0.61589297  0.50000000  1
  V  V6  1  0.49963889  0.38410703  0.50000000  1
  V  V7  1  0.75091122  0.25090379  0.25001620  1
  V  V8  1  0.75091122  0.25090379  0.74998380  1
  V  V9  1  0.74908878  0.75090379  0.24998380  1
  V  V10  1  0.74908878  0.75090379  0.75001620  1
  V  V11  1  0.00036111  0.88410703  0.00000000  1
  O  O12  1  0.99937818  0.78801626  0.22051713  1
  O  O13  1  0.99937818  0.78801626  0.77948287  1
  O  O14  1  0.50062182  0.28801626  0.27948287  1
  O  O15  1  0.50062182  0.28801626  0.72051713  1
  O  O16  1  0.49937818  0.71198374  0.27948287  1
  O  O17  1  0.49937818  0.71198374  0.72051713  1
  O  O18  1  0.00062182  0.21198374  0.22051713  1
  O  O19  1  0.00062182  0.21198374  0.77948287  1
  F  F20  1  0.00000000  -0.00000000  0.19088519  1
  F  F21  1  0.00000000  -0.00000000  0.80911481  1
  F  F22  1  0.22569537  0.64734951  0.50000000  1
  F  F23  1  0.22600747  0.35081519  0.50000000  1
  F  F24  1  0.22824766  0.33399578  0.00000000  1
  F  F25  1  0.22553510  0.66409556  0.00000000  1
  F  F26  1  0.27446490  0.16409556  0.50000000  1
  F  F27  1  0.27175234  0.83399578  0.50000000  1
  F  F28  1  0.27399253  0.85081519  0.00000000  1
  F  F29  1  0.27430463  0.14734951  0.00000000  1
  F  F30  1  0.50000000  0.50000000  0.30911481  1
  F  F31  1  0.50000000  0.50000000  0.69088519  1
  F  F32  1  0.72569537  0.85265049  0.00000000  1
  F  F33  1  0.72600747  0.14918481  0.00000000  1
  F  F34  1  0.72824766  0.16600422  0.50000000  1
  F  F35  1  0.72553510  0.83590444  0.50000000  1
  F  F36  1  0.77446490  0.33590444  0.00000000  1
  F  F37  1  0.77175234  0.66600422  0.00000000  1
  F  F38  1  0.77399253  0.64918481  0.50000000  1
  F  F39  1  0.77430463  0.35265049  0.50000000  1
