# generated using pymatgen
data_Ca7MgMn7FeO20
_symmetry_space_group_name_H-M   'P 1'
_cell_length_a   10.88990598
_cell_length_b   11.13761889
_cell_length_c   16.89375792
_cell_angle_alpha   109.04034501
_cell_angle_beta   109.13481863
_cell_angle_gamma   90.52903703
_symmetry_Int_Tables_number   1
_chemical_formula_structural   Ca7MgMn7FeO20
_chemical_formula_sum   'Ca28 Mg4 Mn28 Fe4 O80'
_cell_volume   1814.33906378
_cell_formula_units_Z   4
loop_
 _symmetry_equiv_pos_site_id
 _symmetry_equiv_pos_as_xyz
  1  'x, y, z'
loop_
 _atom_site_type_symbol
 _atom_site_label
 _atom_site_symmetry_multiplicity
 _atom_site_fract_x
 _atom_site_fract_y
 _atom_site_fract_z
 _atom_site_occupancy
  Ca  Ca0  1  0.30670505  0.06354259  0.60782653  1
  Ca  Ca1  1  0.30737360  0.56266755  0.60569280  1
  Ca  Ca2  1  0.80665061  0.06322854  0.60859102  1
  Ca  Ca3  1  0.80465824  0.56340136  0.10878720  1
  Ca  Ca4  1  0.80715650  0.56320665  0.60690038  1
  Ca  Ca5  1  0.19466273  0.43299517  0.38911180  1
  Ca  Ca6  1  0.19980977  0.43819699  0.89417904  1
  Ca  Ca7  1  0.19544152  0.93651047  0.38760010  1
  Ca  Ca8  1  0.20162261  0.93863374  0.89719789  1
  Ca  Ca9  1  0.69483556  0.43543399  0.39086398  1
  Ca  Ca10  1  0.69735046  0.43589874  0.89276917  1
  Ca  Ca11  1  0.69459086  0.93554968  0.39017895  1
  Ca  Ca12  1  0.69990894  0.93502362  0.89604474  1
  Ca  Ca13  1  0.05484491  0.29339550  0.11057235  1
  Ca  Ca14  1  0.05548122  0.29273467  0.60777626  1
  Ca  Ca15  1  0.05480955  0.79191350  0.60641538  1
  Ca  Ca16  1  0.55593645  0.29310035  0.10945336  1
  Ca  Ca17  1  0.55539780  0.29299379  0.60741524  1
  Ca  Ca18  1  0.55233934  0.79125778  0.10882856  1
  Ca  Ca19  1  0.55626229  0.79069848  0.60552925  1
  Ca  Ca20  1  0.44689314  0.20363990  0.38618396  1
  Ca  Ca21  1  0.45174797  0.20455839  0.89090970  1
  Ca  Ca22  1  0.44571121  0.70755920  0.38732105  1
  Ca  Ca23  1  0.45098157  0.70717466  0.89207401  1
  Ca  Ca24  1  0.94863208  0.20412819  0.38791731  1
  Ca  Ca25  1  0.94786300  0.20352765  0.89147899  1
  Ca  Ca26  1  0.94806225  0.70857005  0.39094742  1
  Ca  Ca27  1  0.95276348  0.70696781  0.89684684  1
  Mg  Mg28  1  0.28509813  0.07445208  0.11532998  1
  Mg  Mg29  1  0.28796294  0.57097902  0.11065944  1
  Mg  Mg30  1  0.78113084  0.07589244  0.11293411  1
  Mg  Mg31  1  0.03052654  0.79006365  0.11337699  1
  Mn  Mn32  1  0.00641967  0.99973006  0.49855695  1
  Mn  Mn33  1  0.00561778  0.49679331  0.49827137  1
  Mn  Mn34  1  0.50491452  0.99950308  0.49751942  1
  Mn  Mn35  1  0.50661453  0.49943342  0.00181585  1
  Mn  Mn36  1  0.50456524  0.49625796  0.49657528  1
  Mn  Mn37  1  0.26308270  0.25339748  0.00538353  1
  Mn  Mn38  1  0.25573656  0.24706063  0.49855436  1
  Mn  Mn39  1  0.26102087  0.75005349  0.00601928  1
  Mn  Mn40  1  0.25590590  0.74989574  0.49920999  1
  Mn  Mn41  1  0.76033347  0.24679625  0.00168096  1
  Mn  Mn42  1  0.75516812  0.24775744  0.49912160  1
  Mn  Mn43  1  0.75378556  0.74915292  0.49831821  1
  Mn  Mn44  1  0.09906265  0.09017429  0.24265686  1
  Mn  Mn45  1  0.11265289  0.09269559  0.75266925  1
  Mn  Mn46  1  0.10852449  0.60389585  0.24892168  1
  Mn  Mn47  1  0.10832973  0.60068547  0.75201064  1
  Mn  Mn48  1  0.60016760  0.09593222  0.24628486  1
  Mn  Mn49  1  0.61227508  0.08854487  0.75010889  1
  Mn  Mn50  1  0.59693871  0.59416421  0.24501160  1
  Mn  Mn51  1  0.60923681  0.59935007  0.74992468  1
  Mn  Mn52  1  0.35532967  0.40670202  0.24343179  1
  Mn  Mn53  1  0.36003215  0.40802336  0.75041916  1
  Mn  Mn54  1  0.34690076  0.90139396  0.23957510  1
  Mn  Mn55  1  0.35593092  0.89920919  0.75002061  1
  Mn  Mn56  1  0.85912794  0.40448476  0.24757009  1
  Mn  Mn57  1  0.86180888  0.40694564  0.75139945  1
  Mn  Mn58  1  0.85802508  0.91345105  0.24697037  1
  Mn  Mn59  1  0.85946722  0.89809428  0.75184229  1
  Fe  Fe60  1  0.01014832  0.99986779  0.00588594  1
  Fe  Fe61  1  0.00965768  0.49941332  0.00165812  1
  Fe  Fe62  1  0.50509764  0.00235677  0.00320392  1
  Fe  Fe63  1  0.76050609  0.75179381  0.00582527  1
  O  O64  1  0.12288895  0.11755156  0.48246921  1
  O  O65  1  0.13050958  0.12174952  0.98726033  1
  O  O66  1  0.12350284  0.61869450  0.48526612  1
  O  O67  1  0.13208689  0.61813127  0.98715894  1
  O  O68  1  0.62085398  0.11657114  0.48070696  1
  O  O69  1  0.62860978  0.11648487  0.98406894  1
  O  O70  1  0.62301305  0.61913914  0.48668875  1
  O  O71  1  0.62414068  0.61688552  0.98794521  1
  O  O72  1  0.15580402  0.39117899  0.03291143  1
  O  O73  1  0.13932131  0.37843695  0.51496293  1
  O  O74  1  0.14887804  0.88383367  0.02824361  1
  O  O75  1  0.13763852  0.87868270  0.51360768  1
  O  O76  1  0.64064473  0.37485738  0.01754955  1
  O  O77  1  0.63862797  0.38014361  0.51545017  1
  O  O78  1  0.64523008  0.88720332  0.02027029  1
  O  O79  1  0.63609079  0.87962627  0.51210761  1
  O  O80  1  0.37056444  0.11504039  0.48098186  1
  O  O81  1  0.37841119  0.12418234  0.98313895  1
  O  O82  1  0.37240441  0.61577672  0.48465099  1
  O  O83  1  0.37597108  0.62029572  0.97953532  1
  O  O84  1  0.87040172  0.11606100  0.48115784  1
  O  O85  1  0.87711705  0.11440542  0.98518838  1
  O  O86  1  0.87207814  0.61696311  0.48526433  1
  O  O87  1  0.87641763  0.61408316  0.98440903  1
  O  O88  1  0.39112012  0.39937698  0.02977695  1
  O  O89  1  0.38314331  0.37863852  0.50806417  1
  O  O90  1  0.38639414  0.89180605  0.02263714  1
  O  O91  1  0.38728258  0.88280597  0.51368270  1
  O  O92  1  0.89327460  0.38344145  0.02254431  1
  O  O93  1  0.88444961  0.38062622  0.51148272  1
  O  O94  1  0.90161880  0.88441132  0.02676892  1
  O  O95  1  0.88459421  0.88117194  0.51046311  1
  O  O96  1  0.10865696  0.10747869  0.13824764  1
  O  O97  1  0.08074219  0.09677034  0.62975651  1
  O  O98  1  0.09159538  0.61657534  0.13669603  1
  O  O99  1  0.07735223  0.59392043  0.63263083  1
  O  O100  1  0.60418492  0.10298758  0.13715407  1
  O  O101  1  0.58144034  0.09655905  0.62831398  1
  O  O102  1  0.59455830  0.59812080  0.13441389  1
  O  O103  1  0.57396685  0.59126083  0.63026188  1
  O  O104  1  0.45146540  0.40333795  0.36707318  1
  O  O105  1  0.45043994  0.40018624  0.87182408  1
  O  O106  1  0.44116078  0.90377063  0.36572999  1
  O  O107  1  0.44316759  0.90293678  0.86750405  1
  O  O108  1  0.95096450  0.40103717  0.36970593  1
  O  O109  1  0.96078176  0.39585863  0.87096781  1
  O  O110  1  0.95059266  0.90437168  0.36827680  1
  O  O111  1  0.95196668  0.90229591  0.86981293  1
  O  O112  1  0.34071424  0.26139845  0.13095474  1
  O  O113  1  0.33356856  0.28185449  0.62924059  1
  O  O114  1  0.34628854  0.75889267  0.12977413  1
  O  O115  1  0.32725185  0.78688301  0.63155084  1
  O  O116  1  0.83173703  0.26510478  0.12989231  1
  O  O117  1  0.83104373  0.28081714  0.62895580  1
  O  O118  1  0.85074735  0.77494375  0.13627659  1
  O  O119  1  0.82847573  0.78811491  0.63252961  1
  O  O120  1  0.18497420  0.20531592  0.36339469  1
  O  O121  1  0.20347046  0.22449270  0.87530842  1
  O  O122  1  0.19638102  0.71476356  0.36756059  1
  O  O123  1  0.19420602  0.71785026  0.87079126  1
  O  O124  1  0.68345541  0.21226117  0.36515454  1
  O  O125  1  0.70619131  0.21992179  0.87168179  1
  O  O126  1  0.68218817  0.70988814  0.36369202  1
  O  O127  1  0.69667342  0.71288454  0.86751325  1
  O  O128  1  0.40963466  0.07690119  0.23589463  1
  O  O129  1  0.42220190  0.06391835  0.75001197  1
  O  O130  1  0.40930816  0.58160681  0.23617946  1
  O  O131  1  0.42509497  0.58282662  0.74977185  1
  O  O132  1  0.91073791  0.08440304  0.23506987  1
  O  O133  1  0.92243115  0.06301377  0.75093343  1
  O  O134  1  0.92908865  0.57836516  0.24989302  1
  O  O135  1  0.92465104  0.58330749  0.75116149  1
  O  O136  1  0.17138263  0.43744309  0.24945549  1
  O  O137  1  0.17250544  0.43651939  0.75070084  1
  O  O138  1  0.15266966  0.92036309  0.23547373  1
  O  O139  1  0.17373730  0.91580620  0.75108543  1
  O  O140  1  0.67188994  0.43756033  0.25002478  1
  O  O141  1  0.67264715  0.43505965  0.75097139  1
  O  O142  1  0.67005038  0.93755913  0.24926294  1
  O  O143  1  0.67488489  0.91332811  0.75092323  1
