# generated using pymatgen
data_Li9Mn2Co5O16
_symmetry_space_group_name_H-M   'P 1'
_cell_length_a   5.73462627
_cell_length_b   6.51303862
_cell_length_c   8.95365232
_cell_angle_alpha   81.67742474
_cell_angle_beta   71.32258686
_cell_angle_gamma   63.88067985
_symmetry_Int_Tables_number   1
_chemical_formula_structural   Li9Mn2Co5O16
_chemical_formula_sum   'Li9 Mn2 Co5 O16'
_cell_volume   284.45067165
_cell_formula_units_Z   1
loop_
 _symmetry_equiv_pos_site_id
 _symmetry_equiv_pos_as_xyz
  1  'x, y, z'
loop_
 _atom_site_type_symbol
 _atom_site_label
 _atom_site_symmetry_multiplicity
 _atom_site_fract_x
 _atom_site_fract_y
 _atom_site_fract_z
 _atom_site_occupancy
  Li  Li0  1  0.49664752  0.24948346  0.25722150  1
  Li  Li1  1  0.00289455  0.74860171  0.74560919  1
  Li  Li2  1  0.24743034  0.00418443  0.50820358  1
  Li  Li3  1  0.75352822  0.49789718  0.99006659  1
  Li  Li4  1  0.25850801  0.49789718  0.99006659  1
  Li  Li5  1  0.74018166  0.00418443  0.50820358  1
  Li  Li6  1  0.99289852  0.25898850  0.25521447  1
  Li  Li7  1  0.50583795  0.74265169  0.74567240  1
  Li  Li8  1  0.75017002  0.25273257  0.74692739  1
  Mn  Mn9  1  -0.00093277  0.00261542  0.99596297  1
  Mn  Mn10  1  0.50235438  0.00261542  0.99596297  1
  Co  Co11  1  0.50235107  0.49466264  0.50827953  1
  Co  Co12  1  0.74816475  0.74900989  0.25466062  1
  Co  Co13  1  0.24852249  0.25177396  0.75118106  1
  Co  Co14  1  0.25205382  0.74228855  0.25360381  1
  Co  Co15  1  0.99470676  0.49466264  0.50827953  1
  O  O16  1  0.63451586  0.22539706  0.00557123  1
  O  O17  1  0.13592342  0.73740534  0.49074782  1
  O  O18  1  0.40166459  0.97769605  0.23044244  1
  O  O19  1  0.90388709  0.48426810  0.74183834  1
  O  O20  1  0.37000647  0.48426810  0.74183834  1
  O  O21  1  0.89019691  0.97769605  0.23044244  1
  O  O22  1  0.13151655  0.22398235  0.01298455  1
  O  O23  1  0.62830361  0.74481529  0.49857750  1
  O  O24  1  0.37281296  0.25527700  0.49909708  1
  O  O25  1  0.86539967  0.77843960  0.99076105  1
  O  O26  1  0.11772399  0.01802180  0.77284030  1
  O  O27  1  0.62110778  0.52013885  0.25027616  1
  O  O28  1  0.10847721  0.52013885  0.25027616  1
  O  O29  1  0.59141392  0.01802180  0.77284030  1
  O  O30  1  0.86957242  0.26703776  0.49381741  1
  O  O31  1  0.36216028  0.77314634  0.00253310  1
