# generated using pymatgen
data_Zn3Si3(MoO6)2
_symmetry_space_group_name_H-M   'P 1'
_cell_length_a   10.49227348
_cell_length_b   10.49227377
_cell_length_c   10.49227343
_cell_angle_alpha   109.47122185
_cell_angle_beta   109.47122240
_cell_angle_gamma   109.47121832
_symmetry_Int_Tables_number   1
_chemical_formula_structural   Zn3Si3(MoO6)2
_chemical_formula_sum   'Zn12 Si12 Mo8 O48'
_cell_volume   889.17434032
_cell_formula_units_Z   4
loop_
 _symmetry_equiv_pos_site_id
 _symmetry_equiv_pos_as_xyz
  1  'x, y, z'
loop_
 _atom_site_type_symbol
 _atom_site_label
 _atom_site_symmetry_multiplicity
 _atom_site_fract_x
 _atom_site_fract_y
 _atom_site_fract_z
 _atom_site_occupancy
  Zn  Zn0  1  0.37500000  0.75000000  0.12500000  1
  Zn  Zn1  1  0.12500000  0.25000000  0.37500000  1
  Zn  Zn2  1  0.37500000  0.12500000  0.25000000  1
  Zn  Zn3  1  0.12500000  0.37500000  0.75000000  1
  Zn  Zn4  1  0.87500000  0.75000000  0.62500000  1
  Zn  Zn5  1  0.75000000  0.12500000  0.37500000  1
  Zn  Zn6  1  0.75000000  0.62500000  0.87500000  1
  Zn  Zn7  1  0.62500000  0.25000000  0.87500000  1
  Zn  Zn8  1  0.25000000  0.87500000  0.62500000  1
  Zn  Zn9  1  0.87500000  0.62500000  0.25000000  1
  Zn  Zn10  1  0.62500000  0.87500000  0.75000000  1
  Zn  Zn11  1  0.25000000  0.37500000  0.12500000  1
  Si  Si12  1  0.25000000  0.12500000  0.87500000  1
  Si  Si13  1  0.75000000  0.87500000  0.12500000  1
  Si  Si14  1  0.37500000  0.25000000  0.62500000  1
  Si  Si15  1  0.62500000  0.37500000  0.25000000  1
  Si  Si16  1  0.12500000  0.75000000  0.87500000  1
  Si  Si17  1  0.87500000  0.12500000  0.75000000  1
  Si  Si18  1  0.75000000  0.37500000  0.62500000  1
  Si  Si19  1  0.37500000  0.62500000  0.75000000  1
  Si  Si20  1  0.12500000  0.87500000  0.25000000  1
  Si  Si21  1  0.87500000  0.25000000  0.12500000  1
  Si  Si22  1  0.62500000  0.75000000  0.37500000  1
  Si  Si23  1  0.25000000  0.62500000  0.37500000  1
  Mo  Mo24  1  0.00000000  0.00000000  0.00000000  1
  Mo  Mo25  1  0.00000000  0.50000000  0.00000000  1
  Mo  Mo26  1  0.00000000  0.00000000  0.50000000  1
  Mo  Mo27  1  0.00000000  0.50000000  0.50000000  1
  Mo  Mo28  1  0.50000000  0.00000000  0.50000000  1
  Mo  Mo29  1  0.50000000  0.50000000  0.00000000  1
  Mo  Mo30  1  0.50000000  0.50000000  0.50000000  1
  Mo  Mo31  1  0.50000000  0.00000000  0.00000000  1
  O  O32  1  0.28107012  0.47946747  0.37328448  1
  O  O33  1  0.02053253  0.30160265  0.89381701  1
  O  O34  1  0.12671552  0.60618299  0.90778565  1
  O  O35  1  0.21892988  0.59221435  0.19839735  1
  O  O36  1  0.21892988  0.12671552  0.02053253  1
  O  O37  1  0.59221435  0.19839735  0.21892988  1
  O  O38  1  0.60618299  0.19839735  0.47946747  1
  O  O39  1  0.19839735  0.21892988  0.59221435  1
  O  O40  1  0.89381701  0.37328448  0.59221435  1
  O  O41  1  0.30160265  0.90778565  0.28107012  1
  O  O42  1  0.90778565  0.28107012  0.30160265  1
  O  O43  1  0.02053253  0.21892988  0.12671552  1
  O  O44  1  0.19839735  0.47946747  0.60618299  1
  O  O45  1  0.59221435  0.89381701  0.37328448  1
  O  O46  1  0.12671552  0.02053253  0.21892988  1
  O  O47  1  0.47946747  0.60618299  0.19839735  1
  O  O48  1  0.37328448  0.59221435  0.89381701  1
  O  O49  1  0.89381701  0.02053253  0.30160265  1
  O  O50  1  0.60618299  0.90778565  0.12671552  1
  O  O51  1  0.10618299  0.62671552  0.40778565  1
  O  O52  1  0.90778565  0.12671552  0.60618299  1
  O  O53  1  0.37328448  0.28107012  0.47946747  1
  O  O54  1  0.30160265  0.89381701  0.02053253  1
  O  O55  1  0.28107012  0.30160265  0.90778565  1
  O  O56  1  0.71892988  0.52053253  0.62671552  1
  O  O57  1  0.97946747  0.69839735  0.10618299  1
  O  O58  1  0.87328448  0.39381701  0.09221435  1
  O  O59  1  0.78107012  0.40778565  0.80160265  1
  O  O60  1  0.78107012  0.87328448  0.97946747  1
  O  O61  1  0.40778565  0.80160265  0.78107012  1
  O  O62  1  0.39381701  0.80160265  0.52053253  1
  O  O63  1  0.80160265  0.78107012  0.40778565  1
  O  O64  1  0.71892988  0.69839735  0.09221435  1
  O  O65  1  0.69839735  0.10618299  0.97946747  1
  O  O66  1  0.62671552  0.71892988  0.52053253  1
  O  O67  1  0.52053253  0.62671552  0.71892988  1
  O  O68  1  0.09221435  0.87328448  0.39381701  1
  O  O69  1  0.39381701  0.09221435  0.87328448  1
  O  O70  1  0.10618299  0.97946747  0.69839735  1
  O  O71  1  0.62671552  0.40778565  0.10618299  1
  O  O72  1  0.52053253  0.39381701  0.80160265  1
  O  O73  1  0.87328448  0.97946747  0.78107012  1
  O  O74  1  0.40778565  0.10618299  0.62671552  1
  O  O75  1  0.80160265  0.52053253  0.39381701  1
  O  O76  1  0.97946747  0.78107012  0.87328448  1
  O  O77  1  0.09221435  0.71892988  0.69839735  1
  O  O78  1  0.69839735  0.09221435  0.71892988  1
  O  O79  1  0.47946747  0.37328448  0.28107012  1
