# generated using pymatgen
data_CaC2(SN)2
_symmetry_space_group_name_H-M   'P 1'
_cell_length_a   6.00850047
_cell_length_b   6.00850047
_cell_length_c   7.80107291
_cell_angle_alpha   90.60828449
_cell_angle_beta   90.60828447
_cell_angle_gamma   64.17925237
_symmetry_Int_Tables_number   1
_chemical_formula_structural   CaC2(SN)2
_chemical_formula_sum   'Ca2 C4 S4 N4'
_cell_volume   253.49691697
_cell_formula_units_Z   2
loop_
 _symmetry_equiv_pos_site_id
 _symmetry_equiv_pos_as_xyz
  1  'x, y, z'
loop_
 _atom_site_type_symbol
 _atom_site_label
 _atom_site_symmetry_multiplicity
 _atom_site_fract_x
 _atom_site_fract_y
 _atom_site_fract_z
 _atom_site_occupancy
  C  C0  1  0.74320824  0.02278009  0.89772050  1
  C  C1  1  0.02278009  0.74320824  0.39772050  1
  C  C2  1  0.25679176  0.97721991  0.10227950  1
  C  C3  1  0.97721991  0.25679176  0.60227950  1
  N  N4  1  0.65116596  0.23096355  0.94944942  1
  N  N5  1  0.23096355  0.65116596  0.44944942  1
  N  N6  1  0.76903645  0.34883404  0.55055058  1
  N  N7  1  0.34883404  0.76903645  0.05055058  1
  S  S8  1  0.86129434  0.74198741  0.82547483  1
  S  S9  1  0.25801259  0.13870566  0.67452517  1
  S  S10  1  0.13870566  0.25801259  0.17452517  1
  S  S11  1  0.74198741  0.86129434  0.32547483  1
  Ca  Ca12  1  0.41178891  0.58821109  0.75000000  1
  Ca  Ca13  1  0.58821109  0.41178891  0.25000000  1
