# generated using pymatgen
data_Li9Mn2Co5O16
_symmetry_space_group_name_H-M   'P 1'
_cell_length_a   5.80966363
_cell_length_b   5.89309886
_cell_length_c   8.45610408
_cell_angle_alpha   89.74084697
_cell_angle_beta   90.00000000
_cell_angle_gamma   90.00000000
_symmetry_Int_Tables_number   1
_chemical_formula_structural   Li9Mn2Co5O16
_chemical_formula_sum   'Li9 Mn2 Co5 O16'
_cell_volume   289.50801543
_cell_formula_units_Z   1
loop_
 _symmetry_equiv_pos_site_id
 _symmetry_equiv_pos_as_xyz
  1  'x, y, z'
loop_
 _atom_site_type_symbol
 _atom_site_label
 _atom_site_symmetry_multiplicity
 _atom_site_fract_x
 _atom_site_fract_y
 _atom_site_fract_z
 _atom_site_occupancy
  Li  Li0  1  0.75385813  0.25130128  0.25899469  1
  Li  Li1  1  0.75385813  0.74869872  0.74100531  1
  Li  Li2  1  0.50000000  0.00000000  0.50000000  1
  Li  Li3  1  0.50000000  0.50000000  -0.00000000  1
  Li  Li4  1  0.24614187  0.74869872  0.74100531  1
  Li  Li5  1  0.24614187  0.25130128  0.25899469  1
  Li  Li6  1  -0.00000000  0.50000000  -0.00000000  1
  Li  Li7  1  -0.00000000  0.00000000  0.50000000  1
  Li  Li8  1  -0.00000000  0.50000000  0.50000000  1
  Mn  Mn9  1  -0.00000000  0.00000000  -0.00000000  1
  Mn  Mn10  1  0.50000000  0.50000000  0.50000000  1
  Co  Co11  1  0.75454785  0.74550635  0.26025992  1
  Co  Co12  1  0.75454785  0.25449365  0.73974008  1
  Co  Co13  1  0.50000000  0.00000000  -0.00000000  1
  Co  Co14  1  0.24545215  0.25449365  0.73974008  1
  Co  Co15  1  0.24545215  0.74550635  0.26025992  1
  O  O16  1  0.75665995  0.22728158  0.00110395  1
  O  O17  1  0.73710184  0.73636084  0.49409649  1
  O  O18  1  0.50000000  0.97148921  0.24330974  1
  O  O19  1  0.50000000  0.49945486  0.72911822  1
  O  O20  1  0.26289816  0.73636084  0.49409649  1
  O  O21  1  0.24334005  0.22728158  0.00110395  1
  O  O22  1  -0.00000000  0.47286820  0.75685453  1
  O  O23  1  -0.00000000  0.99396370  0.23221015  1
  O  O24  1  0.73710184  0.26363916  0.50590351  1
  O  O25  1  0.75665995  0.77271842  0.99889605  1
  O  O26  1  0.50000000  0.02851079  0.75669026  1
  O  O27  1  0.50000000  0.50054514  0.27088178  1
  O  O28  1  0.24334005  0.77271842  0.99889605  1
  O  O29  1  0.26289816  0.26363916  0.50590351  1
  O  O30  1  -0.00000000  0.52713180  0.24314547  1
  O  O31  1  -0.00000000  0.00603630  0.76778985  1
