# generated using pymatgen
data_Li9Mn2Co5O16
_symmetry_space_group_name_H-M   'P 1'
_cell_length_a   5.80170162
_cell_length_b   5.86492736
_cell_length_c   8.95948243
_cell_angle_alpha   89.45129185
_cell_angle_beta   71.10865896
_cell_angle_gamma   90.00000251
_symmetry_Int_Tables_number   1
_chemical_formula_structural   Li9Mn2Co5O16
_chemical_formula_sum   'Li9 Mn2 Co5 O16'
_cell_volume   288.42406147
_cell_formula_units_Z   1
loop_
 _symmetry_equiv_pos_site_id
 _symmetry_equiv_pos_as_xyz
  1  'x, y, z'
loop_
 _atom_site_type_symbol
 _atom_site_label
 _atom_site_symmetry_multiplicity
 _atom_site_fract_x
 _atom_site_fract_y
 _atom_site_fract_z
 _atom_site_occupancy
  Li  Li0  1  0.62181196  0.25124086  0.25637608  1
  Li  Li1  1  0.37869385  0.74625482  0.74261231  1
  Li  Li2  1  0.26138870  0.99483255  0.49364834  1
  Li  Li3  1  0.99431938  0.50181464  0.00746471  1
  Li  Li4  1  0.87812432  0.74981103  0.74375136  1
  Li  Li5  1  0.49821591  0.50181464  0.00746471  1
  Li  Li6  1  0.12387592  0.24915069  0.25224817  1
  Li  Li7  1  0.74496297  0.99483255  0.49364834  1
  Li  Li8  1  0.62278566  0.75105845  0.25442867  1
  Mn  Mn9  1  0.99921678  0.99756455  0.00373427  1
  Mn  Mn10  1  0.49704895  0.99756455  0.00373427  1
  Co  Co11  1  0.74889882  0.50943914  0.48841916  1
  Co  Co12  1  0.26268201  0.50943914  0.48841916  1
  Co  Co13  1  0.37493328  0.25317347  0.75013344  1
  Co  Co14  1  0.12331229  0.74843486  0.25337541  1
  Co  Co15  1  0.88372743  0.25584871  0.73254514  1
  O  O16  1  0.74858913  0.22402462  0.00282173  1
  O  O17  1  0.49808005  0.74118402  0.50383990  1
  O  O18  1  0.37194280  0.97979144  0.22944184  1
  O  O19  1  0.13795162  0.47871599  0.74625958  1
  O  O20  1  0.99566751  0.74137989  0.50866498  1
  O  O21  1  0.61578880  0.47871599  0.74625958  1
  O  O22  1  0.24622227  0.22367884  0.00755545  1
  O  O23  1  0.89861537  0.97979144  0.22944184  1
  O  O24  1  0.50397708  0.26196328  0.49204584  1
  O  O25  1  0.25387852  0.77416130  0.99224295  1
  O  O26  1  0.12473241  0.02377846  0.77069801  1
  O  O27  1  0.88541404  0.51422242  0.26108643  1
  O  O28  1  0.75416850  0.77718332  0.99166300  1
  O  O29  1  0.35349953  0.51422242  0.26108643  1
  O  O30  1  0.99290454  0.25113346  0.51419091  1
  O  O31  1  0.60456958  0.02377846  0.77069801  1
