# generated using pymatgen
data_V(PO3)5
_symmetry_space_group_name_H-M   'P 1'
_cell_length_a   12.47457190
_cell_length_b   9.69966800
_cell_length_c   5.22836206
_cell_angle_alpha   90.00000000
_cell_angle_beta   94.30513270
_cell_angle_gamma   90.00000000
_symmetry_Int_Tables_number   1
_chemical_formula_structural   V(PO3)5
_chemical_formula_sum   'V2 P10 O30'
_cell_volume   630.84264345
_cell_formula_units_Z   2
loop_
 _symmetry_equiv_pos_site_id
 _symmetry_equiv_pos_as_xyz
  1  'x, y, z'
loop_
 _atom_site_type_symbol
 _atom_site_label
 _atom_site_symmetry_multiplicity
 _atom_site_fract_x
 _atom_site_fract_y
 _atom_site_fract_z
 _atom_site_occupancy
  V  V0  1  0.49498630  0.99491359  0.50412278  1
  V  V1  1  0.99498630  0.00508641  0.00412278  1
  P  P2  1  0.08334482  0.18300039  0.50272874  1
  P  P3  1  0.14410951  0.47748178  0.61577135  1
  P  P4  1  0.24485332  0.01653482  0.25714858  1
  P  P5  1  0.36128966  0.47348336  0.88079870  1
  P  P6  1  0.40955946  0.17646828  0.00752155  1
  P  P7  1  0.58334482  0.81699961  0.00272874  1
  P  P8  1  0.64410951  0.52251822  0.11577135  1
  P  P9  1  0.74485332  0.98346518  0.75714858  1
  P  P10  1  0.86128966  0.52651664  0.38079870  1
  P  P11  1  0.90955946  0.82353172  0.50752155  1
  O  O12  1  0.00505872  0.13542266  0.28265316  1
  O  O13  1  0.05175149  0.14928053  0.76797390  1
  O  O14  1  0.06807088  0.51227290  0.81434378  1
  O  O15  1  0.10333476  0.33941598  0.45503966  1
  O  O16  1  0.16403155  0.59245007  0.43459274  1
  O  O17  1  0.14981990  0.94367481  0.12295343  1
  O  O18  1  0.20017704  0.11574254  0.47267229  1
  O  O19  1  0.25206282  0.40823518  0.74764736  1
  O  O20  1  0.29032247  0.12126743  0.05101010  1
  O  O21  1  0.33885117  0.93839199  0.38387288  1
  O  O22  1  0.34375584  0.59011949  0.06013475  1
  O  O23  1  0.39850004  0.33511910  0.04524617  1
  O  O24  1  0.43630710  0.13585733  0.74160757  1
  O  O25  1  0.43853216  0.50380742  0.68257898  1
  O  O26  1  0.48760699  0.12551508  0.22528953  1
  O  O27  1  0.50505872  0.86457734  0.78265316  1
  O  O28  1  0.55175149  0.85071947  0.26797390  1
  O  O29  1  0.56807088  0.48772710  0.31434378  1
  O  O30  1  0.60333476  0.66058402  0.95503966  1
  O  O31  1  0.66403155  0.40754993  0.93459274  1
  O  O32  1  0.64981990  0.05632519  0.62295343  1
  O  O33  1  0.70017704  0.88425746  0.97267229  1
  O  O34  1  0.75206282  0.59176482  0.24764736  1
  O  O35  1  0.79032247  0.87873257  0.55101010  1
  O  O36  1  0.83885117  0.06160801  0.88387288  1
  O  O37  1  0.84375584  0.40988051  0.56013475  1
  O  O38  1  0.89850004  0.66488090  0.54524617  1
  O  O39  1  0.93630710  0.86414267  0.24160757  1
  O  O40  1  0.93853216  0.49619258  0.18257898  1
  O  O41  1  0.98760699  0.87448492  0.72528953  1
