# generated using pymatgen
data_KMn2(MoO5)2
_symmetry_space_group_name_H-M   'P 1'
_cell_length_a   5.98636341
_cell_length_b   5.98636341
_cell_length_c   8.43619560
_cell_angle_alpha   66.40764172
_cell_angle_beta   66.40764172
_cell_angle_gamma   63.74581008
_symmetry_Int_Tables_number   1
_chemical_formula_structural   KMn2(MoO5)2
_chemical_formula_sum   'K1 Mn2 Mo2 O10'
_cell_volume   239.13697131
_cell_formula_units_Z   1
loop_
 _symmetry_equiv_pos_site_id
 _symmetry_equiv_pos_as_xyz
  1  'x, y, z'
loop_
 _atom_site_type_symbol
 _atom_site_label
 _atom_site_symmetry_multiplicity
 _atom_site_fract_x
 _atom_site_fract_y
 _atom_site_fract_z
 _atom_site_occupancy
  K  K0  1  0.50000000  0.50000000  0.50000000  1
  Mn  Mn1  1  -0.00000000  0.50000000  0.00000000  1
  Mn  Mn2  1  0.50000000  -0.00000000  0.00000000  1
  Mo  Mo3  1  0.07192906  0.07192906  0.72962685  1
  Mo  Mo4  1  0.92807094  0.92807094  0.27037315  1
  O  O5  1  0.69195929  0.69195929  0.93467185  1
  O  O6  1  0.30804071  0.30804071  0.06532815  1
  O  O7  1  0.20215764  0.20215764  0.50207142  1
  O  O8  1  0.79784236  0.79784236  0.49792858  1
  O  O9  1  0.81774455  0.27827868  0.22232232  1
  O  O10  1  0.72172132  0.18225545  0.77767768  1
  O  O11  1  0.18225545  0.72172132  0.77767768  1
  O  O12  1  0.27827868  0.81774455  0.22232232  1
  O  O13  1  0.17263308  0.17263308  0.86157668  1
  O  O14  1  0.82736692  0.82736692  0.13842332  1
