# generated using pymatgen
data_TmInO3
_symmetry_space_group_name_H-M   'P 1'
_cell_length_a   5.78780872
_cell_length_b   8.29024669
_cell_length_c   5.45997244
_cell_angle_alpha   90.00000000
_cell_angle_beta   90.00000000
_cell_angle_gamma   90.00000000
_symmetry_Int_Tables_number   1
_chemical_formula_structural   TmInO3
_chemical_formula_sum   'Tm4 In4 O12'
_cell_volume   261.98237458
_cell_formula_units_Z   4
loop_
 _symmetry_equiv_pos_site_id
 _symmetry_equiv_pos_as_xyz
  1  'x, y, z'
loop_
 _atom_site_type_symbol
 _atom_site_label
 _atom_site_symmetry_multiplicity
 _atom_site_fract_x
 _atom_site_fract_y
 _atom_site_fract_z
 _atom_site_occupancy
  Tm  Tm0  1  0.06501072  0.75000000  0.97429474  1
  Tm  Tm1  1  0.43498928  0.25000000  0.47429474  1
  Tm  Tm2  1  0.56501072  0.75000000  0.52570526  1
  Tm  Tm3  1  0.93498928  0.25000000  0.02570526  1
  In  In4  1  -0.00000000  -0.00000000  0.50000000  1
  In  In5  1  -0.00000000  0.50000000  0.50000000  1
  In  In6  1  0.50000000  -0.00000000  0.00000000  1
  In  In7  1  0.50000000  0.50000000  -0.00000000  1
  O  O8  1  0.07773581  0.25000000  0.65321337  1
  O  O9  1  0.18993222  0.08056033  0.18665685  1
  O  O10  1  0.18993222  0.41943967  0.18665685  1
  O  O11  1  0.31006778  0.58056033  0.68665685  1
  O  O12  1  0.31006778  0.91943967  0.68665685  1
  O  O13  1  0.42226419  0.75000000  0.15321337  1
  O  O14  1  0.57773581  0.25000000  0.84678663  1
  O  O15  1  0.68993222  0.08056033  0.31334315  1
  O  O16  1  0.68993222  0.41943967  0.31334315  1
  O  O17  1  0.81006778  0.58056033  0.81334315  1
  O  O18  1  0.81006778  0.91943967  0.81334315  1
  O  O19  1  0.92226419  0.75000000  0.34678663  1
