# generated using pymatgen
data_CuSO5
_symmetry_space_group_name_H-M   'P 1'
_cell_length_a   5.39198068
_cell_length_b   5.62082207
_cell_length_c   8.18952894
_cell_angle_alpha   119.34779337
_cell_angle_beta   116.08415252
_cell_angle_gamma   90.30856434
_symmetry_Int_Tables_number   1
_chemical_formula_structural   CuSO5
_chemical_formula_sum   'Cu2 S2 O10'
_cell_volume   186.41921775
_cell_formula_units_Z   2
loop_
 _symmetry_equiv_pos_site_id
 _symmetry_equiv_pos_as_xyz
  1  'x, y, z'
loop_
 _atom_site_type_symbol
 _atom_site_label
 _atom_site_symmetry_multiplicity
 _atom_site_fract_x
 _atom_site_fract_y
 _atom_site_fract_z
 _atom_site_occupancy
  Cu  Cu0  1  -0.00000000  -0.00000000  -0.00000000  1
  Cu  Cu1  1  0.50000000  0.50000000  0.50000000  1
  S  S2  1  0.40550623  0.06571965  0.75468974  1
  S  S3  1  0.59449377  0.93428035  0.24531026  1
  O  O4  1  0.84331619  0.66298338  0.74353423  1
  O  O5  1  0.15668381  0.33701662  0.25646577  1
  O  O6  1  0.27903956  0.16960919  0.89349639  1
  O  O7  1  0.72096044  0.83039081  0.10650361  1
  O  O8  1  0.73309577  0.17314912  0.88569058  1
  O  O9  1  0.26690423  0.82685088  0.11430942  1
  O  O10  1  0.32088929  0.74294695  0.64111748  1
  O  O11  1  0.67911071  0.25705305  0.35888252  1
  O  O12  1  0.31608048  0.15929676  0.60554473  1
  O  O13  1  0.68391952  0.84070324  0.39445527  1
