# generated using pymatgen
data_Mg2TaCuO6
_symmetry_space_group_name_H-M   'P 1'
_cell_length_a   5.16164040
_cell_length_b   5.43788928
_cell_length_c   7.51650266
_cell_angle_alpha   90.00000000
_cell_angle_beta   90.00000000
_cell_angle_gamma   86.51290014
_symmetry_Int_Tables_number   1
_chemical_formula_structural   Mg2TaCuO6
_chemical_formula_sum   'Mg4 Ta2 Cu2 O12'
_cell_volume   210.58580234
_cell_formula_units_Z   2
loop_
 _symmetry_equiv_pos_site_id
 _symmetry_equiv_pos_as_xyz
  1  'x, y, z'
loop_
 _atom_site_type_symbol
 _atom_site_label
 _atom_site_symmetry_multiplicity
 _atom_site_fract_x
 _atom_site_fract_y
 _atom_site_fract_z
 _atom_site_occupancy
  Mg  Mg0  1  0.02689634  0.94894134  0.25000000  1
  Mg  Mg1  1  0.49377369  0.42824427  0.25000000  1
  Mg  Mg2  1  0.50622631  0.57175573  0.75000000  1
  Mg  Mg3  1  0.97310366  0.05105866  0.75000000  1
  Ta  Ta4  1  0.00000000  0.50000000  0.00000000  1
  Ta  Ta5  1  0.00000000  0.50000000  0.50000000  1
  Cu  Cu6  1  0.50000000  0.00000000  0.00000000  1
  Cu  Cu7  1  0.50000000  0.00000000  0.50000000  1
  O  O8  1  0.81823741  0.81831491  0.56543096  1
  O  O9  1  0.30601719  0.67474228  0.42928388  1
  O  O10  1  0.18176259  0.18168509  0.43456904  1
  O  O11  1  0.69398281  0.32525772  0.92928388  1
  O  O12  1  0.13613199  0.44880753  0.75000000  1
  O  O13  1  0.69398281  0.32525772  0.57071612  1
  O  O14  1  0.30601719  0.67474228  0.07071612  1
  O  O15  1  0.81823741  0.81831491  0.93456904  1
  O  O16  1  0.63258146  0.06416650  0.25000000  1
  O  O17  1  0.18176259  0.18168509  0.06543096  1
  O  O18  1  0.36741854  0.93583350  0.75000000  1
  O  O19  1  0.86386801  0.55119247  0.25000000  1
