# generated using pymatgen
data_HgH4C2(N2Cl)2
_symmetry_space_group_name_H-M   'P 1'
_cell_length_a   4.13845416
_cell_length_b   7.17562338
_cell_length_c   6.91505892
_cell_angle_alpha   80.67049537
_cell_angle_beta   85.23830428
_cell_angle_gamma   85.84775238
_symmetry_Int_Tables_number   1
_chemical_formula_structural   HgH4C2(N2Cl)2
_chemical_formula_sum   'Hg1 H4 C2 N4 Cl2'
_cell_volume   201.57068418
_cell_formula_units_Z   1
loop_
 _symmetry_equiv_pos_site_id
 _symmetry_equiv_pos_as_xyz
  1  'x, y, z'
loop_
 _atom_site_type_symbol
 _atom_site_label
 _atom_site_symmetry_multiplicity
 _atom_site_fract_x
 _atom_site_fract_y
 _atom_site_fract_z
 _atom_site_occupancy
  Hg  Hg0  1  0.96508309  0.03083634  0.96176776  1
  H  H1  1  0.16245349  0.81070618  0.40329500  1
  H  H2  1  0.02068394  0.64865494  0.60706225  1
  H  H3  1  0.75362948  0.32695451  0.33401542  1
  H  H4  1  0.80343422  0.38511232  0.56727211  1
  C  C5  1  0.95641664  0.53084818  0.01289991  1
  C  C6  1  0.96471833  0.57806389  0.33715638  1
  N  N7  1  0.01699379  0.63398245  0.14242645  1
  N  N8  1  0.91301333  0.45193896  0.88012527  1
  N  N9  1  0.04946986  0.69103442  0.45888205  1
  N  N10  1  0.83327545  0.41587128  0.41814579  1
  Cl  Cl11  1  0.38068838  0.98201427  0.71773926  1
  Cl  Cl12  1  0.54663000  0.06872227  0.21155234  1
