# generated using pymatgen
data_Fe3(P2O7)2
_symmetry_space_group_name_H-M   'P 1'
_cell_length_a   5.69609244
_cell_length_b   6.85864195
_cell_length_c   7.60605120
_cell_angle_alpha   77.99959520
_cell_angle_beta   76.29552403
_cell_angle_gamma   72.23544229
_symmetry_Int_Tables_number   1
_chemical_formula_structural   Fe3(P2O7)2
_chemical_formula_sum   'Fe3 P4 O14'
_cell_volume   271.95394373
_cell_formula_units_Z   1
loop_
 _symmetry_equiv_pos_site_id
 _symmetry_equiv_pos_as_xyz
  1  'x, y, z'
loop_
 _atom_site_type_symbol
 _atom_site_label
 _atom_site_symmetry_multiplicity
 _atom_site_fract_x
 _atom_site_fract_y
 _atom_site_fract_z
 _atom_site_occupancy
  Fe  Fe0  1  0.76490384  0.51299336  0.66723303  1
  Fe  Fe1  1  0.24256313  0.48273815  0.33681648  1
  Fe  Fe2  1  0.95273167  0.02799204  0.98508168  1
  P  P3  1  0.21815432  0.70454452  0.66884708  1
  P  P4  1  0.37699858  0.29306613  0.93939970  1
  P  P5  1  0.61765034  0.70072188  0.06669492  1
  P  P6  1  0.80048245  0.29891355  0.31872378  1
  O  O7  1  0.47356937  0.70692398  0.55707005  1
  O  O8  1  0.72644584  0.85979001  0.11149458  1
  O  O9  1  0.95601204  0.34925578  0.43916830  1
  O  O10  1  0.25633661  0.13753701  0.90504723  1
  O  O11  1  0.06495858  0.64848089  0.54915399  1
  O  O12  1  0.32877143  0.31812658  0.13937737  1
  O  O13  1  0.07028427  0.89027777  0.76532043  1
  O  O14  1  0.24230415  0.50971331  0.83407390  1
  O  O15  1  0.91903061  0.10067314  0.23658811  1
  O  O16  1  0.53529757  0.31887659  0.43388514  1
  O  O17  1  0.64944080  0.69629453  0.86708942  1
  O  O18  1  0.66728729  0.25152077  0.86081586  1
  O  O19  1  0.79086235  0.47758307  0.14540114  1
  O  O20  1  0.34591675  0.71397495  0.17271981  1
