# generated using pymatgen
data_Ce4(CoB2)3
_symmetry_space_group_name_H-M   'P 1'
_cell_length_a   5.21436976
_cell_length_b   5.21436976
_cell_length_c   7.88988988
_cell_angle_alpha   70.70413426
_cell_angle_beta   70.70413426
_cell_angle_gamma   60.00000125
_symmetry_Int_Tables_number   1
_chemical_formula_structural   Ce4(CoB2)3
_chemical_formula_sum   'Ce4 Co3 B6'
_cell_volume   171.72662162
_cell_formula_units_Z   1
loop_
 _symmetry_equiv_pos_site_id
 _symmetry_equiv_pos_as_xyz
  1  'x, y, z'
loop_
 _atom_site_type_symbol
 _atom_site_label
 _atom_site_symmetry_multiplicity
 _atom_site_fract_x
 _atom_site_fract_y
 _atom_site_fract_z
 _atom_site_occupancy
  Ce  Ce0  1  0.26346972  0.26346972  0.20959084  1
  Ce  Ce1  1  0.73653028  0.73653028  0.79040916  1
  Ce  Ce2  1  0.40272128  0.40272128  0.79183616  1
  Ce  Ce3  1  0.59727872  0.59727872  0.20816384  1
  Co  Co4  1  0.00000000  0.00000000  -0.00000000  1
  Co  Co5  1  0.11340270  0.11340270  0.65979190  1
  Co  Co6  1  0.88659730  0.88659730  0.34020810  1
  B  B7  1  0.16903887  0.83096113  0.50000000  1
  B  B8  1  0.83096113  0.50000000  0.50000000  1
  B  B9  1  0.50000000  0.16903887  0.50000000  1
  B  B10  1  0.16903887  0.50000000  0.50000000  1
  B  B11  1  0.50000000  0.83096113  0.50000000  1
  B  B12  1  0.83096113  0.16903887  0.50000000  1
