# generated using pymatgen
data_Sr2VFeAsO3
_symmetry_space_group_name_H-M   'P 1'
_cell_length_a   4.02504770
_cell_length_b   4.02504770
_cell_length_c   16.43248442
_cell_angle_alpha   90.00000000
_cell_angle_beta   90.00000000
_cell_angle_gamma   90.00000000
_symmetry_Int_Tables_number   1
_chemical_formula_structural   Sr2VFeAsO3
_chemical_formula_sum   'Sr4 V2 Fe2 As2 O6'
_cell_volume   266.22282777
_cell_formula_units_Z   2
loop_
 _symmetry_equiv_pos_site_id
 _symmetry_equiv_pos_as_xyz
  1  'x, y, z'
loop_
 _atom_site_type_symbol
 _atom_site_label
 _atom_site_symmetry_multiplicity
 _atom_site_fract_x
 _atom_site_fract_y
 _atom_site_fract_z
 _atom_site_occupancy
  Sr  Sr0  1  0.25000000  0.25000000  0.79982949  1
  Sr  Sr1  1  0.75000000  0.75000000  0.20017051  1
  Sr  Sr2  1  0.25000000  0.25000000  0.58008826  1
  Sr  Sr3  1  0.75000000  0.75000000  0.41991174  1
  V  V4  1  0.75000000  0.75000000  0.68894109  1
  V  V5  1  0.25000000  0.25000000  0.31105891  1
  Fe  Fe6  1  0.25000000  0.75000000  0.00000000  1
  Fe  Fe7  1  0.75000000  0.25000000  0.00000000  1
  As  As8  1  0.75000000  0.75000000  0.89991952  1
  As  As9  1  0.25000000  0.25000000  0.10008048  1
  O  O10  1  0.25000000  0.75000000  0.70426761  1
  O  O11  1  0.75000000  0.25000000  0.70426761  1
  O  O12  1  0.75000000  0.25000000  0.29573239  1
  O  O13  1  0.25000000  0.75000000  0.29573239  1
  O  O14  1  0.75000000  0.75000000  0.56732578  1
  O  O15  1  0.25000000  0.25000000  0.43267422  1
