# generated using pymatgen
data_K2NdCuCl6
_symmetry_space_group_name_H-M   'P 1'
_cell_length_a   7.44093721
_cell_length_b   7.44093699
_cell_length_c   7.44094016
_cell_angle_alpha   59.99950934
_cell_angle_beta   59.99952253
_cell_angle_gamma   59.99954674
_symmetry_Int_Tables_number   1
_chemical_formula_structural   K2NdCuCl6
_chemical_formula_sum   'K2 Nd1 Cu1 Cl6'
_cell_volume   291.31538093
_cell_formula_units_Z   1
loop_
 _symmetry_equiv_pos_site_id
 _symmetry_equiv_pos_as_xyz
  1  'x, y, z'
loop_
 _atom_site_type_symbol
 _atom_site_label
 _atom_site_symmetry_multiplicity
 _atom_site_fract_x
 _atom_site_fract_y
 _atom_site_fract_z
 _atom_site_occupancy
  K  K0  1  0.25000018  0.25000036  0.25000021  1
  K  K1  1  0.74999993  0.74999969  0.74999977  1
  Nd  Nd2  1  0.50000001  0.49999998  0.50000000  1
  Cu  Cu3  1  -0.00000002  -0.00000002  0.00000000  1
  Cl  Cl4  1  0.24133946  0.75865825  0.24133944  1
  Cl  Cl5  1  0.75866065  0.75866049  0.24134176  1
  Cl  Cl6  1  0.75866049  0.24134176  0.75866061  1
  Cl  Cl7  1  0.75865818  0.24133948  0.24133946  1
  Cl  Cl8  1  0.24134178  0.75866051  0.75866052  1
  Cl  Cl9  1  0.24133933  0.24133951  0.75865822  1
