# generated using pymatgen
data_TaZn2CuO6
_symmetry_space_group_name_H-M   'P 1'
_cell_length_a   5.39327504
_cell_length_b   5.62098869
_cell_length_c   7.43338279
_cell_angle_alpha   90.00000000
_cell_angle_beta   90.00000000
_cell_angle_gamma   78.45502981
_symmetry_Int_Tables_number   1
_chemical_formula_structural   TaZn2CuO6
_chemical_formula_sum   'Ta2 Zn4 Cu2 O12'
_cell_volume   220.78776083
_cell_formula_units_Z   2
loop_
 _symmetry_equiv_pos_site_id
 _symmetry_equiv_pos_as_xyz
  1  'x, y, z'
loop_
 _atom_site_type_symbol
 _atom_site_label
 _atom_site_symmetry_multiplicity
 _atom_site_fract_x
 _atom_site_fract_y
 _atom_site_fract_z
 _atom_site_occupancy
  Ta  Ta0  1  0.00000000  0.50000000  0.00000000  1
  Ta  Ta1  1  0.00000000  0.50000000  0.50000000  1
  Zn  Zn2  1  0.03223196  0.95563063  0.25000000  1
  Zn  Zn3  1  0.51166479  0.44202611  0.25000000  1
  Zn  Zn4  1  0.48833521  0.55797389  0.75000000  1
  Zn  Zn5  1  0.96776804  0.04436937  0.75000000  1
  Cu  Cu6  1  0.50000000  0.00000000  0.00000000  1
  Cu  Cu7  1  0.50000000  0.00000000  0.50000000  1
  O  O8  1  0.82173260  0.84092399  0.55839114  1
  O  O9  1  0.28451865  0.64963775  0.42556107  1
  O  O10  1  0.17826740  0.15907601  0.44160886  1
  O  O11  1  0.71548135  0.35036225  0.92556107  1
  O  O12  1  0.14393678  0.46362156  0.75000000  1
  O  O13  1  0.71548135  0.35036225  0.57443893  1
  O  O14  1  0.28451865  0.64963775  0.07443893  1
  O  O15  1  0.82173260  0.84092399  0.94160886  1
  O  O16  1  0.62794410  0.07216135  0.25000000  1
  O  O17  1  0.17826740  0.15907601  0.05839114  1
  O  O18  1  0.37205590  0.92783865  0.75000000  1
  O  O19  1  0.85606322  0.53637844  0.25000000  1
