# generated using pymatgen
data_Sr3Ca5Mn7FeO24
_symmetry_space_group_name_H-M   'P 1'
_cell_length_a   7.69839197
_cell_length_b   7.69760575
_cell_length_c   7.69818193
_cell_angle_alpha   89.99814468
_cell_angle_beta   89.99903746
_cell_angle_gamma   90.00257369
_symmetry_Int_Tables_number   1
_chemical_formula_structural   Sr3Ca5Mn7FeO24
_chemical_formula_sum   'Sr3 Ca5 Mn7 Fe1 O24'
_cell_volume   456.18799673
_cell_formula_units_Z   1
loop_
 _symmetry_equiv_pos_site_id
 _symmetry_equiv_pos_as_xyz
  1  'x, y, z'
loop_
 _atom_site_type_symbol
 _atom_site_label
 _atom_site_symmetry_multiplicity
 _atom_site_fract_x
 _atom_site_fract_y
 _atom_site_fract_z
 _atom_site_occupancy
  Sr  Sr0  1  0.24990326  0.24992055  0.24989947  1
  Sr  Sr1  1  0.24990133  0.24993461  0.75009271  1
  Sr  Sr2  1  0.75009735  0.24992693  0.75009452  1
  Ca  Ca3  1  0.24994860  0.75004523  0.24993773  1
  Ca  Ca4  1  0.24994499  0.75003545  0.75005100  1
  Ca  Ca5  1  0.75006502  0.24996761  0.24993915  1
  Ca  Ca6  1  0.75006580  0.75004199  0.24993615  1
  Ca  Ca7  1  0.75006574  0.75004477  0.75006161  1
  Mn  Mn8  1  0.99964261  0.99896867  0.49966204  1
  Mn  Mn9  1  0.99964975  0.50099661  0.00034486  1
  Mn  Mn10  1  0.99963216  0.50107123  0.49964126  1
  Mn  Mn11  1  0.50034202  0.99897118  0.00036158  1
  Mn  Mn12  1  0.50036457  0.99893640  0.49963750  1
  Mn  Mn13  1  0.50036637  0.50106716  0.00036766  1
  Mn  Mn14  1  0.50035549  0.50110982  0.49964746  1
  Fe  Fe15  1  0.99963033  0.99889839  0.00036656  1
  O  O16  1  0.25328028  0.99646276  0.00014865  1
  O  O17  1  0.25070939  0.99643687  0.49988371  1
  O  O18  1  0.25075039  0.50356718  0.00010256  1
  O  O19  1  0.25028008  0.50356836  0.49991618  1
  O  O20  1  0.74675299  0.99801563  0.00167880  1
  O  O21  1  0.74928466  0.99810974  0.49829399  1
  O  O22  1  0.74924629  0.50191322  0.00171317  1
  O  O23  1  0.74972359  0.50189158  0.49826472  1
  O  O24  1  0.99829927  0.25347955  0.00169505  1
  O  O25  1  0.99824961  0.25071494  0.49825356  1
  O  O26  1  0.99984254  0.74660187  0.00015896  1
  O  O27  1  -0.00008546  0.74928530  0.49990065  1
  O  O28  1  0.50174957  0.25071981  0.00175659  1
  O  O29  1  0.50175966  0.25030187  0.49823439  1
  O  O30  1  0.50009953  0.74928085  0.00007281  1
  O  O31  1  0.50008162  0.74972523  0.49991774  1
  O  O32  1  0.99832352  0.99801224  0.25321324  1
  O  O33  1  -0.00015253  0.99647816  0.74675039  1
  O  O34  1  0.99828841  0.50191193  0.25075227  1
  O  O35  1  0.99989954  0.50357446  0.74924747  1
  O  O36  1  0.50170433  0.99810174  0.25071844  1
  O  O37  1  0.50011337  0.99644479  0.74928596  1
  O  O38  1  0.50174015  0.50190201  0.25027923  1
  O  O39  1  0.50008382  0.50356332  0.74972026  1
