# generated using pymatgen
data_Y2Fe3(SiO4)3
_symmetry_space_group_name_H-M   'P 1'
_cell_length_a   10.69249652
_cell_length_b   10.69249603
_cell_length_c   10.69249617
_cell_angle_alpha   109.47122089
_cell_angle_beta   109.47121997
_cell_angle_gamma   109.47122223
_symmetry_Int_Tables_number   1
_chemical_formula_structural   Y2Fe3(SiO4)3
_chemical_formula_sum   'Y8 Fe12 Si12 O48'
_cell_volume   941.05589984
_cell_formula_units_Z   4
loop_
 _symmetry_equiv_pos_site_id
 _symmetry_equiv_pos_as_xyz
  1  'x, y, z'
loop_
 _atom_site_type_symbol
 _atom_site_label
 _atom_site_symmetry_multiplicity
 _atom_site_fract_x
 _atom_site_fract_y
 _atom_site_fract_z
 _atom_site_occupancy
  Y  Y0  1  0.50000000  0.00000000  0.00000000  1
  Y  Y1  1  0.00000000  0.00000000  0.00000000  1
  Y  Y2  1  0.00000000  0.50000000  0.00000000  1
  Y  Y3  1  0.00000000  0.00000000  0.50000000  1
  Y  Y4  1  0.00000000  0.50000000  0.50000100  1
  Y  Y5  1  0.50000000  0.00000000  0.50000100  1
  Y  Y6  1  0.50000000  0.50000000  0.00000000  1
  Y  Y7  1  0.50000000  0.50000000  0.50000000  1
  Fe  Fe8  1  0.25000000  0.87500100  0.62500000  1
  Fe  Fe9  1  0.87500000  0.62500000  0.25000000  1
  Fe  Fe10  1  0.62500100  0.87500100  0.75000100  1
  Fe  Fe11  1  0.87500100  0.75000100  0.62500100  1
  Fe  Fe12  1  0.62500000  0.25000000  0.87500000  1
  Fe  Fe13  1  0.75000000  0.62500000  0.87500000  1
  Fe  Fe14  1  0.75000000  0.12500000  0.37500000  1
  Fe  Fe15  1  0.12500000  0.37500000  0.75000000  1
  Fe  Fe16  1  0.37500000  0.12500000  0.25000000  1
  Fe  Fe17  1  0.12500000  0.25000000  0.37500000  1
  Fe  Fe18  1  0.37500000  0.75000100  0.12500000  1
  Fe  Fe19  1  0.25000000  0.37500000  0.12500000  1
  Si  Si20  1  0.25000000  0.12500000  0.87500000  1
  Si  Si21  1  0.87500000  0.25000000  0.12500000  1
  Si  Si22  1  0.62500000  0.75000100  0.37500000  1
  Si  Si23  1  0.25000000  0.62500000  0.37500100  1
  Si  Si24  1  0.37500000  0.62500000  0.75000000  1
  Si  Si25  1  0.75000000  0.37500000  0.62500000  1
  Si  Si26  1  0.87500000  0.12500000  0.75000000  1
  Si  Si27  1  0.12500000  0.75000100  0.87500000  1
  Si  Si28  1  0.12500000  0.87500100  0.25000000  1
  Si  Si29  1  0.62500000  0.37500000  0.25000000  1
  Si  Si30  1  0.37500000  0.25000000  0.62500000  1
  Si  Si31  1  0.75000000  0.87500100  0.12500000  1
  O  O32  1  0.27416459  0.47892046  0.37183948  1
  O  O33  1  0.02107954  0.29524413  0.89291902  1
  O  O34  1  0.12816052  0.60708098  0.90232511  1
  O  O35  1  0.22583441  0.59767489  0.20475587  1
  O  O36  1  0.22583441  0.12815952  0.02107854  1
  O  O37  1  0.59767389  0.20475487  0.22583441  1
  O  O38  1  0.60707998  0.20475487  0.47892046  1
  O  O39  1  0.20475587  0.22583441  0.59767589  1
  O  O40  1  0.89292002  0.37183948  0.59767489  1
  O  O41  1  0.29524513  0.90232511  0.27416559  1
  O  O42  1  0.90232511  0.27416559  0.29524513  1
  O  O43  1  0.02107954  0.22583441  0.12815952  1
  O  O44  1  0.20475587  0.47892046  0.60708098  1
  O  O45  1  0.59767489  0.89292002  0.37184048  1
  O  O46  1  0.12815952  0.02107854  0.22583441  1
  O  O47  1  0.47892046  0.60708098  0.20475487  1
  O  O48  1  0.37183948  0.59767489  0.89291902  1
  O  O49  1  0.89291902  0.02107854  0.29524413  1
  O  O50  1  0.60707998  0.90232511  0.12816052  1
  O  O51  1  0.10707998  0.62815952  0.40232511  1
  O  O52  1  0.47892046  0.37183948  0.27416459  1
  O  O53  1  0.37183948  0.27416559  0.47892046  1
  O  O54  1  0.29524513  0.89292002  0.02107954  1
  O  O55  1  0.27416459  0.29524413  0.90232411  1
  O  O56  1  0.72583441  0.52107854  0.62816052  1
  O  O57  1  0.97892046  0.70475487  0.10707998  1
  O  O58  1  0.87184048  0.39292002  0.09767489  1
  O  O59  1  0.77416559  0.40232511  0.79524513  1
  O  O60  1  0.77416459  0.87184048  0.97892146  1
  O  O61  1  0.40232511  0.79524413  0.77416459  1
  O  O62  1  0.39292002  0.79524413  0.52107854  1
  O  O63  1  0.79524513  0.77416559  0.40232511  1
  O  O64  1  0.72583441  0.70475487  0.09767489  1
  O  O65  1  0.70475587  0.10708098  0.97892046  1
  O  O66  1  0.62815952  0.72583541  0.52107954  1
  O  O67  1  0.52107954  0.62815952  0.72583441  1
  O  O68  1  0.09767489  0.87184048  0.39291902  1
  O  O69  1  0.39291902  0.09767389  0.87183948  1
  O  O70  1  0.10708098  0.97892046  0.70475487  1
  O  O71  1  0.62816052  0.40232511  0.10707998  1
  O  O72  1  0.52107954  0.39292002  0.79524513  1
  O  O73  1  0.87184048  0.97892046  0.77416559  1
  O  O74  1  0.40232611  0.10708098  0.62816052  1
  O  O75  1  0.79524413  0.52107854  0.39292002  1
  O  O76  1  0.97892046  0.77416559  0.87184048  1
  O  O77  1  0.09767589  0.72583541  0.70475587  1
  O  O78  1  0.70475487  0.09767389  0.72583441  1
  O  O79  1  0.90232511  0.12815952  0.60707998  1
