# generated using pymatgen
data_Cs2TaAgF6
_symmetry_space_group_name_H-M   'P 1'
_cell_length_a   7.42544201
_cell_length_b   7.41916745
_cell_length_c   7.44231013
_cell_angle_alpha   60.14775432
_cell_angle_beta   60.17520865
_cell_angle_gamma   60.07630208
_symmetry_Int_Tables_number   1
_chemical_formula_structural   Cs2TaAgF6
_chemical_formula_sum   'Cs2 Ta1 Ag1 F6'
_cell_volume   290.78831421
_cell_formula_units_Z   1
loop_
 _symmetry_equiv_pos_site_id
 _symmetry_equiv_pos_as_xyz
  1  'x, y, z'
loop_
 _atom_site_type_symbol
 _atom_site_label
 _atom_site_symmetry_multiplicity
 _atom_site_fract_x
 _atom_site_fract_y
 _atom_site_fract_z
 _atom_site_occupancy
  Cs  Cs0  1  0.24971035  0.24992884  0.25034194  1
  Cs  Cs1  1  0.75028959  0.75007128  0.74965820  1
  Ta  Ta2  1  0.49999995  0.50000006  0.50000004  1
  Ag  Ag3  1  -0.00000007  0.00000021  -0.00000017  1
  F  F4  1  0.31634149  0.68314763  0.31717568  1
  F  F5  1  0.68308951  0.68341450  0.31754296  1
  F  F6  1  0.68365875  0.31685184  0.68282397  1
  F  F7  1  0.68301946  0.31621415  0.31729880  1
  F  F8  1  0.31698051  0.68378592  0.68270136  1
  F  F9  1  0.31691045  0.31658558  0.68245722  1
