# generated using pymatgen
data_Li3MnCoO5
_symmetry_space_group_name_H-M   'P 1'
_cell_length_a   2.92052091
_cell_length_b   5.11383347
_cell_length_c   12.72611568
_cell_angle_alpha   102.63041749
_cell_angle_beta   96.58893676
_cell_angle_gamma   73.40820598
_symmetry_Int_Tables_number   1
_chemical_formula_structural   Li3MnCoO5
_chemical_formula_sum   'Li6 Mn2 Co2 O10'
_cell_volume   177.46544668
_cell_formula_units_Z   2
loop_
 _symmetry_equiv_pos_site_id
 _symmetry_equiv_pos_as_xyz
  1  'x, y, z'
loop_
 _atom_site_type_symbol
 _atom_site_label
 _atom_site_symmetry_multiplicity
 _atom_site_fract_x
 _atom_site_fract_y
 _atom_site_fract_z
 _atom_site_occupancy
  Li  Li0  1  0.30348239  0.50427116  0.11123595  1
  Li  Li1  1  0.89651761  0.49572884  0.28876405  1
  Li  Li2  1  0.50456863  0.49181296  0.50095021  1
  Li  Li3  1  0.10000000  0.50000000  0.70000000  1
  Li  Li4  1  0.69543137  0.50818704  0.89904979  1
  Li  Li5  1  0.60000000  -0.00000000  0.20000000  1
  Mn  Mn6  1  0.99950940  0.00788559  0.00690440  1
  Mn  Mn7  1  0.20049060  0.99211441  0.39309560  1
  Co  Co8  1  0.79733790  0.00601159  0.60068739  1
  Co  Co9  1  0.40266210  0.99398841  0.79931261  1
  O  O10  1  0.36486974  0.21940774  0.94914722  1
  O  O11  1  0.94729143  0.24267776  0.13726062  1
  O  O12  1  0.56958580  0.21846212  0.35763371  1
  O  O13  1  0.15986515  0.22629851  0.54602880  1
  O  O14  1  0.75928035  0.22942799  0.74798869  1
  O  O15  1  0.25270857  0.75732224  0.26273938  1
  O  O16  1  0.83513026  0.78059226  0.45085278  1
  O  O17  1  0.44071965  0.77057201  0.65201131  1
  O  O18  1  0.04013485  0.77370149  0.85397120  1
  O  O19  1  0.63041420  0.78153788  0.04236629  1
