# generated using pymatgen
data_Li3MnCoO5
_symmetry_space_group_name_H-M   'P 1'
_cell_length_a   2.91687487
_cell_length_b   9.90756382
_cell_length_c   6.57318807
_cell_angle_alpha   100.86994038
_cell_angle_beta   77.20723516
_cell_angle_gamma   90.77064628
_symmetry_Int_Tables_number   1
_chemical_formula_structural   Li3MnCoO5
_chemical_formula_sum   'Li6 Mn2 Co2 O10'
_cell_volume   181.84090314
_cell_formula_units_Z   2
loop_
 _symmetry_equiv_pos_site_id
 _symmetry_equiv_pos_as_xyz
  1  'x, y, z'
loop_
 _atom_site_type_symbol
 _atom_site_label
 _atom_site_symmetry_multiplicity
 _atom_site_fract_x
 _atom_site_fract_y
 _atom_site_fract_z
 _atom_site_occupancy
  Li  Li0  1  0.88356281  0.30875880  0.20246514  1
  Li  Li1  1  0.09435867  0.70440698  0.81339722  1
  Li  Li2  1  0.48661744  0.50720124  0.01121875  1
  Li  Li3  1  0.70624746  0.88899183  0.58157394  1
  Li  Li4  1  0.32183586  0.08402907  0.39262291  1
  Li  Li5  1  0.38980944  0.80375633  0.20697571  1
  Mn  Mn6  1  0.00833619  0.99573317  0.00975942  1
  Mn  Mn7  1  0.19159306  0.40212757  0.59650059  1
  Co  Co8  1  0.60273855  0.19680736  0.79822327  1
  Co  Co9  1  0.80434615  0.61558714  0.37927222  1
  O  O10  1  0.48015104  0.13371380  0.08321583  1
  O  O11  1  0.65107414  0.52869228  0.68542625  1
  O  O12  1  0.04024015  0.33890234  0.87726950  1
  O  O13  1  0.24494328  0.73940617  0.50552159  1
  O  O14  1  0.87073862  0.95737254  0.27737276  1
  O  O15  1  0.32885950  0.44974782  0.32533976  1
  O  O16  1  0.55291818  0.87197776  0.91197148  1
  O  O17  1  0.94225206  0.64300467  0.11046405  1
  O  O18  1  0.17102165  0.06072295  0.71699353  1
  O  O19  1  0.72835573  0.26906018  0.51441608  1
