# generated using pymatgen
data_Li4MnCo3O8
_symmetry_space_group_name_H-M   'P 1'
_cell_length_a   2.93728075
_cell_length_b   9.84283751
_cell_length_c   5.18595859
_cell_angle_alpha   80.36199789
_cell_angle_beta   91.36584672
_cell_angle_gamma   93.55135354
_symmetry_Int_Tables_number   1
_chemical_formula_structural   Li4MnCo3O8
_chemical_formula_sum   'Li4 Mn1 Co3 O8'
_cell_volume   147.51823738
_cell_formula_units_Z   1
loop_
 _symmetry_equiv_pos_site_id
 _symmetry_equiv_pos_as_xyz
  1  'x, y, z'
loop_
 _atom_site_type_symbol
 _atom_site_label
 _atom_site_symmetry_multiplicity
 _atom_site_fract_x
 _atom_site_fract_y
 _atom_site_fract_z
 _atom_site_occupancy
  Li  Li0  1  0.00000000  0.25000000  0.25000000  1
  Li  Li1  1  0.49898232  0.50085752  0.00002395  1
  Li  Li2  1  0.00000000  0.75000000  0.75000000  1
  Li  Li3  1  0.50101768  -0.00085752  0.49997605  1
  Mn  Mn4  1  0.50000000  0.75000000  0.25000000  1
  Co  Co5  1  0.99936214  0.00138873  0.00308956  1
  Co  Co6  1  0.50000000  0.25000000  0.75000000  1
  Co  Co7  1  0.00063786  0.49861127  0.49691044  1
  O  O8  1  0.49142718  0.11951124  0.11060240  1
  O  O9  1  0.98985161  0.36909660  0.85901744  1
  O  O10  1  0.48990713  0.62027696  0.60542365  1
  O  O11  1  0.96700854  0.87360513  0.36494813  1
  O  O12  1  0.50857282  0.38048876  0.38939760  1
  O  O13  1  0.03299146  0.62639487  0.13505187  1
  O  O14  1  0.51009287  0.87972304  0.89457635  1
  O  O15  1  0.01014839  0.13090340  0.64098256  1
