# generated using pymatgen
data_Li4Co3O7
_symmetry_space_group_name_H-M   'P 1'
_cell_length_a   3.00973331
_cell_length_b   9.78340885
_cell_length_c   9.75839386
_cell_angle_alpha   62.91912099
_cell_angle_beta   82.33100013
_cell_angle_gamma   91.27949345
_symmetry_Int_Tables_number   1
_chemical_formula_structural   Li4Co3O7
_chemical_formula_sum   'Li8 Co6 O14'
_cell_volume   252.42299057
_cell_formula_units_Z   2
loop_
 _symmetry_equiv_pos_site_id
 _symmetry_equiv_pos_as_xyz
  1  'x, y, z'
loop_
 _atom_site_type_symbol
 _atom_site_label
 _atom_site_symmetry_multiplicity
 _atom_site_fract_x
 _atom_site_fract_y
 _atom_site_fract_z
 _atom_site_occupancy
  Li  Li0  1  0.93127881  0.21441153  0.13768995  1
  Li  Li1  1  0.21157621  0.35626213  0.57660441  1
  Li  Li2  1  0.50144234  0.50304553  -0.00275807  1
  Li  Li3  1  0.78885557  0.64158363  0.43165970  1
  Li  Li4  1  0.07195744  0.78587692  0.85651640  1
  Li  Li5  1  0.35330700  0.93014331  0.28291148  1
  Li  Li6  1  0.64175722  0.06891587  0.71680204  1
  Li  Li7  1  0.57150127  0.28568287  0.85716562  1
  Co  Co8  1  0.00331530  0.01082803  0.99642496  1
  Co  Co9  1  0.13945591  0.55988986  0.71859013  1
  Co  Co10  1  0.28352656  0.14177494  0.42995475  1
  Co  Co11  1  0.85887225  0.43027020  0.28491907  1
  Co  Co12  1  0.43443871  0.71836152  0.14023676  1
  Co  Co13  1  0.70881103  0.85364576  0.57252223  1
  O  O14  1  0.43505701  0.09871278  0.06518484  1
  O  O15  1  0.75977321  0.25278560  0.49084316  1
  O  O16  1  0.04485530  0.41299277  0.90837842  1
  O  O17  1  0.33275415  0.54138454  0.34377276  1
  O  O18  1  0.57321054  0.67971492  0.77254942  1
  O  O19  1  0.91226582  0.83121457  0.19570979  1
  O  O20  1  0.18204233  0.96545072  0.63289429  1
  O  O21  1  0.38815140  0.31857836  0.22497059  1
  O  O22  1  0.70791891  0.47205330  0.64955913  1
  O  O23  1  0.95984767  0.60707554  0.08052329  1
  O  O24  1  0.23012205  0.73946080  0.51900668  1
  O  O25  1  0.57126462  0.89200574  0.94051663  1
  O  O26  1  0.80472051  0.03008169  0.36994882  1
  O  O27  1  0.09792086  0.15779657  0.80690272  1
