# generated using pymatgen
data_TaZn2NiO6
_symmetry_space_group_name_H-M   'P 1'
_cell_length_a   5.19889817
_cell_length_b   5.38299268
_cell_length_c   7.57602428
_cell_angle_alpha   90.00000000
_cell_angle_beta   90.00000000
_cell_angle_gamma   86.26413019
_symmetry_Int_Tables_number   1
_chemical_formula_structural   TaZn2NiO6
_chemical_formula_sum   'Ta2 Zn4 Ni2 O12'
_cell_volume   211.56928099
_cell_formula_units_Z   2
loop_
 _symmetry_equiv_pos_site_id
 _symmetry_equiv_pos_as_xyz
  1  'x, y, z'
loop_
 _atom_site_type_symbol
 _atom_site_label
 _atom_site_symmetry_multiplicity
 _atom_site_fract_x
 _atom_site_fract_y
 _atom_site_fract_z
 _atom_site_occupancy
  Ta  Ta0  1  0.00000000  0.50000000  0.00000000  1
  Ta  Ta1  1  0.00000000  0.50000000  0.50000000  1
  Zn  Zn2  1  0.01170486  0.96903508  0.25000000  1
  Zn  Zn3  1  0.49469322  0.44703916  0.25000000  1
  Zn  Zn4  1  0.50530678  0.55296084  0.75000000  1
  Zn  Zn5  1  0.98829514  0.03096492  0.75000000  1
  Ni  Ni6  1  0.50000000  0.00000000  0.00000000  1
  Ni  Ni7  1  0.50000000  0.00000000  0.50000000  1
  O  O8  1  0.82026568  0.82340321  0.56278269  1
  O  O9  1  0.30825404  0.67600812  0.43114545  1
  O  O10  1  0.17973432  0.17659679  0.43721731  1
  O  O11  1  0.69174596  0.32399188  0.93114545  1
  O  O12  1  0.12943752  0.45112806  0.75000000  1
  O  O13  1  0.69174596  0.32399188  0.56885455  1
  O  O14  1  0.30825404  0.67600812  0.06885455  1
  O  O15  1  0.82026568  0.82340321  0.93721731  1
  O  O16  1  0.62650806  0.07438891  0.25000000  1
  O  O17  1  0.17973432  0.17659679  0.06278269  1
  O  O18  1  0.37349194  0.92561109  0.75000000  1
  O  O19  1  0.87056248  0.54887194  0.25000000  1
