# generated using pymatgen
data_Li3MnCoO5
_symmetry_space_group_name_H-M   'P 1'
_cell_length_a   2.88974666
_cell_length_b   12.15478679
_cell_length_c   5.16343049
_cell_angle_alpha   93.12104714
_cell_angle_beta   90.00000000
_cell_angle_gamma   83.17294785
_symmetry_Int_Tables_number   1
_chemical_formula_structural   Li3MnCoO5
_chemical_formula_sum   'Li6 Mn2 Co2 O10'
_cell_volume   179.80476977
_cell_formula_units_Z   2
loop_
 _symmetry_equiv_pos_site_id
 _symmetry_equiv_pos_as_xyz
  1  'x, y, z'
loop_
 _atom_site_type_symbol
 _atom_site_label
 _atom_site_symmetry_multiplicity
 _atom_site_fract_x
 _atom_site_fract_y
 _atom_site_fract_z
 _atom_site_occupancy
  Li  Li0  1  0.50560471  0.98879058  0.50307954  1
  Li  Li1  1  0.90269155  0.19461691  0.69283161  1
  Li  Li2  1  0.29638490  0.40723021  0.89799493  1
  Li  Li3  1  0.69409629  0.61180742  0.11290709  1
  Li  Li4  1  0.10366498  0.79267004  0.29887665  1
  Li  Li5  1  0.59908903  0.80182194  0.79490250  1
  Mn  Mn6  1  0.00244183  0.99511634  0.98142665  1
  Mn  Mn7  1  0.79987125  0.40025749  0.40784522  1
  Co  Co8  1  0.40061266  0.19877467  0.19473174  1
  Co  Co9  1  0.19127089  0.61745822  0.63293724  1
  O  O10  1  0.54250029  0.91499942  0.13419331  1
  O  O11  1  0.94717819  0.10564363  0.30984029  1
  O  O12  1  0.34565548  0.30868904  0.54400805  1
  O  O13  1  0.75264709  0.49470581  0.71197071  1
  O  O14  1  0.15438372  0.69123257  0.94094859  1
  O  O15  1  0.45352009  0.09295983  0.85539270  1
  O  O16  1  0.85182494  0.29635011  0.08696033  1
  O  O17  1  0.25835663  0.48328674  0.26460094  1
  O  O18  1  0.65327959  0.69344083  0.45501001  1
  O  O19  1  0.04492590  0.91014820  0.67954191  1
