# generated using pymatgen
data_Li3Co2O5
_symmetry_space_group_name_H-M   'P 1'
_cell_length_a   2.94426216
_cell_length_b   9.82958096
_cell_length_c   6.52476889
_cell_angle_alpha   101.36186843
_cell_angle_beta   77.17577524
_cell_angle_gamma   93.28551170
_symmetry_Int_Tables_number   1
_chemical_formula_structural   Li3Co2O5
_chemical_formula_sum   'Li6 Co4 O10'
_cell_volume   180.49557203
_cell_formula_units_Z   2
loop_
 _symmetry_equiv_pos_site_id
 _symmetry_equiv_pos_as_xyz
  1  'x, y, z'
loop_
 _atom_site_type_symbol
 _atom_site_label
 _atom_site_symmetry_multiplicity
 _atom_site_fract_x
 _atom_site_fract_y
 _atom_site_fract_z
 _atom_site_occupancy
  Li  Li0  1  0.90514076  0.29769289  0.19244523  1
  Li  Li1  1  0.10000000  0.70000000  0.80000000  1
  Li  Li2  1  0.51306217  0.49718465  0.99290374  1
  Li  Li3  1  0.68693783  0.90281535  0.60709626  1
  Li  Li4  1  0.29485924  0.10230711  0.40755477  1
  Li  Li5  1  0.60000000  0.20000000  0.80000000  1
  Co  Co6  1  0.00382246  0.00734857  0.98700520  1
  Co  Co7  1  0.19617754  0.39265143  0.61299480  1
  Co  Co8  1  0.39354596  0.80200632  0.19920648  1
  Co  Co9  1  0.80645404  0.59799368  0.40079352  1
  O  O10  1  0.42559730  0.13630023  0.09393297  1
  O  O11  1  0.63800525  0.53812445  0.68543763  1
  O  O12  1  0.05963080  0.35640748  0.87594226  1
  O  O13  1  0.24116949  0.73985032  0.48899596  1
  O  O14  1  0.84328959  0.94478126  0.28031947  1
  O  O15  1  0.35671041  0.45521874  0.31968053  1
  O  O16  1  0.56199475  0.86187555  0.91456237  1
  O  O17  1  0.95883051  0.66014968  0.11100404  1
  O  O18  1  0.14036920  0.04359252  0.72405774  1
  O  O19  1  0.77440270  0.26369977  0.50606703  1
