# generated using pymatgen
data_Li4MnCo3O8
_symmetry_space_group_name_H-M   'P 1'
_cell_length_a   2.84330431
_cell_length_b   9.80454758
_cell_length_c   5.27904399
_cell_angle_alpha   96.04054205
_cell_angle_beta   90.00000000
_cell_angle_gamma   90.00000000
_symmetry_Int_Tables_number   1
_chemical_formula_structural   Li4MnCo3O8
_chemical_formula_sum   'Li4 Mn1 Co3 O8'
_cell_volume   146.34844868
_cell_formula_units_Z   1
loop_
 _symmetry_equiv_pos_site_id
 _symmetry_equiv_pos_as_xyz
  1  'x, y, z'
loop_
 _atom_site_type_symbol
 _atom_site_label
 _atom_site_symmetry_multiplicity
 _atom_site_fract_x
 _atom_site_fract_y
 _atom_site_fract_z
 _atom_site_occupancy
  Li  Li0  1  0.50000000  0.99953639  0.50201184  1
  Li  Li1  1  -0.00000000  0.25000000  0.75000000  1
  Li  Li2  1  0.50000000  0.50046361  0.99798816  1
  Li  Li3  1  -0.00000000  0.75000000  0.25000000  1
  Mn  Mn4  1  0.50000000  0.25000000  0.25000000  1
  Co  Co5  1  -0.00000000  0.99735937  0.99326258  1
  Co  Co6  1  0.00000000  0.50264063  0.50673742  1
  Co  Co7  1  0.50000000  0.75000000  0.75000000  1
  O  O8  1  0.50000000  0.88458769  0.10751425  1
  O  O9  1  -0.00000000  0.13448598  0.36769444  1
  O  O10  1  0.50000000  0.39018750  0.61711824  1
  O  O11  1  -0.00000000  0.63326141  0.86561805  1
  O  O12  1  0.50000000  0.10981250  0.88288176  1
  O  O13  1  -0.00000000  0.36551402  0.13230556  1
  O  O14  1  0.50000000  0.61541231  0.39248575  1
  O  O15  1  -0.00000000  0.86673859  0.63438195  1
