# generated using pymatgen
data_Li3MnCoO5
_symmetry_space_group_name_H-M   'P 1'
_cell_length_a   2.91665803
_cell_length_b   9.78478981
_cell_length_c   6.53438964
_cell_angle_alpha   101.17650395
_cell_angle_beta   77.10425682
_cell_angle_gamma   90.00000343
_symmetry_Int_Tables_number   1
_chemical_formula_structural   Li3MnCoO5
_chemical_formula_sum   'Li6 Mn2 Co2 O10'
_cell_volume   178.15057736
_cell_formula_units_Z   2
loop_
 _symmetry_equiv_pos_site_id
 _symmetry_equiv_pos_as_xyz
  1  'x, y, z'
loop_
 _atom_site_type_symbol
 _atom_site_label
 _atom_site_symmetry_multiplicity
 _atom_site_fract_x
 _atom_site_fract_y
 _atom_site_fract_z
 _atom_site_occupancy
  Li  Li0  1  0.29323243  0.09868295  0.41353515  1
  Li  Li1  1  0.90676757  0.30131705  0.18646485  1
  Li  Li2  1  0.69775700  0.90844224  0.60448599  1
  Li  Li3  1  0.10000000  0.70000000  0.80000000  1
  Li  Li4  1  0.50224300  0.49155776  0.99551401  1
  Li  Li5  1  0.60000000  0.20000000  0.80000000  1
  Mn  Mn6  1  0.00527013  0.00564851  0.98945974  1
  Mn  Mn7  1  0.19472987  0.39435149  0.61054026  1
  Co  Co8  1  0.80198481  0.59841377  0.39603039  1
  Co  Co9  1  0.39801519  0.80158623  0.20396961  1
  O  O10  1  0.45451635  0.13224619  0.09096730  1
  O  O11  1  0.06004450  0.35643720  0.87991099  1
  O  O12  1  0.86021654  0.94409233  0.27956691  1
  O  O13  1  0.25591660  0.73880404  0.48816680  1
  O  O14  1  0.65766531  0.53510099  0.68466937  1
  O  O15  1  0.13995550  0.04356280  0.72008901  1
  O  O16  1  0.74548365  0.26775381  0.50903270  1
  O  O17  1  0.54233469  0.86489901  0.91533063  1
  O  O18  1  0.94408340  0.66119596  0.11183320  1
  O  O19  1  0.33978346  0.45590767  0.32043309  1
