# generated using pymatgen
data_Li4MnCo2O7
_symmetry_space_group_name_H-M   'P 1'
_cell_length_a   2.86373508
_cell_length_b   10.56020207
_cell_length_c   8.50683230
_cell_angle_alpha   78.44102865
_cell_angle_beta   90.00000000
_cell_angle_gamma   82.20720855
_symmetry_Int_Tables_number   1
_chemical_formula_structural   Li4MnCo2O7
_chemical_formula_sum   'Li8 Mn2 Co4 O14'
_cell_volume   249.61741972
_cell_formula_units_Z   2
loop_
 _symmetry_equiv_pos_site_id
 _symmetry_equiv_pos_as_xyz
  1  'x, y, z'
loop_
 _atom_site_type_symbol
 _atom_site_label
 _atom_site_symmetry_multiplicity
 _atom_site_fract_x
 _atom_site_fract_y
 _atom_site_fract_z
 _atom_site_occupancy
  Li  Li0  1  0.42567415  0.14865069  0.22792466  1
  Li  Li1  1  0.28927242  0.42145415  0.63423859  1
  Li  Li2  1  0.14406850  0.71186300  0.07341639  1
  Li  Li3  1  0.99913016  0.00173968  0.49853204  1
  Li  Li4  1  0.85694339  0.28611322  0.92311504  1
  Li  Li5  1  0.71860922  0.56278255  0.36060278  1
  Li  Li6  1  0.57060835  0.85878431  0.78120282  1
  Li  Li7  1  0.85455250  0.29089501  0.42653755  1
  Mn  Mn8  1  0.99943010  0.00113979  0.99594949  1
  Mn  Mn9  1  0.28562699  0.42874501  0.15480425  1
  Co  Co10  1  0.71429036  0.57142029  0.85919198  1
  Co  Co11  1  0.57177816  0.85644469  0.28711371  1
  Co  Co12  1  0.42407920  0.15184060  0.68049051  1
  Co  Co13  1  0.14424487  0.71151026  0.57238285  1
  O  O14  1  0.43686762  0.12626477  0.97855619  1
  O  O15  1  0.28490430  0.43019141  0.36916720  1
  O  O16  1  0.15072480  0.69855140  0.82716963  1
  O  O17  1  0.00778494  0.98443113  0.23918314  1
  O  O18  1  0.85981300  0.28037300  0.68570249  1
  O  O19  1  0.72035721  0.55928457  0.11239575  1
  O  O20  1  0.57998004  0.84003991  0.54076638  1
  O  O21  1  0.43249663  0.13500674  0.47498971  1
  O  O22  1  0.27770246  0.44459608  0.90635102  1
  O  O23  1  0.13425594  0.73148912  0.31668499  1
  O  O24  1  0.99600443  0.00799013  0.77133801  1
  O  O25  1  0.84887436  0.30225029  0.16922382  1
  O  O26  1  0.70772474  0.58455051  0.60485855  1
  O  O27  1  0.56420116  0.87159768  0.02811046  1
