# generated using pymatgen
data_Li4Co3O7
_symmetry_space_group_name_H-M   'P 1'
_cell_length_a   3.00293676
_cell_length_b   17.42980326
_cell_length_c   5.04028612
_cell_angle_alpha   107.06071986
_cell_angle_beta   89.99999957
_cell_angle_gamma   85.05820487
_symmetry_Int_Tables_number   1
_chemical_formula_structural   Li4Co3O7
_chemical_formula_sum   'Li8 Co6 O14'
_cell_volume   251.17640846
_cell_formula_units_Z   2
loop_
 _symmetry_equiv_pos_site_id
 _symmetry_equiv_pos_as_xyz
  1  'x, y, z'
loop_
 _atom_site_type_symbol
 _atom_site_label
 _atom_site_symmetry_multiplicity
 _atom_site_fract_x
 _atom_site_fract_y
 _atom_site_fract_z
 _atom_site_occupancy
  Li  Li0  1  0.49985258  0.00029484  0.50447627  1
  Li  Li1  1  0.92873143  0.14253614  0.78638609  1
  Li  Li2  1  0.35711617  0.28576766  0.07144466  1
  Li  Li3  1  0.78574083  0.42851734  0.35712734  1
  Li  Li4  1  0.21412557  0.57174986  0.64218491  1
  Li  Li5  1  0.07142900  0.85714300  0.21428600  1
  Li  Li6  1  0.64300442  0.71399116  0.92409473  1
  Li  Li7  1  0.57142900  0.85714300  0.71428600  1
  Co  Co8  1  0.00315748  0.99368504  0.99426266  1
  Co  Co9  1  0.13969952  0.72060096  0.43430834  1
  Co  Co10  1  0.42936625  0.14126650  0.27816247  1
  Co  Co11  1  0.85754128  0.28491744  0.57134584  1
  Co  Co12  1  0.28531572  0.42936756  0.85722616  1
  Co  Co13  1  0.71349075  0.57301950  0.15040853  1
  O  O14  1  0.53306136  0.93387829  0.10348854  1
  O  O15  1  0.96548337  0.06903326  0.35715553  1
  O  O16  1  0.39377981  0.21243938  0.65638418  1
  O  O17  1  0.82162592  0.35674816  0.94417017  1
  O  O18  1  0.25022790  0.49954320  0.23170318  1
  O  O19  1  0.11119048  0.77761903  0.77947365  1
  O  O20  1  0.67855888  0.64288323  0.51701668  1
  O  O21  1  0.46429812  0.07140277  0.91155432  1
  O  O22  1  0.89262910  0.21474180  0.19686882  1
  O  O23  1  0.32123108  0.35753684  0.48440183  1
  O  O24  1  0.74907719  0.50184662  0.77218682  1
  O  O25  1  0.17737363  0.64525274  0.07141547  1
  O  O26  1  0.03166652  0.93666697  0.64909735  1
  O  O27  1  0.60979664  0.78040771  0.32508346  1
