# generated using pymatgen
data_Li6Mn3CoO10
_symmetry_space_group_name_H-M   'P 1'
_cell_length_a   2.99168784
_cell_length_b   8.13603511
_cell_length_c   7.81242889
_cell_angle_alpha   75.45604013
_cell_angle_beta   96.67676576
_cell_angle_gamma   89.04054695
_symmetry_Int_Tables_number   1
_chemical_formula_structural   Li6Mn3CoO10
_chemical_formula_sum   'Li6 Mn3 Co1 O10'
_cell_volume   182.60746369
_cell_formula_units_Z   1
loop_
 _symmetry_equiv_pos_site_id
 _symmetry_equiv_pos_as_xyz
  1  'x, y, z'
loop_
 _atom_site_type_symbol
 _atom_site_label
 _atom_site_symmetry_multiplicity
 _atom_site_fract_x
 _atom_site_fract_y
 _atom_site_fract_z
 _atom_site_occupancy
  Li  Li0  1  0.79386368  0.09087198  0.60073356  1
  Li  Li1  1  0.99328415  0.51448661  0.99263925  1
  Li  Li2  1  0.21614113  0.89069633  0.40897826  1
  Li  Li3  1  0.40461258  0.30357883  0.80095020  1
  Li  Li4  1  0.59027198  0.70164863  0.18850562  1
  Li  Li5  1  0.41362589  0.79263289  0.80907831  1
  Mn  Mn6  1  0.99300354  0.99269953  0.99236324  1
  Mn  Mn7  1  0.20279598  0.40339753  0.40374626  1
  Mn  Mn8  1  0.58937090  0.20174396  0.19694562  1
  Co  Co9  1  0.81168362  0.60952679  0.60939936  1
  O  O10  1  0.43382994  0.04249107  0.82389640  1
  O  O11  1  0.57194666  0.43952311  0.20682811  1
  O  O12  1  0.79037220  0.82760837  0.59344922  1
  O  O13  1  0.96883317  0.23537306  0.00817897  1
  O  O14  1  0.18032815  0.63907796  0.41310331  1
  O  O15  1  0.22848278  0.15884335  0.39764116  1
  O  O16  1  0.42182936  0.55448927  0.78297497  1
  O  O17  1  0.56017786  0.96440828  0.17338090  1
  O  O18  1  0.82636122  0.37033115  0.59451034  1
  O  O19  1  0.00918519  0.76657130  0.00269695  1
