# generated using pymatgen
data_Li7Co5O12
_symmetry_space_group_name_H-M   'P 1'
_cell_length_a   2.99271341
_cell_length_b   5.06264890
_cell_length_c   14.21542740
_cell_angle_alpha   86.89925664
_cell_angle_beta   90.00000000
_cell_angle_gamma   90.00000000
_symmetry_Int_Tables_number   1
_chemical_formula_structural   Li7Co5O12
_chemical_formula_sum   'Li7 Co5 O12'
_cell_volume   215.06343304
_cell_formula_units_Z   1
loop_
 _symmetry_equiv_pos_site_id
 _symmetry_equiv_pos_as_xyz
  1  'x, y, z'
loop_
 _atom_site_type_symbol
 _atom_site_label
 _atom_site_symmetry_multiplicity
 _atom_site_fract_x
 _atom_site_fract_y
 _atom_site_fract_z
 _atom_site_occupancy
  Li  Li0  1  0.00000000  0.33333300  0.16666700  1
  Li  Li1  1  0.50000000  0.16331300  0.33369719  1
  Li  Li2  1  0.00000000  0.00280863  0.49893777  1
  Li  Li3  1  0.50000000  0.83333300  0.66666700  1
  Li  Li4  1  0.00000000  0.66385837  0.83439523  1
  Li  Li5  1  0.50000000  0.50335400  0.99963581  1
  Li  Li6  1  0.50000000  0.83333300  0.16666700  1
  Co  Co7  1  0.00000000  0.00009166  0.00762063  1
  Co  Co8  1  -0.00000000  0.66657534  0.32571237  1
  Co  Co9  1  0.50000000  0.51192341  0.49890571  1
  Co  Co10  1  0.00000000  0.33333300  0.66666700  1
  Co  Co11  1  0.50000000  0.15474359  0.83442729  1
  O  O12  1  0.00000000  0.96213487  0.25965879  1
  O  O13  1  0.50000000  0.81596302  0.41637647  1
  O  O14  1  0.00000000  0.65231746  0.58457731  1
  O  O15  1  0.50000000  0.47290635  0.75144998  1
  O  O16  1  0.00000000  0.29455269  0.91930317  1
  O  O17  1  0.50000000  0.15936745  0.07767070  1
  O  O18  1  0.00000000  0.70453213  0.07367421  1
  O  O19  1  0.50000000  0.50729855  0.25566330  1
  O  O20  1  0.00000000  0.37211431  0.41402983  1
  O  O21  1  0.50000000  0.19376065  0.58188302  1
  O  O22  1  0.00000000  0.01434854  0.74875669  1
  O  O23  1  0.50000000  0.85070398  0.91695653  1
