# generated using pymatgen
data_Li4MnCo2O7
_symmetry_space_group_name_H-M   'P 1'
_cell_length_a   2.93597275
_cell_length_b   13.68969646
_cell_length_c   6.46245612
_cell_angle_alpha   85.24263781
_cell_angle_beta   76.87029686
_cell_angle_gamma   96.15583176
_symmetry_Int_Tables_number   1
_chemical_formula_structural   Li4MnCo2O7
_chemical_formula_sum   'Li8 Mn2 Co4 O14'
_cell_volume   249.94519387
_cell_formula_units_Z   2
loop_
 _symmetry_equiv_pos_site_id
 _symmetry_equiv_pos_as_xyz
  1  'x, y, z'
loop_
 _atom_site_type_symbol
 _atom_site_label
 _atom_site_symmetry_multiplicity
 _atom_site_fract_x
 _atom_site_fract_y
 _atom_site_fract_z
 _atom_site_occupancy
  Li  Li0  1  0.35764727  0.08335585  0.36806132  1
  Li  Li1  1  0.07946964  0.21949011  0.06055183  1
  Li  Li2  1  0.78418438  0.35009426  0.78172450  1
  Li  Li3  1  0.65527944  0.94320883  0.63264994  1
  Li  Li4  1  0.92615965  0.78554602  0.93322571  1
  Li  Li5  1  0.49232429  0.48830562  0.50365703  1
  Li  Li6  1  0.21281053  0.63866020  0.21304015  1
  Li  Li7  1  0.71688688  0.14322931  0.70945655  1
  Mn  Mn8  1  0.00440007  0.00044872  0.99164858  1
  Mn  Mn9  1  0.57307858  0.71731831  0.57116214  1
  Co  Co10  1  0.41332820  0.27350024  0.44684285  1
  Co  Co11  1  0.13357742  0.41935985  0.15220501  1
  Co  Co12  1  0.84539518  0.56746635  0.87667599  1
  Co  Co13  1  0.28646842  0.85722636  0.28428852  1
  O  O14  1  0.52608790  0.08694300  0.03476720  1
  O  O15  1  0.25923227  0.25294501  0.73448148  1
  O  O16  1  0.97489707  0.39614440  0.44634927  1
  O  O17  1  0.82041165  0.94811695  0.30729365  1
  O  O18  1  0.11124082  0.81171402  0.58923137  1
  O  O19  1  0.68624099  0.54052046  0.16803848  1
  O  O20  1  0.40547873  0.68149661  0.87054015  1
  O  O21  1  0.16278721  0.02715676  0.70158234  1
  O  O22  1  0.89930120  0.18271712  0.38411571  1
  O  O23  1  0.60762324  0.32683944  0.11159197  1
  O  O24  1  0.45713998  0.89881303  0.98453307  1
  O  O25  1  0.74773608  0.76073750  0.26526435  1
  O  O26  1  0.32142062  0.47400248  0.83116123  1
  O  O27  1  0.03939228  0.62464318  0.54585963  1
