# generated using pymatgen
data_V2Zn3(GeO4)3
_symmetry_space_group_name_H-M   'P 1'
_cell_length_a   10.55075417
_cell_length_b   10.55075364
_cell_length_c   10.55075377
_cell_angle_alpha   109.47122087
_cell_angle_beta   109.47121984
_cell_angle_gamma   109.47121990
_symmetry_Int_Tables_number   1
_chemical_formula_structural   V2Zn3(GeO4)3
_chemical_formula_sum   'V8 Zn12 Ge12 O48'
_cell_volume   904.12523399
_cell_formula_units_Z   4
loop_
 _symmetry_equiv_pos_site_id
 _symmetry_equiv_pos_as_xyz
  1  'x, y, z'
loop_
 _atom_site_type_symbol
 _atom_site_label
 _atom_site_symmetry_multiplicity
 _atom_site_fract_x
 _atom_site_fract_y
 _atom_site_fract_z
 _atom_site_occupancy
  V  V0  1  0.50000000  0.50000000  0.50000000  1
  V  V1  1  0.50000000  0.50000000  0.00000000  1
  V  V2  1  0.50000000  0.00000000  0.50000000  1
  V  V3  1  0.00000000  0.50000000  0.50000000  1
  V  V4  1  0.50000000  0.00000000  0.00000000  1
  V  V5  1  0.00000000  0.00000000  0.50000000  1
  V  V6  1  0.00000000  0.50000000  0.00000000  1
  V  V7  1  0.00000000  0.00000000  0.00000000  1
  Zn  Zn8  1  0.62500000  0.25000000  0.87500000  1
  Zn  Zn9  1  0.87500000  0.75000000  0.62500000  1
  Zn  Zn10  1  0.75000000  0.62500000  0.87500000  1
  Zn  Zn11  1  0.25000000  0.87500000  0.62500000  1
  Zn  Zn12  1  0.87500000  0.62500000  0.25000000  1
  Zn  Zn13  1  0.62500000  0.87500000  0.75000000  1
  Zn  Zn14  1  0.37500000  0.75000000  0.12500000  1
  Zn  Zn15  1  0.12500000  0.25000000  0.37500000  1
  Zn  Zn16  1  0.25000000  0.37500000  0.12500000  1
  Zn  Zn17  1  0.75000000  0.12500000  0.37500000  1
  Zn  Zn18  1  0.12500000  0.37500000  0.75000000  1
  Zn  Zn19  1  0.37500000  0.12500000  0.25000000  1
  Ge  Ge20  1  0.87500000  0.12500000  0.75000000  1
  Ge  Ge21  1  0.12500000  0.87500000  0.25000000  1
  Ge  Ge22  1  0.25000000  0.62500000  0.37500000  1
  Ge  Ge23  1  0.12500000  0.75000000  0.87500000  1
  Ge  Ge24  1  0.75000000  0.87500000  0.12500000  1
  Ge  Ge25  1  0.37500000  0.25000000  0.62500000  1
  Ge  Ge26  1  0.62500000  0.75000000  0.37500000  1
  Ge  Ge27  1  0.87500000  0.25000000  0.12500000  1
  Ge  Ge28  1  0.25000000  0.12500000  0.87500000  1
  Ge  Ge29  1  0.75000000  0.37500000  0.62500000  1
  Ge  Ge30  1  0.37500000  0.62500000  0.75000000  1
  Ge  Ge31  1  0.62500000  0.37500000  0.25000000  1
  O  O32  1  0.79176418  0.41878960  0.81722912  1
  O  O33  1  0.08121040  0.87297458  0.39843952  1
  O  O34  1  0.68277088  0.10156048  0.97453406  1
  O  O35  1  0.70823582  0.52546594  0.62702542  1
  O  O36  1  0.70823582  0.68277088  0.08121040  1
  O  O37  1  0.52546594  0.62702542  0.70823582  1
  O  O38  1  0.10156048  0.62702542  0.41878960  1
  O  O39  1  0.62702542  0.70823582  0.52546594  1
  O  O40  1  0.39843952  0.81722912  0.52546594  1
  O  O41  1  0.87297458  0.97453406  0.79176418  1
  O  O42  1  0.97453406  0.79176418  0.87297458  1
  O  O43  1  0.08121040  0.70823582  0.68277088  1
  O  O44  1  0.62702542  0.41878960  0.10156048  1
  O  O45  1  0.52546594  0.39843952  0.81722912  1
  O  O46  1  0.68277088  0.08121040  0.70823582  1
  O  O47  1  0.41878960  0.10156048  0.62702542  1
  O  O48  1  0.81722912  0.52546594  0.39843952  1
  O  O49  1  0.39843952  0.08121040  0.87297458  1
  O  O50  1  0.10156048  0.97453406  0.68277088  1
  O  O51  1  0.60156048  0.18277088  0.47453406  1
  O  O52  1  0.97453406  0.68277088  0.10156048  1
  O  O53  1  0.81722912  0.79176418  0.41878960  1
  O  O54  1  0.87297458  0.39843952  0.08121040  1
  O  O55  1  0.79176418  0.87297458  0.97453406  1
  O  O56  1  0.20823582  0.58121040  0.18277088  1
  O  O57  1  0.91878960  0.12702542  0.60156048  1
  O  O58  1  0.31722912  0.89843952  0.02546594  1
  O  O59  1  0.29176418  0.47453406  0.37297458  1
  O  O60  1  0.29176418  0.31722912  0.91878960  1
  O  O61  1  0.47453406  0.37297458  0.29176418  1
  O  O62  1  0.89843952  0.37297458  0.58121040  1
  O  O63  1  0.37297458  0.29176418  0.47453406  1
  O  O64  1  0.20823582  0.12702542  0.02546594  1
  O  O65  1  0.12702542  0.60156048  0.91878960  1
  O  O66  1  0.18277088  0.20823582  0.58121040  1
  O  O67  1  0.58121040  0.18277088  0.20823582  1
  O  O68  1  0.02546594  0.31722912  0.89843952  1
  O  O69  1  0.89843952  0.02546594  0.31722912  1
  O  O70  1  0.60156048  0.91878960  0.12702542  1
  O  O71  1  0.18277088  0.47453406  0.60156048  1
  O  O72  1  0.58121040  0.89843952  0.37297458  1
  O  O73  1  0.31722912  0.91878960  0.29176418  1
  O  O74  1  0.47453406  0.60156048  0.18277088  1
  O  O75  1  0.37297458  0.58121040  0.89843952  1
  O  O76  1  0.91878960  0.29176418  0.31722912  1
  O  O77  1  0.02546594  0.20823582  0.12702542  1
  O  O78  1  0.12702542  0.02546594  0.20823582  1
  O  O79  1  0.41878960  0.81722912  0.79176418  1
