# generated using pymatgen
data_Li6Mn3CoO10
_symmetry_space_group_name_H-M   'P 1'
_cell_length_a   2.99301403
_cell_length_b   12.54516780
_cell_length_c   5.08601362
_cell_angle_alpha   100.88367892
_cell_angle_beta   76.49397649
_cell_angle_gamma   91.89714316
_symmetry_Int_Tables_number   1
_chemical_formula_structural   Li6Mn3CoO10
_chemical_formula_sum   'Li6 Mn3 Co1 O10'
_cell_volume   182.33563447
_cell_formula_units_Z   1
loop_
 _symmetry_equiv_pos_site_id
 _symmetry_equiv_pos_as_xyz
  1  'x, y, z'
loop_
 _atom_site_type_symbol
 _atom_site_label
 _atom_site_symmetry_multiplicity
 _atom_site_fract_x
 _atom_site_fract_y
 _atom_site_fract_z
 _atom_site_occupancy
  Li  Li0  1  0.69489560  0.10374416  0.59893727  1
  Li  Li1  1  0.10220688  0.30192851  0.79095213  1
  Li  Li2  1  0.52808502  0.49050990  0.98516961  1
  Li  Li3  1  0.88629752  0.70134559  0.21275526  1
  Li  Li4  1  0.30084296  0.90100093  0.40124435  1
  Li  Li5  1  0.78419190  0.39835222  0.41500871  1
  Mn  Mn6  1  0.99527187  0.00407934  0.00400293  1
  Mn  Mn7  1  0.20565107  0.59197078  0.59587148  1
  Mn  Mn8  1  0.61029648  0.80009875  0.79405985  1
  Co  Co9  1  0.38809491  0.20984516  0.20740852  1
  O  O10  1  0.32777760  0.06053972  0.28544851  1
  O  O11  1  0.73355594  0.24552651  0.47164348  1
  O  O12  1  0.14144952  0.46090934  0.70567079  1
  O  O13  1  0.59636023  0.64877491  0.86131314  1
  O  O14  1  0.92744055  0.85417792  0.08670368  1
  O  O15  1  0.06413291  0.14792045  0.91991226  1
  O  O16  1  0.45264003  0.33403650  0.10154156  1
  O  O17  1  0.80356548  0.55497028  0.34297693  1
  O  O18  1  0.27983425  0.74385794  0.51034445  1
  O  O19  1  0.67740928  0.94641113  0.70903508  1
