# generated using pymatgen
data_Li7Co5O12
_symmetry_space_group_name_H-M   'P 1'
_cell_length_a   2.99646928
_cell_length_b   6.38380025
_cell_length_c   11.93181802
_cell_angle_alpha   75.50891338
_cell_angle_beta   90.00000000
_cell_angle_gamma   103.57354596
_symmetry_Int_Tables_number   1
_chemical_formula_structural   Li7Co5O12
_chemical_formula_sum   'Li7 Co5 O12'
_cell_volume   214.39020391
_cell_formula_units_Z   1
loop_
 _symmetry_equiv_pos_site_id
 _symmetry_equiv_pos_as_xyz
  1  'x, y, z'
loop_
 _atom_site_type_symbol
 _atom_site_label
 _atom_site_symmetry_multiplicity
 _atom_site_fract_x
 _atom_site_fract_y
 _atom_site_fract_z
 _atom_site_occupancy
  Li  Li0  1  0.33125445  0.66250989  0.41620395  1
  Li  Li1  1  0.66662116  0.33324132  0.58097422  1
  Li  Li2  1  0.00004584  0.00009168  0.75235878  1
  Li  Li3  1  0.33541155  0.67082411  0.91713005  1
  Li  Li4  1  0.66734973  0.33469845  0.08681083  1
  Li  Li5  1  0.99931727  0.99863455  0.24652217  1
  Li  Li6  1  0.33333300  0.66666700  0.16666700  1
  Co  Co7  1  0.99379118  0.98758236  0.00834423  1
  Co  Co8  1  0.67287582  0.34575064  0.32498877  1
  Co  Co9  1  0.00187982  0.00375964  0.49867276  1
  Co  Co10  1  0.33333300  0.66666700  0.66666700  1
  Co  Co11  1  0.66478718  0.32957336  0.83466024  1
  O  O12  1  0.49307145  0.98614190  0.62306199  1
  O  O13  1  0.82615286  0.65230572  0.79018043  1
  O  O14  1  0.15397193  0.30794486  0.95720213  1
  O  O15  1  0.49987035  -0.00026029  0.11550374  1
  O  O16  1  0.81676710  0.63353419  0.29816027  1
  O  O17  1  0.15973426  0.31946952  0.45464083  1
  O  O18  1  0.16679665  0.33359329  0.21782926  1
  O  O19  1  0.51269407  0.02538914  0.37613187  1
  O  O20  1  0.84051414  0.68102728  0.54315257  1
  O  O21  1  0.17359555  0.34719110  0.71027101  1
  O  O22  1  0.50693174  0.01386448  0.87869317  1
  O  O23  1  0.84989990  0.69979881  0.03517273  1
