# generated using pymatgen
data_Li7Mn2(CoO4)3
_symmetry_space_group_name_H-M   'P 1'
_cell_length_a   4.97304445
_cell_length_b   4.97304402
_cell_length_c   9.71728489
_cell_angle_alpha   94.20939457
_cell_angle_beta   94.20939474
_cell_angle_gamma   118.15197422
_symmetry_Int_Tables_number   1
_chemical_formula_structural   Li7Mn2(CoO4)3
_chemical_formula_sum   'Li7 Mn2 Co3 O12'
_cell_volume   209.71726592
_cell_formula_units_Z   1
loop_
 _symmetry_equiv_pos_site_id
 _symmetry_equiv_pos_as_xyz
  1  'x, y, z'
loop_
 _atom_site_type_symbol
 _atom_site_label
 _atom_site_symmetry_multiplicity
 _atom_site_fract_x
 _atom_site_fract_y
 _atom_site_fract_z
 _atom_site_occupancy
  Li  Li0  1  0.42095923  0.07954753  0.25481130  1
  Li  Li1  1  0.92045247  0.57904077  0.74518870  1
  Li  Li2  1  0.09237994  0.42571394  0.25821028  1
  Li  Li3  1  0.57428606  0.90762006  0.74178972  1
  Li  Li4  1  0.74621453  0.75429223  0.25481130  1
  Li  Li5  1  0.24570777  0.25378547  0.74518870  1
  Li  Li6  1  0.83333300  0.16666700  0.50000000  1
  Mn  Mn7  1  0.00317104  0.99682896  0.00000000  1
  Mn  Mn8  1  0.66349596  0.33650404  -0.00000000  1
  Co  Co9  1  0.50452893  0.49547107  0.50000000  1
  Co  Co10  1  0.16213807  0.83786193  0.50000000  1
  Co  Co11  1  0.33333300  0.66666700  -0.00000000  1
  O  O12  1  0.06670474  0.72890865  0.11942782  1
  O  O13  1  0.50540601  0.20067881  0.60817574  1
  O  O14  1  0.69805106  0.03138507  0.11115634  1
  O  O15  1  0.22622688  0.55956088  0.60784250  1
  O  O16  1  0.39557565  0.40003774  0.11942782  1
  O  O17  1  0.86734581  0.83873901  0.60817574  1
  O  O18  1  0.79932119  0.49459399  0.39182426  1
  O  O19  1  0.27109135  0.93329526  0.88057218  1
  O  O20  1  0.44043912  0.77377312  0.39215750  1
  O  O21  1  0.96861494  0.30194893  0.88884366  1
  O  O22  1  0.16126099  0.13265419  0.39182426  1
  O  O23  1  0.59996226  0.60442435  0.88057218  1
