# generated using pymatgen
data_Li7Co5O12
_symmetry_space_group_name_H-M   'P 1'
_cell_length_a   2.99070092
_cell_length_b   5.96594768
_cell_length_c   12.27388739
_cell_angle_alpha   103.12415101
_cell_angle_beta   89.56165641
_cell_angle_gamma   91.70426620
_symmetry_Int_Tables_number   1
_chemical_formula_structural   Li7Co5O12
_chemical_formula_sum   'Li7 Co5 O12'
_cell_volume   213.18066930
_cell_formula_units_Z   1
loop_
 _symmetry_equiv_pos_site_id
 _symmetry_equiv_pos_as_xyz
  1  'x, y, z'
loop_
 _atom_site_type_symbol
 _atom_site_label
 _atom_site_symmetry_multiplicity
 _atom_site_fract_x
 _atom_site_fract_y
 _atom_site_fract_z
 _atom_site_occupancy
  Li  Li0  1  0.00103082  0.50916634  0.00452607  1
  Li  Li1  1  0.50000000  0.33333300  0.16666700  1
  Li  Li2  1  0.50133843  0.66840900  0.83443764  1
  Li  Li3  1  -0.00000000  0.83333300  0.66666700  1
  Li  Li4  1  0.49866157  0.99825800  0.49889536  1
  Li  Li5  1  0.99896918  0.15750066  0.32880693  1
  Li  Li6  1  0.50000000  0.83333300  0.16666700  1
  Co  Co7  1  0.99810524  0.99190584  0.00635624  1
  Co  Co8  1  0.00189476  0.67476116  0.32697676  1
  Co  Co9  1  0.49989642  0.49988213  0.49779957  1
  Co  Co10  1  -0.00000000  0.33333300  0.66666700  1
  Co  Co11  1  0.50010358  0.16678487  0.83553343  1
  O  O12  1  0.46549290  0.23447137  0.99436543  1
  O  O13  1  -0.00151033  0.07824447  0.15100238  1
  O  O14  1  0.00040609  0.40267293  0.82682863  1
  O  O15  1  0.50512801  0.57326450  0.65971913  1
  O  O16  1  0.00405511  0.73255043  0.48701937  1
  O  O17  1  0.47199248  0.89705915  0.33326564  1
  O  O18  1  0.52800752  0.76960785  0.00006736  1
  O  O19  1  0.00151033  0.58842153  0.18233162  1
  O  O20  1  0.99594489  0.93411657  0.84631363  1
  O  O21  1  0.49487199  0.09340150  0.67361487  1
  O  O22  1  -0.00040609  0.26399407  0.50650437  1
  O  O23  1  0.53450710  0.43219563  0.33896757  1
