# generated using pymatgen
data_Li7Co5O12
_symmetry_space_group_name_H-M   'P 1'
_cell_length_a   2.88614277
_cell_length_b   12.59491146
_cell_length_c   5.90826612
_cell_angle_alpha   103.26188118
_cell_angle_beta   90.00000000
_cell_angle_gamma   90.00000000
_symmetry_Int_Tables_number   1
_chemical_formula_structural   Li7Co5O12
_chemical_formula_sum   'Li7 Co5 O12'
_cell_volume   209.04214354
_cell_formula_units_Z   1
loop_
 _symmetry_equiv_pos_site_id
 _symmetry_equiv_pos_as_xyz
  1  'x, y, z'
loop_
 _atom_site_type_symbol
 _atom_site_label
 _atom_site_symmetry_multiplicity
 _atom_site_fract_x
 _atom_site_fract_y
 _atom_site_fract_z
 _atom_site_occupancy
  Li  Li0  1  -0.00000000  0.32454453  0.15438032  1
  Li  Li1  1  0.50000000  0.49894833  0.99769655  1
  Li  Li2  1  0.00000000  0.66666700  0.83333300  1
  Li  Li3  1  0.50000000  0.83438467  0.66897045  1
  Li  Li4  1  -0.00000000  0.00878847  0.51228668  1
  Li  Li5  1  0.50000000  0.16666700  0.33333300  1
  Li  Li6  1  0.50000000  0.16666700  0.83333300  1
  Co  Co7  1  0.00000000  0.00687426  0.99787639  1
  Co  Co8  1  0.00000000  0.32645874  0.66879061  1
  Co  Co9  1  0.50000000  0.49916616  0.50407311  1
  Co  Co10  1  0.00000000  0.66666700  0.33333300  1
  Co  Co11  1  0.50000000  0.83416684  0.16259389  1
  O  O12  1  0.00000000  0.48950535  0.73396198  1
  O  O13  1  0.50000000  0.66158325  0.57191103  1
  O  O14  1  -0.00000000  0.82984387  0.40157599  1
  O  O15  1  0.50000000  0.99697803  0.21716976  1
  O  O16  1  -0.00000000  0.15225167  0.07683195  1
  O  O17  1  0.50000000  0.33349939  0.88452748  1
  O  O18  1  -0.00000000  0.18108133  0.58983505  1
  O  O19  1  0.50000000  0.33635597  0.44949624  1
  O  O20  1  -0.00000000  0.50348913  0.26509101  1
  O  O21  1  0.50000000  0.67174975  0.09475597  1
  O  O22  1  -0.00000000  0.84382865  0.93270402  1
  O  O23  1  0.50000000  0.99983361  0.78213952  1
