# generated using pymatgen
data_Li7Mn4CoO12
_symmetry_space_group_name_H-M   'P 1'
_cell_length_a   2.98203356
_cell_length_b   5.07498262
_cell_length_c   14.76039774
_cell_angle_alpha   98.00696319
_cell_angle_beta   86.30576190
_cell_angle_gamma   93.31097490
_symmetry_Int_Tables_number   1
_chemical_formula_structural   Li7Mn4CoO12
_chemical_formula_sum   'Li7 Mn4 Co1 O12'
_cell_volume   220.47399400
_cell_formula_units_Z   1
loop_
 _symmetry_equiv_pos_site_id
 _symmetry_equiv_pos_as_xyz
  1  'x, y, z'
loop_
 _atom_site_type_symbol
 _atom_site_label
 _atom_site_symmetry_multiplicity
 _atom_site_fract_x
 _atom_site_fract_y
 _atom_site_fract_z
 _atom_site_occupancy
  Li  Li0  1  0.91843889  0.40598820  0.17951802  1
  Li  Li1  1  0.26072211  0.74413250  0.49101474  1
  Li  Li2  1  0.58466803  0.08338583  0.83086844  1
  Li  Li3  1  0.40154587  0.92612660  0.17625635  1
  Li  Li4  1  0.74918543  0.25756894  0.48896456  1
  Li  Li5  1  0.08655746  0.58072442  0.83281170  1
  Li  Li6  1  0.33324585  0.33287761  0.33380288  1
  Mn  Mn7  1  0.99592284  0.00068235  0.00056615  1
  Mn  Mn8  1  0.83314461  0.83347443  0.33396132  1
  Mn  Mn9  1  0.66900418  0.66561357  0.66517548  1
  Mn  Mn10  1  0.49638295  0.50108421  0.00051324  1
  Co  Co11  1  0.17179156  0.16661077  0.66555064  1
  O  O12  1  0.42674802  0.21639551  0.07739802  1
  O  O13  1  0.78356598  0.56472245  0.41311555  1
  O  O14  1  0.11139746  0.87868678  0.74230124  1
  O  O15  1  0.93894621  0.70982838  0.07477151  1
  O  O16  1  0.32289389  0.01626796  0.40549533  1
  O  O17  1  0.59824481  0.37662813  0.74253762  1
  O  O18  1  0.34376659  0.65014416  0.26197818  1
  O  O19  1  0.73413510  0.96326391  0.59347514  1
  O  O20  1  0.06310615  0.28586222  0.92205307  1
  O  O21  1  0.88121849  0.10213522  0.25494336  1
  O  O22  1  0.22090735  0.45445577  0.59189252  1
  O  O23  1  0.57446018  0.78334009  0.92103494  1
