# generated using pymatgen
data_Li9Co7O16
_symmetry_space_group_name_H-M   'P 1'
_cell_length_a   2.90724457
_cell_length_b   10.67954166
_cell_length_c   10.01536346
_cell_angle_alpha   114.14703596
_cell_angle_beta   89.99999956
_cell_angle_gamma   82.17703118
_symmetry_Int_Tables_number   1
_chemical_formula_structural   Li9Co7O16
_chemical_formula_sum   'Li9 Co7 O16'
_cell_volume   280.57373196
_cell_formula_units_Z   1
loop_
 _symmetry_equiv_pos_site_id
 _symmetry_equiv_pos_as_xyz
  1  'x, y, z'
loop_
 _atom_site_type_symbol
 _atom_site_label
 _atom_site_symmetry_multiplicity
 _atom_site_fract_x
 _atom_site_fract_y
 _atom_site_fract_z
 _atom_site_occupancy
  Li  Li0  1  0.37553449  0.24893103  0.18788587  1
  Li  Li1  1  0.12147175  0.75705651  0.56937021  1
  Li  Li2  1  0.87852825  0.24294349  0.93062979  1
  Li  Li3  1  0.87448794  0.25102412  0.43874727  1
  Li  Li4  1  0.62439033  0.75121934  0.81356835  1
  Li  Li5  1  0.37560967  0.24878066  0.68643165  1
  Li  Li6  1  0.12551206  0.74897588  0.06125273  1
  Li  Li7  1  0.62446551  0.75106897  0.31211413  1
  Li  Li8  1  0.50000000  0.00000000  0.75000000  1
  Co  Co9  1  0.00143532  0.99712935  0.98960880  1
  Co  Co10  1  0.99856468  0.00287065  0.51039120  1
  Co  Co11  1  0.75047438  0.49905123  0.37417260  1
  Co  Co12  1  0.24952562  0.50094877  0.12582740  1
  Co  Co13  1  0.74997523  0.50004955  0.87484037  1
  Co  Co14  1  0.50000000  0.00000000  0.25000000  1
  Co  Co15  1  0.25002477  0.49995045  0.62515963  1
  O  O16  1  0.44160029  0.11679943  0.97638170  1
  O  O17  1  0.19563068  0.60873863  0.33231994  1
  O  O18  1  0.94104523  0.11790954  0.69888366  1
  O  O19  1  0.94794242  0.10411516  0.21384225  1
  O  O20  1  0.69256080  0.61487840  0.58136446  1
  O  O21  1  0.44573914  0.10852172  0.45473541  1
  O  O22  1  0.19074124  0.61851753  0.84278228  1
  O  O23  1  0.69249676  0.61500649  0.09469576  1
  O  O24  1  0.30750324  0.38499351  0.40530424  1
  O  O25  1  0.05895477  0.88209046  0.80111634  1
  O  O26  1  0.80436932  0.39126137  0.16768006  1
  O  O27  1  0.80925876  0.38148247  0.65721772  1
  O  O28  1  0.55426086  0.89147828  0.04526459  1
  O  O29  1  0.30743920  0.38512160  0.91863554  1
  O  O30  1  0.05205758  0.89588484  0.28615775  1
  O  O31  1  0.55839971  0.88320057  0.52361830  1
