# generated using pymatgen
data_Li9Mn2Co5O16
_symmetry_space_group_name_H-M   'P 1'
_cell_length_a   2.93935874
_cell_length_b   5.94219593
_cell_length_c   16.19925899
_cell_angle_alpha   89.32299114
_cell_angle_beta   89.06100913
_cell_angle_gamma   93.47130560
_symmetry_Int_Tables_number   1
_chemical_formula_structural   Li9Mn2Co5O16
_chemical_formula_sum   'Li9 Mn2 Co5 O16'
_cell_volume   282.35992983
_cell_formula_units_Z   1
loop_
 _symmetry_equiv_pos_site_id
 _symmetry_equiv_pos_as_xyz
  1  'x, y, z'
loop_
 _atom_site_type_symbol
 _atom_site_label
 _atom_site_symmetry_multiplicity
 _atom_site_fract_x
 _atom_site_fract_y
 _atom_site_fract_z
 _atom_site_occupancy
  Li  Li0  1  0.00283338  0.50478849  0.00706113  1
  Li  Li1  1  0.50000000  0.25000000  0.12500000  1
  Li  Li2  1  0.99716662  0.99521151  0.24293887  1
  Li  Li3  1  0.49849452  0.75060333  0.87381746  1
  Li  Li4  1  0.00065186  0.99972544  0.75020023  1
  Li  Li5  1  0.50000000  0.25000000  0.62500000  1
  Li  Li6  1  0.99934814  0.50027456  0.49979977  1
  Li  Li7  1  0.50150548  0.74939667  0.37618254  1
  Li  Li8  1  0.50000000  0.75000000  0.12500000  1
  Mn  Mn9  1  0.00355918  0.99460581  0.00417694  1
  Mn  Mn10  1  0.99644082  0.50539419  0.24582306  1
  Co  Co11  1  0.49198395  0.25219973  0.37606119  1
  Co  Co12  1  -0.00019969  0.00007092  0.50010684  1
  Co  Co13  1  0.50000000  0.75000000  0.62500000  1
  Co  Co14  1  0.00019969  0.49992908  0.74989316  1
  Co  Co15  1  0.50801605  0.24780027  0.87393881  1
  O  O16  1  0.52338953  0.22416612  0.99424016  1
  O  O17  1  0.99541963  0.00378487  0.11621239  1
  O  O18  1  0.51865058  0.72013005  0.25105045  1
  O  O19  1  0.97274141  0.48698352  0.86964824  1
  O  O20  1  0.47226640  0.73824097  0.74398247  1
  O  O21  1  0.97297838  0.98835298  0.61921542  1
  O  O22  1  0.47408708  0.23697240  0.49487840  1
  O  O23  1  0.96734569  0.48522675  0.37048378  1
  O  O24  1  0.48134942  0.77986995  0.99894955  1
  O  O25  1  0.00458037  0.49621513  0.13378861  1
  O  O26  1  0.47661047  0.27583388  0.25576084  1
  O  O27  1  0.03265431  0.01477325  0.87951522  1
  O  O28  1  0.52591292  0.26302760  0.75512060  1
  O  O29  1  0.02702162  0.51164702  0.63078458  1
  O  O30  1  0.52773360  0.76175903  0.50601653  1
  O  O31  1  0.02725859  0.01301648  0.38035176  1
