# generated using pymatgen
data_Li7Mn2(CoO4)3
_symmetry_space_group_name_H-M   'P 1'
_cell_length_a   2.90973264
_cell_length_b   7.75867506
_cell_length_c   9.78179776
_cell_angle_alpha   92.94012146
_cell_angle_beta   82.21404242
_cell_angle_gamma   79.75464430
_symmetry_Int_Tables_number   1
_chemical_formula_structural   Li7Mn2(CoO4)3
_chemical_formula_sum   'Li7 Mn2 Co3 O12'
_cell_volume   214.66156496
_cell_formula_units_Z   1
loop_
 _symmetry_equiv_pos_site_id
 _symmetry_equiv_pos_as_xyz
  1  'x, y, z'
loop_
 _atom_site_type_symbol
 _atom_site_label
 _atom_site_symmetry_multiplicity
 _atom_site_fract_x
 _atom_site_fract_y
 _atom_site_fract_z
 _atom_site_occupancy
  Li  Li0  1  0.74884179  0.25150681  0.25429474  1
  Li  Li1  1  0.90589972  0.42559243  0.75428271  1
  Li  Li2  1  0.07743903  0.59388048  0.24414384  1
  Li  Li3  1  0.25589397  0.73945252  0.75585616  1
  Li  Li4  1  0.42743428  0.90774157  0.24571729  1
  Li  Li5  1  0.58449121  0.08182619  0.74570526  1
  Li  Li6  1  0.66666700  0.66666700  0.00000000  1
  Mn  Mn7  1  0.99821877  0.99069873  0.00432333  1
  Mn  Mn8  1  0.33511423  0.34263427  0.99567667  1
  Co  Co9  1  0.16666700  0.16666700  0.50000000  1
  Co  Co10  1  0.49933389  0.49989926  0.49820774  1
  Co  Co11  1  0.83399911  0.83343374  0.50179226  1
  O  O12  1  0.39127238  0.12001604  0.10657933  1
  O  O13  1  0.53052930  0.28955607  0.61337352  1
  O  O14  1  0.74050156  0.43828904  0.10943526  1
  O  O15  1  0.86912813  0.62477498  0.61560804  1
  O  O16  1  0.03133683  0.81090212  0.11803735  1
  O  O17  1  0.20418564  0.95588617  0.61748416  1
  O  O18  1  0.12914736  0.37744683  0.38251584  1
  O  O19  1  0.30199717  0.52243188  0.88196265  1
  O  O20  1  0.46420487  0.70855802  0.38439196  1
  O  O21  1  0.59283144  0.89504396  0.89056474  1
  O  O22  1  0.80280470  0.04377793  0.38662648  1
  O  O23  1  0.94206062  0.21331696  0.89342067  1
