# generated using pymatgen
data_Li9Co7O16
_symmetry_space_group_name_H-M   'P 1'
_cell_length_a   5.83167145
_cell_length_b   8.29431186
_cell_length_c   6.54565509
_cell_angle_alpha   89.41993220
_cell_angle_beta   116.22022771
_cell_angle_gamma   89.95117138
_symmetry_Int_Tables_number   1
_chemical_formula_structural   Li9Co7O16
_chemical_formula_sum   'Li9 Co7 O16'
_cell_volume   284.01328589
_cell_formula_units_Z   1
loop_
 _symmetry_equiv_pos_site_id
 _symmetry_equiv_pos_as_xyz
  1  'x, y, z'
loop_
 _atom_site_type_symbol
 _atom_site_label
 _atom_site_symmetry_multiplicity
 _atom_site_fract_x
 _atom_site_fract_y
 _atom_site_fract_z
 _atom_site_occupancy
  Li  Li0  1  0.25053407  0.99982363  0.50142193  1
  Li  Li1  1  0.87078292  0.24682212  0.24821584  1
  Li  Li2  1  0.62230815  0.75351897  0.75210633  1
  Li  Li3  1  0.00000000  0.50000000  -0.00000000  1
  Li  Li4  1  0.37769185  0.24648103  0.24789367  1
  Li  Li5  1  0.74946593  0.00017637  0.49857807  1
  Li  Li6  1  0.12921708  0.75317788  0.75178416  1
  Li  Li7  1  0.50000000  0.50000000  -0.00000000  1
  Li  Li8  1  0.50000000  0.00000000  -0.00000000  1
  Co  Co9  1  0.00000000  0.00000000  -0.00000000  1
  Co  Co10  1  0.62366037  0.24449899  0.75791538  1
  Co  Co11  1  0.24977887  0.49962933  0.49969683  1
  Co  Co12  1  0.86787903  0.75563502  0.24317587  1
  Co  Co13  1  0.13212097  0.24436498  0.75682413  1
  Co  Co14  1  0.75022113  0.50037067  0.50030317  1
  Co  Co15  1  0.37633963  0.75550101  0.24208462  1
  O  O16  1  0.88785970  0.99100842  0.23153464  1
  O  O17  1  0.49003286  0.25444977  0.97997564  1
  O  O18  1  0.24322442  0.74316811  0.48403761  1
  O  O19  1  0.61908934  0.49350629  0.73561252  1
  O  O20  1  0.99573778  0.23301760  0.99377897  1
  O  O21  1  0.34245661  0.99119129  0.22978382  1
  O  O22  1  0.74339225  0.74329479  0.48768035  1
  O  O23  1  0.11630985  0.49363698  0.73570451  1
  O  O24  1  0.65754339  0.00880871  0.77021618  1
  O  O25  1  0.25660675  0.25670521  0.51231965  1
  O  O26  1  0.00426222  0.76698240  0.00622103  1
  O  O27  1  0.38091066  0.50649371  0.26438748  1
  O  O28  1  0.75677658  0.25683189  0.51596239  1
  O  O29  1  0.11214030  0.00899158  0.76846536  1
  O  O30  1  0.50996614  0.74555023  0.02002436  1
  O  O31  1  0.88369015  0.50636302  0.26429549  1
