# generated using pymatgen
data_Li7Mn2(CoO4)3
_symmetry_space_group_name_H-M   'P 1'
_cell_length_a   2.90742957
_cell_length_b   8.35749008
_cell_length_c   9.84903891
_cell_angle_alpha   65.15193449
_cell_angle_beta   91.86213363
_cell_angle_gamma   90.10208102
_symmetry_Int_Tables_number   1
_chemical_formula_structural   Li7Mn2(CoO4)3
_chemical_formula_sum   'Li7 Mn2 Co3 O12'
_cell_volume   217.03170171
_cell_formula_units_Z   1
loop_
 _symmetry_equiv_pos_site_id
 _symmetry_equiv_pos_as_xyz
  1  'x, y, z'
loop_
 _atom_site_type_symbol
 _atom_site_label
 _atom_site_symmetry_multiplicity
 _atom_site_fract_x
 _atom_site_fract_y
 _atom_site_fract_z
 _atom_site_occupancy
  Li  Li0  1  0.99338183  0.85563903  0.33010935  1
  Li  Li1  1  0.46840882  0.32747033  0.85004812  1
  Li  Li2  1  0.51785378  0.00722493  0.49405975  1
  Li  Li3  1  0.98921675  0.47926905  0.01411356  1
  Li  Li4  1  0.02914714  0.16823791  0.65691110  1
  Li  Li5  1  0.50691853  0.66240113  0.16174194  1
  Li  Li6  1  0.50481940  0.17243047  0.16124740  1
  Mn  Mn7  1  0.98290781  0.00910995  0.00252274  1
  Mn  Mn8  1  0.51642202  0.49889868  0.49708586  1
  Co  Co9  1  0.01138052  0.66878044  0.66709145  1
  Co  Co10  1  0.00636823  0.31394261  0.32386421  1
  Co  Co11  1  0.48709307  0.83027693  0.83641882  1
  O  O12  1  0.49405137  0.92378889  0.14669855  1
  O  O13  1  0.02645684  0.42996234  0.64460283  1
  O  O14  1  0.00579594  0.09155002  0.34073561  1
  O  O15  1  0.48764673  0.59170684  0.81996437  1
  O  O16  1  0.51605183  0.27316275  0.49429881  1
  O  O17  1  0.97094922  0.76827036  0.98829784  1
  O  O18  1  0.52578311  0.73107307  0.50938863  1
  O  O19  1  0.98465029  0.23006488  0.99830104  1
  O  O20  1  0.00398460  0.90599808  0.68150765  1
  O  O21  1  0.49581237  0.41680584  0.17595628  1
  O  O22  1  0.47016407  0.07071375  0.85232776  1
  O  O23  1  0.00473574  0.57322171  0.35270633  1
