# generated using pymatgen
data_Li9Co7O16
_symmetry_space_group_name_H-M   'P 1'
_cell_length_a   5.82657498
_cell_length_b   5.87045314
_cell_length_c   8.82626164
_cell_angle_alpha   89.49770330
_cell_angle_beta   70.72695162
_cell_angle_gamma   89.99999398
_symmetry_Int_Tables_number   1
_chemical_formula_structural   Li9Co7O16
_chemical_formula_sum   'Li9 Co7 O16'
_cell_volume   284.96723665
_cell_formula_units_Z   1
loop_
 _symmetry_equiv_pos_site_id
 _symmetry_equiv_pos_as_xyz
  1  'x, y, z'
loop_
 _atom_site_type_symbol
 _atom_site_label
 _atom_site_symmetry_multiplicity
 _atom_site_fract_x
 _atom_site_fract_y
 _atom_site_fract_z
 _atom_site_occupancy
  Li  Li0  1  0.62397782  0.24843694  0.24599323  1
  Li  Li1  1  0.37602218  0.75156306  0.75400677  1
  Li  Li2  1  0.25007858  0.99957186  0.49984284  1
  Li  Li3  1  -0.00000000  0.50000000  -0.00000000  1
  Li  Li4  1  0.86997105  0.75156306  0.75400677  1
  Li  Li5  1  0.50000000  0.50000000  -0.00000000  1
  Li  Li6  1  0.13002895  0.24843694  0.24599323  1
  Li  Li7  1  0.74992142  0.00042814  0.50015716  1
  Li  Li8  1  0.50000000  0.00000000  -0.00000000  1
  Co  Co9  1  -0.00000000  0.00000000  -0.00000000  1
  Co  Co10  1  0.62425708  0.75699122  0.24431447  1
  Co  Co11  1  0.74967329  0.50159588  0.50065342  1
  Co  Co12  1  0.25032671  0.49840412  0.49934658  1
  Co  Co13  1  0.37574292  0.24300878  0.75568553  1
  Co  Co14  1  0.13142845  0.75699122  0.24431447  1
  Co  Co15  1  0.86857155  0.24300878  0.75568553  1
  O  O16  1  0.77637462  0.22997334  0.99070928  1
  O  O17  1  0.50273835  0.73544322  0.49339857  1
  O  O18  1  0.37261900  0.97858322  0.25476200  1
  O  O19  1  0.12915938  0.47905717  0.74168125  1
  O  O20  1  0.00386309  0.73544322  0.49339857  1
  O  O21  1  0.62682594  0.49162883  0.74634811  1
  O  O22  1  0.23291610  0.22997334  0.99070928  1
  O  O23  1  0.88419345  0.99618053  0.23161309  1
  O  O24  1  0.49726165  0.26455678  0.50660143  1
  O  O25  1  0.22362538  0.77002666  0.00929072  1
  O  O26  1  0.11580655  0.00381947  0.76838691  1
  O  O27  1  0.87084062  0.52094283  0.25831875  1
  O  O28  1  0.76708390  0.77002666  0.00929072  1
  O  O29  1  0.37317406  0.50837117  0.25365189  1
  O  O30  1  0.99613691  0.26455678  0.50660143  1
  O  O31  1  0.62738100  0.02141678  0.74523800  1
