# generated using pymatgen
data_Li9Mn2Co5O16
_symmetry_space_group_name_H-M   'P 1'
_cell_length_a   2.95467202
_cell_length_b   8.11241497
_cell_length_c   12.16153501
_cell_angle_alpha   90.97773174
_cell_angle_beta   101.78857893
_cell_angle_gamma   89.42117209
_symmetry_Int_Tables_number   1
_chemical_formula_structural   Li9Mn2Co5O16
_chemical_formula_sum   'Li9 Mn2 Co5 O16'
_cell_volume   285.30974768
_cell_formula_units_Z   1
loop_
 _symmetry_equiv_pos_site_id
 _symmetry_equiv_pos_as_xyz
  1  'x, y, z'
loop_
 _atom_site_type_symbol
 _atom_site_label
 _atom_site_symmetry_multiplicity
 _atom_site_fract_x
 _atom_site_fract_y
 _atom_site_fract_z
 _atom_site_occupancy
  Li  Li0  1  0.73894216  0.00098431  0.74606799  1
  Li  Li1  1  0.86513928  0.24716258  0.36738501  1
  Li  Li2  1  0.99201659  0.48637707  0.99950355  1
  Li  Li3  1  0.12500000  0.75000000  0.62500000  1
  Li  Li4  1  0.25798341  0.01362293  0.25049645  1
  Li  Li5  1  0.38486072  0.25283742  0.88261499  1
  Li  Li6  1  0.51105784  0.49901569  0.50393201  1
  Li  Li7  1  0.62500000  0.75000000  0.12500000  1
  Li  Li8  1  0.62500000  0.25000000  0.12500000  1
  Mn  Mn9  1  0.00833969  0.00704196  0.00237374  1
  Mn  Mn10  1  0.24166031  0.49295804  0.24762626  1
  Co  Co11  1  0.12500000  0.25000000  0.62500000  1
  Co  Co12  1  0.38089450  0.74616093  0.87718617  1
  Co  Co13  1  0.49984952  0.00086819  0.49982283  1
  Co  Co14  1  0.75015048  0.49913181  0.75017717  1
  Co  Co15  1  0.86910550  0.75383907  0.37281383  1
  O  O16  1  0.40849156  0.98630189  0.88853807  1
  O  O17  1  0.46540234  0.24004336  0.50625140  1
  O  O18  1  0.65178012  0.50127057  0.14150343  1
  O  O19  1  0.71540865  0.74073414  0.75591293  1
  O  O20  1  0.89053250  0.98920847  0.37955594  1
  O  O21  1  0.99060084  0.23112290  0.99610354  1
  O  O22  1  0.13795039  0.48810139  0.62890200  1
  O  O23  1  0.22225610  0.74135420  0.25772123  1
  O  O24  1  0.11205061  0.01189861  0.62109900  1
  O  O25  1  0.25940016  0.26887710  0.25389746  1
  O  O26  1  0.35946850  0.51079153  0.87044406  1
  O  O27  1  0.53459235  0.75926586  0.49408807  1
  O  O28  1  0.59821988  0.99872943  0.10849657  1
  O  O29  1  0.78459866  0.25995664  0.74374960  1
  O  O30  1  0.84150944  0.51369811  0.36146193  1
  O  O31  1  0.02774490  0.75864580  0.99227877  1
