# generated using pymatgen
data_Li9Mn2Co5O16
_symmetry_space_group_name_H-M   'P 1'
_cell_length_a   4.99958929
_cell_length_b   7.85914860
_cell_length_c   7.72129901
_cell_angle_alpha   81.27321266
_cell_angle_beta   103.42093141
_cell_angle_gamma   80.22308496
_symmetry_Int_Tables_number   1
_chemical_formula_structural   Li9Mn2Co5O16
_chemical_formula_sum   'Li9 Mn2 Co5 O16'
_cell_volume   284.97796124
_cell_formula_units_Z   1
loop_
 _symmetry_equiv_pos_site_id
 _symmetry_equiv_pos_as_xyz
  1  'x, y, z'
loop_
 _atom_site_type_symbol
 _atom_site_label
 _atom_site_symmetry_multiplicity
 _atom_site_fract_x
 _atom_site_fract_y
 _atom_site_fract_z
 _atom_site_occupancy
  Li  Li0  1  0.49374666  0.24731532  0.75496141  1
  Li  Li1  1  0.98855382  0.88068750  0.37403707  1
  Li  Li2  1  0.49816051  0.49532592  0.99919901  1
  Li  Li3  1  0.01144490  0.36931578  0.87596082  1
  Li  Li4  1  0.50627965  0.00269150  0.49503121  1
  Li  Li5  1  0.00000425  0.62499808  0.12499930  1
  Li  Li6  1  -0.00000823  0.12499739  0.62499575  1
  Li  Li7  1  0.50181660  0.75467487  0.25080711  1
  Li  Li8  1  0.50000018  0.12499400  0.12500321  1
  Mn  Mn9  1  -0.00019327  0.00664984  -0.00025829  1
  Mn  Mn10  1  0.00020634  0.24337065  0.25026407  1
  Co  Co11  1  0.50000253  0.62500161  0.62499828  1
  Co  Co12  1  0.49719283  0.87953289  0.87822314  1
  Co  Co13  1  0.00425288  0.49942532  0.49847551  1
  Co  Co14  1  0.99574473  0.75057941  0.75152789  1
  Co  Co15  1  0.50282274  0.37045933  0.37177494  1
  O  O16  1  0.75127397  0.99475928  0.76636431  1
  O  O17  1  0.25175429  0.62257142  0.39542162  1
  O  O18  1  0.78470940  0.23302797  0.01122630  1
  O  O19  1  0.22994868  0.11918569  0.88220956  1
  O  O20  1  0.74417665  0.73986273  0.50723884  1
  O  O21  1  0.25368397  0.37371952  0.14876910  1
  O  O22  1  0.25464005  0.87004464  0.65040692  1
  O  O23  1  0.76531136  0.47380992  0.25217266  1
  O  O24  1  0.25582839  0.51013983  0.74276351  1
  O  O25  1  0.76999106  0.13078603  0.36781698  1
  O  O26  1  0.23463527  0.77621438  0.99783632  1
  O  O27  1  0.74826149  0.62743684  0.85458219  1
  O  O28  1  0.24878479  0.25524665  0.48366697  1
  O  O29  1  0.74635557  0.87630290  0.10122146  1
  O  O30  1  0.74533832  0.37994731  0.59958849  1
  O  O31  1  0.21527963  0.01692649  0.23871135  1
