# generated using pymatgen
data_Li7Mn2(CoO4)3
_symmetry_space_group_name_H-M   'P 1'
_cell_length_a   2.93350360
_cell_length_b   10.16736230
_cell_length_c   7.70036690
_cell_angle_alpha   72.29761506
_cell_angle_beta   100.81078081
_cell_angle_gamma   90.41887002
_symmetry_Int_Tables_number   1
_chemical_formula_structural   Li7Mn2(CoO4)3
_chemical_formula_sum   'Li7 Mn2 Co3 O12'
_cell_volume   214.60907496
_cell_formula_units_Z   1
loop_
 _symmetry_equiv_pos_site_id
 _symmetry_equiv_pos_as_xyz
  1  'x, y, z'
loop_
 _atom_site_type_symbol
 _atom_site_label
 _atom_site_symmetry_multiplicity
 _atom_site_fract_x
 _atom_site_fract_y
 _atom_site_fract_z
 _atom_site_occupancy
  Li  Li0  1  0.82689652  0.24276058  0.65885981  1
  Li  Li1  1  0.16623809  0.74528024  0.33663238  1
  Li  Li2  1  0.50042891  0.25471976  0.99670062  1
  Li  Li3  1  0.17453747  0.24523492  0.34338746  1
  Li  Li4  1  0.49212953  0.75476508  0.98994554  1
  Li  Li5  1  0.83976948  0.75723942  0.67447419  1
  Li  Li6  1  0.33333300  0.00000000  0.66666700  1
  Mn  Mn7  1  0.00016866  0.99599250  0.99189576  1
  Mn  Mn8  1  0.66649834  0.00400750  0.34143724  1
  Co  Co9  1  0.33333300  0.50000000  0.66666700  1
  Co  Co10  1  -0.00077240  0.49944222  -0.00064732  1
  Co  Co11  1  0.66743940  0.50055778  0.33398032  1
  O  O12  1  0.43595809  0.10962348  0.85850194  1
  O  O13  1  0.74986726  0.61719745  0.50067605  1
  O  O14  1  0.08907303  0.10698977  0.17772515  1
  O  O15  1  0.73982634  0.11867348  0.48445660  1
  O  O16  1  0.07835839  0.61405865  0.17039968  1
  O  O17  1  0.40810113  0.61601065  0.83123371  1
  O  O18  1  0.25856487  0.38398935  0.50210029  1
  O  O19  1  0.57759397  0.89301023  0.15560785  1
  O  O20  1  0.91679974  0.38280255  0.83265695  1
  O  O21  1  0.58830861  0.38594135  0.16293332  1
  O  O22  1  0.92684066  0.88132652  0.84887640  1
  O  O23  1  0.23070791  0.89037652  0.47483206  1
