# generated using pymatgen
data_Li9Mn2Co5O16
_symmetry_space_group_name_H-M   'P 1'
_cell_length_a   5.82836411
_cell_length_b   7.80486724
_cell_length_c   6.61889727
_cell_angle_alpha   93.75590236
_cell_angle_beta   102.71772475
_cell_angle_gamma   79.42131164
_symmetry_Int_Tables_number   1
_chemical_formula_structural   Li9Mn2Co5O16
_chemical_formula_sum   'Li9 Mn2 Co5 O16'
_cell_volume   288.61348846
_cell_formula_units_Z   1
loop_
 _symmetry_equiv_pos_site_id
 _symmetry_equiv_pos_as_xyz
  1  'x, y, z'
loop_
 _atom_site_type_symbol
 _atom_site_label
 _atom_site_symmetry_multiplicity
 _atom_site_fract_x
 _atom_site_fract_y
 _atom_site_fract_z
 _atom_site_occupancy
  Li  Li0  1  0.81320416  0.12726344  0.37663247  1
  Li  Li1  1  0.93880971  0.38458610  0.13289826  1
  Li  Li2  1  0.68679584  0.87273656  0.62336753  1
  Li  Li3  1  0.56119029  0.61541390  0.86710174  1
  Li  Li4  1  0.43474390  0.38472724  0.13647635  1
  Li  Li5  1  0.31289533  0.13544005  0.37963841  1
  Li  Li6  1  0.18710467  0.86455995  0.62036159  1
  Li  Li7  1  0.06525610  0.61527276  0.86352365  1
  Li  Li8  1  0.25000000  0.50000000  0.50000000  1
  Mn  Mn9  1  -0.00012251  0.00102959  0.00076226  1
  Mn  Mn10  1  0.50012251  -0.00102959  -0.00076226  1
  Co  Co11  1  0.12437432  0.26034598  0.73587680  1
  Co  Co12  1  0.37562568  0.73965402  0.26412320  1
  Co  Co13  1  0.61522142  0.26202667  0.74220370  1
  Co  Co14  1  0.75000000  0.50000000  0.50000000  1
  Co  Co15  1  0.88477858  0.73797333  0.25779630  1
  O  O16  1  0.72326993  0.16347104  0.05443661  1
  O  O17  1  0.84517583  0.43396758  0.80519086  1
  O  O18  1  0.59144449  0.92566074  0.28474346  1
  O  O19  1  0.47059369  0.68959306  0.54841774  1
  O  O20  1  0.35476250  0.41851400  0.82111614  1
  O  O21  1  0.22326779  0.16484455  0.05398145  1
  O  O22  1  0.08856079  0.93211177  0.28954189  1
  O  O23  1  0.95254437  0.68473730  0.54929153  1
  O  O24  1  0.90855551  0.07433926  0.71525654  1
  O  O25  1  0.02940631  0.31040694  0.45158226  1
  O  O26  1  0.77673007  0.83652896  0.94556339  1
  O  O27  1  0.65482417  0.56603242  0.19480914  1
  O  O28  1  0.54745563  0.31526270  0.45070847  1
  O  O29  1  0.41143921  0.06788823  0.71045811  1
  O  O30  1  0.27673221  0.83515545  0.94601855  1
  O  O31  1  0.14523750  0.58148600  0.17888386  1
