# generated using pymatgen
data_Li9Mn2Co5O16
_symmetry_space_group_name_H-M   'P 1'
_cell_length_a   5.90954645
_cell_length_b   8.63124442
_cell_length_c   5.90715078
_cell_angle_alpha   70.58488475
_cell_angle_beta   87.13558151
_cell_angle_gamma   88.17279212
_symmetry_Int_Tables_number   1
_chemical_formula_structural   Li9Mn2Co5O16
_chemical_formula_sum   'Li9 Mn2 Co5 O16'
_cell_volume   283.77845992
_cell_formula_units_Z   1
loop_
 _symmetry_equiv_pos_site_id
 _symmetry_equiv_pos_as_xyz
  1  'x, y, z'
loop_
 _atom_site_type_symbol
 _atom_site_label
 _atom_site_symmetry_multiplicity
 _atom_site_fract_x
 _atom_site_fract_y
 _atom_site_fract_z
 _atom_site_occupancy
  Li  Li0  1  0.25457566  0.25874463  0.12522244  1
  Li  Li1  1  0.00166379  0.50294322  0.24711348  1
  Li  Li2  1  0.25747234  0.26313247  0.61273342  1
  Li  Li3  1  0.00044697  0.50367455  0.74882429  1
  Li  Li4  1  0.74191058  0.73772439  0.88706544  1
  Li  Li5  1  0.74069979  0.74218801  0.37432601  1
  Li  Li6  1  0.50149674  0.99527643  0.50199997  1
  Li  Li7  1  0.49748852  0.99685674  0.00292558  1
  Li  Li8  1  0.50028351  0.50408720  0.25006700  1
  Mn  Mn9  1  0.99796707  0.99697392  0.99786507  1
  Mn  Mn10  1  0.74642090  0.25255757  0.62060962  1
  Co  Co11  1  0.74509268  0.25335691  0.12160453  1
  Co  Co12  1  0.25374245  0.74747823  0.37203267  1
  Co  Co13  1  0.00109254  0.99889133  0.49863534  1
  Co  Co14  1  0.49208615  0.50381543  0.75175024  1
  Co  Co15  1  0.25897400  0.74833658  0.88228374  1
  O  O16  1  0.97463910  0.23745156  0.87104333  1
  O  O17  1  0.74342959  0.47926644  0.00505785  1
  O  O18  1  0.99555831  0.23433990  0.39956345  1
  O  O19  1  0.74373792  0.48227744  0.52048665  1
  O  O20  1  0.49545210  0.75114024  0.64275329  1
  O  O21  1  0.48175777  0.75146291  0.14242341  1
  O  O22  1  0.21593914  0.99530598  0.23784147  1
  O  O23  1  0.23832258  0.98660796  0.76937641  1
  O  O24  1  0.53560327  0.24257313  0.38903654  1
  O  O25  1  0.25729097  0.51744033  0.50303011  1
  O  O26  1  0.50852381  0.25015945  0.85555202  1
  O  O27  1  0.25764418  0.51302646  0.98447046  1
  O  O28  1  0.00197090  0.76241088  0.10082359  1
  O  O29  1  0.01727055  0.76862858  0.59960819  1
  O  O30  1  0.77865312  0.00712868  0.75492703  1
  O  O31  1  0.76279301  0.01474244  0.22894536  1
