# generated using pymatgen
data_Li9Mn2Co5O16
_symmetry_space_group_name_H-M   'P 1'
_cell_length_a   5.17719564
_cell_length_b   6.43493645
_cell_length_c   8.56241709
_cell_angle_alpha   83.21423999
_cell_angle_beta   94.23957490
_cell_angle_gamma   84.23920155
_symmetry_Int_Tables_number   1
_chemical_formula_structural   Li9Mn2Co5O16
_chemical_formula_sum   'Li9 Mn2 Co5 O16'
_cell_volume   280.76303116
_cell_formula_units_Z   1
loop_
 _symmetry_equiv_pos_site_id
 _symmetry_equiv_pos_as_xyz
  1  'x, y, z'
loop_
 _atom_site_type_symbol
 _atom_site_label
 _atom_site_symmetry_multiplicity
 _atom_site_fract_x
 _atom_site_fract_y
 _atom_site_fract_z
 _atom_site_occupancy
  Li  Li0  1  0.24956217  0.55834364  0.05740706  1
  Li  Li1  1  0.74973381  0.93384446  0.43393784  1
  Li  Li2  1  0.25278126  0.31366596  0.81526309  1
  Li  Li3  1  0.74646903  0.43310325  0.94372833  1
  Li  Li4  1  0.25350160  0.82454892  0.30916177  1
  Li  Li5  1  0.74930917  0.18458706  0.68995999  1
  Li  Li6  1  0.74345148  0.69405059  0.18562928  1
  Li  Li7  1  0.25551819  0.05866966  0.56539551  1
  Li  Li8  1  0.49980003  0.12546149  0.12494279  1
  Mn  Mn9  1  0.00031090  0.00147504  0.00117424  1
  Mn  Mn10  1  0.49989058  0.37351081  0.37275171  1
  Co  Co11  1  0.00034725  0.74985611  0.75003429  1
  Co  Co12  1  0.00115187  0.49979888  0.50005965  1
  Co  Co13  1  0.50014233  0.87629053  0.87735569  1
  Co  Co14  1  0.99948740  0.24884350  0.24923872  1
  Co  Co15  1  0.49985160  0.62625921  0.62613209  1
  O  O16  1  0.89354424  0.72756934  0.96027757  1
  O  O17  1  0.35230885  0.12048034  0.34170067  1
  O  O18  1  0.89424239  0.48215754  0.70685433  1
  O  O19  1  0.39307198  0.60482440  0.83613727  1
  O  O20  1  0.89427664  0.97825404  0.21066004  1
  O  O21  1  0.39438274  0.35803096  0.58933944  1
  O  O22  1  0.35403683  0.85650117  0.07354261  1
  O  O23  1  0.85476303  0.24068406  0.45608514  1
  O  O24  1  0.64681217  0.39751745  0.17540653  1
  O  O25  1  0.10642224  0.76835892  0.53982838  1
  O  O26  1  0.64643365  0.12760483  0.91194556  1
  O  O27  1  0.10659857  0.26824993  0.03734689  1
  O  O28  1  0.60422329  0.64842917  0.41283531  1
  O  O29  1  0.10728461  0.01932929  0.78474109  1
  O  O30  1  0.14158763  0.50951980  0.29691764  1
  O  O31  1  0.60870249  0.89017964  0.66420949  1
