# generated using pymatgen
data_Li9Mn2Co5O16
_symmetry_space_group_name_H-M   'P 1'
_cell_length_a   5.68536836
_cell_length_b   9.75328945
_cell_length_c   5.85197345
_cell_angle_alpha   87.86976932
_cell_angle_beta   61.22957687
_cell_angle_gamma   98.05248365
_symmetry_Int_Tables_number   1
_chemical_formula_structural   Li9Mn2Co5O16
_chemical_formula_sum   'Li9 Mn2 Co5 O16'
_cell_volume   279.58340603
_cell_formula_units_Z   1
loop_
 _symmetry_equiv_pos_site_id
 _symmetry_equiv_pos_as_xyz
  1  'x, y, z'
loop_
 _atom_site_type_symbol
 _atom_site_label
 _atom_site_symmetry_multiplicity
 _atom_site_fract_x
 _atom_site_fract_y
 _atom_site_fract_z
 _atom_site_occupancy
  Li  Li0  1  0.75174691  0.25548224  0.12619909  1
  Li  Li1  1  0.74992478  0.74036791  0.37371064  1
  Li  Li2  1  0.75159681  0.25704952  0.61950016  1
  Li  Li3  1  0.25391330  0.25947456  0.62564370  1
  Li  Li4  1  0.24840319  0.74295048  0.88049984  1
  Li  Li5  1  0.25007522  0.25963209  0.12628936  1
  Li  Li6  1  0.74608670  0.74052544  0.87435630  1
  Li  Li7  1  0.24825309  0.74451776  0.37380091  1
  Li  Li8  1  -0.00000000  0.50000000  0.25000000  1
  Mn  Mn9  1  0.99966244  0.99921379  0.00053050  1
  Mn  Mn10  1  0.00033756  0.00078621  0.49946950  1
  Co  Co11  1  -0.00000000  0.50000000  0.75000000  1
  Co  Co12  1  0.50096831  0.00083592  0.49934486  1
  Co  Co13  1  0.50000000  0.50000000  0.75000000  1
  Co  Co14  1  0.49903169  0.99916408  0.00065514  1
  Co  Co15  1  0.50000000  0.50000000  0.25000000  1
  O  O16  1  0.86061999  0.11538201  0.83494115  1
  O  O17  1  0.87937764  0.60746610  0.03466549  1
  O  O18  1  0.86467209  0.11807382  0.33235834  1
  O  O19  1  0.37651213  0.10806641  0.30046825  1
  O  O20  1  0.36214014  0.61401898  0.58069368  1
  O  O21  1  0.37678468  0.10785559  0.80263532  1
  O  O22  1  0.85391298  0.60959480  0.58811362  1
  O  O23  1  0.38363426  0.61558271  0.08478224  1
  O  O24  1  0.61636574  0.38441729  0.41521776  1
  O  O25  1  0.62321532  0.89214441  0.69736468  1
  O  O26  1  0.63785986  0.38598102  0.91930632  1
  O  O27  1  0.14608702  0.39040520  0.91188638  1
  O  O28  1  0.13532791  0.88192618  0.16764166  1
  O  O29  1  0.12062236  0.39253390  0.46533451  1
  O  O30  1  0.62348787  0.89193359  0.19953175  1
  O  O31  1  0.13938001  0.88461799  0.66505885  1
