# generated using pymatgen
data_Li9Mn2Co5O16
_symmetry_space_group_name_H-M   'P 1'
_cell_length_a   5.92926678
_cell_length_b   8.13308350
_cell_length_c   6.43556732
_cell_angle_alpha   88.95470859
_cell_angle_beta   113.97686044
_cell_angle_gamma   90.91362623
_symmetry_Int_Tables_number   1
_chemical_formula_structural   Li9Mn2Co5O16
_chemical_formula_sum   'Li9 Mn2 Co5 O16'
_cell_volume   283.50456234
_cell_formula_units_Z   1
loop_
 _symmetry_equiv_pos_site_id
 _symmetry_equiv_pos_as_xyz
  1  'x, y, z'
loop_
 _atom_site_type_symbol
 _atom_site_label
 _atom_site_symmetry_multiplicity
 _atom_site_fract_x
 _atom_site_fract_y
 _atom_site_fract_z
 _atom_site_occupancy
  Li  Li0  1  0.24517052  0.00362713  0.49702065  1
  Li  Li1  1  0.88314790  0.25739092  0.25541219  1
  Li  Li2  1  0.62606106  0.74470468  0.74779043  1
  Li  Li3  1  0.99091126  0.49630411  0.99346266  1
  Li  Li4  1  0.36826733  0.25684739  0.24753744  1
  Li  Li5  1  0.75521333  0.00498703  0.50990201  1
  Li  Li6  1  0.12287846  0.74289049  0.74654491  1
  Li  Li7  1  0.50306363  0.49412342  0.99423687  1
  Li  Li8  1  0.62709149  0.25582206  0.75005751  1
  Mn  Mn9  1  0.99153729  0.00044768  0.99513350  1
  Mn  Mn10  1  0.49504214  0.00120164  0.99526308  1
  Co  Co11  1  0.26324715  0.49824277  0.50913948  1
  Co  Co12  1  0.87462771  0.74844005  0.25112128  1
  Co  Co13  1  0.12424947  0.25070973  0.74741140  1
  Co  Co14  1  0.75337715  0.50003735  0.50394061  1
  Co  Co15  1  0.37180974  0.74679519  0.25095994  1
  O  O16  1  0.88565370  0.99082329  0.24273334  1
  O  O17  1  0.46269715  0.23768124  0.97693534  1
  O  O18  1  0.25725661  0.73811400  0.48894506  1
  O  O19  1  0.63683894  0.50045869  0.73265133  1
  O  O20  1  0.01126859  0.23626117  0.98866181  1
  O  O21  1  0.34798332  0.99025150  0.22493450  1
  O  O22  1  0.75322437  0.74118461  0.48278623  1
  O  O23  1  0.14332914  0.48540662  0.74361888  1
  O  O24  1  0.65200591  0.99824251  0.78006437  1
  O  O25  1  0.24272884  0.26194075  0.51606003  1
  O  O26  1  0.99202127  0.76100945  0.01160499  1
  O  O27  1  0.36511981  0.51015047  0.26159635  1
  O  O28  1  0.79351381  0.26436524  0.52616110  1
  O  O29  1  0.10625060  0.01011807  0.75268410  1
  O  O30  1  0.48751231  0.75946286  0.01270982  1
  O  O31  1  0.86689900  0.51195790  0.26291878  1
