# generated using pymatgen
data_MgBi2O5
_symmetry_space_group_name_H-M   'P 1'
_cell_length_a   3.67585945
_cell_length_b   5.17854164
_cell_length_c   12.84137295
_cell_angle_alpha   90.49588396
_cell_angle_beta   89.86438148
_cell_angle_gamma   89.60328888
_symmetry_Int_Tables_number   1
_chemical_formula_structural   MgBi2O5
_chemical_formula_sum   'Mg2 Bi4 O10'
_cell_volume   244.42739235
_cell_formula_units_Z   2
loop_
 _symmetry_equiv_pos_site_id
 _symmetry_equiv_pos_as_xyz
  1  'x, y, z'
loop_
 _atom_site_type_symbol
 _atom_site_label
 _atom_site_symmetry_multiplicity
 _atom_site_fract_x
 _atom_site_fract_y
 _atom_site_fract_z
 _atom_site_occupancy
  Mg  Mg0  1  0.81862196  0.80723211  0.26842624  1
  Mg  Mg1  1  0.31612067  0.19315843  0.77460330  1
  Bi  Bi2  1  0.31826663  0.29185392  0.10468048  1
  Bi  Bi3  1  0.80379297  0.65226501  0.89041752  1
  Bi  Bi4  1  0.79966617  0.70135449  0.61079275  1
  Bi  Bi5  1  0.32224920  0.35799398  0.38846223  1
  O  O6  1  0.80846284  0.43043969  0.74062845  1
  O  O7  1  0.31682305  0.56268295  0.23818593  1
  O  O8  1  0.80337554  0.59347203  0.05159416  1
  O  O9  1  0.30535815  0.45059448  0.89775032  1
  O  O10  1  0.81935666  0.56121306  0.39626032  1
  O  O11  1  0.31717017  0.40763440  0.55110000  1
  O  O12  1  0.32725245  0.97278241  0.35723373  1
  O  O13  1  0.30527458  0.86424943  0.69632293  1
  O  O14  1  0.80632910  0.03963880  0.86605716  1
  O  O15  1  0.81411686  0.12425581  0.18551348  1
