# generated using pymatgen
data_Li9Mn2Co5O16
_symmetry_space_group_name_H-M   'P 1'
_cell_length_a   5.15553573
_cell_length_b   10.53212455
_cell_length_c   5.89180570
_cell_angle_alpha   97.90563499
_cell_angle_beta   106.09043316
_cell_angle_gamma   104.55857540
_symmetry_Int_Tables_number   1
_chemical_formula_structural   Li9Mn2Co5O16
_chemical_formula_sum   'Li9 Mn2 Co5 O16'
_cell_volume   290.03608999
_cell_formula_units_Z   1
loop_
 _symmetry_equiv_pos_site_id
 _symmetry_equiv_pos_as_xyz
  1  'x, y, z'
loop_
 _atom_site_type_symbol
 _atom_site_label
 _atom_site_symmetry_multiplicity
 _atom_site_fract_x
 _atom_site_fract_y
 _atom_site_fract_z
 _atom_site_occupancy
  Li  Li0  1  0.64036066  0.13394747  0.19482506  1
  Li  Li1  1  0.63974099  0.13224509  0.69508876  1
  Li  Li2  1  0.86746663  0.38061934  0.57242710  1
  Li  Li3  1  0.86811280  0.37805048  0.05657918  1
  Li  Li4  1  0.13253337  0.61938066  0.92757290  1
  Li  Li5  1  0.13188720  0.62194952  0.44342082  1
  Li  Li6  1  0.35963934  0.86605253  0.30517494  1
  Li  Li7  1  0.36025901  0.86775491  0.80491124  1
  Li  Li8  1  0.50000000  0.50000000  0.75000000  1
  Mn  Mn9  1  0.00020145  0.00009697  0.00002374  1
  Mn  Mn10  1  0.99979855  0.99990303  0.49997626  1
  Co  Co11  1  0.26016399  0.26351873  0.38582225  1
  Co  Co12  1  0.25491026  0.26663362  0.87645097  1
  Co  Co13  1  0.50000000  0.50000000  0.25000000  1
  Co  Co14  1  0.73983601  0.73648127  0.11417775  1
  Co  Co15  1  0.74508974  0.73336638  0.62354903  1
  O  O16  1  0.27310787  0.05888503  0.83334387  1
  O  O17  1  0.27438729  0.05883870  0.33028307  1
  O  O18  1  0.55270627  0.31896650  0.21646249  1
  O  O19  1  0.53843924  0.30130951  0.70772806  1
  O  O20  1  0.81880378  0.57247073  0.59958640  1
  O  O21  1  0.78857904  0.56554186  0.11117830  1
  O  O22  1  0.04803872  0.82197659  0.96917589  1
  O  O23  1  0.04584051  0.82406004  0.46536369  1
  O  O24  1  0.95196128  0.17802341  0.53082311  1
  O  O25  1  0.95415949  0.17593996  0.03463531  1
  O  O26  1  0.18119622  0.42752927  0.90041260  1
  O  O27  1  0.21142096  0.43445814  0.38882070  1
  O  O28  1  0.44729373  0.68103350  0.28353751  1
  O  O29  1  0.46156076  0.69869049  0.79227094  1
  O  O30  1  0.72689213  0.94111497  0.66665713  1
  O  O31  1  0.72561271  0.94116130  0.16971693  1
