# generated using pymatgen
data_Li9Mn2Co5O16
_symmetry_space_group_name_H-M   'P 1'
_cell_length_a   5.83113308
_cell_length_b   10.05937784
_cell_length_c   5.89833942
_cell_angle_alpha   87.88680438
_cell_angle_beta   120.02706545
_cell_angle_gamma   107.43431706
_symmetry_Int_Tables_number   1
_chemical_formula_structural   Li9Mn2Co5O16
_chemical_formula_sum   'Li9 Mn2 Co5 O16'
_cell_volume   283.09733004
_cell_formula_units_Z   1
loop_
 _symmetry_equiv_pos_site_id
 _symmetry_equiv_pos_as_xyz
  1  'x, y, z'
loop_
 _atom_site_type_symbol
 _atom_site_label
 _atom_site_symmetry_multiplicity
 _atom_site_fract_x
 _atom_site_fract_y
 _atom_site_fract_z
 _atom_site_occupancy
  Li  Li0  1  -0.00000000  -0.00000000  0.50000000  1
  Li  Li1  1  0.01944823  0.27006655  0.27700628  1
  Li  Li2  1  -0.00000000  0.50000000  0.00000000  1
  Li  Li3  1  0.50000000  -0.00000000  0.00000000  1
  Li  Li4  1  0.50551057  0.26098963  0.76336906  1
  Li  Li5  1  0.50000000  0.50000000  0.50000000  1
  Li  Li6  1  0.49448943  0.73901037  0.23663094  1
  Li  Li7  1  0.98055177  0.72993345  0.72299372  1
  Li  Li8  1  -0.00000000  0.50000000  0.50000000  1
  Mn  Mn9  1  -0.00000000  -0.00000000  0.00000000  1
  Mn  Mn10  1  0.50000000  -0.00000000  0.50000000  1
  Co  Co11  1  0.00225396  0.25529237  0.75351957  1
  Co  Co12  1  0.99774604  0.74470763  0.24648043  1
  Co  Co13  1  0.52262801  0.26648859  0.25501223  1
  Co  Co14  1  0.50000000  0.50000000  0.00000000  1
  Co  Co15  1  0.47737199  0.73351141  0.74498777  1
  O  O16  1  0.77058605  0.86974172  0.11270588  1
  O  O17  1  0.75040680  0.11244282  0.85200415  1
  O  O18  1  0.75425895  0.35785846  0.62390897  1
  O  O19  1  0.27166647  0.88327438  0.62545871  1
  O  O20  1  0.24810349  0.11255292  0.35057872  1
  O  O21  1  0.26908491  0.38306943  0.13355926  1
  O  O22  1  0.27006466  0.62491561  0.87767465  1
  O  O23  1  0.74906952  0.62369233  0.33792033  1
  O  O24  1  0.22941395  0.13025828  0.88729412  1
  O  O25  1  0.25093048  0.37630767  0.66207967  1
  O  O26  1  0.24574105  0.64214154  0.37609103  1
  O  O27  1  0.72833353  0.11672562  0.37454129  1
  O  O28  1  0.72993534  0.37508439  0.12232535  1
  O  O29  1  0.73091509  0.61693057  0.86644074  1
  O  O30  1  0.75189651  0.88744708  0.64942128  1
  O  O31  1  0.24959320  0.88755718  0.14799585  1
