# generated using pymatgen
data_Li9Mn2Co5O16
_symmetry_space_group_name_H-M   'P 1'
_cell_length_a   5.18388433
_cell_length_b   6.45345910
_cell_length_c   8.60616180
_cell_angle_alpha   82.95337151
_cell_angle_beta   94.23636355
_cell_angle_gamma   84.41347876
_symmetry_Int_Tables_number   1
_chemical_formula_structural   Li9Mn2Co5O16
_chemical_formula_sum   'Li9 Mn2 Co5 O16'
_cell_volume   283.30329020
_cell_formula_units_Z   1
loop_
 _symmetry_equiv_pos_site_id
 _symmetry_equiv_pos_as_xyz
  1  'x, y, z'
loop_
 _atom_site_type_symbol
 _atom_site_label
 _atom_site_symmetry_multiplicity
 _atom_site_fract_x
 _atom_site_fract_y
 _atom_site_fract_z
 _atom_site_occupancy
  Li  Li0  1  0.23853221  0.56297771  0.05490834  1
  Li  Li1  1  0.75014328  0.93278751  0.44138565  1
  Li  Li2  1  0.24201353  0.32175435  0.80787487  1
  Li  Li3  1  0.75652402  0.45326604  0.93312587  1
  Li  Li4  1  0.25068931  0.81375019  0.31717890  1
  Li  Li5  1  0.75842353  0.18392849  0.68778280  1
  Li  Li6  1  0.76224277  0.68502647  0.18806753  1
  Li  Li7  1  0.24171932  0.05034228  0.57274875  1
  Li  Li8  1  0.99844019  0.75165082  0.75079600  1
  Mn  Mn9  1  0.00003065  0.99769628  0.99690625  1
  Mn  Mn10  1  0.50022145  0.37549514  0.37610370  1
  Co  Co11  1  0.50066867  0.12655569  0.12513712  1
  Co  Co12  1  0.99959104  0.49970297  0.50173025  1
  Co  Co13  1  0.49329546  0.87093500  0.86965192  1
  Co  Co14  1  0.99971527  0.25025497  0.25054548  1
  Co  Co15  1  0.50194091  0.62403008  0.62422417  1
  O  O16  1  0.88335704  0.73705993  0.97277153  1
  O  O17  1  0.38701629  0.10481685  0.33260618  1
  O  O18  1  0.84428025  0.48889527  0.69603339  1
  O  O19  1  0.39850127  0.60469525  0.83377830  1
  O  O20  1  0.88896179  0.98361267  0.21296268  1
  O  O21  1  0.39113339  0.35623682  0.59090236  1
  O  O22  1  0.35725271  0.86961513  0.07694669  1
  O  O23  1  0.89377911  0.22749119  0.46171256  1
  O  O24  1  0.61230062  0.39308897  0.16103942  1
  O  O25  1  0.15310618  0.74758301  0.54141133  1
  O  O26  1  0.64396145  0.12839755  0.92222976  1
  O  O27  1  0.11193984  0.27106480  0.03930807  1
  O  O28  1  0.61170076  0.64780103  0.41237786  1
  O  O29  1  0.12007916  0.03599952  0.79467684  1
  O  O30  1  0.10778383  0.51638669  0.29103992  1
  O  O31  1  0.60065469  0.88710134  0.66203552  1
