# generated using pymatgen
data_Li9Mn2Co5O16
_symmetry_space_group_name_H-M   'P 1'
_cell_length_a   2.95648243
_cell_length_b   19.67380229
_cell_length_c   5.10074553
_cell_angle_alpha   91.95933677
_cell_angle_beta   75.14827258
_cell_angle_gamma   86.92799004
_symmetry_Int_Tables_number   1
_chemical_formula_structural   Li9Mn2Co5O16
_chemical_formula_sum   'Li9 Mn2 Co5 O16'
_cell_volume   286.00921980
_cell_formula_units_Z   1
loop_
 _symmetry_equiv_pos_site_id
 _symmetry_equiv_pos_as_xyz
  1  'x, y, z'
loop_
 _atom_site_type_symbol
 _atom_site_label
 _atom_site_symmetry_multiplicity
 _atom_site_fract_x
 _atom_site_fract_y
 _atom_site_fract_z
 _atom_site_occupancy
  Li  Li0  1  0.67097910  0.06443655  0.56960454  1
  Li  Li1  1  0.05761017  0.18838488  0.69070661  1
  Li  Li2  1  0.43698232  0.31329758  0.80755882  1
  Li  Li3  1  0.81301768  0.43670242  0.94244118  1
  Li  Li4  1  0.19238983  0.56161512  0.05929339  1
  Li  Li5  1  0.57902090  0.68556345  0.18039546  1
  Li  Li6  1  0.91113904  0.82078358  0.31682496  1
  Li  Li7  1  0.33886096  0.92921642  0.43317504  1
  Li  Li8  1  0.62500000  0.87500000  0.87500000  1
  Mn  Mn9  1  0.00731956  0.99732462  0.00212689  1
  Mn  Mn10  1  0.24268044  0.75267538  0.74787311  1
  Co  Co11  1  0.37740616  0.12625884  0.11914448  1
  Co  Co12  1  0.74666214  0.25027183  0.24926669  1
  Co  Co13  1  0.12500000  0.37500000  0.37500000  1
  Co  Co14  1  0.50333786  0.49972817  0.50073331  1
  Co  Co15  1  0.87259384  0.62374116  0.63085552  1
  O  O16  1  0.37889364  0.03419210  0.24536528  1
  O  O17  1  0.68459954  0.15873680  0.38703856  1
  O  O18  1  0.10193013  0.28532132  0.51391944  1
  O  O19  1  0.44516160  0.40852812  0.63629468  1
  O  O20  1  0.86562521  0.53357265  0.76366167  1
  O  O21  1  0.19923018  0.65718744  0.88373691  1
  O  O22  1  0.62507482  0.77579141  0.99108507  1
  O  O23  1  0.96659482  0.91497716  0.15790390  1
  O  O24  1  0.05076982  0.09281256  0.86626309  1
  O  O25  1  0.38437579  0.21642835  0.98633833  1
  O  O26  1  0.80483840  0.34147188  0.11370532  1
  O  O27  1  0.14806987  0.46467968  0.23608056  1
  O  O28  1  0.56539946  0.59126320  0.36296144  1
  O  O29  1  0.87110636  0.71580790  0.50463472  1
  O  O30  1  0.28340618  0.83502384  0.59209610  1
  O  O31  1  0.62492618  0.97420859  0.75891493  1
