# generated using pymatgen
data_Li9Mn2Co5O16
_symmetry_space_group_name_H-M   'P 1'
_cell_length_a   5.90922687
_cell_length_b   7.73876634
_cell_length_c   6.48695636
_cell_angle_alpha   88.98117277
_cell_angle_beta   77.00387154
_cell_angle_gamma   81.88993743
_symmetry_Int_Tables_number   1
_chemical_formula_structural   Li9Mn2Co5O16
_chemical_formula_sum   'Li9 Mn2 Co5 O16'
_cell_volume   286.13000946
_cell_formula_units_Z   1
loop_
 _symmetry_equiv_pos_site_id
 _symmetry_equiv_pos_as_xyz
  1  'x, y, z'
loop_
 _atom_site_type_symbol
 _atom_site_label
 _atom_site_symmetry_multiplicity
 _atom_site_fract_x
 _atom_site_fract_y
 _atom_site_fract_z
 _atom_site_occupancy
  Li  Li0  1  0.86931556  0.38648399  0.13303867  1
  Li  Li1  1  0.38930464  0.86085002  0.61545380  1
  Li  Li2  1  0.63108561  0.62009501  0.86714778  1
  Li  Li3  1  0.12475680  0.12863269  0.37870766  1
  Li  Li4  1  0.37288861  0.38241039  0.13649211  1
  Li  Li5  1  0.87613386  0.86899700  0.61729558  1
  Li  Li6  1  0.12239530  0.62217419  0.87168398  1
  Li  Li7  1  0.61533173  0.13186154  0.38072114  1
  Li  Li8  1  0.50293622  0.50054618  0.49753946  1
  Mn  Mn9  1  0.99802241  -0.00049650  0.00085816  1
  Mn  Mn10  1  0.74622362  0.25303252  0.74924100  1
  Co  Co11  1  0.25752076  0.74164765  0.25110218  1
  Co  Co12  1  0.49752416  0.99951889  0.00076437  1
  Co  Co13  1  0.00410509  0.50548105  0.50118059  1
  Co  Co14  1  0.24873637  0.25510000  0.74873225  1
  Co  Co15  1  0.74947186  0.74524255  0.24943149  1
  O  O16  1  0.17964194  0.18096225  0.04142160  1
  O  O17  1  0.70225087  0.68650717  0.53611975  1
  O  O18  1  0.92087836  0.42982560  0.80799305  1
  O  O19  1  0.42457786  0.93887118  0.29137678  1
  O  O20  1  0.70297864  0.16777924  0.04881566  1
  O  O21  1  0.17773346  0.68597646  0.55693871  1
  O  O22  1  0.45739242  0.40796337  0.81057101  1
  O  O23  1  0.93680916  0.92799566  0.28979978  1
  O  O24  1  0.56730256  0.58122791  0.18740431  1
  O  O25  1  0.04136241  0.08048175  0.70964354  1
  O  O26  1  0.29145124  0.83790316  0.94325358  1
  O  O27  1  0.81889549  0.31161158  0.45978008  1
  O  O28  1  0.08164279  0.56412371  0.18899895  1
  O  O29  1  0.57402898  0.06385966  0.70851681  1
  O  O30  1  0.81717298  0.82065766  0.95510473  1
  O  O31  1  0.30012824  0.31267646  0.46487147  1
