# generated using pymatgen
data_Li9Mn2Co5O16
_symmetry_space_group_name_H-M   'P 1'
_cell_length_a   5.17893339
_cell_length_b   6.44942511
_cell_length_c   8.60303479
_cell_angle_alpha   82.89664587
_cell_angle_beta   94.37233410
_cell_angle_gamma   84.38229268
_symmetry_Int_Tables_number   1
_chemical_formula_structural   Li9Mn2Co5O16
_chemical_formula_sum   'Li9 Mn2 Co5 O16'
_cell_volume   282.63847712
_cell_formula_units_Z   1
loop_
 _symmetry_equiv_pos_site_id
 _symmetry_equiv_pos_as_xyz
  1  'x, y, z'
loop_
 _atom_site_type_symbol
 _atom_site_label
 _atom_site_symmetry_multiplicity
 _atom_site_fract_x
 _atom_site_fract_y
 _atom_site_fract_z
 _atom_site_occupancy
  Li  Li0  1  0.25924674  0.56012599  0.06740919  1
  Li  Li1  1  0.74452261  0.93915556  0.43837152  1
  Li  Li2  1  0.25105137  0.31678263  0.80677970  1
  Li  Li3  1  0.74077176  0.44463554  0.93638930  1
  Li  Li4  1  0.25692551  0.80222988  0.31729320  1
  Li  Li5  1  0.74866787  0.19019766  0.68290391  1
  Li  Li6  1  0.74225218  0.67284201  0.19351059  1
  Li  Li7  1  0.25532493  0.07120276  0.55770596  1
  Li  Li8  1  0.49978977  0.37536409  0.37496184  1
  Mn  Mn9  1  0.99957140  0.99703517  0.99832238  1
  Mn  Mn10  1  0.50111622  0.12774710  0.12892953  1
  Co  Co11  1  0.99886781  0.74769175  0.74838450  1
  Co  Co12  1  0.99721657  0.50140346  0.50134610  1
  Co  Co13  1  0.49923339  0.87418609  0.87308848  1
  Co  Co14  1  0.01002885  0.25591669  0.25582962  1
  Co  Co15  1  0.50102363  0.62500312  0.62410775  1
  O  O16  1  0.88854218  0.72738818  0.95880584  1
  O  O17  1  0.37429158  0.08972923  0.33022992  1
  O  O18  1  0.88904494  0.48073016  0.71350880  1
  O  O19  1  0.38434078  0.61137712  0.83208879  1
  O  O20  1  0.85317725  0.99355752  0.20560184  1
  O  O21  1  0.34799196  0.37720333  0.58419392  1
  O  O22  1  0.39515830  0.85137142  0.08677721  1
  O  O23  1  0.90094336  0.24104724  0.46259792  1
  O  O24  1  0.62168554  0.38664645  0.15313847  1
  O  O25  1  0.10629566  0.76518547  0.53873514  1
  O  O26  1  0.60365529  0.14408441  0.91070300  1
  O  O27  1  0.14578996  0.25888254  0.04745164  1
  O  O28  1  0.65689456  0.63705285  0.43013824  1
  O  O29  1  0.11118102  0.01671639  0.78605096  1
  O  O30  1  0.10256374  0.52354103  0.29042156  1
  O  O31  1  0.61283326  0.89396716  0.66422317  1
