# generated using pymatgen
data_Li9Mn2Co5O16
_symmetry_space_group_name_H-M   'P 1'
_cell_length_a   5.91701355
_cell_length_b   6.46638150
_cell_length_c   8.58850808
_cell_angle_alpha   96.99646696
_cell_angle_beta   70.55557463
_cell_angle_gamma   113.80862695
_symmetry_Int_Tables_number   1
_chemical_formula_structural   Li9Mn2Co5O16
_chemical_formula_sum   'Li9 Mn2 Co5 O16'
_cell_volume   283.46802248
_cell_formula_units_Z   1
loop_
 _symmetry_equiv_pos_site_id
 _symmetry_equiv_pos_as_xyz
  1  'x, y, z'
loop_
 _atom_site_type_symbol
 _atom_site_label
 _atom_site_symmetry_multiplicity
 _atom_site_fract_x
 _atom_site_fract_y
 _atom_site_fract_z
 _atom_site_occupancy
  Li  Li0  1  0.26773620  0.25962812  0.25967148  1
  Li  Li1  1  0.74528198  0.00269418  0.50522336  1
  Li  Li2  1  0.72672072  0.25530971  0.26559689  1
  Li  Li3  1  0.25387773  0.00432634  0.50269423  1
  Li  Li4  1  0.26052846  0.74034701  0.73522457  1
  Li  Li5  1  0.74470427  0.73983181  0.74034986  1
  Li  Li6  1  0.76158663  0.50132488  0.99577112  1
  Li  Li7  1  0.24339550  0.49660585  0.99673690  1
  Li  Li8  1  0.50195950  0.49927040  0.50269022  1
  Mn  Mn9  1  0.99393029  0.99789880  0.99745169  1
  Mn  Mn10  1  0.49865773  0.74678067  0.25530165  1
  Co  Co11  1  0.00119630  0.49697681  0.49993299  1
  Co  Co12  1  0.49812374  0.25291447  0.74689866  1
  Co  Co13  1  0.49657581  0.00049391  0.99848597  1
  Co  Co14  1  0.98992708  0.74117122  0.25253309  1
  Co  Co15  1  0.01309045  0.25943579  0.74872153  1
  O  O16  1  0.85277723  0.97265991  0.24107836  1
  O  O17  1  0.38658385  0.75275014  0.48270264  1
  O  O18  1  0.38830148  0.99080909  0.23319771  1
  O  O19  1  0.90092464  0.73632899  0.48061102  1
  O  O20  1  0.89268102  0.49061978  0.74302096  1
  O  O21  1  0.38409432  0.48481172  0.75294347  1
  O  O22  1  0.34045935  0.21354094  0.99398262  1
  O  O23  1  0.88403166  0.23826465  0.99121665  1
  O  O24  1  0.61992663  0.51401570  0.24499122  1
  O  O25  1  0.10742398  0.26306731  0.51464376  1
  O  O26  1  0.15522497  0.52928259  0.25163562  1
  O  O27  1  0.63137224  0.25940928  0.51525618  1
  O  O28  1  0.60681238  0.01416386  0.76717147  1
  O  O29  1  0.10292343  0.00524692  0.76238722  1
  O  O30  1  0.10694558  0.76106766  0.01519723  1
  O  O31  1  0.64222484  0.77895149  0.00667969  1
