# generated using pymatgen
data_Li9Mn2Co5O16
_symmetry_space_group_name_H-M   'P 1'
_cell_length_a   5.89208597
_cell_length_b   8.61397687
_cell_length_c   5.92916818
_cell_angle_alpha   70.79110651
_cell_angle_beta   86.31137016
_cell_angle_gamma   87.98945548
_symmetry_Int_Tables_number   1
_chemical_formula_structural   Li9Mn2Co5O16
_chemical_formula_sum   'Li9 Mn2 Co5 O16'
_cell_volume   283.55688655
_cell_formula_units_Z   1
loop_
 _symmetry_equiv_pos_site_id
 _symmetry_equiv_pos_as_xyz
  1  'x, y, z'
loop_
 _atom_site_type_symbol
 _atom_site_label
 _atom_site_symmetry_multiplicity
 _atom_site_fract_x
 _atom_site_fract_y
 _atom_site_fract_z
 _atom_site_occupancy
  Li  Li0  1  0.25310344  0.25755181  0.12104473  1
  Li  Li1  1  0.99252080  0.49755866  0.24494790  1
  Li  Li2  1  0.25090378  0.25741222  0.62100504  1
  Li  Li3  1  0.99305049  0.49060226  0.76119319  1
  Li  Li4  1  0.74521435  0.74231772  0.87949533  1
  Li  Li5  1  0.74933616  0.74471634  0.37890612  1
  Li  Li6  1  0.50439127  0.00741351  0.49222532  1
  Li  Li7  1  0.50411678  0.00403352  0.00179036  1
  Li  Li8  1  0.75013746  0.25660666  0.12394055  1
  Mn  Mn9  1  0.99583754  0.00100085  0.99628021  1
  Mn  Mn10  1  0.99519670  0.99983826  0.49406429  1
  Co  Co11  1  0.50521211  0.50166999  0.25150077  1
  Co  Co12  1  0.25349871  0.75053967  0.37436020  1
  Co  Co13  1  0.74739455  0.25047240  0.62443586  1
  Co  Co14  1  0.50659011  0.49632566  0.75958149  1
  Co  Co15  1  0.24842772  0.74541966  0.87306800  1
  O  O16  1  0.97396317  0.23713825  0.85481805  1
  O  O17  1  0.73222033  0.49997963  0.01998259  1
  O  O18  1  0.98930519  0.23590003  0.39855012  1
  O  O19  1  0.74545467  0.48515346  0.52938761  1
  O  O20  1  0.48658201  0.73498048  0.64641848  1
  O  O21  1  0.48546718  0.74537083  0.13871493  1
  O  O22  1  0.24833831  0.99434206  0.26899968  1
  O  O23  1  0.22109673  0.98754369  0.74006928  1
  O  O24  1  0.52951117  0.26630609  0.39829149  1
  O  O25  1  0.26683990  0.51489187  0.47889638  1
  O  O26  1  0.51394478  0.25988263  0.85532090  1
  O  O27  1  0.25714965  0.50657073  0.98242159  1
  O  O28  1  0.01357904  0.76005593  0.10263639  1
  O  O29  1  0.01107023  0.75985940  0.60370253  1
  O  O30  1  0.74890828  0.01060219  0.72255840  1
  O  O31  1  0.78163737  0.99794356  0.26139018  1
