# generated using pymatgen
data_Li9Mn2Co5O16
_symmetry_space_group_name_H-M   'P 1'
_cell_length_a   5.03609395
_cell_length_b   5.83890943
_cell_length_c   9.82628246
_cell_angle_alpha   98.55932172
_cell_angle_beta   84.41847307
_cell_angle_gamma   90.68450723
_symmetry_Int_Tables_number   1
_chemical_formula_structural   Li9Mn2Co5O16
_chemical_formula_sum   'Li9 Mn2 Co5 O16'
_cell_volume   284.37094522
_cell_formula_units_Z   1
loop_
 _symmetry_equiv_pos_site_id
 _symmetry_equiv_pos_as_xyz
  1  'x, y, z'
loop_
 _atom_site_type_symbol
 _atom_site_label
 _atom_site_symmetry_multiplicity
 _atom_site_fract_x
 _atom_site_fract_y
 _atom_site_fract_z
 _atom_site_occupancy
  Li  Li0  1  0.12757453  0.81303287  0.25056226  1
  Li  Li1  1  0.36791296  0.93898286  0.74787273  1
  Li  Li2  1  0.62694777  0.06520207  0.25446956  1
  Li  Li3  1  0.62245705  0.56024641  0.25669266  1
  Li  Li4  1  0.87366435  0.68251237  0.74707788  1
  Li  Li5  1  0.12670873  0.31341810  0.24922356  1
  Li  Li6  1  0.38164115  0.43355041  0.74589526  1
  Li  Li7  1  0.87793347  0.19114553  0.74801784  1
  Li  Li8  1  0.75029037  0.37490214  0.50012750  1
  Mn  Mn9  1  0.99884301  0.00004622  0.00007131  1
  Mn  Mn10  1  0.25207069  0.12639245  0.50035978  1
  Co  Co11  1  0.51135551  0.25745636  -0.00182362  1
  Co  Co12  1  -0.00003285  0.50044494  0.99958601  1
  Co  Co13  1  0.24777231  0.61701566  0.49911703  1
  Co  Co14  1  0.48773611  0.74360700  0.00201417  1
  Co  Co15  1  0.75186679  0.87529116  0.49997923  1
  O  O16  1  0.81682950  0.79014565  0.11306970  1
  O  O17  1  0.06698643  0.91386894  0.61610947  1
  O  O18  1  0.29659850  0.03238151  0.11145517  1
  O  O19  1  0.32927464  0.53445276  0.12075663  1
  O  O20  1  0.56016185  0.67486175  0.60724056  1
  O  O21  1  0.81530988  0.26261341  0.11700790  1
  O  O22  1  0.09056124  0.39159387  0.61757235  1
  O  O23  1  0.55549342  0.13567331  0.60831881  1
  O  O24  1  0.43060877  0.85826101  0.38443931  1
  O  O25  1  0.70028408  0.96746843  0.88900966  1
  O  O26  1  0.94471373  0.07965672  0.39376905  1
  O  O27  1  0.93712736  0.61692516  0.38971810  1
  O  O28  1  0.18328638  0.73899730  0.88421892  1
  O  O29  1  0.41206090  0.33377057  0.38293205  1
  O  O30  1  0.67230536  0.46577943  0.87706015  1
  O  O31  1  0.18365602  0.21030362  0.88807903  1
