# generated using pymatgen
data_Li9Mn2Co5O16
_symmetry_space_group_name_H-M   'P 1'
_cell_length_a   5.92890876
_cell_length_b   6.43248153
_cell_length_c   8.61209097
_cell_angle_alpha   97.07905767
_cell_angle_beta   70.74088813
_cell_angle_gamma   113.98556232
_symmetry_Int_Tables_number   1
_chemical_formula_structural   Li9Mn2Co5O16
_chemical_formula_sum   'Li9 Mn2 Co5 O16'
_cell_volume   283.26654839
_cell_formula_units_Z   1
loop_
 _symmetry_equiv_pos_site_id
 _symmetry_equiv_pos_as_xyz
  1  'x, y, z'
loop_
 _atom_site_type_symbol
 _atom_site_label
 _atom_site_symmetry_multiplicity
 _atom_site_fract_x
 _atom_site_fract_y
 _atom_site_fract_z
 _atom_site_occupancy
  Li  Li0  1  0.23818011  0.24719254  0.25708310  1
  Li  Li1  1  0.74237247  0.99435531  0.49845722  1
  Li  Li2  1  0.75618294  0.25603285  0.25698925  1
  Li  Li3  1  0.25646900  0.99320498  0.49220938  1
  Li  Li4  1  0.25178036  0.74506753  0.74287259  1
  Li  Li5  1  0.75321439  0.74944509  0.74553892  1
  Li  Li6  1  0.75354438  0.51001796  0.00474996  1
  Li  Li7  1  0.24203106  0.49654778  0.00396984  1
  Li  Li8  1  0.49941472  0.75013755  0.25555776  1
  Mn  Mn9  1  0.99140437  0.99510199  -0.00001662  1
  Mn  Mn10  1  0.49449436  0.99514064  0.00152240  1
  Co  Co11  1  0.01352545  0.50831609  0.49861600  1
  Co  Co12  1  0.49850379  0.25102261  0.74712782  1
  Co  Co13  1  0.99862028  0.74740820  0.25080328  1
  Co  Co14  1  0.50526332  0.50533625  0.49975120  1
  Co  Co15  1  0.00072513  0.25094581  0.74803052  1
  O  O16  1  0.89333402  0.98886865  0.23613959  1
  O  O17  1  0.38427771  0.73235556  0.50019055  1
  O  O18  1  0.34318242  0.97717628  0.23796583  1
  O  O19  1  0.90045885  0.74359499  0.48556656  1
  O  O20  1  0.88452538  0.48490284  0.73922559  1
  O  O21  1  0.38646781  0.48694838  0.73997004  1
  O  O22  1  0.35343514  0.22516086  0.98973986  1
  O  O23  1  0.88940220  0.24230397  0.99085741  1
  O  O24  1  0.66112690  0.52611829  0.26430365  1
  O  O25  1  0.10947013  0.26100394  0.51192558  1
  O  O26  1  0.11167507  0.51573746  0.26165408  1
  O  O27  1  0.61330804  0.26398443  0.51054448  1
  O  O28  1  0.60993927  0.01330100  0.75993407  1
  O  O29  1  0.11007238  0.01100818  0.76037832  1
  O  O30  1  0.10122260  0.75293216  0.01009900  1
  O  O31  1  0.65237595  0.77932982  0.99824275  1
