# generated using pymatgen
data_ZnFeO2
_symmetry_space_group_name_H-M   'P 1'
_cell_length_a   3.01088249
_cell_length_b   8.22107128
_cell_length_c   8.46953162
_cell_angle_alpha   89.11968147
_cell_angle_beta   78.85213200
_cell_angle_gamma   78.81431855
_symmetry_Int_Tables_number   1
_chemical_formula_structural   ZnFeO2
_chemical_formula_sum   'Zn4 Fe4 O8'
_cell_volume   201.72721834
_cell_formula_units_Z   4
loop_
 _symmetry_equiv_pos_site_id
 _symmetry_equiv_pos_as_xyz
  1  'x, y, z'
loop_
 _atom_site_type_symbol
 _atom_site_label
 _atom_site_symmetry_multiplicity
 _atom_site_fract_x
 _atom_site_fract_y
 _atom_site_fract_z
 _atom_site_occupancy
  Zn  Zn0  1  0.30295710  0.07186259  0.26651606  1
  Zn  Zn1  1  0.69790610  0.90813471  0.76173881  1
  Zn  Zn2  1  0.08258403  0.73012958  0.10288941  1
  Zn  Zn3  1  0.91420419  0.24971285  0.92533560  1
  Fe  Fe4  1  0.55606025  0.22770847  0.60052301  1
  Fe  Fe5  1  0.16043873  0.40628288  0.24871962  1
  Fe  Fe6  1  0.83366383  0.57370403  0.77925092  1
  Fe  Fe7  1  0.43639161  0.75297385  0.42766476  1
  O  O8  1  0.87152419  0.72656342  0.58423326  1
  O  O9  1  0.40629439  0.39140021  0.81489015  1
  O  O10  1  0.59050073  0.58836399  0.21320054  1
  O  O11  1  0.12089895  0.25350338  0.44395859  1
  O  O12  1  0.11863846  0.08288194  0.74665699  1
  O  O13  1  0.79589928  0.22723775  0.15256048  1
  O  O14  1  0.88396402  0.89661291  0.28187117  1
  O  O15  1  0.19634913  0.75226143  0.87560663  1
