# generated using pymatgen
data_Li9Mn2Co5O16
_symmetry_space_group_name_H-M   'P 1'
_cell_length_a   5.94570671
_cell_length_b   9.75328175
_cell_length_c   5.92503253
_cell_angle_alpha   80.36291213
_cell_angle_beta   59.26518846
_cell_angle_gamma   80.18795603
_symmetry_Int_Tables_number   1
_chemical_formula_structural   Li9Mn2Co5O16
_chemical_formula_sum   'Li9 Mn2 Co5 O16'
_cell_volume   289.70166107
_cell_formula_units_Z   1
loop_
 _symmetry_equiv_pos_site_id
 _symmetry_equiv_pos_as_xyz
  1  'x, y, z'
loop_
 _atom_site_type_symbol
 _atom_site_label
 _atom_site_symmetry_multiplicity
 _atom_site_fract_x
 _atom_site_fract_y
 _atom_site_fract_z
 _atom_site_occupancy
  Li  Li0  1  0.11901440  0.26697007  0.13516063  1
  Li  Li1  1  0.75000000  0.50000000  0.25000000  1
  Li  Li2  1  0.38098560  0.73302993  0.36483937  1
  Li  Li3  1  0.00074287  0.00008940  0.49938887  1
  Li  Li4  1  0.62403502  0.25752234  0.63002880  1
  Li  Li5  1  0.25000000  0.50000000  0.75000000  1
  Li  Li6  1  0.87596498  0.74247766  0.86997120  1
  Li  Li7  1  0.49925713  0.99991060  0.00061113  1
  Li  Li8  1  0.25000000  0.50000000  0.25000000  1
  Mn  Mn9  1  -0.00010898  0.00067258  0.00015344  1
  Mn  Mn10  1  0.50010898  0.99932742  0.49984656  1
  Co  Co11  1  0.12699826  0.26160142  0.61963443  1
  Co  Co12  1  0.37300174  0.73839858  0.88036557  1
  Co  Co13  1  0.61158355  0.26191232  0.12210145  1
  Co  Co14  1  0.75000000  0.50000000  0.75000000  1
  Co  Co15  1  0.88841645  0.73808768  0.37789855  1
  O  O16  1  0.30094975  0.11105763  0.80461995  1
  O  O17  1  0.92941594  0.37304286  0.93947661  1
  O  O18  1  0.56847609  0.62675482  0.03328704  1
  O  O19  1  0.17431421  0.87727258  0.17196061  1
  O  O20  1  0.80046921  0.11185588  0.30267602  1
  O  O21  1  0.43418240  0.36051825  0.44674542  1
  O  O22  1  0.05035398  0.63101061  0.55364315  1
  O  O23  1  0.66945132  0.87798372  0.67166632  1
  O  O24  1  0.93152291  0.37324518  0.46671296  1
  O  O25  1  0.57058306  0.62695714  0.56052339  1
  O  O26  1  0.19905025  0.88894237  0.69538105  1
  O  O27  1  0.83054768  0.12201628  0.82833468  1
  O  O28  1  0.44964502  0.36898939  0.94635785  1
  O  O29  1  0.06581660  0.63948175  0.05325458  1
  O  O30  1  0.69952979  0.88814412  0.19732398  1
  O  O31  1  0.32568479  0.12272742  0.32804039  1
