# generated using pymatgen
data_Li9Mn2Co5O16
_symmetry_space_group_name_H-M   'P 1'
_cell_length_a   5.84064445
_cell_length_b   9.72778241
_cell_length_c   5.93125402
_cell_angle_alpha   79.06825861
_cell_angle_beta   60.29578185
_cell_angle_gamma   80.79675786
_symmetry_Int_Tables_number   1
_chemical_formula_structural   Li9Mn2Co5O16
_chemical_formula_sum   'Li9 Mn2 Co5 O16'
_cell_volume   286.53799774
_cell_formula_units_Z   1
loop_
 _symmetry_equiv_pos_site_id
 _symmetry_equiv_pos_as_xyz
  1  'x, y, z'
loop_
 _atom_site_type_symbol
 _atom_site_label
 _atom_site_symmetry_multiplicity
 _atom_site_fract_x
 _atom_site_fract_y
 _atom_site_fract_z
 _atom_site_occupancy
  Li  Li0  1  0.13036973  0.26099317  0.12940022  1
  Li  Li1  1  0.74414577  0.50143285  0.25580900  1
  Li  Li2  1  0.38114045  0.73508366  0.35653760  1
  Li  Li3  1  0.99512329  0.99658950  0.50468928  1
  Li  Li4  1  0.62264596  0.25727130  0.63641357  1
  Li  Li5  1  0.25613216  0.50545822  0.74367973  1
  Li  Li6  1  0.87565162  0.74438092  0.86858296  1
  Li  Li7  1  0.50041120  0.99572183  0.99696220  1
  Li  Li8  1  0.25429849  0.49945036  0.24657326  1
  Mn  Mn9  1  0.99820544  0.00026814  0.00527703  1
  Mn  Mn10  1  0.12819900  0.25483312  0.62216400  1
  Co  Co11  1  0.36858074  0.74614599  0.87794652  1
  Co  Co12  1  0.50152481  0.99523078  0.50397003  1
  Co  Co13  1  0.62425197  0.25608243  0.13019445  1
  Co  Co14  1  0.75090913  0.50212544  0.74339719  1
  Co  Co15  1  0.88351492  0.73850470  0.36586649  1
  O  O16  1  0.29053300  0.12101394  0.81536652  1
  O  O17  1  0.93945622  0.36305895  0.92048116  1
  O  O18  1  0.55813202  0.62959748  0.03023196  1
  O  O19  1  0.16208177  0.88565786  0.19341585  1
  O  O20  1  0.80922844  0.12132495  0.28291679  1
  O  O21  1  0.42266511  0.36287677  0.45490191  1
  O  O22  1  0.04190102  0.62936169  0.55891930  1
  O  O23  1  0.65602964  0.87383158  0.68681689  1
  O  O24  1  0.94852473  0.36725852  0.45571480  1
  O  O25  1  0.57324689  0.62523833  0.54900394  1
  O  O26  1  0.17727778  0.88196603  0.72688745  1
  O  O27  1  0.84076666  0.12143231  0.81000568  1
  O  O28  1  0.47154018  0.36975809  0.94292391  1
  O  O29  1  0.07778989  0.63632590  0.05540464  1
  O  O30  1  0.69716263  0.88528401  0.19049412  1
  O  O31  1  0.31855236  0.13644124  0.33905554  1
