# generated using pymatgen
data_Li9Mn2Co5O16
_symmetry_space_group_name_H-M   'P 1'
_cell_length_a   4.98115056
_cell_length_b   9.81859104
_cell_length_c   5.91785437
_cell_angle_alpha   88.20180471
_cell_angle_beta   91.34777907
_cell_angle_gamma   100.96858853
_symmetry_Int_Tables_number   1
_chemical_formula_structural   Li9Mn2Co5O16
_chemical_formula_sum   'Li9 Mn2 Co5 O16'
_cell_volume   283.95695136
_cell_formula_units_Z   1
loop_
 _symmetry_equiv_pos_site_id
 _symmetry_equiv_pos_as_xyz
  1  'x, y, z'
loop_
 _atom_site_type_symbol
 _atom_site_label
 _atom_site_symmetry_multiplicity
 _atom_site_fract_x
 _atom_site_fract_y
 _atom_site_fract_z
 _atom_site_occupancy
  Li  Li0  1  0.74838694  0.25454380  0.00720019  1
  Li  Li1  1  0.75677613  0.74905615  0.25313447  1
  Li  Li2  1  0.75423162  0.25799874  0.49204941  1
  Li  Li3  1  0.24988987  0.24967081  0.24789194  1
  Li  Li4  1  0.24570183  0.74581050  0.50140328  1
  Li  Li5  1  0.24134542  0.25237122  0.75165050  1
  Li  Li6  1  0.75238219  0.74794359  0.74422138  1
  Li  Li7  1  0.25114993  0.74371959  0.00456467  1
  Li  Li8  1  0.99953116  0.49809409  0.25169221  1
  Mn  Mn9  1  0.99821979  0.99849194  0.99960062  1
  Mn  Mn10  1  0.50099537  0.49944248  0.00324586  1
  Co  Co11  1  0.99986632  0.00096174  0.49960417  1
  Co  Co12  1  0.00121357  0.50172796  0.75242576  1
  Co  Co13  1  0.50622030  0.49860700  0.49390766  1
  Co  Co14  1  0.50009370  0.00052759  0.74665160  1
  Co  Co15  1  0.49945284  0.99963943  0.25196285  1
  O  O16  1  0.85883261  0.11737206  0.76524481  1
  O  O17  1  0.86653542  0.60700299  0.97543945  1
  O  O18  1  0.86316033  0.11776815  0.27337235  1
  O  O19  1  0.36032426  0.11346958  0.99629784  1
  O  O20  1  0.40568043  0.60831514  0.24165921  1
  O  O21  1  0.35602744  0.11429469  0.49428719  1
  O  O22  1  0.86199562  0.60894245  0.52003554  1
  O  O23  1  0.35856008  0.61497274  0.76676685  1
  O  O24  1  0.60725003  0.38003626  0.23386044  1
  O  O25  1  0.64279948  0.88654065  0.50244650  1
  O  O26  1  0.62976748  0.39398634  0.75206273  1
  O  O27  1  0.13416526  0.39855162  0.53085465  1
  O  O28  1  0.13835590  0.88487683  0.72470127  1
  O  O29  1  0.13598268  0.39113397  0.98338165  1
  O  O30  1  0.63720746  0.88439027  0.00386112  1
  O  O31  1  0.13789851  0.87973961  0.23452183  1
