# generated using pymatgen
data_Li9Mn2Co5O16
_symmetry_space_group_name_H-M   'P 1'
_cell_length_a   5.87486040
_cell_length_b   5.90897847
_cell_length_c   8.14116674
_cell_angle_alpha   90.72590391
_cell_angle_beta   89.32675206
_cell_angle_gamma   86.78254789
_symmetry_Int_Tables_number   1
_chemical_formula_structural   Li9Mn2Co5O16
_chemical_formula_sum   'Li9 Mn2 Co5 O16'
_cell_volume   282.12580192
_cell_formula_units_Z   1
loop_
 _symmetry_equiv_pos_site_id
 _symmetry_equiv_pos_as_xyz
  1  'x, y, z'
loop_
 _atom_site_type_symbol
 _atom_site_label
 _atom_site_symmetry_multiplicity
 _atom_site_fract_x
 _atom_site_fract_y
 _atom_site_fract_z
 _atom_site_occupancy
  Li  Li0  1  0.50359248  0.00471136  0.00332759  1
  Li  Li1  1  0.25324959  0.24865295  0.25649251  1
  Li  Li2  1  0.74803167  0.25073723  0.74510404  1
  Li  Li3  1  0.50391219  0.49540748  0.00602356  1
  Li  Li4  1  0.99333787  0.49337878  0.49599912  1
  Li  Li5  1  0.74661171  0.75105570  0.74330931  1
  Li  Li6  1  0.25100476  0.75054720  0.25637490  1
  Li  Li7  1  0.99462536  0.00595330  0.49397284  1
  Li  Li8  1  0.75011171  0.25132844  0.25541975  1
  Mn  Mn9  1  0.99545229  0.99767187  0.00132637  1
  Mn  Mn10  1  0.99531883  0.49412424  0.00062934  1
  Co  Co11  1  0.50520619  0.50312682  0.49977464  1
  Co  Co12  1  0.25100773  0.74740900  0.74739779  1
  Co  Co13  1  0.74687872  0.74971134  0.25045221  1
  Co  Co14  1  0.50784381  0.00870739  0.49741669  1
  Co  Co15  1  0.25191174  0.24994895  0.74878145  1
  O  O16  1  0.22208341  0.73535618  0.98793357  1
  O  O17  1  0.97539961  0.97459813  0.23750576  1
  O  O18  1  0.48591880  0.01327430  0.74368380  1
  O  O19  1  0.24611737  0.26555517  0.99473749  1
  O  O20  1  0.72888656  0.26221614  0.50029677  1
  O  O21  1  0.48507654  0.51130794  0.73791038  1
  O  O22  1  0.98980434  0.51631908  0.23650757  1
  O  O23  1  0.74448908  0.77029757  0.48503557  1
  O  O24  1  0.77982051  0.26030987  0.99890516  1
  O  O25  1  0.52777221  0.52849453  0.26550185  1
  O  O26  1  0.01092856  0.48468602  0.76060599  1
  O  O27  1  0.75016882  0.72838940  0.01020059  1
  O  O28  1  0.26948425  0.74276210  0.51243684  1
  O  O29  1  0.01361494  0.98488607  0.75971076  1
  O  O30  1  0.51306660  0.98302324  0.25800775  1
  O  O31  1  0.25927176  0.23605223  0.50921806  1
