# generated using pymatgen
data_Li9Mn2Co5O16
_symmetry_space_group_name_H-M   'P 1'
_cell_length_a   5.00401918
_cell_length_b   5.92128981
_cell_length_c   10.17707112
_cell_angle_alpha   105.10694507
_cell_angle_beta   79.89179087
_cell_angle_gamma   88.75412978
_symmetry_Int_Tables_number   1
_chemical_formula_structural   Li9Mn2Co5O16
_chemical_formula_sum   'Li9 Mn2 Co5 O16'
_cell_volume   285.88569678
_cell_formula_units_Z   1
loop_
 _symmetry_equiv_pos_site_id
 _symmetry_equiv_pos_as_xyz
  1  'x, y, z'
loop_
 _atom_site_type_symbol
 _atom_site_label
 _atom_site_symmetry_multiplicity
 _atom_site_fract_x
 _atom_site_fract_y
 _atom_site_fract_z
 _atom_site_occupancy
  Li  Li0  1  0.25820644  0.12335490  0.25238050  1
  Li  Li1  1  0.25270591  0.61324138  0.74547110  1
  Li  Li2  1  0.74467372  0.37785675  0.25560865  1
  Li  Li3  1  0.74030705  0.87249365  0.74667195  1
  Li  Li4  1  0.24972649  0.63049007  0.25127730  1
  Li  Li5  1  0.25470289  0.13058406  0.74292743  1
  Li  Li6  1  0.74675360  0.87499529  0.25433337  1
  Li  Li7  1  0.75065610  0.37621647  0.75038457  1
  Li  Li8  1  0.50091704  0.24935516  0.50117671  1
  Mn  Mn9  1  0.99897186  0.00037541  0.00075653  1
  Mn  Mn10  1  0.00070049  0.49758837  0.50059492  1
  Co  Co11  1  0.50038678  0.25298302  0.00068950  1
  Co  Co12  1  0.50083087  0.74741374  0.49895135  1
  Co  Co13  1  0.00067629  0.49989529  0.99926524  1
  Co  Co14  1  0.00599639  0.00588789  0.50116217  1
  Co  Co15  1  0.49846878  0.74764005  0.99946355  1
  O  O16  1  0.13602459  0.82449369  0.11816173  1
  O  O17  1  0.10673797  0.32253660  0.61871328  1
  O  O18  1  0.63759220  0.05976864  0.12002853  1
  O  O19  1  0.63602865  0.57186281  0.60962673  1
  O  O20  1  0.13957682  0.33199178  0.11524393  1
  O  O21  1  0.12942882  0.79967449  0.60655956  1
  O  O22  1  0.64439239  0.55480831  0.11277749  1
  O  O23  1  0.63231305  0.02220921  0.60202075  1
  O  O24  1  0.36651241  0.47057882  0.39279209  1
  O  O25  1  0.36069871  0.94246205  0.88418442  1
  O  O26  1  0.85834753  0.67881848  0.38644098  1
  O  O27  1  0.86003139  0.17470526  0.88237128  1
  O  O28  1  0.36177785  0.92436540  0.39011827  1
  O  O29  1  0.35772558  0.44496092  0.88396274  1
  O  O30  1  0.90588719  0.20610646  0.39073439  1
  O  O31  1  0.86224417  0.67028560  0.88514900  1
