# generated using pymatgen
data_Li9Mn2Co5O16
_symmetry_space_group_name_H-M   'P 1'
_cell_length_a   5.06835866
_cell_length_b   5.83318718
_cell_length_c   9.83343453
_cell_angle_alpha   98.37548773
_cell_angle_beta   84.39092540
_cell_angle_gamma   90.69569208
_symmetry_Int_Tables_number   1
_chemical_formula_structural   Li9Mn2Co5O16
_chemical_formula_sum   'Li9 Mn2 Co5 O16'
_cell_volume   286.24396115
_cell_formula_units_Z   1
loop_
 _symmetry_equiv_pos_site_id
 _symmetry_equiv_pos_as_xyz
  1  'x, y, z'
loop_
 _atom_site_type_symbol
 _atom_site_label
 _atom_site_symmetry_multiplicity
 _atom_site_fract_x
 _atom_site_fract_y
 _atom_site_fract_z
 _atom_site_occupancy
  Li  Li0  1  0.12236415  0.81207955  0.24779402  1
  Li  Li1  1  0.37216145  0.94356460  0.75432504  1
  Li  Li2  1  0.62753193  0.06394247  0.24507164  1
  Li  Li3  1  0.62029746  0.55626409  0.24115864  1
  Li  Li4  1  0.88498318  0.68828500  0.75380321  1
  Li  Li5  1  0.12768019  0.31053288  0.24655626  1
  Li  Li6  1  0.37439632  0.43342224  0.75685303  1
  Li  Li7  1  0.86527871  0.19119396  0.75529042  1
  Li  Li8  1  0.49949976  0.24946472  0.99958564  1
  Mn  Mn9  1  0.00118132  0.00135818  0.00108555  1
  Mn  Mn10  1  0.24910692  0.62625419  0.49875607  1
  Co  Co11  1  0.26226578  0.13205520  0.50326594  1
  Co  Co12  1  0.74313818  0.37042999  0.50083169  1
  Co  Co13  1  0.99698638  0.49217574  0.99937065  1
  Co  Co14  1  0.50065075  0.75043881  0.99937506  1
  Co  Co15  1  0.75738092  0.87773626  0.49803113  1
  O  O16  1  0.81661673  0.78775149  0.11660410  1
  O  O17  1  0.07176149  0.89084489  0.61338069  1
  O  O18  1  0.30281355  0.01333197  0.10914262  1
  O  O19  1  0.31028444  0.54792585  0.10697050  1
  O  O20  1  0.55240655  0.66223998  0.60905339  1
  O  O21  1  0.83611465  0.26638202  0.11723844  1
  O  O22  1  0.07847233  0.41694784  0.61612616  1
  O  O23  1  0.55808129  0.15070151  0.62203318  1
  O  O24  1  0.43121790  0.83830477  0.38491705  1
  O  O25  1  0.69611527  0.95550735  0.89200956  1
  O  O26  1  0.93208003  0.08568134  0.38640535  1
  O  O27  1  0.95531140  0.59559258  0.38620536  1
  O  O28  1  0.18139789  0.73377526  0.88547681  1
  O  O29  1  0.41994774  0.35608517  0.38119130  1
  O  O30  1  0.69108226  0.49042742  0.88902233  1
  O  O31  1  0.16139309  0.20930266  0.88306918  1
