# generated using pymatgen
data_Mg2TaWO6
_symmetry_space_group_name_H-M   'P 1'
_cell_length_a   5.33127960
_cell_length_b   5.46273095
_cell_length_c   7.79807613
_cell_angle_alpha   90.00000000
_cell_angle_beta   90.32632333
_cell_angle_gamma   90.00000000
_symmetry_Int_Tables_number   1
_chemical_formula_structural   Mg2TaWO6
_chemical_formula_sum   'Mg4 Ta2 W2 O12'
_cell_volume   227.10238628
_cell_formula_units_Z   2
loop_
 _symmetry_equiv_pos_site_id
 _symmetry_equiv_pos_as_xyz
  1  'x, y, z'
loop_
 _atom_site_type_symbol
 _atom_site_label
 _atom_site_symmetry_multiplicity
 _atom_site_fract_x
 _atom_site_fract_y
 _atom_site_fract_z
 _atom_site_occupancy
  Mg  Mg0  1  0.00174673  0.04222350  0.24903226  1
  Mg  Mg1  1  0.49825327  0.54222450  0.25096774  1
  Mg  Mg2  1  0.99825427  0.95777750  0.75096774  1
  Mg  Mg3  1  0.50174573  0.45777650  0.74903226  1
  Ta  Ta4  1  0.50000000  0.00000000  0.00000000  1
  Ta  Ta5  1  0.00000100  0.49999900  0.50000000  1
  W  W6  1  0.50000000  0.00000000  0.49999900  1
  W  W7  1  0.00000000  0.49999900  0.00000000  1
  O  O8  1  0.68480230  0.33352394  0.43282843  1
  O  O9  1  0.81519770  0.83352494  0.06717157  1
  O  O10  1  0.31519670  0.66647606  0.56717157  1
  O  O11  1  0.18480330  0.16647506  0.93282843  1
  O  O12  1  0.15718723  0.18646653  0.57481337  1
  O  O13  1  0.34281277  0.68646553  0.92518663  1
  O  O14  1  0.84281377  0.81353347  0.42518663  1
  O  O15  1  0.65718623  0.31353447  0.07481337  1
  O  O16  1  0.13309763  0.42081970  0.26066241  1
  O  O17  1  0.36690337  0.92082070  0.23933659  1
  O  O18  1  0.63309763  0.07917930  0.76066341  1
  O  O19  1  0.86690337  0.57918030  0.73933759  1
