# generated using pymatgen
data_Li9Mn2Co5O16
_symmetry_space_group_name_H-M   'P 1'
_cell_length_a   5.09175217
_cell_length_b   7.76347851
_cell_length_c   7.76347842
_cell_angle_alpha   95.92478838
_cell_angle_beta   75.81446150
_cell_angle_gamma   75.81446418
_symmetry_Int_Tables_number   1
_chemical_formula_structural   Li9Mn2Co5O16
_chemical_formula_sum   'Li9 Mn2 Co5 O16'
_cell_volume   284.07214849
_cell_formula_units_Z   1
loop_
 _symmetry_equiv_pos_site_id
 _symmetry_equiv_pos_as_xyz
  1  'x, y, z'
loop_
 _atom_site_type_symbol
 _atom_site_label
 _atom_site_symmetry_multiplicity
 _atom_site_fract_x
 _atom_site_fract_y
 _atom_site_fract_z
 _atom_site_occupancy
  Li  Li0  1  0.98335089  0.13945510  0.38945510  1
  Li  Li1  1  0.01664911  0.61054490  0.86054490  1
  Li  Li2  1  0.50106545  0.01317149  0.51123649  1
  Li  Li3  1  0.49893455  0.48876351  0.98682851  1
  Li  Li4  1  0.00000000  0.87500000  0.62500000  1
  Li  Li5  1  0.00000000  0.37500000  0.12500000  1
  Li  Li6  1  0.49893455  0.73682851  0.73876351  1
  Li  Li7  1  0.50106545  0.26123649  0.26317149  1
  Li  Li8  1  0.50000000  0.37500000  0.62500000  1
  Mn  Mn9  1  1.00000000  0.00191794  0.99808206  1
  Mn  Mn10  1  0.00000000  0.74808206  0.25191794  1
  Co  Co11  1  0.00000000  0.49606755  0.50393245  1
  Co  Co12  1  0.50000000  0.87500000  0.12500000  1
  Co  Co13  1  1.00000000  0.25393245  0.74606755  1
  Co  Co14  1  0.50000000  0.62260128  0.37739872  1
  Co  Co15  1  0.50000000  0.12739872  0.87260128  1
  O  O16  1  0.75287849  0.98333544  0.23333544  1
  O  O17  1  0.77237253  0.49837279  0.74837279  1
  O  O18  1  0.25291842  0.85554362  0.35066969  1
  O  O19  1  0.25684678  0.35247851  0.87265509  1
  O  O20  1  0.76955081  0.75103658  0.48502374  1
  O  O21  1  0.76955081  0.23502374  0.00103658  1
  O  O22  1  0.25684678  0.62265509  0.60247851  1
  O  O23  1  0.25291842  0.10066969  0.10554362  1
  O  O24  1  0.22762747  0.25162721  0.50162721  1
  O  O25  1  0.24712151  0.76666456  0.01666456  1
  O  O26  1  0.74315322  0.12734491  0.64752149  1
  O  O27  1  0.74708158  0.64933031  0.14445638  1
  O  O28  1  0.23044919  0.99896342  0.76497626  1
  O  O29  1  0.23044919  0.51497626  0.24896342  1
  O  O30  1  0.74708158  0.89445638  0.89933031  1
  O  O31  1  0.74315322  0.39752149  0.37734491  1
