# generated using pymatgen
data_Li9Mn2Co5O16
_symmetry_space_group_name_H-M   'P 1'
_cell_length_a   5.10912258
_cell_length_b   10.04750367
_cell_length_c   5.90911658
_cell_angle_alpha   75.45874280
_cell_angle_beta   90.92338156
_cell_angle_gamma   79.59394385
_symmetry_Int_Tables_number   1
_chemical_formula_structural   Li9Mn2Co5O16
_chemical_formula_sum   'Li9 Mn2 Co5 O16'
_cell_volume   288.18948989
_cell_formula_units_Z   1
loop_
 _symmetry_equiv_pos_site_id
 _symmetry_equiv_pos_as_xyz
  1  'x, y, z'
loop_
 _atom_site_type_symbol
 _atom_site_label
 _atom_site_symmetry_multiplicity
 _atom_site_fract_x
 _atom_site_fract_y
 _atom_site_fract_z
 _atom_site_occupancy
  Li  Li0  1  0.49852647  0.99913124  0.75056269  1
  Li  Li1  1  0.26109435  0.25626766  0.37455595  1
  Li  Li2  1  0.50855926  0.00425765  0.24480559  1
  Li  Li3  1  0.24115008  0.25418665  0.86755001  1
  Li  Li4  1  0.75132214  0.74598101  0.12785903  1
  Li  Li5  1  0.74373947  0.74255783  0.63527484  1
  Li  Li6  1  0.99719789  0.50142393  0.49833108  1
  Li  Li7  1  0.99719457  0.49736934  0.00614548  1
  Li  Li8  1  0.74662649  0.25089178  0.62705828  1
  Mn  Mn9  1  0.00204726  0.00328971  0.99267219  1
  Mn  Mn10  1  0.00037870  0.00533369  0.49296303  1
  Co  Co11  1  0.50375985  0.49472783  0.26130802  1
  Co  Co12  1  0.24667260  0.74994920  0.87618953  1
  Co  Co13  1  0.75284203  0.25007379  0.12099873  1
  Co  Co14  1  0.49800022  0.49087415  0.75105137  1
  Co  Co15  1  0.25543959  0.74798226  0.37665646  1
  O  O16  1  0.34976462  0.87214099  0.05336911  1
  O  O17  1  0.11621468  0.10811928  0.70280607  1
  O  O18  1  0.35818891  0.87768657  0.54186449  1
  O  O19  1  0.10516345  0.12941139  0.16026610  1
  O  O20  1  0.61750459  0.61874743  0.44890486  1
  O  O21  1  0.58709608  0.62574589  0.93617031  1
  O  O22  1  0.84996533  0.36660061  0.84847371  1
  O  O23  1  0.84729061  0.37156594  0.29489418  1
  O  O24  1  0.65716566  0.13236198  0.40854665  1
  O  O25  1  0.40363334  0.36829305  0.06718569  1
  O  O26  1  0.65892215  0.12491447  0.95127668  1
  O  O27  1  0.37044329  0.38512382  0.56774044  1
  O  O28  1  0.89540582  0.87461396  0.82727277  1
  O  O29  1  0.89874369  0.88981246  0.29018989  1
  O  O30  1  0.14295445  0.62380741  0.20441012  1
  O  O31  1  0.13699238  0.63675701  0.69264966  1
