# generated using pymatgen
data_Li9Mn2Co5O16
_symmetry_space_group_name_H-M   'P 1'
_cell_length_a   5.79631167
_cell_length_b   10.15822218
_cell_length_c   5.91067991
_cell_angle_alpha   90.62383853
_cell_angle_beta   119.36196611
_cell_angle_gamma   73.42312929
_symmetry_Int_Tables_number   1
_chemical_formula_structural   Li9Mn2Co5O16
_chemical_formula_sum   'Li9 Mn2 Co5 O16'
_cell_volume   287.22092840
_cell_formula_units_Z   1
loop_
 _symmetry_equiv_pos_site_id
 _symmetry_equiv_pos_as_xyz
  1  'x, y, z'
loop_
 _atom_site_type_symbol
 _atom_site_label
 _atom_site_symmetry_multiplicity
 _atom_site_fract_x
 _atom_site_fract_y
 _atom_site_fract_z
 _atom_site_occupancy
  Li  Li0  1  0.99266472  0.26418175  0.74951118  1
  Li  Li1  1  0.50550511  0.73657649  0.24758671  1
  Li  Li2  1  0.97438039  0.27029267  0.23078780  1
  Li  Li3  1  0.51388526  0.72970733  0.76921220  1
  Li  Li4  1  0.48611474  0.27029267  0.23078780  1
  Li  Li5  1  0.02561961  0.72970733  0.76921220  1
  Li  Li6  1  0.49449489  0.26342351  0.75241329  1
  Li  Li7  1  0.00733528  0.73581825  0.25048882  1
  Li  Li8  1  0.50000000  0.50000000  0.00000000  1
  Mn  Mn9  1  0.00000000  -0.00000000  0.00000000  1
  Mn  Mn10  1  0.50000000  -0.00000000  0.00000000  1
  Co  Co11  1  0.50000000  0.50000000  0.50000000  1
  Co  Co12  1  0.00000000  -0.00000000  0.50000000  1
  Co  Co13  1  0.50000000  -0.00000000  0.50000000  1
  Co  Co14  1  0.00000000  0.50000000  0.00000000  1
  Co  Co15  1  0.00000000  0.50000000  0.50000000  1
  O  O16  1  0.24124153  0.11487802  0.09736108  1
  O  O17  1  0.76787357  0.61513430  0.65088145  1
  O  O18  1  0.28597162  0.10590230  0.64647054  1
  O  O19  1  0.77544640  0.61106029  0.12715864  1
  O  O20  1  0.75459662  0.10590230  0.64647054  1
  O  O21  1  0.24065195  0.61106029  0.12715864  1
  O  O22  1  0.74713338  0.11430703  0.10857379  1
  O  O23  1  0.24538805  0.61757246  0.60834857  1
  O  O24  1  0.75461195  0.38242754  0.39165143  1
  O  O25  1  0.25286662  0.88569297  0.89142621  1
  O  O26  1  0.75934805  0.38893971  0.87284136  1
  O  O27  1  0.24540338  0.89409770  0.35352946  1
  O  O28  1  0.22455360  0.38893971  0.87284136  1
  O  O29  1  0.71402838  0.89409770  0.35352946  1
  O  O30  1  0.23212643  0.38486570  0.34911855  1
  O  O31  1  0.75875847  0.88512198  0.90263892  1
