# generated using pymatgen
data_Li9Mn2Co5O16
_symmetry_space_group_name_H-M   'P 1'
_cell_length_a   5.13807562
_cell_length_b   11.67183210
_cell_length_c   5.07990987
_cell_angle_alpha   90.00000000
_cell_angle_beta   70.29222227
_cell_angle_gamma   90.00000000
_symmetry_Int_Tables_number   1
_chemical_formula_structural   Li9Mn2Co5O16
_chemical_formula_sum   'Li9 Mn2 Co5 O16'
_cell_volume   286.80132529
_cell_formula_units_Z   1
loop_
 _symmetry_equiv_pos_site_id
 _symmetry_equiv_pos_as_xyz
  1  'x, y, z'
loop_
 _atom_site_type_symbol
 _atom_site_label
 _atom_site_symmetry_multiplicity
 _atom_site_fract_x
 _atom_site_fract_y
 _atom_site_fract_z
 _atom_site_occupancy
  Li  Li0  1  0.50000000  0.12498482  -0.00000000  1
  Li  Li1  1  0.50000000  0.24886641  0.50000000  1
  Li  Li2  1  0.50000000  0.37782528  -0.00000000  1
  Li  Li3  1  0.50000000  0.50628815  0.50000000  1
  Li  Li4  1  0.50000000  0.63164202  -0.00000000  1
  Li  Li5  1  0.50000000  0.74956152  0.50000000  1
  Li  Li6  1  0.50000000  0.86565651  -0.00000000  1
  Li  Li7  1  0.50000000  0.99575726  0.50000000  1
  Li  Li8  1  0.00000000  0.75043674  -0.00000000  1
  Mn  Mn9  1  0.00000000  0.99796843  -0.00000000  1
  Mn  Mn10  1  0.00000000  0.37358833  0.50000000  1
  Co  Co11  1  0.00000000  0.12548707  0.50000000  1
  Co  Co12  1  0.00000000  0.24862864  -0.00000000  1
  Co  Co13  1  0.00000000  0.50964744  -0.00000000  1
  Co  Co14  1  0.00000000  0.62891862  0.50000000  1
  Co  Co15  1  0.00000000  0.86638512  0.50000000  1
  O  O16  1  0.22109509  0.12694850  0.77035950  1
  O  O17  1  0.23309464  0.25300997  0.27582189  1
  O  O18  1  0.20956994  0.36891046  0.75700217  1
  O  O19  1  0.23070272  0.49139038  0.26415226  1
  O  O20  1  0.23062760  0.61592685  0.74611325  1
  O  O21  1  0.24136087  0.75094025  0.27331698  1
  O  O22  1  0.22971014  0.88820747  0.75914188  1
  O  O23  1  0.21911774  0.00384493  0.24901180  1
  O  O24  1  0.77890491  0.12694850  0.22964050  1
  O  O25  1  0.76690536  0.25300997  0.72417811  1
  O  O26  1  0.79043006  0.36891046  0.24299783  1
  O  O27  1  0.76929728  0.49139038  0.73584774  1
  O  O28  1  0.76937240  0.61592685  0.25388675  1
  O  O29  1  0.75863913  0.75094025  0.72668302  1
  O  O30  1  0.77028986  0.88820747  0.24085812  1
  O  O31  1  0.78088226  0.00384493  0.75098820  1
