# generated using pymatgen
data_Li9Mn2Co5O16
_symmetry_space_group_name_H-M   'P 1'
_cell_length_a   5.03197884
_cell_length_b   5.87876523
_cell_length_c   10.22356670
_cell_angle_alpha   73.73285825
_cell_angle_beta   98.84795077
_cell_angle_gamma   89.31236251
_symmetry_Int_Tables_number   1
_chemical_formula_structural   Li9Mn2Co5O16
_chemical_formula_sum   'Li9 Mn2 Co5 O16'
_cell_volume   286.38517775
_cell_formula_units_Z   1
loop_
 _symmetry_equiv_pos_site_id
 _symmetry_equiv_pos_as_xyz
  1  'x, y, z'
loop_
 _atom_site_type_symbol
 _atom_site_label
 _atom_site_symmetry_multiplicity
 _atom_site_fract_x
 _atom_site_fract_y
 _atom_site_fract_z
 _atom_site_occupancy
  Li  Li0  1  0.26188750  0.62042331  0.26075861  1
  Li  Li1  1  0.74085054  0.38543415  0.73904976  1
  Li  Li2  1  0.25044743  0.11732733  0.26145393  1
  Li  Li3  1  0.75355229  0.36486190  0.26095588  1
  Li  Li4  1  0.23539620  0.12853207  0.73864568  1
  Li  Li5  1  0.74968946  0.87114813  0.26376821  1
  Li  Li6  1  0.75680621  0.87651809  0.73782921  1
  Li  Li7  1  0.25756534  0.63288774  0.73576152  1
  Li  Li8  1  0.50007476  0.75159079  0.49942755  1
  Mn  Mn9  1  0.00073233  -0.00010148  0.00070970  1
  Mn  Mn10  1  0.49891030  0.24922269  -0.00005092  1
  Co  Co11  1  -0.00173806  0.50802637  0.99900750  1
  Co  Co12  1  0.49543838  0.25121964  0.50111973  1
  Co  Co13  1  0.98408301  0.51034673  0.49552895  1
  Co  Co14  1  0.00541981  0.99698378  0.50189279  1
  Co  Co15  1  0.50246046  0.74180673  0.00034480  1
  O  O16  1  0.88364431  0.71110074  0.11473468  1
  O  O17  1  0.37389508  0.42400737  0.61142445  1
  O  O18  1  0.85407530  0.18297949  0.11024089  1
  O  O19  1  0.38169218  0.42608291  0.11468453  1
  O  O20  1  0.87796786  0.18287575  0.61276161  1
  O  O21  1  0.35784955  0.95973166  0.11212217  1
  O  O22  1  0.34429969  0.95142156  0.61063136  1
  O  O23  1  0.89658745  0.70034723  0.61646267  1
  O  O24  1  0.63803054  0.55341510  0.38068466  1
  O  O25  1  0.14169332  0.29006176  0.89050537  1
  O  O26  1  0.64498633  0.06828152  0.39561754  1
  O  O27  1  0.12431254  0.29281497  0.38585234  1
  O  O28  1  0.64464864  0.06503965  0.89057361  1
  O  O29  1  0.10577055  0.82432612  0.38743561  1
  O  O30  1  0.12236603  0.82417775  0.88675847  1
  O  O31  1  0.61660471  0.53710847  0.88330715  1
