# generated using pymatgen
data_Li9Mn2Co5O16
_symmetry_space_group_name_H-M   'P 1'
_cell_length_a   5.07238254
_cell_length_b   10.01012780
_cell_length_c   5.89583436
_cell_angle_alpha   88.23637000
_cell_angle_beta   105.09157349
_cell_angle_gamma   80.57864146
_symmetry_Int_Tables_number   1
_chemical_formula_structural   Li9Mn2Co5O16
_chemical_formula_sum   'Li9 Mn2 Co5 O16'
_cell_volume   284.29085671
_cell_formula_units_Z   1
loop_
 _symmetry_equiv_pos_site_id
 _symmetry_equiv_pos_as_xyz
  1  'x, y, z'
loop_
 _atom_site_type_symbol
 _atom_site_label
 _atom_site_symmetry_multiplicity
 _atom_site_fract_x
 _atom_site_fract_y
 _atom_site_fract_z
 _atom_site_occupancy
  Li  Li0  1  0.50022461  0.12309846  0.11968195  1
  Li  Li1  1  0.50247434  0.12888321  0.63119047  1
  Li  Li2  1  0.50083216  0.37866813  0.37696324  1
  Li  Li3  1  0.49892934  0.37700127  0.87291747  1
  Li  Li4  1  0.49838546  0.62672026  0.62429138  1
  Li  Li5  1  0.48758965  0.62294761  0.12477844  1
  Li  Li6  1  0.50493491  0.87085501  0.88021863  1
  Li  Li7  1  0.50700499  0.86945163  0.36385966  1
  Li  Li8  1  0.99816048  0.75040432  0.25311089  1
  Mn  Mn9  1  0.99481054  0.99552912  0.99517491  1
  Mn  Mn10  1  0.00006306  0.25089465  0.25279935  1
  Co  Co11  1  0.99257741  0.99511564  0.48974272  1
  Co  Co12  1  0.00485051  0.24866632  0.75162208  1
  Co  Co13  1  0.00827036  0.50716319  0.50072825  1
  Co  Co14  1  -0.00007911  0.50543280  0.00766296  1
  Co  Co15  1  -0.00014889  0.75197997  0.75169063  1
  O  O16  1  0.22130512  0.06861276  0.81211186  1
  O  O17  1  0.21695276  0.05226969  0.28591458  1
  O  O18  1  0.23020147  0.31801358  0.07614734  1
  O  O19  1  0.23605726  0.30897700  0.57667093  1
  O  O20  1  0.23639608  0.55897017  0.32165355  1
  O  O21  1  0.23063003  0.57599872  0.80775434  1
  O  O22  1  0.21321720  0.82423906  0.57357593  1
  O  O23  1  0.21832241  0.81690013  0.03244705  1
  O  O24  1  0.77375794  0.17538844  0.42532263  1
  O  O25  1  0.77392625  0.17911218  0.92540885  1
  O  O26  1  0.78600328  0.42876337  0.69253937  1
  O  O27  1  0.76307212  0.43789148  0.19524608  1
  O  O28  1  0.78190355  0.68235309  0.92850817  1
  O  O29  1  0.77856731  0.69332524  0.47968337  1
  O  O30  1  0.76116879  0.94039013  0.16974683  1
  O  O31  1  0.77963862  0.93598333  0.70083609  1
