# generated using pymatgen
data_Li9Mn2Co5O16
_symmetry_space_group_name_H-M   'P 1'
_cell_length_a   5.18389489
_cell_length_b   11.33505274
_cell_length_c   5.21193962
_cell_angle_alpha   90.00000000
_cell_angle_beta   67.51090641
_cell_angle_gamma   90.00000000
_symmetry_Int_Tables_number   1
_chemical_formula_structural   Li9Mn2Co5O16
_chemical_formula_sum   'Li9 Mn2 Co5 O16'
_cell_volume   282.96237206
_cell_formula_units_Z   1
loop_
 _symmetry_equiv_pos_site_id
 _symmetry_equiv_pos_as_xyz
  1  'x, y, z'
loop_
 _atom_site_type_symbol
 _atom_site_label
 _atom_site_symmetry_multiplicity
 _atom_site_fract_x
 _atom_site_fract_y
 _atom_site_fract_z
 _atom_site_occupancy
  Li  Li0  1  0.50000000  0.12474135  -0.00000000  1
  Li  Li1  1  0.50000000  0.24716200  0.50000000  1
  Li  Li2  1  0.50000000  0.37516820  -0.00000000  1
  Li  Li3  1  0.50000000  0.50344795  0.50000000  1
  Li  Li4  1  0.50000000  0.62539757  -0.00000000  1
  Li  Li5  1  0.50000000  0.75297225  0.50000000  1
  Li  Li6  1  0.50000000  0.87304094  -0.00000000  1
  Li  Li7  1  0.50000000  0.99628565  0.50000000  1
  Li  Li8  1  -0.00000000  0.87449968  0.50000000  1
  Mn  Mn9  1  -0.00000000  0.99931156  -0.00000000  1
  Mn  Mn10  1  -0.00000000  0.37507892  0.50000000  1
  Co  Co11  1  -0.00000000  0.12344941  0.50000000  1
  Co  Co12  1  -0.00000000  0.24956655  -0.00000000  1
  Co  Co13  1  -0.00000000  0.50218066  -0.00000000  1
  Co  Co14  1  -0.00000000  0.62795987  0.50000000  1
  Co  Co15  1  -0.00000000  0.74989708  -0.00000000  1
  O  O16  1  0.23293911  0.12435874  0.77102168  1
  O  O17  1  0.22885006  0.24842169  0.26871136  1
  O  O18  1  0.23022780  0.37568508  0.78059477  1
  O  O19  1  0.22875029  0.50269011  0.27073407  1
  O  O20  1  0.23069378  0.62710768  0.77744066  1
  O  O21  1  0.20511669  0.74279146  0.23973697  1
  O  O22  1  0.23684629  0.87342838  0.78231349  1
  O  O23  1  0.21121186  0.00543704  0.24314650  1
  O  O24  1  0.76706089  0.12435874  0.22897832  1
  O  O25  1  0.77114994  0.24842169  0.73128864  1
  O  O26  1  0.76977220  0.37568508  0.21940523  1
  O  O27  1  0.77124971  0.50269011  0.72926593  1
  O  O28  1  0.76930622  0.62710768  0.22255934  1
  O  O29  1  0.79488331  0.74279146  0.76026303  1
  O  O30  1  0.76315371  0.87342838  0.21768651  1
  O  O31  1  0.78878814  0.00543704  0.75685350  1
