# generated using pymatgen
data_Li9Mn2Co5O16
_symmetry_space_group_name_H-M   'P 1'
_cell_length_a   5.84625398
_cell_length_b   9.72568851
_cell_length_c   5.94034845
_cell_angle_alpha   78.88865704
_cell_angle_beta   60.28382233
_cell_angle_gamma   80.92262357
_symmetry_Int_Tables_number   1
_chemical_formula_structural   Li9Mn2Co5O16
_chemical_formula_sum   'Li9 Mn2 Co5 O16'
_cell_volume   287.07540116
_cell_formula_units_Z   1
loop_
 _symmetry_equiv_pos_site_id
 _symmetry_equiv_pos_as_xyz
  1  'x, y, z'
loop_
 _atom_site_type_symbol
 _atom_site_label
 _atom_site_symmetry_multiplicity
 _atom_site_fract_x
 _atom_site_fract_y
 _atom_site_fract_z
 _atom_site_occupancy
  Li  Li0  1  0.12666003  0.25238355  0.12407308  1
  Li  Li1  1  0.74664227  0.50667773  0.26072330  1
  Li  Li2  1  0.37651390  0.74414430  0.36717575  1
  Li  Li3  1  0.00022446  0.99555250  0.49659010  1
  Li  Li4  1  0.62542366  0.25415257  0.62623682  1
  Li  Li5  1  0.24974184  0.51174064  0.75842150  1
  Li  Li6  1  0.87389477  0.74806795  0.87472328  1
  Li  Li7  1  0.50154735  0.98744825  0.98830191  1
  Li  Li8  1  0.37138111  0.74744406  0.88076180  1
  Mn  Mn9  1  0.00082104  0.99680162  0.99601982  1
  Mn  Mn10  1  0.12702533  0.25171680  0.62011883  1
  Co  Co11  1  0.25518685  0.50150606  0.25126332  1
  Co  Co12  1  0.50260912  0.98898557  0.50679429  1
  Co  Co13  1  0.62233395  0.25317162  0.12035050  1
  Co  Co14  1  0.74610077  0.50746840  0.75931712  1
  Co  Co15  1  0.87428673  0.74332794  0.37534836  1
  O  O16  1  0.29046013  0.12412782  0.80979863  1
  O  O17  1  0.94700482  0.37025648  0.90062100  1
  O  O18  1  0.54460969  0.61266395  0.07825327  1
  O  O19  1  0.15679165  0.88103226  0.18731225  1
  O  O20  1  0.81285210  0.12333682  0.27527260  1
  O  O21  1  0.42558094  0.36732811  0.43044523  1
  O  O22  1  0.03829513  0.62343008  0.58020574  1
  O  O23  1  0.67778691  0.88269799  0.67001630  1
  O  O24  1  0.96869801  0.37335616  0.43385293  1
  O  O25  1  0.58444165  0.62289403  0.56542673  1
  O  O26  1  0.17071528  0.88833882  0.71245842  1
  O  O27  1  0.83441609  0.13002195  0.80953779  1
  O  O28  1  0.47222480  0.37356604  0.92492280  1
  O  O29  1  0.06872696  0.61801425  0.09506826  1
  O  O30  1  0.69803126  0.88438359  0.18024208  1
  O  O31  1  0.30896439  0.13396209  0.34035022  1
