# generated using pymatgen
data_Na4NiO4
_symmetry_space_group_name_H-M   'P 1'
_cell_length_a   10.05483807
_cell_length_b   6.05751942
_cell_length_c   17.53723142
_cell_angle_alpha   90.08836994
_cell_angle_beta   92.61369292
_cell_angle_gamma   89.78003702
_symmetry_Int_Tables_number   1
_chemical_formula_structural   Na4NiO4
_chemical_formula_sum   'Na32 Ni8 O32'
_cell_volume   1067.02670852
_cell_formula_units_Z   8
loop_
 _symmetry_equiv_pos_site_id
 _symmetry_equiv_pos_as_xyz
  1  'x, y, z'
loop_
 _atom_site_type_symbol
 _atom_site_label
 _atom_site_symmetry_multiplicity
 _atom_site_fract_x
 _atom_site_fract_y
 _atom_site_fract_z
 _atom_site_occupancy
  Na  Na0  1  0.13799977  0.17816795  0.86315712  1
  Na  Na1  1  0.14796351  0.33340203  0.36201941  1
  Na  Na2  1  0.20454280  0.64400886  0.14016994  1
  Na  Na3  1  0.27053579  0.51586229  0.61192780  1
  Na  Na4  1  0.25743170  0.56343470  0.79240920  1
  Na  Na5  1  0.26121229  0.94009317  0.29210256  1
  Na  Na6  1  0.31712147  0.06301808  0.49995671  1
  Na  Na7  1  0.32859938  0.40845802  0.00213257  1
  Na  Na8  1  0.39127102  0.34269339  0.23835956  1
  Na  Na9  1  0.37372158  0.11941302  0.74176329  1
  Na  Na10  1  0.36885478  0.88147476  0.91967336  1
  Na  Na11  1  0.38509489  0.60622076  0.41401643  1
  Na  Na12  1  0.54983537  0.06507986  0.05777503  1
  Na  Na13  1  0.56371873  0.42882871  0.55717029  1
  Na  Na14  1  0.59148486  0.61522931  0.75365893  1
  Na  Na15  1  0.59498353  0.87620165  0.25516658  1
  Na  Na16  1  0.65238873  0.59075231  0.00280283  1
  Na  Na17  1  0.66408930  0.90277068  0.50505473  1
  Na  Na18  1  0.68658206  0.09525887  0.68200379  1
  Na  Na19  1  0.69156966  0.39729727  0.18034623  1
  Na  Na20  1  0.69946298  0.54941595  0.36815814  1
  Na  Na21  1  0.68975619  0.94130515  0.86838748  1
  Na  Na22  1  0.80437509  0.08573319  0.36473564  1
  Na  Na23  1  0.79788358  0.40880304  0.86189307  1
  Na  Na24  1  0.84215072  0.58658598  0.67331607  1
  Na  Na25  1  0.84633442  0.92556559  0.17766342  1
  Na  Na26  1  0.88306728  0.39329455  0.50420473  1
  Na  Na27  1  0.87092419  0.09585208  0.00560204  1
  Na  Na28  1  0.96659368  0.01671677  0.74241952  1
  Na  Na29  1  0.95609255  0.45221701  0.24503554  1
  Na  Na30  1  0.01067956  0.90087798  0.54724544  1
  Na  Na31  1  0.96834645  0.58428343  0.05156766  1
  Ni  Ni32  1  0.07238794  0.17808305  0.13145505  1
  Ni  Ni33  1  0.05588230  0.30859327  0.63508859  1
  Ni  Ni34  1  0.47792516  0.66732921  0.12572126  1
  Ni  Ni35  1  0.46990111  0.83913734  0.62360058  1
  Ni  Ni36  1  0.53364003  0.15107801  0.37929814  1
  Ni  Ni37  1  0.52525002  0.33940520  0.87768078  1
  Ni  Ni38  1  0.96059252  0.69631307  0.37834188  1
  Ni  Ni39  1  0.95220228  0.80093092  0.87714838  1
  O  O40  1  0.04161536  0.89247821  0.11929013  1
  O  O41  1  0.04124904  0.60592404  0.62040507  1
  O  O42  1  0.15390183  0.26581961  0.22348432  1
  O  O43  1  0.14796148  0.26269060  0.72424179  1
  O  O44  1  0.13831007  0.34193343  0.05909812  1
  O  O45  1  0.13172939  0.21563294  0.55065750  1
  O  O46  1  0.12479287  0.77403928  0.86654896  1
  O  O47  1  0.13346842  0.73400687  0.37220898  1
  O  O48  1  0.35190267  0.24830597  0.87869874  1
  O  O49  1  0.35872778  0.23432646  0.37943281  1
  O  O50  1  0.39145395  0.77631567  0.04255014  1
  O  O51  1  0.40134571  0.71170699  0.53626864  1
  O  O52  1  0.38646576  0.73716412  0.70447847  1
  O  O53  1  0.39196535  0.73321897  0.21174480  1
  O  O54  1  0.48625287  0.37435154  0.11394541  1
  O  O55  1  0.46987197  0.13335368  0.61451899  1
  O  O56  1  0.53620056  0.64357620  0.88180311  1
  O  O57  1  0.55040478  0.84830410  0.38338031  1
  O  O58  1  0.60448803  0.24370294  0.78878793  1
  O  O59  1  0.61299905  0.24617662  0.28966221  1
  O  O60  1  0.64015917  0.22639971  0.95561874  1
  O  O61  1  0.65009424  0.26719691  0.45547070  1
  O  O62  1  0.64430731  0.73657276  0.62982275  1
  O  O63  1  0.64902626  0.77125129  0.12953498  1
  O  O64  1  0.88370212  0.20597104  0.63396042  1
  O  O65  1  0.89100745  0.28720826  0.13122607  1
  O  O66  1  0.86483119  0.78560572  0.45577069  1
  O  O67  1  0.85222366  0.71238765  0.95278488  1
  O  O68  1  0.84338855  0.72726073  0.79163160  1
  O  O69  1  0.85100231  0.76947076  0.29293114  1
  O  O70  1  0.93119859  0.39113096  0.37512922  1
  O  O71  1  0.92341893  0.10733150  0.87555260  1
