# generated using pymatgen
data_Li4Mn5CoO12
_symmetry_space_group_name_H-M   'P 1'
_cell_length_a   5.13064691
_cell_length_b   5.14523735
_cell_length_c   10.30914659
_cell_angle_alpha   90.66373426
_cell_angle_beta   91.33133540
_cell_angle_gamma   60.09376712
_symmetry_Int_Tables_number   1
_chemical_formula_structural   Li4Mn5CoO12
_chemical_formula_sum   'Li4 Mn5 Co1 O12'
_cell_volume   235.84311774
_cell_formula_units_Z   1
loop_
 _symmetry_equiv_pos_site_id
 _symmetry_equiv_pos_as_xyz
  1  'x, y, z'
loop_
 _atom_site_type_symbol
 _atom_site_label
 _atom_site_symmetry_multiplicity
 _atom_site_fract_x
 _atom_site_fract_y
 _atom_site_fract_z
 _atom_site_occupancy
  Li  Li0  1  0.16084156  0.49512987  0.75063597  1
  Li  Li1  1  0.34402857  0.49512987  0.24936403  1
  Li  Li2  1  0.65597143  0.50487013  0.75063597  1
  Li  Li3  1  0.83915844  0.50487013  0.24936403  1
  Mn  Mn4  1  0.16378600  0.67242700  0.50000000  1
  Mn  Mn5  1  0.66366348  0.67267404  1.00000000  1
  Mn  Mn6  1  0.33633652  0.32732596  0.00000000  1
  Mn  Mn7  1  0.83621400  0.32757300  0.50000000  1
  Mn  Mn8  1  0.50000000  0.00000000  0.50000000  1
  Co  Co9  1  0.00000000  0.00000000  0.00000000  1
  O  O10  1  0.00861976  0.63257395  0.10474615  1
  O  O11  1  0.35880529  0.63257395  0.89525385  1
  O  O12  1  0.15449589  0.36332837  0.39270833  1
  O  O13  1  0.51782426  0.63667163  0.39270833  1
  O  O14  1  0.48217574  0.36332837  0.60729167  1
  O  O15  1  0.17659722  0.00000000  0.59262176  1
  O  O16  1  0.84550411  0.63667163  0.60729167  1
  O  O17  1  0.64119471  0.36742605  0.10474615  1
  O  O18  1  0.35494825  0.00000000  0.09579103  1
  O  O19  1  0.99138024  0.36742605  0.89525385  1
  O  O20  1  0.64505175  1.00000000  0.90420897  1
  O  O21  1  0.82340278  1.00000000  0.40737824  1
