# generated using pymatgen
data_Li4Y3ZrO8
_symmetry_space_group_name_H-M   'P 1'
_cell_length_a   5.78451779
_cell_length_b   5.78451779
_cell_length_c   11.57544042
_cell_angle_alpha   134.30974890
_cell_angle_beta   134.30974890
_cell_angle_gamma   66.55632220
_symmetry_Int_Tables_number   1
_chemical_formula_structural   Li4Y3ZrO8
_chemical_formula_sum   'Li4 Y3 Zr1 O8'
_cell_volume   195.23161985
_cell_formula_units_Z   1
loop_
 _symmetry_equiv_pos_site_id
 _symmetry_equiv_pos_as_xyz
  1  'x, y, z'
loop_
 _atom_site_type_symbol
 _atom_site_label
 _atom_site_symmetry_multiplicity
 _atom_site_fract_x
 _atom_site_fract_y
 _atom_site_fract_z
 _atom_site_occupancy
  Li  Li0  1  0.50000000  0.50000000  -0.00000000  1
  Li  Li1  1  0.25486033  0.75486033  0.25486033  1
  Li  Li2  1  0.50000000  0.50000000  0.50000000  1
  Li  Li3  1  0.24513967  0.74513967  0.74513967  1
  Y  Y4  1  0.74781001  0.24781001  0.24781001  1
  Y  Y5  1  -0.00000000  -0.00000000  0.50000000  1
  Y  Y6  1  0.75218999  0.25218999  0.75218999  1
  Zr  Zr7  1  -0.00000000  -0.00000000  -0.00000000  1
  O  O8  1  0.99001512  0.47929890  0.24095526  1
  O  O9  1  0.49189540  0.00261161  0.24095526  1
  O  O10  1  0.23005254  0.23005254  1.00000000  1
  O  O11  1  0.76994746  0.76994746  0.00000000  1
  O  O12  1  0.23919502  0.23919502  0.50000000  1
  O  O13  1  0.76080498  0.76080498  0.50000000  1
  O  O14  1  0.52070110  0.00998488  0.75904474  1
  O  O15  1  0.99738839  0.50810460  0.75904474  1
