# generated using pymatgen
data_Li6MnSb3(PO4)6
_symmetry_space_group_name_H-M   'P 1'
_cell_length_a   8.50693825
_cell_length_b   8.54731762
_cell_length_c   8.51256941
_cell_angle_alpha   65.70986326
_cell_angle_beta   66.05108448
_cell_angle_gamma   66.06156326
_symmetry_Int_Tables_number   1
_chemical_formula_structural   Li6MnSb3(PO4)6
_chemical_formula_sum   'Li6 Mn1 Sb3 P6 O24'
_cell_volume   493.96112337
_cell_formula_units_Z   1
loop_
 _symmetry_equiv_pos_site_id
 _symmetry_equiv_pos_as_xyz
  1  'x, y, z'
loop_
 _atom_site_type_symbol
 _atom_site_label
 _atom_site_symmetry_multiplicity
 _atom_site_fract_x
 _atom_site_fract_y
 _atom_site_fract_z
 _atom_site_occupancy
  Li  Li0  1  0.01277254  0.99270284  0.98090105  1
  Li  Li1  1  0.75891017  0.14682333  0.36567860  1
  Li  Li2  1  0.48079170  0.50039696  0.51435967  1
  Li  Li3  1  0.20626972  0.87756550  0.65544876  1
  Li  Li4  1  0.66842398  0.19425586  0.88749701  1
  Li  Li5  1  0.87355975  0.66719667  0.20045224  1
  Mn  Mn6  1  0.83909658  0.83808119  0.83258055  1
  Sb  Sb7  1  0.15703441  0.15612870  0.14677483  1
  Sb  Sb8  1  0.34614787  0.35733929  0.34462654  1
  Sb  Sb9  1  0.65150892  0.65284711  0.65063555  1
  P  P10  1  0.07798125  0.74848917  0.41424183  1
  P  P11  1  0.41496139  0.07710735  0.74476792  1
  P  P12  1  0.74981640  0.42132853  0.06900339  1
  P  P13  1  0.25567198  0.58017811  0.93202483  1
  P  P14  1  0.58615977  0.93541210  0.26398206  1
  P  P15  1  0.92145134  0.25742369  0.57106588  1
  O  O16  1  0.07063045  0.33392206  0.53053970  1
  O  O17  1  0.32585279  0.57094094  0.07450361  1
  O  O18  1  0.10086970  0.91202451  0.23824499  1
  O  O19  1  0.60774540  0.05179627  0.34419811  1
  O  O20  1  0.26213230  0.59591735  0.40889956  1
  O  O21  1  0.02951140  0.80567964  0.58132110  1
  O  O22  1  0.24219012  0.09583397  0.91210218  1
  O  O23  1  0.40799387  0.26468250  0.59814573  1
  O  O24  1  0.60840488  0.40463103  0.26111407  1
  O  O25  1  0.21411441  0.40589513  0.96669691  1
  O  O26  1  0.08871332  0.74679394  0.91755137  1
  O  O27  1  0.39820395  0.00411842  0.23409410  1
  O  O28  1  0.58662636  0.02071340  0.79887293  1
  O  O29  1  0.90799754  0.23923726  0.09492749  1
  O  O30  1  0.81182073  0.58484282  0.01739525  1
  O  O31  1  0.39678636  0.60595734  0.73596413  1
  O  O32  1  0.60208445  0.73545071  0.39632402  1
  O  O33  1  0.73976098  0.92423680  0.08628055  1
  O  O34  1  0.93683116  0.20035003  0.41261030  1
  O  O35  1  0.72855981  0.40128717  0.60257080  1
  O  O36  1  0.39832744  0.94065581  0.68314026  1
  O  O37  1  0.91909354  0.09559207  0.74487708  1
  O  O38  1  0.68198502  0.41450367  0.93049655  1
  O  O39  1  0.93320723  0.69065976  0.40608951  1
