# generated using pymatgen
data_Ca2YTiO5
_symmetry_space_group_name_H-M   'P 1'
_cell_length_a   5.53835633
_cell_length_b   5.71145820
_cell_length_c   8.95250755
_cell_angle_alpha   108.58645936
_cell_angle_beta   108.03153315
_cell_angle_gamma   89.95618863
_symmetry_Int_Tables_number   1
_chemical_formula_structural   Ca2YTiO5
_chemical_formula_sum   'Ca4 Y2 Ti2 O10'
_cell_volume   253.72357294
_cell_formula_units_Z   2
loop_
 _symmetry_equiv_pos_site_id
 _symmetry_equiv_pos_as_xyz
  1  'x, y, z'
loop_
 _atom_site_type_symbol
 _atom_site_label
 _atom_site_symmetry_multiplicity
 _atom_site_fract_x
 _atom_site_fract_y
 _atom_site_fract_z
 _atom_site_occupancy
  Ca  Ca0  1  0.11203752  0.62757841  0.19986192  1
  Ca  Ca1  1  0.41057060  0.92628754  0.79775183  1
  Ca  Ca2  1  0.91072578  0.37126087  0.79791007  1
  Ca  Ca3  1  0.61239545  0.07243807  0.20003018  1
  Y  Y4  1  0.29067451  0.29116426  0.49900779  1
  Y  Y5  1  0.79015297  0.70648677  0.49826684  1
  Ti  Ti6  1  0.48638330  0.49933406  0.99879601  1
  Ti  Ti7  1  0.98618928  0.99913218  0.99864752  1
  O  O8  1  0.68914909  0.33414824  0.49872282  1
  O  O9  1  0.18928925  0.66396106  0.49866626  1
  O  O10  1  0.57191320  0.70950823  0.25651238  1
  O  O11  1  0.31404125  0.28926095  0.74119690  1
  O  O12  1  0.07181521  0.04674502  0.25602924  1
  O  O13  1  0.81376786  0.95226781  0.74135226  1
  O  O14  1  0.22110250  0.73695173  0.96508678  1
  O  O15  1  0.25535367  0.26002713  0.03153062  1
  O  O16  1  0.75566946  0.27158091  0.03234364  1
  O  O17  1  0.72159011  0.72793079  0.96579994  1
