# generated using pymatgen
data_LiMnSnO4
_symmetry_space_group_name_H-M   'P 1'
_cell_length_a   5.94889003
_cell_length_b   5.94889003
_cell_length_c   9.22073476
_cell_angle_alpha   90.00000000
_cell_angle_beta   90.00000000
_cell_angle_gamma   90.00000000
_symmetry_Int_Tables_number   1
_chemical_formula_structural   LiMnSnO4
_chemical_formula_sum   'Li4 Mn4 Sn4 O16'
_cell_volume   326.31528031
_cell_formula_units_Z   4
loop_
 _symmetry_equiv_pos_site_id
 _symmetry_equiv_pos_as_xyz
  1  'x, y, z'
loop_
 _atom_site_type_symbol
 _atom_site_label
 _atom_site_symmetry_multiplicity
 _atom_site_fract_x
 _atom_site_fract_y
 _atom_site_fract_z
 _atom_site_occupancy
  Li  Li0  1  0.00000000  0.23314695  -0.00000000  1
  Li  Li1  1  -0.00000000  0.76685305  0.50000000  1
  Li  Li2  1  0.23314695  -0.00000000  0.25000000  1
  Li  Li3  1  0.76685305  -0.00000000  0.75000000  1
  Mn  Mn4  1  0.23749805  0.50000000  0.25000000  1
  Mn  Mn5  1  0.50000000  0.23749805  0.00000000  1
  Mn  Mn6  1  0.50000000  0.76250195  0.50000000  1
  Mn  Mn7  1  0.76250195  0.50000000  0.75000000  1
  Sn  Sn8  1  0.26031829  0.26031829  0.62500000  1
  Sn  Sn9  1  0.26031829  0.73968171  0.87500000  1
  Sn  Sn10  1  0.73968171  0.26031829  0.37500000  1
  Sn  Sn11  1  0.73968171  0.73968171  0.12500000  1
  O  O12  1  0.01342367  0.26128665  0.25170653  1
  O  O13  1  0.01342367  0.73871335  0.24829347  1
  O  O14  1  0.26128665  0.01342367  0.99829347  1
  O  O15  1  0.26128665  0.98657633  0.50170653  1
  O  O16  1  0.26205473  0.47332303  0.00771507  1
  O  O17  1  0.26205473  0.52667697  0.49228493  1
  O  O18  1  0.47332303  0.26205473  0.24228493  1
  O  O19  1  0.47332303  0.73794527  0.25771507  1
  O  O20  1  0.52667697  0.26205473  0.75771507  1
  O  O21  1  0.52667697  0.73794527  0.74228493  1
  O  O22  1  0.73794527  0.52667697  0.50771507  1
  O  O23  1  0.73794527  0.47332303  0.99228493  1
  O  O24  1  0.73871335  0.01342367  0.00170653  1
  O  O25  1  0.73871335  0.98657633  0.49829347  1
  O  O26  1  0.98657633  0.26128665  0.74829347  1
  O  O27  1  0.98657633  0.73871335  0.75170653  1
