# generated using pymatgen
data_Li5Mn2Co2(PO4)4
_symmetry_space_group_name_H-M   'P 1'
_cell_length_a   4.87658309
_cell_length_b   6.24570678
_cell_length_c   10.43055128
_cell_angle_alpha   88.21781651
_cell_angle_beta   89.25817347
_cell_angle_gamma   90.28760125
_symmetry_Int_Tables_number   1
_chemical_formula_structural   Li5Mn2Co2(PO4)4
_chemical_formula_sum   'Li5 Mn2 Co2 P4 O16'
_cell_volume   317.50572522
_cell_formula_units_Z   1
loop_
 _symmetry_equiv_pos_site_id
 _symmetry_equiv_pos_as_xyz
  1  'x, y, z'
loop_
 _atom_site_type_symbol
 _atom_site_label
 _atom_site_symmetry_multiplicity
 _atom_site_fract_x
 _atom_site_fract_y
 _atom_site_fract_z
 _atom_site_occupancy
  Li  Li0  1  0.97844689  0.00997050  0.99218624  1
  Li  Li1  1  0.88926026  0.52302168  0.87083432  1
  Li  Li2  1  0.48395158  0.50964210  0.50843324  1
  Li  Li3  1  0.51471447  0.00454246  0.49392407  1
  Li  Li4  1  0.11074217  0.47713834  0.13034307  1
  Mn  Mn5  1  0.44991783  0.77231060  0.77852495  1
  Mn  Mn6  1  0.55000227  0.23073487  0.22105422  1
  Co  Co7  1  0.96997690  0.23411680  0.70614568  1
  Co  Co8  1  0.03011683  0.76611111  0.29108415  1
  P  P9  1  0.39350943  0.25516838  0.90553670  1
  P  P10  1  0.90633640  0.74720774  0.59562389  1
  P  P11  1  0.09430219  0.24913832  0.40334072  1
  P  P12  1  0.60472343  0.74518696  0.09516981  1
  O  O13  1  0.70672212  0.75427978  0.95173299  1
  O  O14  1  0.70896460  0.24866542  0.89624320  1
  O  O15  1  0.25557733  0.05814907  0.84074662  1
  O  O16  1  0.27220804  0.45937926  0.83720592  1
  O  O17  1  0.78556200  0.55161525  0.67777073  1
  O  O18  1  0.77342237  0.94638883  0.66030018  1
  O  O19  1  0.22318349  0.75354962  0.59615249  1
  O  O20  1  0.21664411  0.26280169  0.53975268  1
  O  O21  1  0.78407278  0.73729077  0.45930241  1
  O  O22  1  0.77924993  0.23657462  0.40265025  1
  O  O23  1  0.23319088  0.05056531  0.33993993  1
  O  O24  1  0.20983219  0.44590157  0.32063604  1
  O  O25  1  0.73112870  0.54205957  0.16267555  1
  O  O26  1  0.74300928  0.94374485  0.15819487  1
  O  O27  1  0.29132201  0.74817231  0.10585876  1
  O  O28  1  0.28999249  0.24680324  0.04800131  1
