# generated using pymatgen
data_Li5SbS
_symmetry_space_group_name_H-M   'P 1'
_cell_length_a   11.44258165
_cell_length_b   8.02812143
_cell_length_c   11.89898592
_cell_angle_alpha   90.00000000
_cell_angle_beta   85.72147850
_cell_angle_gamma   90.00000000
_symmetry_Int_Tables_number   1
_chemical_formula_structural   Li5SbS
_chemical_formula_sum   'Li40 Sb8 S8'
_cell_volume   1090.02362119
_cell_formula_units_Z   8
loop_
 _symmetry_equiv_pos_site_id
 _symmetry_equiv_pos_as_xyz
  1  'x, y, z'
loop_
 _atom_site_type_symbol
 _atom_site_label
 _atom_site_symmetry_multiplicity
 _atom_site_fract_x
 _atom_site_fract_y
 _atom_site_fract_z
 _atom_site_occupancy
  Li  Li0  1  0.98773742  0.23970688  0.58684085  1
  Li  Li1  1  0.01018944  0.75271866  0.01213693  1
  Li  Li2  1  0.10726969  0.75079351  0.62581198  1
  Li  Li3  1  0.16083470  0.40436390  0.82222442  1
  Li  Li4  1  0.05510739  0.42491921  0.21039690  1
  Li  Li5  1  0.05669173  0.06936887  0.21005898  1
  Li  Li6  1  0.16234479  0.08954113  0.82415437  1
  Li  Li7  1  0.22850504  0.41830341  0.48366840  1
  Li  Li8  1  0.23338852  0.07231309  0.48320053  1
  Li  Li9  1  0.22663801  0.74573089  0.24036610  1
  Li  Li10  1  0.33765521  0.58954113  0.67584563  1
  Li  Li11  1  0.27336199  0.24573089  0.25963390  1
  Li  Li12  1  0.26661148  0.57231309  0.01679947  1
  Li  Li13  1  0.27149496  0.91830341  0.01633160  1
  Li  Li14  1  0.33916530  0.90436390  0.67777558  1
  Li  Li15  1  0.39273031  0.25079351  0.87418802  1
  Li  Li16  1  0.44330827  0.56936887  0.28994102  1
  Li  Li17  1  0.44489261  0.92491921  0.28960310  1
  Li  Li18  1  0.51226258  0.73970688  0.91315915  1
  Li  Li19  1  0.48981056  0.25271866  0.48786307  1
  Li  Li20  1  0.51018944  0.74728134  0.51213693  1
  Li  Li21  1  0.48773742  0.26029312  0.08684085  1
  Li  Li22  1  0.55510739  0.07508079  0.71039690  1
  Li  Li23  1  0.55669173  0.43063113  0.71005898  1
  Li  Li24  1  0.60726969  0.74920649  0.12581198  1
  Li  Li25  1  0.66083470  0.09563610  0.32222442  1
  Li  Li26  1  0.72850504  0.08169659  0.98366840  1
  Li  Li27  1  0.73338852  0.42768691  0.98320053  1
  Li  Li28  1  0.72663801  0.75426911  0.74036610  1
  Li  Li29  1  0.66234479  0.41045887  0.32415437  1
  Li  Li30  1  0.77336199  0.25426911  0.75963390  1
  Li  Li31  1  0.76661148  0.92768691  0.51679947  1
  Li  Li32  1  0.77149496  0.58169659  0.51633160  1
  Li  Li33  1  0.83765521  0.91045887  0.17584563  1
  Li  Li34  1  0.94330827  0.93063113  0.78994102  1
  Li  Li35  1  0.94489261  0.57508079  0.78960310  1
  Li  Li36  1  0.83916530  0.59563610  0.17777558  1
  Li  Li37  1  0.89273031  0.24920649  0.37418802  1
  Li  Li38  1  0.98981056  0.24728134  0.98786307  1
  Li  Li39  1  0.01226258  0.76029312  0.41315915  1
  Sb  Sb40  1  0.17313557  0.74654944  0.83785558  1
  Sb  Sb41  1  0.28053036  0.74514612  0.45685761  1
  Sb  Sb42  1  0.32686443  0.24654944  0.66214442  1
  Sb  Sb43  1  0.21946964  0.24514612  0.04314239  1
  Sb  Sb44  1  0.78053036  0.75485388  0.95685761  1
  Sb  Sb45  1  0.67313557  0.75345056  0.33785558  1
  Sb  Sb46  1  0.71946964  0.25485388  0.54314239  1
  Sb  Sb47  1  0.82686443  0.25345056  0.16214442  1
  S  S48  1  0.97413235  0.25007589  0.79109358  1
  S  S49  1  0.09701180  0.24153362  0.38860709  1
  S  S50  1  0.40298820  0.74153362  0.11139291  1
  S  S51  1  0.52586765  0.75007489  0.70890642  1
  S  S52  1  0.47413235  0.24992411  0.29109358  1
  S  S53  1  0.59701180  0.25846638  0.88860709  1
  S  S54  1  0.90298820  0.75846638  0.61139291  1
  S  S55  1  0.02586765  0.74992511  0.20890642  1
