# generated using pymatgen
data_Li6Fe7O15
_symmetry_space_group_name_H-M   'P 1'
_cell_length_a   9.00616472
_cell_length_b   7.94830230
_cell_length_c   3.94569534
_cell_angle_alpha   104.35433698
_cell_angle_beta   90.00195819
_cell_angle_gamma   101.37016578
_symmetry_Int_Tables_number   1
_chemical_formula_structural   Li6Fe7O15
_chemical_formula_sum   'Li6 Fe7 O15'
_cell_volume   267.90362097
_cell_formula_units_Z   1
loop_
 _symmetry_equiv_pos_site_id
 _symmetry_equiv_pos_as_xyz
  1  'x, y, z'
loop_
 _atom_site_type_symbol
 _atom_site_label
 _atom_site_symmetry_multiplicity
 _atom_site_fract_x
 _atom_site_fract_y
 _atom_site_fract_z
 _atom_site_occupancy
  Li  Li0  1  0.13287430  0.79527537  0.39999061  1
  Li  Li1  1  -0.00057495  0.00617360  0.00529395  1
  Li  Li2  1  0.34054585  0.00661354  0.00550135  1
  Li  Li3  1  0.39797152  0.39863410  0.20149899  1
  Li  Li4  1  0.59853909  0.60442810  0.80437801  1
  Li  Li5  1  0.73580677  0.39232027  0.19822415  1
  Fe  Fe6  1  0.25881912  0.58577807  0.79509311  1
  Fe  Fe7  1  0.19564414  0.19403526  0.59920742  1
  Fe  Fe8  1  0.47367472  0.81411989  0.40915251  1
  Fe  Fe9  1  0.53948279  0.20717411  0.60577367  1
  Fe  Fe10  1  0.79679895  0.81186675  0.40802144  1
  Fe  Fe11  1  0.86770833  0.19947935  0.60178638  1
  Fe  Fe12  1  0.93560746  0.59042184  0.79746140  1
  O  O13  1  0.12785184  0.75898120  0.88175692  1
  O  O14  1  0.06562360  0.39105402  0.69763162  1
  O  O15  1  0.20036355  0.17521654  0.08979860  1
  O  O16  1  0.28638944  0.61485273  0.30963136  1
  O  O17  1  0.44483420  0.78438893  0.89427029  1
  O  O18  1  0.38202135  0.39036420  0.69730362  1
  O  O19  1  0.35381890  0.01421561  0.50936585  1
  O  O20  1  0.60440921  0.64165606  0.32298916  1
  O  O21  1  0.53382411  0.22482382  0.11451520  1
  O  O22  1  0.66759795  0.00765299  0.50595157  1
  O  O23  1  0.74193373  0.38820971  0.69613533  1
  O  O24  1  0.81568063  0.78548841  0.89486833  1
  O  O25  1  0.91565357  0.61577117  0.31015532  1
  O  O26  1  0.86728952  0.19984115  0.10196085  1
  O  O27  1  0.99156831  0.00943424  0.50688000  1
