# generated using pymatgen
data_Mn6O5F7
_symmetry_space_group_name_H-M   'P 1'
_cell_length_a   5.36043618
_cell_length_b   5.30105685
_cell_length_c   14.86352404
_cell_angle_alpha   87.49786741
_cell_angle_beta   93.38253876
_cell_angle_gamma   86.25212733
_symmetry_Int_Tables_number   1
_chemical_formula_structural   Mn6O5F7
_chemical_formula_sum   'Mn12 O10 F14'
_cell_volume   420.24515988
_cell_formula_units_Z   2
loop_
 _symmetry_equiv_pos_site_id
 _symmetry_equiv_pos_as_xyz
  1  'x, y, z'
loop_
 _atom_site_type_symbol
 _atom_site_label
 _atom_site_symmetry_multiplicity
 _atom_site_fract_x
 _atom_site_fract_y
 _atom_site_fract_z
 _atom_site_occupancy
  Mn  Mn0  1  0.01367920  0.90090379  0.00216193  1
  Mn  Mn1  1  0.04942463  0.44542380  0.16521633  1
  Mn  Mn2  1  0.01111611  0.07161027  0.32458392  1
  Mn  Mn3  1  0.10708287  0.61024775  0.49148439  1
  Mn  Mn4  1  0.88854653  0.01542226  0.67012912  1
  Mn  Mn5  1  0.03984649  0.50606680  0.82873171  1
  Mn  Mn6  1  0.53938638  0.11928677  0.16955129  1
  Mn  Mn7  1  0.54486112  0.54963295  0.00392786  1
  Mn  Mn8  1  0.44898366  0.47389051  0.66949925  1
  Mn  Mn9  1  0.46551428  0.01668908  0.50271795  1
  Mn  Mn10  1  0.49327873  0.55007627  0.31962228  1
  Mn  Mn11  1  0.37296628  0.97625242  0.83367104  1
  O  O12  1  0.25268538  0.24085234  0.25570746  1
  O  O13  1  0.26124641  0.85876915  0.40758371  1
  O  O14  1  0.13598282  0.82094855  0.75107777  1
  O  O15  1  0.37799474  0.40676233  0.10110102  1
  O  O16  1  0.35992750  0.72753180  0.57043937  1
  O  O17  1  0.24540132  0.69955536  0.92860182  1
  O  O18  1  0.31987897  0.30767871  0.77215438  1
  O  O19  1  0.61400353  0.19427292  0.60109502  1
  O  O20  1  0.77110383  0.30690056  0.24330300  1
  O  O21  1  0.85898400  0.63953530  0.06942818  1
  F  F22  1  0.36004550  0.91345024  0.08554947  1
  F  F23  1  0.11681980  0.29809642  0.58489693  1
  F  F24  1  0.07381196  0.18463278  0.92127678  1
  F  F25  1  0.14790481  0.73924343  0.24373185  1
  F  F26  1  0.36409038  0.34465713  0.43338822  1
  F  F27  1  0.57786673  0.12194669  0.92883253  1
  F  F28  1  0.85469727  0.51057153  0.40784489  1
  F  F29  1  0.62735325  0.77343585  0.73481559  1
  F  F30  1  0.76801480  0.01429318  0.41426014  1
  F  F31  1  0.86759229  0.13525618  0.08571715  1
  F  F32  1  0.81803161  0.27943631  0.75406209  1
  F  F33  1  0.86123167  0.76636377  0.57756541  1
  F  F34  1  0.73269957  0.64724437  0.89961079  1
  F  F35  1  0.65794556  0.83306243  0.24665834  1
