# generated using pymatgen
data_LiTi(SO4)2
_symmetry_space_group_name_H-M   'P 1'
_cell_length_a   9.33985967
_cell_length_b   9.17025741
_cell_length_c   13.80683679
_cell_angle_alpha   90.00000000
_cell_angle_beta   90.41277584
_cell_angle_gamma   90.00000000
_symmetry_Int_Tables_number   1
_chemical_formula_structural   LiTi(SO4)2
_chemical_formula_sum   'Li8 Ti8 S16 O64'
_cell_volume   1182.50993569
_cell_formula_units_Z   8
loop_
 _symmetry_equiv_pos_site_id
 _symmetry_equiv_pos_as_xyz
  1  'x, y, z'
loop_
 _atom_site_type_symbol
 _atom_site_label
 _atom_site_symmetry_multiplicity
 _atom_site_fract_x
 _atom_site_fract_y
 _atom_site_fract_z
 _atom_site_occupancy
  Li  Li0  1  0.22651968  0.96213078  0.37244000  1
  Li  Li1  1  0.22651968  0.53786922  0.87244000  1
  Li  Li2  1  0.28020226  0.04581270  0.87655061  1
  Li  Li3  1  0.28020226  0.45418730  0.37655061  1
  Li  Li4  1  0.76785542  0.44754833  0.12380609  1
  Li  Li5  1  0.76785542  0.05245167  0.62380609  1
  Li  Li6  1  0.95139710  0.77261771  0.62604245  1
  Li  Li7  1  0.95139710  0.72738229  0.12604245  1
  Ti  Ti8  1  0.14110596  0.10608024  0.12495120  1
  Ti  Ti9  1  0.14110596  0.39391976  0.62495120  1
  Ti  Ti10  1  0.36332316  0.60660636  0.12722179  1
  Ti  Ti11  1  0.36332316  0.89339364  0.62722179  1
  Ti  Ti12  1  0.64141125  0.10498251  0.37278951  1
  Ti  Ti13  1  0.64141125  0.39501749  0.87278951  1
  Ti  Ti14  1  0.85565385  0.60246371  0.37603782  1
  Ti  Ti15  1  0.85565385  0.89753629  0.87603782  1
  S  S16  1  0.07273718  0.06517206  0.72354240  1
  S  S17  1  0.07273718  0.43482794  0.22354240  1
  S  S18  1  0.15685108  0.68952121  0.48967736  1
  S  S19  1  0.15685108  0.81047879  0.98967736  1
  S  S20  1  0.34613019  0.18795181  0.49100652  1
  S  S21  1  0.34613019  0.31204819  0.99100652  1
  S  S22  1  0.42678382  0.93455289  0.21950785  1
  S  S23  1  0.42678382  0.56544711  0.71950785  1
  S  S24  1  0.57310099  0.43032077  0.27732646  1
  S  S25  1  0.57310099  0.06967923  0.77732646  1
  S  S26  1  0.66004233  0.68555483  0.01095783  1
  S  S27  1  0.66004233  0.81444517  0.51095783  1
  S  S28  1  0.84394138  0.18745239  0.00914446  1
  S  S29  1  0.84394138  0.31254761  0.50914446  1
  S  S30  1  0.92496653  0.56883360  0.77792271  1
  S  S31  1  0.92496653  0.93116640  0.27792271  1
  O  O32  1  0.99659941  0.69655332  0.47804528  1
  O  O33  1  0.99659941  0.80344668  0.97804528  1
  O  O34  1  0.02169941  0.98378906  0.35244531  1
  O  O35  1  0.02169941  0.51621094  0.85244531  1
  O  O36  1  0.02560301  0.47290932  0.32412835  1
  O  O37  1  0.02560301  0.02709068  0.82412835  1
  O  O38  1  0.07679675  0.22681989  0.71582158  1
  O  O39  1  0.07679675  0.27318011  0.21582158  1
  O  O40  1  0.18438380  0.72492221  0.08095893  1
  O  O41  1  0.18438380  0.77507779  0.58095893  1
  O  O42  1  0.20063690  0.96621319  0.00828485  1
  O  O43  1  0.20063690  0.53378681  0.50828485  1
  O  O44  1  0.22424134  0.00816547  0.71812510  1
  O  O45  1  0.22424134  0.49183453  0.21812510  1
  O  O46  1  0.23251721  0.74422717  0.40579033  1
  O  O47  1  0.23251721  0.75577283  0.90579033  1
  O  O48  1  0.26604812  0.23791534  0.40592514  1
  O  O49  1  0.26604812  0.26208466  0.90592514  1
  O  O50  1  0.27189204  0.99237057  0.21664835  1
  O  O51  1  0.27189204  0.50762943  0.71664835  1
  O  O52  1  0.30435618  0.03043809  0.51139472  1
  O  O53  1  0.30435618  0.46956191  0.01139472  1
  O  O54  1  0.31191048  0.22740216  0.08012794  1
  O  O55  1  0.31191048  0.27259784  0.58012794  1
  O  O56  1  0.41141665  0.76972694  0.21622409  1
  O  O57  1  0.41141665  0.73027306  0.71622409  1
  O  O58  1  0.47335285  0.53012507  0.82200871  1
  O  O59  1  0.47335285  0.96987493  0.32200871  1
  O  O60  1  0.48074815  0.49092467  0.35057306  1
  O  O61  1  0.48074815  0.00907533  0.85057306  1
  O  O62  1  0.50334241  0.19388641  0.47513386  1
  O  O63  1  0.50334241  0.30611359  0.97513386  1
  O  O64  1  0.50407056  0.69797992  0.02968406  1
  O  O65  1  0.50407056  0.80202008  0.52968406  1
  O  O66  1  0.51581282  0.50808300  0.64523582  1
  O  O67  1  0.51581282  0.99191700  0.14523582  1
  O  O68  1  0.52616375  0.46761221  0.17554382  1
  O  O69  1  0.52616375  0.03238779  0.67554382  1
  O  O70  1  0.58279872  0.26758006  0.28262391  1
  O  O71  1  0.58279872  0.23241994  0.78262391  1
  O  O72  1  0.69096802  0.72698069  0.42260046  1
  O  O73  1  0.69096802  0.77301931  0.92260046  1
  O  O74  1  0.69457126  0.52760800  0.98683743  1
  O  O75  1  0.69457126  0.97239200  0.48683743  1
  O  O76  1  0.72479641  0.48848139  0.28221489  1
  O  O77  1  0.72479641  0.01151861  0.78221489  1
  O  O78  1  0.74734169  0.72249508  0.09519730  1
  O  O79  1  0.74734169  0.77750492  0.59519730  1
  O  O80  1  0.76722829  0.23914530  0.09324797  1
  O  O81  1  0.76722829  0.26085470  0.59324797  1
  O  O82  1  0.77791033  0.50846934  0.78710038  1
  O  O83  1  0.77791033  0.99153066  0.28710038  1
  O  O84  1  0.80470744  0.46694271  0.48430318  1
  O  O85  1  0.80470744  0.03305729  0.98430318  1
  O  O86  1  0.81477493  0.22355010  0.42017926  1
  O  O87  1  0.81477493  0.27644990  0.92017926  1
  O  O88  1  0.91243041  0.73505942  0.77955448  1
  O  O89  1  0.91243041  0.76494058  0.27955448  1
  O  O90  1  0.97759382  0.53776294  0.67702498  1
  O  O91  1  0.97759382  0.96223706  0.17702498  1
  O  O92  1  0.97879739  0.99869627  0.64991680  1
  O  O93  1  0.97879739  0.50130373  0.14991680  1
  O  O94  1  0.00336427  0.19025428  0.02709260  1
  O  O95  1  0.00336427  0.30974572  0.52709260  1
