# generated using pymatgen
data_Ca(CoO2)2
_symmetry_space_group_name_H-M   'P 1'
_cell_length_a   6.18590536
_cell_length_b   6.02038630
_cell_length_c   23.91215671
_cell_angle_alpha   59.76539053
_cell_angle_beta   61.11054341
_cell_angle_gamma   60.88125160
_symmetry_Int_Tables_number   1
_chemical_formula_structural   Ca(CoO2)2
_chemical_formula_sum   'Ca8 Co16 O32'
_cell_volume   637.83116089
_cell_formula_units_Z   8
loop_
 _symmetry_equiv_pos_site_id
 _symmetry_equiv_pos_as_xyz
  1  'x, y, z'
loop_
 _atom_site_type_symbol
 _atom_site_label
 _atom_site_symmetry_multiplicity
 _atom_site_fract_x
 _atom_site_fract_y
 _atom_site_fract_z
 _atom_site_occupancy
  Ca  Ca0  1  0.13956375  0.12350709  0.02835602  1
  Ca  Ca1  1  0.99907255  0.49942517  0.12551878  1
  Ca  Ca2  1  0.12280421  0.11825558  0.28517091  1
  Ca  Ca3  1  0.00596691  0.49783080  0.37459287  1
  Ca  Ca4  1  0.00041939  0.49877999  0.62550490  1
  Ca  Ca5  1  0.49788409  0.50939467  0.49583189  1
  Ca  Ca6  1  0.99319179  0.50327698  0.87506356  1
  Ca  Ca7  1  0.50053067  0.49320291  0.75326538  1
  Co  Co8  1  0.50140575  0.49505694  0.12523816  1
  Co  Co9  1  0.50225908  0.49952672  0.24967162  1
  Co  Co10  1  0.50140575  0.00258464  0.12523816  1
  Co  Co11  1  0.13320763  0.11186664  0.53576452  1
  Co  Co12  1  0.49618863  0.49641169  0.37328909  1
  Co  Co13  1  0.82921369  0.89055164  0.22242075  1
  Co  Co14  1  0.14030583  0.11195573  0.78394568  1
  Co  Co15  1  0.49618863  0.01424432  0.37328909  1
  Co  Co16  1  0.49976120  0.49952804  0.62494286  1
  Co  Co17  1  0.85740792  0.88669490  0.46730032  1
  Co  Co18  1  0.49976120  0.00093930  0.62494286  1
  Co  Co19  1  0.50641954  0.98841346  0.87549113  1
  Co  Co20  1  0.50641954  0.50320249  0.87549113  1
  Co  Co21  1  0.86312230  0.88786242  0.71528771  1
  Co  Co22  1  0.50084116  0.49421944  0.00268024  1
  Co  Co23  1  0.82848644  0.89111385  0.97232122  1
  O  O24  1  0.31671211  0.24971957  0.06144236  1
  O  O25  1  0.31200540  0.24208447  0.17595641  1
  O  O26  1  0.31671211  0.68780087  0.06144236  1
  O  O27  1  0.69616436  0.26496465  0.06847684  1
  O  O28  1  0.29437069  0.73559021  0.18361172  1
  O  O29  1  0.31714373  0.25939786  0.30846816  1
  O  O30  1  0.69704174  0.28872738  0.19048011  1
  O  O31  1  0.29106397  0.23484168  0.43481267  1
  O  O32  1  0.31714373  0.68958577  0.30846816  1
  O  O33  1  0.69884583  0.75860584  0.07098537  1
  O  O34  1  0.68456002  0.27385080  0.31693510  1
  O  O35  1  0.69704174  0.75231042  0.19048011  1
  O  O36  1  0.27570626  0.21677105  0.56758005  1
  O  O37  1  0.25041256  0.77920632  0.42279345  1
  O  O38  1  0.73329915  0.26189696  0.42727427  1
  O  O39  1  0.29646610  0.23449070  0.68363838  1
  O  O40  1  0.27570626  0.73720148  0.56758005  1
  O  O41  1  0.69403578  0.76032394  0.32132884  1
  O  O42  1  0.73642383  0.24065796  0.57056506  1
  O  O43  1  0.73329915  0.79570780  0.42727427  1
  O  O44  1  0.26259355  0.76116562  0.67876855  1
  O  O45  1  0.27393104  0.20339349  0.82121144  1
  O  O46  1  0.72403182  0.26349092  0.68163604  1
  O  O47  1  0.32187914  0.24877954  0.92013995  1
  O  O48  1  0.27393104  0.73782772  0.82121144  1
  O  O49  1  0.70606652  0.76574373  0.56561176  1
  O  O50  1  0.76065312  0.22423597  0.82271873  1
  O  O51  1  0.72403182  0.78593508  0.68163604  1
  O  O52  1  0.29923089  0.72779809  0.93629348  1
  O  O53  1  0.69309274  0.28970128  0.94276601  1
  O  O54  1  0.71148440  0.76420747  0.81502491  1
  O  O55  1  0.69309274  0.74614093  0.94276601  1
