# generated using pymatgen
data_Li3MnFe3O8
_symmetry_space_group_name_H-M   'P 1'
_cell_length_a   6.02706189
_cell_length_b   5.93111890
_cell_length_c   5.88496276
_cell_angle_alpha   90.16036771
_cell_angle_beta   60.69529363
_cell_angle_gamma   60.68739049
_symmetry_Int_Tables_number   1
_chemical_formula_structural   Li3MnFe3O8
_chemical_formula_sum   'Li3 Mn1 Fe3 O8'
_cell_volume   151.61353883
_cell_formula_units_Z   1
loop_
 _symmetry_equiv_pos_site_id
 _symmetry_equiv_pos_as_xyz
  1  'x, y, z'
loop_
 _atom_site_type_symbol
 _atom_site_label
 _atom_site_symmetry_multiplicity
 _atom_site_fract_x
 _atom_site_fract_y
 _atom_site_fract_z
 _atom_site_occupancy
  Li  Li0  1  0.00000097  0.49999795  0.50000101  1
  Li  Li1  1  0.50001140  0.49999327  0.99999132  1
  Li  Li2  1  0.00000339  0.49999390  0.99998978  1
  Mn  Mn3  1  0.99998125  0.00005460  -0.00003292  1
  Fe  Fe4  1  0.49997044  0.00000553  0.50001721  1
  Fe  Fe5  1  0.00000355  0.00000363  0.50002784  1
  Fe  Fe6  1  0.50001710  -0.00000983  -0.00001847  1
  O  O7  1  0.02120686  0.22161794  0.74824592  1
  O  O8  1  0.52033028  0.22025667  0.74913197  1
  O  O9  1  0.02722625  0.21649508  0.22897054  1
  O  O10  1  0.48948933  0.22813775  0.24053757  1
  O  O11  1  0.51051326  0.77186299  0.75946273  1
  O  O12  1  0.97276605  0.78351496  0.77104774  1
  O  O13  1  0.47967400  0.77973949  0.25085710  1
  O  O14  1  0.97880588  0.77833606  0.25177167  1
