# generated using pymatgen
data_KHoCoSi2O7
_symmetry_space_group_name_H-M   'P 1'
_cell_length_a   8.41453336
_cell_length_b   10.02272172
_cell_length_c   8.29631710
_cell_angle_alpha   90.00000000
_cell_angle_beta   113.42652740
_cell_angle_gamma   90.00000000
_symmetry_Int_Tables_number   1
_chemical_formula_structural   KHoCoSi2O7
_chemical_formula_sum   'K4 Ho4 Co4 Si8 O28'
_cell_volume   642.00818651
_cell_formula_units_Z   4
loop_
 _symmetry_equiv_pos_site_id
 _symmetry_equiv_pos_as_xyz
  1  'x, y, z'
loop_
 _atom_site_type_symbol
 _atom_site_label
 _atom_site_symmetry_multiplicity
 _atom_site_fract_x
 _atom_site_fract_y
 _atom_site_fract_z
 _atom_site_occupancy
  K  K0  1  0.21480396  0.91894672  0.71452153  1
  K  K1  1  0.21859675  0.42149661  0.21403094  1
  K  K2  1  0.78140325  0.42149661  0.78596906  1
  K  K3  1  0.78519604  0.91894672  0.28547847  1
  Ho  Ho4  1  0.27816969  0.48969090  0.77668898  1
  Ho  Ho5  1  0.28197155  0.99056206  0.27879903  1
  Ho  Ho6  1  0.71802845  0.99056206  0.72120097  1
  Ho  Ho7  1  0.72183031  0.48969090  0.22331102  1
  Co  Co8  1  -0.00000000  0.21607969  0.50000000  1
  Co  Co9  1  -0.00000000  0.71859208  -0.00000000  1
  Co  Co10  1  0.50000000  0.69480077  0.50000000  1
  Co  Co11  1  0.50000000  0.19487594  -0.00000000  1
  Si  Si12  1  0.11629498  0.18168876  0.88625713  1
  Si  Si13  1  0.11683730  0.68265131  0.38566569  1
  Si  Si14  1  0.38908451  0.25743645  0.60821700  1
  Si  Si15  1  0.60810402  0.75769431  0.88949891  1
  Si  Si16  1  0.39189598  0.75769431  0.11050109  1
  Si  Si17  1  0.61091549  0.25743645  0.39178300  1
  Si  Si18  1  0.88316270  0.68265131  0.61433431  1
  Si  Si19  1  0.88370502  0.18168876  0.11374287  1
  O  O20  1  0.14669354  0.34053246  0.86967914  1
  O  O21  1  -0.00000000  0.65535777  0.50000000  1
  O  O22  1  0.00803884  0.11221653  0.30073197  1
  O  O23  1  0.29663127  0.10294739  0.00671665  1
  O  O24  1  0.99035982  0.61373408  0.19895445  1
  O  O25  1  0.15048811  0.84083996  0.36952611  1
  O  O26  1  -0.00000000  0.14995938  -0.00000000  1
  O  O27  1  0.19957808  0.33284442  0.53882637  1
  O  O28  1  0.29564403  0.60182630  0.50483320  1
  O  O29  1  0.47324372  0.32338235  0.80798603  1
  O  O30  1  0.39556075  0.09580207  0.59170826  1
  O  O31  1  0.20211028  0.83262332  0.04177889  1
  O  O32  1  0.52232984  0.82434370  0.69015960  1
  O  O33  1  0.60028497  0.59611115  0.90420926  1
  O  O34  1  0.50000000  0.32281025  0.50000000  1
  O  O35  1  0.39971503  0.59611115  0.09579074  1
  O  O36  1  0.47767016  0.82434370  0.30984040  1
  O  O37  1  0.79788972  0.83262332  0.95822111  1
  O  O38  1  0.60443925  0.09580207  0.40829174  1
  O  O39  1  0.52675628  0.32338235  0.19201397  1
  O  O40  1  0.50000000  0.82377944  -0.00000000  1
  O  O41  1  0.70435597  0.60182630  0.49516680  1
  O  O42  1  0.80042192  0.33284442  0.46117363  1
  O  O43  1  0.84951189  0.84083996  0.63047389  1
  O  O44  1  0.00964018  0.61373408  0.80104555  1
  O  O45  1  0.70336873  0.10294739  0.99328335  1
  O  O46  1  0.99196116  0.11221653  0.69926803  1
  O  O47  1  0.85330646  0.34053246  0.13032086  1
