# generated using pymatgen
data_Li11V6O5F19
_symmetry_space_group_name_H-M   'P 1'
_cell_length_a   5.25983851
_cell_length_b   5.44687521
_cell_length_c   16.17823825
_cell_angle_alpha   79.29393721
_cell_angle_beta   89.68486706
_cell_angle_gamma   89.20262348
_symmetry_Int_Tables_number   1
_chemical_formula_structural   Li11V6O5F19
_chemical_formula_sum   'Li11 V6 O5 F19'
_cell_volume   455.38720404
_cell_formula_units_Z   1
loop_
 _symmetry_equiv_pos_site_id
 _symmetry_equiv_pos_as_xyz
  1  'x, y, z'
loop_
 _atom_site_type_symbol
 _atom_site_label
 _atom_site_symmetry_multiplicity
 _atom_site_fract_x
 _atom_site_fract_y
 _atom_site_fract_z
 _atom_site_occupancy
  Li  Li0  1  0.44703984  0.72128067  0.78556385  1
  Li  Li1  1  0.96226393  0.94671857  0.23087414  1
  Li  Li2  1  0.50427452  0.76569673  0.56503098  1
  Li  Li3  1  0.96408680  0.60107652  0.89958255  1
  Li  Li4  1  0.47049562  0.91500638  0.10256232  1
  Li  Li5  1  0.03926119  0.21727851  0.78481925  1
  Li  Li6  1  0.99489883  0.29415756  0.56472886  1
  Li  Li7  1  0.51376157  0.43561776  0.23044785  1
  Li  Li8  1  0.51465969  0.11910971  0.89554413  1
  Li  Li9  1  0.47718765  0.27913642  0.44772988  1
  Li  Li10  1  0.01637070  0.40806198  0.10612170  1
  V  V11  1  0.02321903  0.68843373  0.66226347  1
  V  V12  1  0.47595238  0.85643174  0.33236389  1
  V  V13  1  0.50960197  0.53497133  0.00299650  1
  V  V14  1  0.01028083  0.98084916  0.00065504  1
  V  V15  1  0.47800990  0.18315611  0.66301914  1
  V  V16  1  0.01153700  0.32621033  0.33334855  1
  O  O17  1  0.20067929  0.99085306  0.63361001  1
  O  O18  1  0.32822382  0.85157282  0.97391747  1
  O  O19  1  0.30962870  0.49272677  0.63457422  1
  O  O20  1  0.82587525  0.66428459  0.02898962  1
  O  O21  1  0.31236143  0.17011319  0.30113899  1
  F  F22  1  0.68965560  0.85101845  0.70064548  1
  F  F23  1  0.11265756  0.00603876  0.12063648  1
  F  F24  1  0.40274846  0.80891871  0.44853800  1
  F  F25  1  0.11026381  0.59126839  0.79176700  1
  F  F26  1  0.61194144  0.83919812  0.21667843  1
  F  F27  1  0.60900142  0.51429842  0.88224172  1
  F  F28  1  0.85532924  0.66806601  0.55548646  1
  F  F29  1  0.17176898  0.67111335  0.29379276  1
  F  F30  1  0.18812233  0.34035350  0.97186114  1
  F  F31  1  0.66705823  0.49989172  0.35505461  1
  F  F32  1  0.81380716  0.34351177  0.69826153  1
  F  F33  1  0.11993919  0.32127211  0.44778021  1
  F  F34  1  0.36938726  0.49396919  0.12131351  1
  F  F35  1  0.87400705  0.03204592  0.88289612  1
  F  F36  1  0.37452555  0.09096798  0.79043536  1
  F  F37  1  0.86721066  0.33859575  0.21686931  1
  F  F38  1  0.64099253  0.18544172  0.54751642  1
  F  F39  1  0.68435402  0.17251424  0.03332642  1
  F  F40  1  0.81654156  0.00317925  0.35446462  1
