# generated using pymatgen
data_Li3Fe4(P2O7)4
_symmetry_space_group_name_H-M   'P 1'
_cell_length_a   9.71930101
_cell_length_b   9.84816159
_cell_length_c   11.14300420
_cell_angle_alpha   89.81694458
_cell_angle_beta   101.84705194
_cell_angle_gamma   89.90076603
_symmetry_Int_Tables_number   1
_chemical_formula_structural   Li3Fe4(P2O7)4
_chemical_formula_sum   'Li6 Fe8 P16 O56'
_cell_volume   1043.85021040
_cell_formula_units_Z   2
loop_
 _symmetry_equiv_pos_site_id
 _symmetry_equiv_pos_as_xyz
  1  'x, y, z'
loop_
 _atom_site_type_symbol
 _atom_site_label
 _atom_site_symmetry_multiplicity
 _atom_site_fract_x
 _atom_site_fract_y
 _atom_site_fract_z
 _atom_site_occupancy
  Li  Li0  1  0.09172708  0.10645951  0.02624078  1
  Li  Li1  1  0.40554369  0.60691837  0.97066856  1
  Li  Li2  1  0.59369768  0.39571374  0.02870152  1
  Li  Li3  1  0.90633671  0.89415964  0.97312384  1
  Li  Li4  1  0.84701033  0.57649398  0.47354771  1
  Li  Li5  1  0.88689649  0.28316624  0.54719280  1
  Fe  Fe6  1  0.20606309  0.91499966  0.65983072  1
  Fe  Fe7  1  0.24643528  0.20500866  0.82040252  1
  Fe  Fe8  1  0.24921642  0.70105057  0.17897084  1
  Fe  Fe9  1  0.29351893  0.41817342  0.34022158  1
  Fe  Fe10  1  0.70095983  0.58644026  0.67503948  1
  Fe  Fe11  1  0.75154695  0.29706263  0.82330971  1
  Fe  Fe12  1  0.75450317  0.78973806  0.17879866  1
  Fe  Fe13  1  0.79521416  0.07731632  0.33320126  1
  P  P14  1  0.02155681  0.44754496  0.75201803  1
  P  P15  1  0.11553205  0.71313132  0.88178656  1
  P  P16  1  0.06281310  0.92398658  0.23868186  1
  P  P17  1  0.12686797  0.14348200  0.42944164  1
  P  P18  1  0.37489778  0.64293132  0.57140482  1
  P  P19  1  0.43689067  0.42449481  0.76152148  1
  P  P20  1  0.52171189  0.05394709  0.75256915  1
  P  P21  1  0.38339593  0.21309066  0.11671213  1
  P  P22  1  0.61326084  0.79103899  0.88670871  1
  P  P23  1  0.47737716  0.94640572  0.24734891  1
  P  P24  1  0.56329280  0.57486480  0.23708300  1
  P  P25  1  0.62376552  0.35490896  0.42350033  1
  P  P26  1  0.87315333  0.85755542  0.57208252  1
  P  P27  1  0.93548739  0.07398847  0.76054823  1
  P  P28  1  0.88540720  0.28624767  0.11735018  1
  P  P29  1  0.97768023  0.55329170  0.24535901  1
  O  O30  1  0.01453853  0.42373282  0.61836890  1
  O  O31  1  0.02809254  0.84841039  0.56506086  1
  O  O32  1  0.08743617  0.08310390  0.73462244  1
  O  O33  1  0.10302157  0.58698188  0.78788208  1
  O  O34  1  0.10498616  0.34036977  0.83941913  1
  O  O35  1  0.18133568  0.82450479  0.81592430  1
  O  O36  1  0.21980532  0.66521382  0.00172325  1
  O  O37  1  0.02665047  0.25832329  0.09117651  1
  O  O38  1  0.12686017  0.05839323  0.30542159  1
  O  O39  1  0.06033354  0.94048464  0.10408395  1
  O  O40  1  0.13148793  0.53645227  0.22160703  1
  O  O41  1  0.18320240  0.28178725  0.40279445  1
  O  O42  1  0.15858113  0.80409355  0.29000651  1
  O  O43  1  0.21339327  0.06505310  0.53599558  1
  O  O44  1  0.28922865  0.56575777  0.46421383  1
  O  O45  1  0.34333794  0.30363247  0.71071908  1
  O  O46  1  0.31864547  0.78215150  0.59637200  1
  O  O47  1  0.36966424  0.03757613  0.77721881  1
  O  O48  1  0.36807733  0.55800336  0.69570727  1
  O  O49  1  0.44076055  0.43981511  0.89632843  1
  O  O50  1  0.47097529  0.76351590  0.91096953  1
  O  O51  1  0.27929806  0.16362598  0.99787836  1
  O  O52  1  0.32003097  0.32541737  0.18274057  1
  O  O53  1  0.39718781  0.08697068  0.21263521  1
  O  O54  1  0.41220784  0.58514082  0.26465501  1
  O  O55  1  0.39367913  0.83926719  0.16182962  1
  O  O56  1  0.47186547  0.34743618  0.43602747  1
  O  O57  1  0.52723869  0.08564739  0.62063333  1
  O  O58  1  0.47351345  0.91342574  0.37959111  1
  O  O59  1  0.53208478  0.64888688  0.56800599  1
  O  O60  1  0.60728378  0.16060039  0.83818554  1
  O  O61  1  0.59031610  0.41577949  0.73385851  1
  O  O62  1  0.60313134  0.91374473  0.78876883  1
  O  O63  1  0.68039566  0.67714942  0.82405742  1
  O  O64  1  0.71918071  0.84002242  0.00440391  1
  O  O65  1  0.52561909  0.24086640  0.09070099  1
  O  O66  1  0.56367821  0.56782127  0.10236524  1
  O  O67  1  0.62657122  0.43461606  0.29639398  1
  O  O68  1  0.63035292  0.96054680  0.22357107  1
  O  O69  1  0.69213012  0.21783730  0.40785867  1
  O  O70  1  0.66607780  0.68707105  0.29614865  1
  O  O71  1  0.72088016  0.43694594  0.52464132  1
  O  O72  1  0.78532061  0.93598087  0.46582029  1
  O  O73  1  0.84338191  0.19606077  0.70312578  1
  O  O74  1  0.81637675  0.71491378  0.59352646  1
  O  O75  1  0.86797796  0.46261977  0.78066351  1
  O  O76  1  0.93153135  0.06492185  0.89440616  1
  O  O77  1  0.86647316  0.93908269  0.69709615  1
  O  O78  1  0.97302343  0.74311553  0.90594078  1
  O  O79  1  0.77830578  0.33388349  0.99824897  1
  O  O80  1  0.81977570  0.17474426  0.18406508  1
  O  O81  1  0.89649993  0.65889588  0.15372318  1
  O  O82  1  0.89607063  0.41270304  0.21019804  1
  O  O83  1  0.91019311  0.91250499  0.26601760  1
  O  O84  1  0.97009417  0.15541703  0.43864609  1
  O  O85  1  0.97308935  0.58013208  0.37558803  1
