# generated using pymatgen
data_Li3V3SbO8
_symmetry_space_group_name_H-M   'P 1'
_cell_length_a   10.48039354
_cell_length_b   10.51733582
_cell_length_c   14.82696290
_cell_angle_alpha   19.81092934
_cell_angle_beta   19.62230910
_cell_angle_gamma   33.90794181
_symmetry_Int_Tables_number   1
_chemical_formula_structural   Li3V3SbO8
_chemical_formula_sum   'Li3 V3 Sb1 O8'
_cell_volume   161.70865921
_cell_formula_units_Z   1
loop_
 _symmetry_equiv_pos_site_id
 _symmetry_equiv_pos_as_xyz
  1  'x, y, z'
loop_
 _atom_site_type_symbol
 _atom_site_label
 _atom_site_symmetry_multiplicity
 _atom_site_fract_x
 _atom_site_fract_y
 _atom_site_fract_z
 _atom_site_occupancy
  Li  Li0  1  0.99999846  0.49999884  0.50000203  1
  Li  Li1  1  0.49999971  0.00000004  0.49999991  1
  Li  Li2  1  0.49999927  0.50000073  0.50000019  1
  V  V3  1  0.00000192  0.50000273  -0.00000341  1
  V  V4  1  0.50000441  0.00000337  0.99999452  1
  V  V5  1  0.50000194  0.50000039  0.99999809  1
  Sb  Sb6  1  -0.00001111  -0.00000492  0.00001062  1
  O  O7  1  0.97323822  0.00077277  0.27724177  1
  O  O8  1  0.01540634  0.53481765  0.22563329  1
  O  O9  1  0.52704170  0.00036823  0.23853478  1
  O  O10  1  0.02676094  0.99922738  0.72275801  1
  O  O11  1  0.48105694  0.46618689  0.29423983  1
  O  O12  1  0.98459553  0.46518300  0.77436471  1
  O  O13  1  0.47296191  0.99963213  0.76146347  1
  O  O14  1  0.51894380  0.53381079  0.70576021  1
