# generated using pymatgen
data_Li2FeBO4
_symmetry_space_group_name_H-M   'P 1'
_cell_length_a   6.42597278
_cell_length_b   9.92864489
_cell_length_c   4.89167631
_cell_angle_alpha   90.00000000
_cell_angle_beta   90.00000000
_cell_angle_gamma   89.66225143
_symmetry_Int_Tables_number   1
_chemical_formula_structural   Li2FeBO4
_chemical_formula_sum   'Li8 Fe4 B4 O16'
_cell_volume   312.08940502
_cell_formula_units_Z   4
loop_
 _symmetry_equiv_pos_site_id
 _symmetry_equiv_pos_as_xyz
  1  'x, y, z'
loop_
 _atom_site_type_symbol
 _atom_site_label
 _atom_site_symmetry_multiplicity
 _atom_site_fract_x
 _atom_site_fract_y
 _atom_site_fract_z
 _atom_site_occupancy
  Li  Li0  1  0.99778611  0.58453765  0.32487026  1
  Li  Li1  1  0.99778611  0.08453765  0.17512974  1
  Li  Li2  1  0.25793418  0.65388106  0.84821084  1
  Li  Li3  1  0.25793418  0.15388106  0.65178916  1
  Li  Li4  1  0.74206582  0.84611894  0.34821084  1
  Li  Li5  1  0.74206582  0.34611894  0.15178916  1
  Li  Li6  1  0.00221389  0.91546235  0.82487026  1
  Li  Li7  1  0.00221389  0.41546235  0.67512974  1
  Fe  Fe8  1  0.26165426  0.83224555  0.34981872  1
  Fe  Fe9  1  0.26165426  0.33224555  0.15018128  1
  Fe  Fe10  1  0.73834574  0.66775445  0.84981872  1
  Fe  Fe11  1  0.73834574  0.16775445  0.65018128  1
  B  B12  1  0.49976416  0.91725516  0.84715222  1
  B  B13  1  0.49976416  0.41725516  0.65284778  1
  B  B14  1  0.50023584  0.58274484  0.34715222  1
  B  B15  1  0.50023584  0.08274484  0.15284778  1
  O  O16  1  0.01043262  0.88732176  0.22856344  1
  O  O17  1  0.01043262  0.38732176  0.27143656  1
  O  O18  1  0.31071639  0.86084959  0.73662106  1
  O  O19  1  0.31071639  0.36084959  0.76337894  1
  O  O20  1  0.31099623  0.64530782  0.25001097  1
  O  O21  1  0.31099623  0.14530782  0.24998903  1
  O  O22  1  0.49302996  0.92671040  0.16795300  1
  O  O23  1  0.49302996  0.42671040  0.33204700  1
  O  O24  1  0.50697004  0.57328960  0.66795300  1
  O  O25  1  0.50697004  0.07328960  0.83204700  1
  O  O26  1  0.68900377  0.85469218  0.75001097  1
  O  O27  1  0.68900377  0.35469218  0.74998903  1
  O  O28  1  0.68928361  0.63915041  0.23662106  1
  O  O29  1  0.68928361  0.13915041  0.26337894  1
  O  O30  1  0.98956738  0.61267824  0.72856344  1
  O  O31  1  0.98956738  0.11267824  0.77143656  1
