# generated using pymatgen
data_Li2FeBAsO7
_symmetry_space_group_name_H-M   'P 1'
_cell_length_a   8.72996229
_cell_length_b   6.64137829
_cell_length_c   5.18229514
_cell_angle_alpha   90.00000000
_cell_angle_beta   86.83656187
_cell_angle_gamma   90.00000000
_symmetry_Int_Tables_number   1
_chemical_formula_structural   Li2FeBAsO7
_chemical_formula_sum   'Li4 Fe2 B2 As2 O14'
_cell_volume   300.00634424
_cell_formula_units_Z   2
loop_
 _symmetry_equiv_pos_site_id
 _symmetry_equiv_pos_as_xyz
  1  'x, y, z'
loop_
 _atom_site_type_symbol
 _atom_site_label
 _atom_site_symmetry_multiplicity
 _atom_site_fract_x
 _atom_site_fract_y
 _atom_site_fract_z
 _atom_site_occupancy
  Li  Li0  1  0.20300194  0.97801689  0.21741557  1
  Li  Li1  1  0.20300194  0.52198311  0.21741557  1
  Li  Li2  1  0.79699806  0.47801689  0.78258443  1
  Li  Li3  1  0.79699806  0.02198311  0.78258443  1
  Fe  Fe4  1  0.33490628  0.75000000  0.78404919  1
  Fe  Fe5  1  0.66509372  0.25000000  0.21595081  1
  B  B6  1  0.05461322  0.75000000  0.73376193  1
  B  B7  1  0.94538678  0.25000000  0.26623807  1
  As  As8  1  0.42290090  0.25000000  0.72533893  1
  As  As9  1  0.57709910  0.75000000  0.27466107  1
  O  O10  1  0.09910287  0.25000000  0.28458495  1
  O  O11  1  0.12051424  0.75000000  0.97179191  1
  O  O12  1  0.16280247  0.75000000  0.52778238  1
  O  O13  1  0.31338721  0.04809179  0.82038048  1
  O  O14  1  0.31338721  0.45190821  0.82038048  1
  O  O15  1  0.39759905  0.75000000  0.14998242  1
  O  O16  1  0.46293109  0.25000000  0.39359516  1
  O  O17  1  0.53706891  0.75000000  0.60640484  1
  O  O18  1  0.60240095  0.25000000  0.85001758  1
  O  O19  1  0.68661279  0.54809179  0.17961952  1
  O  O20  1  0.68661279  0.95190821  0.17961952  1
  O  O21  1  0.83719753  0.25000000  0.47221762  1
  O  O22  1  0.87948576  0.25000000  0.02820809  1
  O  O23  1  0.90089713  0.75000000  0.71541505  1
