# generated using pymatgen
data_Li3V2(CO3)4
_symmetry_space_group_name_H-M   'P 1'
_cell_length_a   6.22573111
_cell_length_b   7.82951753
_cell_length_c   9.73308477
_cell_angle_alpha   89.99520851
_cell_angle_beta   90.00898162
_cell_angle_gamma   92.10353289
_symmetry_Int_Tables_number   1
_chemical_formula_structural   Li3V2(CO3)4
_chemical_formula_sum   'Li6 V4 C8 O24'
_cell_volume   474.11435398
_cell_formula_units_Z   2
loop_
 _symmetry_equiv_pos_site_id
 _symmetry_equiv_pos_as_xyz
  1  'x, y, z'
loop_
 _atom_site_type_symbol
 _atom_site_label
 _atom_site_symmetry_multiplicity
 _atom_site_fract_x
 _atom_site_fract_y
 _atom_site_fract_z
 _atom_site_occupancy
  Li  Li0  1  0.09601972  0.99281108  0.49013439  1
  Li  Li1  1  0.83074051  0.26403173  0.50727801  1
  Li  Li2  1  0.16905808  0.23600039  0.00727110  1
  Li  Li3  1  0.90394361  0.50718737  0.99013768  1
  Li  Li4  1  0.09337882  0.61666908  0.49008651  1
  Li  Li5  1  0.90675699  0.88332973  0.99009546  1
  V  V6  1  0.43013018  0.19995770  0.28198008  1
  V  V7  1  0.56981054  0.29997559  0.78194197  1
  V  V8  1  0.53447863  0.72565593  0.79731933  1
  V  V9  1  0.46565614  0.77438258  0.29723507  1
  C  C10  1  0.39897382  0.95872396  0.03163129  1
  C  C11  1  0.60101467  0.54139903  0.53176370  1
  C  C12  1  0.51598725  0.00627401  0.55939204  1
  C  C13  1  0.06577180  0.25531727  0.74934171  1
  C  C14  1  0.93414492  0.24457270  0.24945726  1
  C  C15  1  0.48400554  0.49364572  0.05944706  1
  C  C16  1  0.95250714  0.75152573  0.24893254  1
  C  C17  1  0.04760425  0.74850656  0.74888554  1
  O  O18  1  0.54380651  0.91885138  0.94082060  1
  O  O19  1  0.43421747  0.98695747  0.43356651  1
  O  O20  1  0.20694285  0.99001717  0.00289760  1
  O  O21  1  0.46979916  0.97496721  0.16041873  1
  O  O22  1  0.57219640  0.15775730  0.59716996  1
  O  O23  1  0.05298765  0.19572799  0.62704856  1
  O  O24  1  0.10181606  0.19250847  0.31817100  1
  O  O25  1  0.75491553  0.23112078  0.31659894  1
  O  O26  1  0.24510640  0.26883557  0.81659682  1
  O  O27  1  0.89814753  0.30734549  0.81819806  1
  O  O28  1  0.94689612  0.30431092  0.12699457  1
  O  O29  1  0.42758466  0.34230635  0.09726732  1
  O  O30  1  0.53051875  0.52525245  0.66061082  1
  O  O31  1  0.56593396  0.51289269  0.93369299  1
  O  O32  1  0.45590977  0.58134947  0.44101553  1
  O  O33  1  0.79292668  0.50998894  0.50287924  1
  O  O34  1  0.46775400  0.62605723  0.13287753  1
  O  O35  1  0.94485391  0.70461847  0.12377110  1
  O  O36  1  0.86599566  0.74537269  0.82024834  1
  O  O37  1  0.21258689  0.69711053  0.81695307  1
  O  O38  1  0.78762877  0.80289587  0.31693930  1
  O  O39  1  0.13422966  0.75450906  0.32011756  1
  O  O40  1  0.05505774  0.79532897  0.62389391  1
  O  O41  1  0.53221023  0.87396137  0.63289620  1
