# generated using pymatgen
data_Li2CrTeO6
_symmetry_space_group_name_H-M   'P 1'
_cell_length_a   5.33003725
_cell_length_b   10.66172634
_cell_length_c   9.35620058
_cell_angle_alpha   28.68123326
_cell_angle_beta   52.04886546
_cell_angle_gamma   57.34437382
_symmetry_Int_Tables_number   1
_chemical_formula_structural   Li2CrTeO6
_chemical_formula_sum   'Li4 Cr2 Te2 O12'
_cell_volume   201.21578581
_cell_formula_units_Z   2
loop_
 _symmetry_equiv_pos_site_id
 _symmetry_equiv_pos_as_xyz
  1  'x, y, z'
loop_
 _atom_site_type_symbol
 _atom_site_label
 _atom_site_symmetry_multiplicity
 _atom_site_fract_x
 _atom_site_fract_y
 _atom_site_fract_z
 _atom_site_occupancy
  Li  Li0  1  0.27929888  0.00007902  0.27700331  1
  Li  Li1  1  0.27929545  0.50008158  0.27700237  1
  Li  Li2  1  0.77902863  0.00019150  0.77873746  1
  Li  Li3  1  0.77903139  0.50019595  0.77873378  1
  Cr  Cr4  1  0.00170591  0.00001591  0.00154522  1
  Cr  Cr5  1  0.00167463  0.50006773  0.00147390  1
  Te  Te6  1  0.50164632  0.00004176  0.50120515  1
  Te  Te7  1  0.50165459  0.50004098  0.50119946  1
  O  O8  1  0.37346295  0.30608149  0.12714284  1
  O  O9  1  0.23791841  0.12425039  0.62475883  1
  O  O10  1  0.12682360  0.31676231  0.74006638  1
  O  O11  1  0.87340780  0.19276312  0.23880336  1
  O  O12  1  0.37344547  0.80605966  0.12716128  1
  O  O13  1  0.73711034  0.37669129  0.37385446  1
  O  O14  1  0.23794265  0.62424750  0.62475476  1
  O  O15  1  0.62519512  0.18310227  0.87252051  1
  O  O16  1  0.12682928  0.81677463  0.74005493  1
  O  O17  1  0.87342016  0.69275073  0.23881616  1
  O  O18  1  0.73711026  0.87669991  0.37384446  1
  O  O19  1  0.62519818  0.68310028  0.87252137  1
