# generated using pymatgen
data_Er2TiO5
_symmetry_space_group_name_H-M   'P 1'
_cell_length_a   5.25498470
_cell_length_b   6.36727237
_cell_length_c   7.50825315
_cell_angle_alpha   68.69706036
_cell_angle_beta   90.00112715
_cell_angle_gamma   65.62654596
_symmetry_Int_Tables_number   1
_chemical_formula_structural   Er2TiO5
_chemical_formula_sum   'Er4 Ti2 O10'
_cell_volume   209.84493797
_cell_formula_units_Z   2
loop_
 _symmetry_equiv_pos_site_id
 _symmetry_equiv_pos_as_xyz
  1  'x, y, z'
loop_
 _atom_site_type_symbol
 _atom_site_label
 _atom_site_symmetry_multiplicity
 _atom_site_fract_x
 _atom_site_fract_y
 _atom_site_fract_z
 _atom_site_occupancy
  Er  Er0  1  0.62939526  0.72386348  0.75007297  1
  Er  Er1  1  0.35324830  0.27603415  0.74994060  1
  Er  Er2  1  0.64674199  0.72397281  0.25005700  1
  Er  Er3  1  0.37059301  0.27614266  0.24992454  1
  Ti  Ti4  1  0.99999565  0.99999524  0.49999242  1
  Ti  Ti5  1  0.00001171  0.99999525  0.00000144  1
  O  O6  1  0.02651428  0.66053146  0.64008041  1
  O  O7  1  0.75214537  0.85718403  0.95515881  1
  O  O8  1  0.39064527  0.85727812  0.45515457  1
  O  O9  1  0.68700305  0.33940642  0.85995330  1
  O  O10  1  0.31298995  0.66059816  0.14005189  1
  O  O11  1  0.16852366  0.99997229  0.75001802  1
  O  O12  1  0.60936521  0.14272079  0.54483790  1
  O  O13  1  0.24787021  0.14280463  0.04484051  1
  O  O14  1  0.97347604  0.33947353  0.35992548  1
  O  O15  1  0.83148002  0.00002500  0.24999013  1
