# generated using pymatgen
data_FeO
_symmetry_space_group_name_H-M   'P 1'
_cell_length_a   3.41378219
_cell_length_b   3.42860937
_cell_length_c   10.53586742
_cell_angle_alpha   89.70003279
_cell_angle_beta   90.15063243
_cell_angle_gamma   120.14381129
_symmetry_Int_Tables_number   1
_chemical_formula_structural   FeO
_chemical_formula_sum   'Fe4 O4'
_cell_volume   106.63938062
_cell_formula_units_Z   4
loop_
 _symmetry_equiv_pos_site_id
 _symmetry_equiv_pos_as_xyz
  1  'x, y, z'
loop_
 _atom_site_type_symbol
 _atom_site_label
 _atom_site_symmetry_multiplicity
 _atom_site_fract_x
 _atom_site_fract_y
 _atom_site_fract_z
 _atom_site_occupancy
  Fe  Fe0  1  0.33629630  0.66313998  0.97425785  1
  Fe  Fe1  1  0.98856632  0.00916005  0.22666656  1
  Fe  Fe2  1  0.01143368  0.02059373  0.72666656  1
  Fe  Fe3  1  0.66370370  0.32684368  0.47425785  1
  O  O4  1  0.33049985  0.66645218  0.77481115  1
  O  O5  1  0.00825822  -0.00684086  0.52426445  1
  O  O6  1  0.99174178  0.98489992  0.02426445  1
  O  O7  1  0.66950015  0.33595233  0.27481115  1
