# generated using pymatgen
data_Ca2AlSbO5
_symmetry_space_group_name_H-M   'P 1'
_cell_length_a   5.53496286
_cell_length_b   6.02558300
_cell_length_c   8.49986808
_cell_angle_alpha   110.68096467
_cell_angle_beta   104.97440716
_cell_angle_gamma   90.01599660
_symmetry_Int_Tables_number   1
_chemical_formula_structural   Ca2AlSbO5
_chemical_formula_sum   'Ca4 Al2 Sb2 O10'
_cell_volume   254.89143199
_cell_formula_units_Z   2
loop_
 _symmetry_equiv_pos_site_id
 _symmetry_equiv_pos_as_xyz
  1  'x, y, z'
loop_
 _atom_site_type_symbol
 _atom_site_label
 _atom_site_symmetry_multiplicity
 _atom_site_fract_x
 _atom_site_fract_y
 _atom_site_fract_z
 _atom_site_occupancy
  Ca  Ca0  1  0.13757562  0.64496515  0.24381742  1
  Ca  Ca1  1  0.39433689  0.90064999  0.73451837  1
  Ca  Ca2  1  0.89487716  0.33009693  0.73639738  1
  Ca  Ca3  1  0.64556396  0.09838602  0.24430183  1
  Al  Al4  1  0.26738499  0.30981764  0.48291483  1
  Al  Al5  1  0.76661350  0.67025097  0.48316445  1
  Sb  Sb6  1  0.52828326  0.49140978  0.01334627  1
  Sb  Sb7  1  0.03095335  0.01754526  0.01152493  1
  O  O8  1  0.58883076  0.43022347  0.50956617  1
  O  O9  1  0.08721478  0.57431465  0.50745918  1
  O  O10  1  0.67554506  0.72336272  0.27782487  1
  O  O11  1  0.22308553  0.19446375  0.63625942  1
  O  O12  1  0.16883476  0.05381350  0.27737782  1
  O  O13  1  0.72352205  0.93798542  0.63642981  1
  O  O14  1  0.18325875  0.63805848  0.97873071  1
  O  O15  1  0.36372179  0.31527871  0.12898236  1
  O  O16  1  0.86086421  0.30986855  0.11944526  1
  O  O17  1  0.68661757  0.84027200  0.97766092  1
