# generated using pymatgen
data_CrO
_symmetry_space_group_name_H-M   'P 1'
_cell_length_a   3.08617364
_cell_length_b   3.72498669
_cell_length_c   6.44389689
_cell_angle_alpha   58.19374222
_cell_angle_beta   108.54633898
_cell_angle_gamma   127.12068739
_symmetry_Int_Tables_number   1
_chemical_formula_structural   CrO
_chemical_formula_sum   'Cr2 O2'
_cell_volume   50.19796413
_cell_formula_units_Z   2
loop_
 _symmetry_equiv_pos_site_id
 _symmetry_equiv_pos_as_xyz
  1  'x, y, z'
loop_
 _atom_site_type_symbol
 _atom_site_label
 _atom_site_symmetry_multiplicity
 _atom_site_fract_x
 _atom_site_fract_y
 _atom_site_fract_z
 _atom_site_occupancy
  Cr  Cr0  1  -0.00045367  0.00034148  0.89958022  1
  Cr  Cr1  1  0.00045367  0.00079515  0.39958022  1
  O  O2  1  0.47256579  0.73576508  0.15041978  1
  O  O3  1  0.52743421  0.26319929  0.65041978  1
