# generated using pymatgen
data_Fe7O7F
_symmetry_space_group_name_H-M   'P 1'
_cell_length_a   3.53847386
_cell_length_b   3.53847408
_cell_length_c   17.63431744
_cell_angle_alpha   90.07262149
_cell_angle_beta   90.07262337
_cell_angle_gamma   60.33242327
_symmetry_Int_Tables_number   1
_chemical_formula_structural   Fe7O7F
_chemical_formula_sum   'Fe7 O7 F1'
_cell_volume   191.85179610
_cell_formula_units_Z   1
loop_
 _symmetry_equiv_pos_site_id
 _symmetry_equiv_pos_as_xyz
  1  'x, y, z'
loop_
 _atom_site_type_symbol
 _atom_site_label
 _atom_site_symmetry_multiplicity
 _atom_site_fract_x
 _atom_site_fract_y
 _atom_site_fract_z
 _atom_site_occupancy
  Fe  Fe0  1  0.32976546  0.32986546  0.48843749  1
  Fe  Fe1  1  0.32969639  0.32979639  0.97234421  1
  Fe  Fe2  1  0.33257048  0.33267048  0.23263074  1
  Fe  Fe3  1  0.33207627  0.33217627  0.74829293  1
  Fe  Fe4  1  0.65969868  0.65979868  0.10526103  1
  Fe  Fe5  1  0.65994839  0.66004839  0.61541745  1
  Fe  Fe6  1  0.65929276  0.65939376  0.36057244  1
  O  O7  1  0.33606916  0.33616916  0.36058513  1
  O  O8  1  0.33469986  0.33479986  0.10234806  1
  O  O9  1  0.33505484  0.33515484  0.61841248  1
  O  O10  1  0.67900392  0.67910392  0.48779838  1
  O  O11  1  0.68163259  0.68173259  0.23321987  1
  O  O12  1  0.66363063  0.66373063  0.98334457  1
  O  O13  1  0.66628089  0.66638089  0.73716367  1
  F  F14  1  0.33176269  0.33186269  0.86019456  1
