# generated using pymatgen
data_Fe5OF11
_symmetry_space_group_name_H-M   'P 1'
_cell_length_a   5.32271052
_cell_length_b   5.75608850
_cell_length_c   9.38088696
_cell_angle_alpha   107.20892429
_cell_angle_beta   91.04552469
_cell_angle_gamma   62.21266228
_symmetry_Int_Tables_number   1
_chemical_formula_structural   Fe5OF11
_chemical_formula_sum   'Fe5 O1 F11'
_cell_volume   240.43741504
_cell_formula_units_Z   1
loop_
 _symmetry_equiv_pos_site_id
 _symmetry_equiv_pos_as_xyz
  1  'x, y, z'
loop_
 _atom_site_type_symbol
 _atom_site_label
 _atom_site_symmetry_multiplicity
 _atom_site_fract_x
 _atom_site_fract_y
 _atom_site_fract_z
 _atom_site_occupancy
  Fe  Fe0  1  0.01845960  0.94116435  0.33309387  1
  Fe  Fe1  1  0.49144290  0.01630514  0.16554414  1
  Fe  Fe2  1  0.98446668  0.99349188  0.65965763  1
  Fe  Fe3  1  0.49344217  0.01867958  0.84188463  1
  Fe  Fe4  1  0.73891410  0.55898360  0.43466170  1
  O  O5  1  0.96561529  0.77107778  0.46566248  1
  F  F6  1  0.06406085  0.22167256  0.25106080  1
  F  F7  1  0.00749427  0.22324100  0.53644093  1
  F  F8  1  0.08029658  0.20679317  0.83651136  1
  F  F9  1  0.56813075  0.22341158  0.72581753  1
  F  F10  1  0.51453850  0.23955902  0.03246162  1
  F  F11  1  0.60462600  0.24603519  0.36051818  1
  F  F12  1  0.43734158  0.77716268  0.63267510  1
  F  F13  1  0.47581142  0.79167947  0.94890624  1
  F  F14  1  0.44382739  0.77136648  0.29927436  1
  F  F15  1  0.93033337  0.76616277  0.14968448  1
  F  F16  1  0.91400554  0.78317177  0.77058994  1
