# generated using pymatgen
data_Co6O5F7
_symmetry_space_group_name_H-M   'P 1'
_cell_length_a   4.65565266
_cell_length_b   7.67344956
_cell_length_c   5.57961204
_cell_angle_alpha   94.40782513
_cell_angle_beta   94.24005108
_cell_angle_gamma   87.26653226
_symmetry_Int_Tables_number   1
_chemical_formula_structural   Co6O5F7
_chemical_formula_sum   'Co6 O5 F7'
_cell_volume   198.02069508
_cell_formula_units_Z   1
loop_
 _symmetry_equiv_pos_site_id
 _symmetry_equiv_pos_as_xyz
  1  'x, y, z'
loop_
 _atom_site_type_symbol
 _atom_site_label
 _atom_site_symmetry_multiplicity
 _atom_site_fract_x
 _atom_site_fract_y
 _atom_site_fract_z
 _atom_site_occupancy
  Co  Co0  1  0.49993689  0.00844102  0.50701938  1
  Co  Co1  1  0.50284556  0.32494043  0.83377832  1
  Co  Co2  1  0.55562213  0.66200694  0.16892193  1
  Co  Co3  1  0.96808304  0.67920881  0.66340443  1
  Co  Co4  1  0.00433416  0.33338807  0.33092428  1
  Co  Co5  1  0.96628316  0.99234985  0.98858451  1
  O  O6  1  0.81339669  0.77199711  0.96091926  1
  O  O7  1  0.69205854  0.78434292  0.47533026  1
  O  O8  1  0.68789462  0.10273346  0.79500144  1
  O  O9  1  0.70621742  0.41821875  0.12449830  1
  O  O10  1  0.30739755  0.23206791  0.53832426  1
  F  F11  1  0.80490236  0.43770696  0.62856818  1
  F  F12  1  0.80805581  0.09749187  0.29795336  1
  F  F13  1  0.29824167  0.55728914  0.86056021  1
  F  F14  1  0.29837007  0.90939427  0.20745873  1
  F  F15  1  0.19475871  0.22228817  0.03716657  1
  F  F16  1  0.20061611  0.89770007  0.70956705  1
  F  F17  1  0.19098452  0.56843424  0.37202052  1
