# generated using pymatgen
data_Bi5O7F
_symmetry_space_group_name_H-M   'P 1'
_cell_length_a   4.19543021
_cell_length_b   9.72371008
_cell_length_c   13.47213371
_cell_angle_alpha   70.90566191
_cell_angle_beta   90.00000000
_cell_angle_gamma   77.54152930
_symmetry_Int_Tables_number   1
_chemical_formula_structural   Bi5O7F
_chemical_formula_sum   'Bi10 O14 F2'
_cell_volume   505.64458400
_cell_formula_units_Z   2
loop_
 _symmetry_equiv_pos_site_id
 _symmetry_equiv_pos_as_xyz
  1  'x, y, z'
loop_
 _atom_site_type_symbol
 _atom_site_label
 _atom_site_symmetry_multiplicity
 _atom_site_fract_x
 _atom_site_fract_y
 _atom_site_fract_z
 _atom_site_occupancy
  Bi  Bi0  1  0.52842853  0.94314295  0.35155387  1
  Bi  Bi1  1  0.12146666  0.75706667  0.58361121  1
  Bi  Bi2  1  0.74707883  0.50584334  0.87077537  1
  Bi  Bi3  1  0.59737722  0.80524455  0.10653339  1
  Bi  Bi4  1  0.20430187  0.59139526  0.36220032  1
  Bi  Bi5  1  0.79569813  0.40860474  0.63779968  1
  Bi  Bi6  1  0.40262278  0.19475545  0.89346661  1
  Bi  Bi7  1  0.25292117  0.49415666  0.12922463  1
  Bi  Bi8  1  0.87853334  0.24293333  0.41638879  1
  Bi  Bi9  1  0.47157147  0.05685705  0.64844613  1
  O  O10  1  0.06475728  0.87048545  0.40209560  1
  O  O11  1  0.58765344  0.82469312  0.51670206  1
  O  O12  1  0.69761671  0.60476657  0.70484782  1
  O  O13  1  0.61804033  0.76391933  0.28579288  1
  O  O14  1  0.29244282  0.41511437  0.90305797  1
  O  O15  1  0.22797131  0.54405738  0.56480718  1
  O  O16  1  0.15143939  0.69712123  0.17349550  1
  O  O17  1  0.84856061  0.30287877  0.82650450  1
  O  O18  1  0.77202869  0.45594262  0.43519282  1
  O  O19  1  0.70755718  0.58488563  0.09694203  1
  O  O20  1  0.38195967  0.23608067  0.71420712  1
  O  O21  1  0.30238329  0.39523343  0.29515218  1
  O  O22  1  0.41234656  0.17530688  0.48329794  1
  O  O23  1  0.93524272  0.12951455  0.59790440  1
  F  F24  1  0.08040601  0.83918798  0.97186708  1
  F  F25  1  0.91959399  0.16081202  0.02813292  1
