# generated using pymatgen
data_Fe5O3F7
_symmetry_space_group_name_H-M   'P 1'
_cell_length_a   4.77664600
_cell_length_b   4.79276329
_cell_length_c   15.84445613
_cell_angle_alpha   90.00000000
_cell_angle_beta   90.00000000
_cell_angle_gamma   90.00000000
_symmetry_Int_Tables_number   1
_chemical_formula_structural   Fe5O3F7
_chemical_formula_sum   'Fe10 O6 F14'
_cell_volume   362.73241986
_cell_formula_units_Z   2
loop_
 _symmetry_equiv_pos_site_id
 _symmetry_equiv_pos_as_xyz
  1  'x, y, z'
loop_
 _atom_site_type_symbol
 _atom_site_label
 _atom_site_symmetry_multiplicity
 _atom_site_fract_x
 _atom_site_fract_y
 _atom_site_fract_z
 _atom_site_occupancy
  Fe  Fe0  1  0.03357547  0.01496953  0.99200711  1
  Fe  Fe1  1  0.00736937  0.00895896  0.20000000  1
  Fe  Fe2  1  0.03357547  0.01496953  0.40799289  1
  Fe  Fe3  1  0.02134215  0.97021106  0.60462426  1
  Fe  Fe4  1  0.02134215  0.97021106  0.79537574  1
  Fe  Fe5  1  0.47865785  0.47021106  0.10462426  1
  Fe  Fe6  1  0.46642453  0.51496953  0.49200711  1
  Fe  Fe7  1  0.47865785  0.47021106  0.29537574  1
  Fe  Fe8  1  0.49263063  0.50895896  0.70000000  1
  Fe  Fe9  1  0.46642453  0.51496953  0.90799289  1
  O  O10  1  0.19352109  0.80801750  0.49950342  1
  O  O11  1  0.20220298  0.79988127  0.70000000  1
  O  O12  1  0.19352109  0.80801750  0.90049658  1
  O  O13  1  0.30647891  0.30801750  0.99950342  1
  O  O14  1  0.29779702  0.29988127  0.20000000  1
  O  O15  1  0.30647891  0.30801750  0.40049658  1
  F  F16  1  0.19743957  0.80288185  0.09246821  1
  F  F17  1  0.19743957  0.80288185  0.30753179  1
  F  F18  1  0.30256043  0.30288185  0.59246821  1
  F  F19  1  0.30256043  0.30288185  0.80753179  1
  F  F20  1  0.70219550  0.70689784  0.99832462  1
  F  F21  1  0.70114682  0.70211290  0.20000000  1
  F  F22  1  0.70219550  0.70689784  0.40167538  1
  F  F23  1  0.69481567  0.69154564  0.59055190  1
  F  F24  1  0.69481567  0.69154564  0.80944810  1
  F  F25  1  0.80518433  0.19154564  0.09055190  1
  F  F26  1  0.79780450  0.20689784  0.49832462  1
  F  F27  1  0.80518433  0.19154564  0.30944810  1
  F  F28  1  0.79780450  0.20689784  0.90167538  1
  F  F29  1  0.79885318  0.20211290  0.70000000  1
