# generated using pymatgen
data_Na2IO6
_symmetry_space_group_name_H-M   'P 1'
_cell_length_a   5.19522069
_cell_length_b   5.14513257
_cell_length_c   10.38346050
_cell_angle_alpha   90.00000000
_cell_angle_beta   90.00000000
_cell_angle_gamma   90.00000000
_symmetry_Int_Tables_number   1
_chemical_formula_structural   Na2IO6
_chemical_formula_sum   'Na4 I2 O12'
_cell_volume   277.55092900
_cell_formula_units_Z   2
loop_
 _symmetry_equiv_pos_site_id
 _symmetry_equiv_pos_as_xyz
  1  'x, y, z'
loop_
 _atom_site_type_symbol
 _atom_site_label
 _atom_site_symmetry_multiplicity
 _atom_site_fract_x
 _atom_site_fract_y
 _atom_site_fract_z
 _atom_site_occupancy
  Na  Na0  1  0.50000000  0.50000000  0.83995161  1
  Na  Na1  1  0.00000000  0.00000000  0.66004839  1
  Na  Na2  1  0.50000000  0.50000000  0.16004839  1
  Na  Na3  1  0.00000000  -0.00000000  0.33995161  1
  I  I4  1  -0.00000000  -0.00000000  -0.00000000  1
  I  I5  1  0.50000000  0.50000000  0.50000000  1
  O  O6  1  0.79980528  0.14911770  0.13016234  1
  O  O7  1  0.20019472  0.85088230  0.13016234  1
  O  O8  1  0.29980528  0.35088230  0.36983766  1
  O  O9  1  0.70019472  0.64911770  0.36983766  1
  O  O10  1  0.20019472  0.85088230  0.86983766  1
  O  O11  1  0.79980528  0.14911770  0.86983766  1
  O  O12  1  0.70019472  0.64911770  0.63016234  1
  O  O13  1  0.29980528  0.35088230  0.63016234  1
  O  O14  1  0.71481311  0.20863845  0.50000000  1
  O  O15  1  0.28518689  0.79136155  0.50000000  1
  O  O16  1  0.21481311  0.29136155  -0.00000000  1
  O  O17  1  0.78518689  0.70863845  0.00000000  1
