# generated using pymatgen
data_VO2
_symmetry_space_group_name_H-M   'P 1'
_cell_length_a   5.89004926
_cell_length_b   6.08725670
_cell_length_c   23.68362919
_cell_angle_alpha   58.83296421
_cell_angle_beta   59.61211287
_cell_angle_gamma   58.81513674
_symmetry_Int_Tables_number   1
_chemical_formula_structural   VO2
_chemical_formula_sum   'V16 O32'
_cell_volume   587.86699758
_cell_formula_units_Z   16
loop_
 _symmetry_equiv_pos_site_id
 _symmetry_equiv_pos_as_xyz
  1  'x, y, z'
loop_
 _atom_site_type_symbol
 _atom_site_label
 _atom_site_symmetry_multiplicity
 _atom_site_fract_x
 _atom_site_fract_y
 _atom_site_fract_z
 _atom_site_occupancy
  V  V0  1  0.48596004  0.46997919  0.13045275  1
  V  V1  1  0.46047124  0.49074288  0.26487765  1
  V  V2  1  0.49213688  0.01462519  0.12280753  1
  V  V3  1  0.12670883  0.12004902  0.53328535  1
  V  V4  1  0.50732431  0.49303054  0.37764524  1
  V  V5  1  0.85555841  0.88230414  0.22007727  1
  V  V6  1  0.13054469  0.12738924  0.77898732  1
  V  V7  1  0.50769293  0.98824250  0.37763381  1
  V  V8  1  0.50354277  0.50001162  0.62392717  1
  V  V9  1  0.88049139  0.87638475  0.46651632  1
  V  V10  1  0.50326779  0.00078055  0.62385217  1
  V  V11  1  0.50711545  0.01104337  0.86922027  1
  V  V12  1  0.48525457  0.48779092  0.87715455  1
  V  V13  1  0.87918240  0.87124254  0.71862393  1
  V  V14  1  0.48486424  0.50747995  0.00807655  1
  V  V15  1  0.85554984  0.87898390  0.97132117  1
  O  O16  1  0.29177609  0.23900383  0.06687185  1
  O  O17  1  0.28503203  0.26446860  0.17884079  1
  O  O18  1  0.28594348  0.71084101  0.05857123  1
  O  O19  1  0.71971232  0.25642680  0.06733455  1
  O  O20  1  0.27081723  0.73494287  0.18856964  1
  O  O21  1  0.28435654  0.26409096  0.31218152  1
  O  O22  1  0.72429632  0.25686204  0.19103209  1
  O  O23  1  0.26960623  0.23239175  0.44110297  1
  O  O24  1  0.28433595  0.70373541  0.31211781  1
  O  O25  1  0.71090781  0.76097210  0.06485017  1
  O  O26  1  0.70494888  0.26802124  0.31516509  1
  O  O27  1  0.71596221  0.77212952  0.18893310  1
  O  O28  1  0.25230146  0.22173295  0.56327772  1
  O  O29  1  0.26528870  0.75996804  0.42840350  1
  O  O30  1  0.76235531  0.22401325  0.43437774  1
  O  O31  1  0.27098044  0.24457988  0.68467844  1
  O  O32  1  0.25206273  0.77186009  0.56357128  1
  O  O33  1  0.73010725  0.75722178  0.31361423  1
  O  O34  1  0.73578015  0.24588432  0.56833807  1
  O  O35  1  0.76201586  0.77590480  0.43454943  1
  O  O36  1  0.26787519  0.75303837  0.68120487  1
  O  O37  1  0.25126816  0.22630900  0.81038789  1
  O  O38  1  0.75557041  0.21795892  0.68713065  1
  O  O39  1  0.28635183  0.28799471  0.91630951  1
  O  O40  1  0.25226512  0.78127494  0.81116085  1
  O  O41  1  0.73830676  0.76020663  0.56037774  1
  O  O42  1  0.74958244  0.24868831  0.81591224  1
  O  O43  1  0.75579676  0.77797232  0.68653631  1
  O  O44  1  0.26622438  0.74188398  0.93509285  1
  O  O45  1  0.71513949  0.25837711  0.94133164  1
  O  O46  1  0.72502816  0.75178594  0.81376213  1
  O  O47  1  0.71997053  0.76631720  0.93957302  1
