# generated using pymatgen
data_Sb2Te2O9
_symmetry_space_group_name_H-M   'P 1'
_cell_length_a   5.15141669
_cell_length_b   14.49142929
_cell_length_c   21.64427771
_cell_angle_alpha   104.62104464
_cell_angle_beta   90.00000000
_cell_angle_gamma   90.00000000
_symmetry_Int_Tables_number   1
_chemical_formula_structural   Sb2Te2O9
_chemical_formula_sum   'Sb16 Te16 O72'
_cell_volume   1563.45100113
_cell_formula_units_Z   8
loop_
 _symmetry_equiv_pos_site_id
 _symmetry_equiv_pos_as_xyz
  1  'x, y, z'
loop_
 _atom_site_type_symbol
 _atom_site_label
 _atom_site_symmetry_multiplicity
 _atom_site_fract_x
 _atom_site_fract_y
 _atom_site_fract_z
 _atom_site_occupancy
  Sb  Sb0  1  0.22566344  0.97228267  0.65756649  1
  Sb  Sb1  1  0.55343767  0.81884501  0.81525847  1
  Sb  Sb2  1  0.29302558  0.17399832  0.44796762  1
  Sb  Sb3  1  0.94656233  0.31884501  0.81525847  1
  Sb  Sb4  1  0.29464621  0.26609091  0.94026959  1
  Sb  Sb5  1  0.77433656  0.02771733  0.34243351  1
  Sb  Sb6  1  0.05343767  0.68115499  0.18474153  1
  Sb  Sb7  1  0.44656233  0.18115499  0.18474153  1
  Sb  Sb8  1  0.79464621  0.23390909  0.05973041  1
  Sb  Sb9  1  0.70535379  0.73390909  0.05973041  1
  Sb  Sb10  1  0.27433656  0.47228267  0.65756649  1
  Sb  Sb11  1  0.70697442  0.82600168  0.55203238  1
  Sb  Sb12  1  0.72566344  0.52771733  0.34243351  1
  Sb  Sb13  1  0.20697442  0.67399832  0.44796762  1
  Sb  Sb14  1  0.79302558  0.32600168  0.55203238  1
  Sb  Sb15  1  0.20535379  0.76609091  0.94026959  1
  Te  Te16  1  0.27395013  0.52091276  0.91354749  1
  Te  Te17  1  0.96084644  0.21713545  0.29340878  1
  Te  Te18  1  0.86006253  0.10016461  0.56088089  1
  Te  Te19  1  0.77395013  0.97908724  0.08645251  1
  Te  Te20  1  0.21587795  0.43265178  0.22357180  1
  Te  Te21  1  0.03915256  0.78286455  0.70659122  1
  Te  Te22  1  0.78412205  0.56734822  0.77642820  1
  Te  Te23  1  0.53915356  0.71713545  0.29340878  1
  Te  Te24  1  0.36006253  0.39983539  0.43911911  1
  Te  Te25  1  0.63993747  0.60016461  0.56088089  1
  Te  Te26  1  0.72604987  0.47908724  0.08645251  1
  Te  Te27  1  0.13993747  0.89983539  0.43911911  1
  Te  Te28  1  0.46084744  0.28286455  0.70659122  1
  Te  Te29  1  0.28412205  0.93265178  0.22357180  1
  Te  Te30  1  0.71587795  0.06734822  0.77642820  1
  Te  Te31  1  0.22604987  0.02091276  0.91354749  1
  O  O32  1  0.26205776  0.79763826  0.22714503  1
  O  O33  1  0.91678272  0.11738687  0.07838300  1
  O  O34  1  0.97650982  0.72274272  0.52439074  1
  O  O35  1  0.08503954  0.96364400  0.12325867  1
  O  O36  1  0.74768003  0.24856154  0.22831976  1
  O  O37  1  0.24768003  0.25143846  0.77168024  1
  O  O38  1  0.38897002  0.57813759  0.62019554  1
  O  O39  1  0.08601325  0.44950725  0.83644679  1
  O  O40  1  0.41678272  0.38261313  0.92161700  1
  O  O41  1  0.05877030  0.76747172  0.40238765  1
  O  O42  1  0.73794224  0.20236174  0.77285497  1
  O  O43  1  0.58302831  0.28799360  0.00313742  1
  O  O44  1  0.95201011  0.95918033  0.26173742  1
  O  O45  1  0.08179796  0.11798256  0.36904587  1
  O  O46  1  0.41496046  0.46364400  0.12325867  1
  O  O47  1  0.91697169  0.78799360  0.00313742  1
  O  O48  1  0.03726446  0.45093600  0.30636232  1
  O  O49  1  0.58179796  0.38201744  0.63095413  1
  O  O50  1  0.96273554  0.54906400  0.69363768  1
  O  O51  1  0.54798989  0.45918033  0.26173742  1
  O  O52  1  0.45201011  0.54081967  0.73826258  1
  O  O53  1  0.53726446  0.04906400  0.69363768  1
  O  O54  1  0.60949320  0.85791880  0.11336005  1
  O  O55  1  0.81372398  0.87348704  0.76545871  1
  O  O56  1  0.94122970  0.23252828  0.59761235  1
  O  O57  1  0.10949320  0.64208120  0.88663995  1
  O  O58  1  0.75231997  0.74856154  0.22831976  1
  O  O59  1  0.58503954  0.53635600  0.87674133  1
  O  O60  1  0.44122970  0.26747172  0.40238765  1
  O  O61  1  0.88817350  0.91825155  0.50828528  1
  O  O62  1  0.55877030  0.73252828  0.59761235  1
  O  O63  1  0.93089006  0.57729911  0.42142748  1
  O  O64  1  0.88897002  0.92186241  0.37980446  1
  O  O65  1  0.25231997  0.75143846  0.77168024  1
  O  O66  1  0.41820204  0.61798256  0.36904587  1
  O  O67  1  0.23794224  0.29763826  0.22714503  1
  O  O68  1  0.18627602  0.12651296  0.23454129  1
  O  O69  1  0.46273554  0.95093600  0.30636232  1
  O  O70  1  0.18572229  0.37154106  0.70258533  1
  O  O71  1  0.04552982  0.71697017  0.10531651  1
  O  O72  1  0.89050680  0.35791880  0.11336005  1
  O  O73  1  0.91820204  0.88201744  0.63095413  1
  O  O74  1  0.45447018  0.21697017  0.10531651  1
  O  O75  1  0.08302831  0.21200640  0.99686258  1
  O  O76  1  0.61102998  0.42186241  0.37980446  1
  O  O77  1  0.52349018  0.22274272  0.52439074  1
  O  O78  1  0.31427771  0.87154106  0.70258533  1
  O  O79  1  0.58601325  0.05049275  0.16355321  1
  O  O80  1  0.39050680  0.14208120  0.88663995  1
  O  O81  1  0.58321728  0.61738687  0.07838300  1
  O  O82  1  0.68627602  0.37348704  0.76545871  1
  O  O83  1  0.56910994  0.07729911  0.42142748  1
  O  O84  1  0.11182650  0.08174845  0.49171472  1
  O  O85  1  0.11102998  0.07813759  0.62019554  1
  O  O86  1  0.41697169  0.71200640  0.99686258  1
  O  O87  1  0.43089006  0.92270089  0.57857252  1
  O  O88  1  0.61182650  0.41825155  0.50828528  1
  O  O89  1  0.95447018  0.28302983  0.89468349  1
  O  O90  1  0.08321728  0.88261313  0.92161700  1
  O  O91  1  0.02349018  0.27725728  0.47560926  1
  O  O92  1  0.76205776  0.70236174  0.77285497  1
  O  O93  1  0.68572229  0.12845894  0.29741467  1
  O  O94  1  0.54552982  0.78302983  0.89468349  1
  O  O95  1  0.06910994  0.42270089  0.57857252  1
  O  O96  1  0.47650982  0.77725728  0.47560926  1
  O  O97  1  0.81427771  0.62845894  0.29741467  1
  O  O98  1  0.31372398  0.62651296  0.23454129  1
  O  O99  1  0.91398675  0.55049275  0.16355321  1
  O  O100  1  0.41398675  0.94950725  0.83644679  1
  O  O101  1  0.91496046  0.03635600  0.87674133  1
  O  O102  1  0.38817350  0.58174845  0.49171472  1
  O  O103  1  0.04798989  0.04081967  0.73826258  1
