# generated using pymatgen
data_Li2SeO4
_symmetry_space_group_name_H-M   'P 1'
_cell_length_a   8.58722775
_cell_length_b   8.58722713
_cell_length_c   8.58722828
_cell_angle_alpha   100.85301606
_cell_angle_beta   100.85301636
_cell_angle_gamma   100.85302012
_symmetry_Int_Tables_number   1
_chemical_formula_structural   Li2SeO4
_chemical_formula_sum   'Li12 Se6 O24'
_cell_volume   594.11660386
_cell_formula_units_Z   6
loop_
 _symmetry_equiv_pos_site_id
 _symmetry_equiv_pos_as_xyz
  1  'x, y, z'
loop_
 _atom_site_type_symbol
 _atom_site_label
 _atom_site_symmetry_multiplicity
 _atom_site_fract_x
 _atom_site_fract_y
 _atom_site_fract_z
 _atom_site_occupancy
  Li  Li0  1  0.19057598  0.57580028  0.45780076  1
  Li  Li1  1  0.80942402  0.42419972  0.54219924  1
  Li  Li2  1  0.31792039  0.12199033  0.89317523  1
  Li  Li3  1  0.45780076  0.19057598  0.57580028  1
  Li  Li4  1  0.57580028  0.45780076  0.19057598  1
  Li  Li5  1  0.54219924  0.80942402  0.42419972  1
  Li  Li6  1  0.12199033  0.89317523  0.31792038  1
  Li  Li7  1  0.89317523  0.31792038  0.12199033  1
  Li  Li8  1  0.42419972  0.54219924  0.80942402  1
  Li  Li9  1  0.68207961  0.87800967  0.10682477  1
  Li  Li10  1  0.87800967  0.10682477  0.68207962  1
  Li  Li11  1  0.10682477  0.68207962  0.87800967  1
  Se  Se12  1  0.75209686  0.41970975  0.86368260  1
  Se  Se13  1  0.24790314  0.58029025  0.13631740  1
  Se  Se14  1  0.58029025  0.13631740  0.24790314  1
  Se  Se15  1  0.13631740  0.24790314  0.58029025  1
  Se  Se16  1  0.41970975  0.86368260  0.75209686  1
  Se  Se17  1  0.86368260  0.75209686  0.41970975  1
  O  O18  1  0.24625005  0.43935614  0.60914679  1
  O  O19  1  0.60914679  0.24625005  0.43935614  1
  O  O20  1  0.54939075  0.78623002  0.87121649  1
  O  O21  1  0.25149456  0.85724921  0.82449072  1
  O  O22  1  0.75374995  0.56064386  0.39085321  1
  O  O23  1  0.75440418  0.48480123  0.06003566  1
  O  O24  1  0.43935614  0.60914679  0.24625005  1
  O  O25  1  0.78623002  0.87121649  0.54939075  1
  O  O26  1  0.14275079  0.17550928  0.74850544  1
  O  O27  1  0.48480123  0.06003566  0.75440418  1
  O  O28  1  0.21376998  0.12878351  0.45060925  1
  O  O29  1  0.17550928  0.74850544  0.14275079  1
  O  O30  1  0.39085321  0.75374995  0.56064386  1
  O  O31  1  0.56064386  0.39085321  0.75374995  1
  O  O32  1  0.93996434  0.24559582  0.51519877  1
  O  O33  1  0.87121650  0.54939075  0.78623002  1
  O  O34  1  0.12878350  0.45060925  0.21376998  1
  O  O35  1  0.06003566  0.75440418  0.48480123  1
  O  O36  1  0.24559582  0.51519877  0.93996434  1
  O  O37  1  0.51519877  0.93996434  0.24559582  1
  O  O38  1  0.74850544  0.14275079  0.17550928  1
  O  O39  1  0.45060925  0.21376998  0.12878351  1
  O  O40  1  0.82449072  0.25149456  0.85724921  1
  O  O41  1  0.85724921  0.82449072  0.25149456  1
