# generated using pymatgen
data_CoO2
_symmetry_space_group_name_H-M   'P 1'
_cell_length_a   2.85965133
_cell_length_b   2.84966090
_cell_length_c   38.26441333
_cell_angle_alpha   92.20222355
_cell_angle_beta   85.60769607
_cell_angle_gamma   120.11605142
_symmetry_Int_Tables_number   1
_chemical_formula_structural   CoO2
_chemical_formula_sum   'Co8 O16'
_cell_volume   268.93388295
_cell_formula_units_Z   8
loop_
 _symmetry_equiv_pos_site_id
 _symmetry_equiv_pos_as_xyz
  1  'x, y, z'
loop_
 _atom_site_type_symbol
 _atom_site_label
 _atom_site_symmetry_multiplicity
 _atom_site_fract_x
 _atom_site_fract_y
 _atom_site_fract_z
 _atom_site_occupancy
  Co  Co0  1  0.96911134  0.99950057  0.00000882  1
  Co  Co1  1  0.88462941  0.99707863  0.62396825  1
  Co  Co2  1  0.63522634  0.99788294  0.87452785  1
  Co  Co3  1  0.74518999  0.00991917  0.24938028  1
  Co  Co4  1  0.48765660  0.99788294  0.50047215  1
  Co  Co5  1  0.23744922  0.99707863  0.75103175  1
  Co  Co6  1  0.38973019  0.00991917  0.12561972  1
  Co  Co7  1  0.15538924  0.99950057  0.37499118  1
  O  O8  1  0.81336049  0.64804968  0.52607438  1
  O  O9  1  0.74627830  0.67682814  0.10103167  1
  O  O10  1  0.54771740  0.66441017  0.77560956  1
  O  O11  1  0.92660413  0.33005765  0.72669609  1
  O  O12  1  0.65921025  0.33274042  0.97538761  1
  O  O13  1  0.51169149  0.66660286  0.35067219  1
  O  O14  1  0.79853017  0.33274042  0.39961239  1
  O  O15  1  0.24169277  0.66441017  0.59939044  1
  O  O16  1  0.52845353  0.33005766  0.64830391  1
  O  O17  1  0.95968919  0.64804968  0.84892562  1
  O  O18  1  0.27991138  0.66660287  0.02432781  1
  O  O19  1  0.43443540  0.34238927  0.22504838  1
  O  O20  1  0.05554984  0.67682815  0.27396833  1
  O  O21  1  0.30655747  0.34581947  0.90058793  1
  O  O22  1  0.16426200  0.34581947  0.47441207  1
  O  O23  1  0.03295387  0.34238927  0.14995162  1
