# generated using pymatgen
data_CaLa
_symmetry_space_group_name_H-M   'P 1'
_cell_length_a   3.77693567
_cell_length_b   3.77698265
_cell_length_c   6.29996443
_cell_angle_alpha   90.00168385
_cell_angle_beta   89.99956815
_cell_angle_gamma   119.99075464
_symmetry_Int_Tables_number   1
_chemical_formula_structural   CaLa
_chemical_formula_sum   'Ca1 La1'
_cell_volume   77.83837468
_cell_formula_units_Z   1
loop_
 _symmetry_equiv_pos_site_id
 _symmetry_equiv_pos_as_xyz
  1  'x, y, z'
loop_
 _atom_site_type_symbol
 _atom_site_label
 _atom_site_symmetry_multiplicity
 _atom_site_fract_x
 _atom_site_fract_y
 _atom_site_fract_z
 _atom_site_occupancy
  Ca  Ca0  1  0.66666241  0.33333473  0.75000820  1
  La  La1  1  0.33333859  0.66666627  0.24999280  1
