# generated using pymatgen
data_Ag2TeO4
_symmetry_space_group_name_H-M   'P 1'
_cell_length_a   8.39987670
_cell_length_b   6.25915085
_cell_length_c   7.31425763
_cell_angle_alpha   76.65208488
_cell_angle_beta   46.49266470
_cell_angle_gamma   57.65707314
_symmetry_Int_Tables_number   1
_chemical_formula_structural   Ag2TeO4
_chemical_formula_sum   'Ag4 Te2 O8'
_cell_volume   229.63803889
_cell_formula_units_Z   2
loop_
 _symmetry_equiv_pos_site_id
 _symmetry_equiv_pos_as_xyz
  1  'x, y, z'
loop_
 _atom_site_type_symbol
 _atom_site_label
 _atom_site_symmetry_multiplicity
 _atom_site_fract_x
 _atom_site_fract_y
 _atom_site_fract_z
 _atom_site_occupancy
  Ag  Ag0  1  0.22147905  0.22873485  0.52898502  1
  Ag  Ag1  1  0.52844141  0.53378025  0.22081730  1
  Ag  Ag2  1  0.77782578  0.78085764  0.47097309  1
  Ag  Ag3  1  0.47511502  0.47259750  0.77357946  1
  Te  Te4  1  0.12711666  0.12704909  0.12358653  1
  Te  Te5  1  0.87232348  0.87849790  0.87639344  1
  O  O6  1  0.15182003  0.31862484  0.25604842  1
  O  O7  1  0.78105930  0.26075202  0.30976489  1
  O  O8  1  0.25699274  0.78130467  0.15021144  1
  O  O9  1  0.31832703  0.14901330  0.77668833  1
  O  O10  1  0.68153144  0.85671736  0.22361079  1
  O  O11  1  0.74216344  0.22501623  0.85087457  1
  O  O12  1  0.22064592  0.73945367  0.68539021  1
  O  O13  1  0.84368172  0.68941368  0.74714351  1
