# generated using pymatgen
data_Zn3P2H7O12
_symmetry_space_group_name_H-M   'P 1'
_cell_length_a   5.22974031
_cell_length_b   10.66955377
_cell_length_c   18.65118197
_cell_angle_alpha   90.00000000
_cell_angle_beta   90.00000000
_cell_angle_gamma   90.00000000
_symmetry_Int_Tables_number   1
_chemical_formula_structural   Zn3P2H7O12
_chemical_formula_sum   'Zn12 P8 H28 O48'
_cell_volume   1040.71721771
_cell_formula_units_Z   4
loop_
 _symmetry_equiv_pos_site_id
 _symmetry_equiv_pos_as_xyz
  1  'x, y, z'
loop_
 _atom_site_type_symbol
 _atom_site_label
 _atom_site_symmetry_multiplicity
 _atom_site_fract_x
 _atom_site_fract_y
 _atom_site_fract_z
 _atom_site_occupancy
  Zn  Zn0  1  0.29478752  0.85485712  0.99874189  1
  Zn  Zn1  1  0.20521248  0.35485712  0.50125811  1
  Zn  Zn2  1  0.70521248  0.14514288  0.49874189  1
  Zn  Zn3  1  0.79478752  0.64514288  0.00125811  1
  Zn  Zn4  1  0.71243083  0.14438197  0.00025817  1
  Zn  Zn5  1  0.78756917  0.64438197  0.49974183  1
  Zn  Zn6  1  0.28756917  0.85561803  0.50025817  1
  Zn  Zn7  1  0.21243083  0.35561803  0.99974183  1
  Zn  Zn8  1  0.07974112  0.23255892  0.75087813  1
  Zn  Zn9  1  0.42025888  0.73255892  0.74912187  1
  Zn  Zn10  1  0.92025888  0.76744108  0.25087813  1
  Zn  Zn11  1  0.57974112  0.26744108  0.24912187  1
  P  P12  1  0.23127163  0.10373571  0.90571267  1
  P  P13  1  0.26872837  0.60373571  0.59428733  1
  P  P14  1  0.76872837  0.89626429  0.40571267  1
  P  P15  1  0.73127163  0.39626429  0.09428733  1
  P  P16  1  0.77837478  0.89727553  0.09398605  1
  P  P17  1  0.72162522  0.39727553  0.40601395  1
  P  P18  1  0.22162522  0.10272447  0.59398605  1
  P  P19  1  0.27837478  0.60272447  0.90601395  1
  H  H20  1  0.78144669  0.02646496  0.75254268  1
  H  H21  1  0.71855331  0.52646496  0.74745732  1
  H  H22  1  0.21855331  0.97353504  0.25254268  1
  H  H23  1  0.28144669  0.47353504  0.24745732  1
  H  H24  1  0.51258036  0.36199634  0.74971558  1
  H  H25  1  0.98741964  0.86199634  0.75028442  1
  H  H26  1  0.48741964  0.63800366  0.24971558  1
  H  H27  1  0.01258036  0.13800366  0.25028442  1
  H  H28  1  0.29734211  0.47047710  0.74987987  1
  H  H29  1  0.20265789  0.97047710  0.75012013  1
  H  H30  1  0.70265789  0.52952290  0.24987987  1
  H  H31  1  0.79734211  0.02952290  0.25012013  1
  H  H32  1  0.95826105  0.39640739  0.64315948  1
  H  H33  1  0.54173895  0.89640739  0.85684052  1
  H  H34  1  0.04173895  0.60359261  0.14315948  1
  H  H35  1  0.45826105  0.10359261  0.35684052  1
  H  H36  1  0.04309413  0.60253764  0.35673632  1
  H  H37  1  0.45690587  0.10253764  0.14326368  1
  H  H38  1  0.95690587  0.39746236  0.85673632  1
  H  H39  1  0.54309413  0.89746236  0.64326368  1
  H  H40  1  0.81247822  0.26729073  0.63865925  1
  H  H41  1  0.68752178  0.76729073  0.86134075  1
  H  H42  1  0.18752178  0.73270927  0.13865925  1
  H  H43  1  0.31247822  0.23270927  0.36134075  1
  H  H44  1  0.18354581  0.73296974  0.36179828  1
  H  H45  1  0.31645419  0.23296974  0.13820172  1
  H  H46  1  0.81645419  0.26703026  0.86179828  1
  H  H47  1  0.68354581  0.76703026  0.63820172  1
  O  O48  1  0.34782731  0.97254897  0.92152365  1
  O  O49  1  0.15217269  0.47254897  0.57847635  1
  O  O50  1  0.65217269  0.02745103  0.42152365  1
  O  O51  1  0.84782731  0.52745103  0.07847635  1
  O  O52  1  0.65841965  0.02772535  0.07840178  1
  O  O53  1  0.84158035  0.52772535  0.42159822  1
  O  O54  1  0.34158035  0.97227465  0.57840178  1
  O  O55  1  0.15841965  0.47227465  0.92159822  1
  O  O56  1  0.13149377  0.69830627  0.95755374  1
  O  O57  1  0.36850623  0.19830627  0.54244626  1
  O  O58  1  0.86850623  0.30169373  0.45755374  1
  O  O59  1  0.63149377  0.80169373  0.04244626  1
  O  O60  1  0.87239100  0.30220470  0.04068639  1
  O  O61  1  0.62760900  0.80220470  0.45931361  1
  O  O62  1  0.12760900  0.69779530  0.54068639  1
  O  O63  1  0.37239100  0.19779530  0.95931361  1
  O  O64  1  0.06603773  0.88913722  0.07708534  1
  O  O65  1  0.43396227  0.38913722  0.42291466  1
  O  O66  1  0.93396227  0.11086278  0.57708534  1
  O  O67  1  0.56603773  0.61086278  0.92291466  1
  O  O68  1  0.94103698  0.11235614  0.92063518  1
  O  O69  1  0.55896302  0.61235614  0.57936482  1
  O  O70  1  0.05896302  0.88764386  0.42063518  1
  O  O71  1  0.44103698  0.38764386  0.07936482  1
  O  O72  1  0.28633922  0.13619698  0.82735964  1
  O  O73  1  0.21366078  0.63619698  0.67264036  1
  O  O74  1  0.71366078  0.86380302  0.32735964  1
  O  O75  1  0.78633922  0.36380302  0.17264036  1
  O  O76  1  0.73279346  0.86577726  0.17305770  1
  O  O77  1  0.76720654  0.36577726  0.32694230  1
  O  O78  1  0.26720654  0.13422274  0.67305770  1
  O  O79  1  0.23279346  0.63422274  0.82694230  1
  O  O80  1  0.77749005  0.11746221  0.74761269  1
  O  O81  1  0.72250995  0.61746221  0.75238731  1
  O  O82  1  0.22250995  0.88253779  0.24761269  1
  O  O83  1  0.27749005  0.38253779  0.25238731  1
  O  O84  1  0.33010973  0.37994686  0.74998421  1
  O  O85  1  0.16989027  0.87994686  0.75001579  1
  O  O86  1  0.66989027  0.62005314  0.24998421  1
  O  O87  1  0.83010973  0.12005314  0.25001579  1
  O  O88  1  0.85169525  0.33686020  0.67140164  1
  O  O89  1  0.64830475  0.83686020  0.82859836  1
  O  O90  1  0.14830475  0.66313980  0.17140164  1
  O  O91  1  0.35169525  0.16313980  0.32859836  1
  O  O92  1  0.14628660  0.66365011  0.32871252  1
  O  O93  1  0.35371340  0.16365011  0.17128748  1
  O  O94  1  0.85371340  0.33634989  0.82871252  1
  O  O95  1  0.64628660  0.83634989  0.67128748  1
