# generated using pymatgen
data_BaLi4O3
_symmetry_space_group_name_H-M   'P 1'
_cell_length_a   5.82034071
_cell_length_b   5.45182141
_cell_length_c   13.70745745
_cell_angle_alpha   89.99794670
_cell_angle_beta   89.99742159
_cell_angle_gamma   57.74002806
_symmetry_Int_Tables_number   1
_chemical_formula_structural   BaLi4O3
_chemical_formula_sum   'Ba4 Li16 O12'
_cell_volume   367.81535253
_cell_formula_units_Z   4
loop_
 _symmetry_equiv_pos_site_id
 _symmetry_equiv_pos_as_xyz
  1  'x, y, z'
loop_
 _atom_site_type_symbol
 _atom_site_label
 _atom_site_symmetry_multiplicity
 _atom_site_fract_x
 _atom_site_fract_y
 _atom_site_fract_z
 _atom_site_occupancy
  Ba  Ba0  1  0.97856457  0.03921647  0.34259750  1
  Ba  Ba1  1  0.51798880  0.96078738  0.84256649  1
  Ba  Ba2  1  0.02086357  0.95514040  0.65572072  1
  Ba  Ba3  1  0.47583098  0.04482593  0.15567786  1
  Li  Li4  1  0.16489698  0.66902585  0.17676642  1
  Li  Li5  1  0.33411880  0.33100381  0.67679713  1
  Li  Li6  1  0.79826826  0.40143626  0.15903538  1
  Li  Li7  1  0.69984921  0.59854088  0.65905378  1
  Li  Li8  1  0.45737950  0.72872864  0.49287394  1
  Li  Li9  1  0.68615683  0.27124299  0.99292929  1
  Li  Li10  1  0.30427896  0.74281153  0.00514747  1
  Li  Li11  1  0.54707395  0.25723315  0.50520272  1
  Li  Li12  1  0.19328242  0.25733512  0.50520435  1
  Li  Li13  1  0.95062938  0.74266948  0.00525408  1
  Li  Li14  1  0.04039180  0.27095856  0.99317311  1
  Li  Li15  1  0.81131444  0.72906129  0.49323983  1
  Li  Li16  1  0.66580117  0.66697659  0.32098347  1
  Li  Li17  1  0.83302799  0.33296758  0.82098354  1
  Li  Li18  1  0.29961709  0.39871962  0.34086764  1
  Li  Li19  1  0.19851910  0.60127501  0.84085659  1
  O  O20  1  0.99272961  0.51402903  0.24929919  1
  O  O21  1  0.00699103  0.48599585  0.74927826  1
  O  O22  1  0.31160009  0.37413192  0.99029788  1
  O  O23  1  0.18570433  0.62588854  0.49027238  1
  O  O24  1  0.49618132  0.00629131  0.39818424  1
  O  O25  1  0.00270199  0.99373563  0.89818710  1
  O  O26  1  0.49162881  0.51378106  0.24945639  1
  O  O27  1  0.50560298  0.48619755  0.74944600  1
  O  O28  1  0.81793180  0.36241294  0.50788887  1
  O  O29  1  0.68034868  0.63759207  0.00791742  1
  O  O30  1  0.99345067  0.01278635  0.10091609  1
  O  O31  1  0.50639688  0.98720419  0.60087788  1
