# generated using pymatgen
data_Tl4B8O17
_symmetry_space_group_name_H-M   'P 1'
_cell_length_a   7.07219181
_cell_length_b   9.57927875
_cell_length_c   16.39447889
_cell_angle_alpha   125.47171196
_cell_angle_beta   95.46032090
_cell_angle_gamma   90.46619825
_symmetry_Int_Tables_number   1
_chemical_formula_structural   Tl4B8O17
_chemical_formula_sum   'Tl8 B16 O34'
_cell_volume   897.67255035
_cell_formula_units_Z   2
loop_
 _symmetry_equiv_pos_site_id
 _symmetry_equiv_pos_as_xyz
  1  'x, y, z'
loop_
 _atom_site_type_symbol
 _atom_site_label
 _atom_site_symmetry_multiplicity
 _atom_site_fract_x
 _atom_site_fract_y
 _atom_site_fract_z
 _atom_site_occupancy
  Tl  Tl0  1  0.41486314  0.48379766  0.83403789  1
  Tl  Tl1  1  0.58513686  0.51620234  0.16596211  1
  Tl  Tl2  1  0.95340829  0.85725559  0.88587242  1
  Tl  Tl3  1  0.04659171  0.14274441  0.11412758  1
  Tl  Tl4  1  0.34852231  0.01230734  0.67192300  1
  Tl  Tl5  1  0.65147769  0.98769266  0.32807700  1
  Tl  Tl6  1  0.82194807  0.70035901  0.59977007  1
  Tl  Tl7  1  0.17805193  0.29964099  0.40022993  1
  B  B8  1  0.56722325  0.92056342  0.79686350  1
  B  B9  1  0.43277675  0.07943658  0.20313650  1
  B  B10  1  0.25789354  0.73671011  0.74491572  1
  B  B11  1  0.74210646  0.26328989  0.25508428  1
  B  B12  1  0.56743413  0.59145207  0.71213798  1
  B  B13  1  0.43256587  0.40854793  0.28786202  1
  B  B14  1  0.61951371  0.31068289  0.55050419  1
  B  B15  1  0.38048629  0.68931711  0.44949581  1
  B  B16  1  0.70684716  0.32779186  0.70287266  1
  B  B17  1  0.29315284  0.67220814  0.29712734  1
  B  B18  1  0.00271640  0.24799886  0.75257274  1
  B  B19  1  0.99728360  0.75200114  0.24742726  1
  B  B20  1  0.71516877  0.18245092  0.80387306  1
  B  B21  1  0.28483123  0.81754908  0.19612694  1
  B  B22  1  0.66723414  0.20759862  0.95731502  1
  B  B23  1  0.33276586  0.79240138  0.04268498  1
  O  O24  1  0.61787400  0.03488649  0.90507605  1
  O  O25  1  0.38212600  0.96511351  0.09492395  1
  O  O26  1  0.35644239  0.88301604  0.76568786  1
  O  O27  1  0.64355761  0.11698396  0.23431214  1
  O  O28  1  0.66375253  0.76208037  0.75915651  1
  O  O29  1  0.33624747  0.23791963  0.24084349  1
  O  O30  1  0.06404701  0.72595375  0.74077536  1
  O  O31  1  0.93595299  0.27404625  0.25922464  1
  O  O32  1  0.36193855  0.60054450  0.72609321  1
  O  O33  1  0.63806145  0.39945550  0.27390679  1
  O  O34  1  0.59618595  0.48464515  0.60476130  1
  O  O35  1  0.40381405  0.51535485  0.39523870  1
  O  O36  1  0.64869874  0.50857971  0.76009929  1
  O  O37  1  0.35130126  0.49142029  0.23990071  1
  O  O38  1  0.62553262  0.23731906  0.44923478  1
  O  O39  1  0.37446738  0.76268094  0.55076522  1
  O  O40  1  0.63503440  0.22656048  0.59530091  1
  O  O41  1  0.36496560  0.77343952  0.40469909  1
  O  O42  1  0.91218202  0.32993205  0.71681309  1
  O  O43  1  0.08781798  0.67006795  0.28318691  1
  O  O44  1  0.60903668  0.25452091  0.75113443  1
  O  O45  1  0.39096332  0.74547909  0.24886557  1
  O  O46  1  0.20440663  0.24095317  0.74795513  1
  O  O47  1  0.79559337  0.75904683  0.25204487  1
  O  O48  1  0.91659294  0.17451386  0.79043925  1
  O  O49  1  0.08340706  0.82548614  0.20956075  1
  O  O50  1  0.67831136  0.28599345  0.90883271  1
  O  O51  1  0.32168864  0.71400655  0.09116729  1
  O  O52  1  0.62728429  0.00251270  0.74717299  1
  O  O53  1  0.37271571  0.99748730  0.25282701  1
  O  O54  1  0.70431345  0.29643550  0.06193185  1
  O  O55  1  0.29568655  0.70356450  0.93806815  1
  O  O56  1  0.06881536  0.13239863  0.98443044  1
  O  O57  1  0.93118464  0.86760137  0.01556956  1
