# generated using pymatgen
data_Ta2H4O7
_symmetry_space_group_name_H-M   'P 1'
_cell_length_a   7.36954888
_cell_length_b   8.20912273
_cell_length_c   7.56679039
_cell_angle_alpha   55.51724724
_cell_angle_beta   66.66497658
_cell_angle_gamma   57.81777618
_symmetry_Int_Tables_number   1
_chemical_formula_structural   Ta2H4O7
_chemical_formula_sum   'Ta4 H8 O14'
_cell_volume   316.41756007
_cell_formula_units_Z   2
loop_
 _symmetry_equiv_pos_site_id
 _symmetry_equiv_pos_as_xyz
  1  'x, y, z'
loop_
 _atom_site_type_symbol
 _atom_site_label
 _atom_site_symmetry_multiplicity
 _atom_site_fract_x
 _atom_site_fract_y
 _atom_site_fract_z
 _atom_site_occupancy
  Ta  Ta0  1  0.45587611  0.97460513  0.49937606  1
  Ta  Ta1  1  0.42985730  0.50062394  0.02539487  1
  Ta  Ta2  1  0.97460513  0.45587611  0.57014270  1
  Ta  Ta3  1  0.50062394  0.42985730  0.54412389  1
  H  H4  1  0.62985896  0.62985896  0.12014104  1
  H  H5  1  0.00398007  0.78685130  0.95590594  1
  H  H6  1  0.78685130  0.00398007  0.75326268  1
  H  H7  1  0.87985896  0.87985896  0.37014104  1
  H  H8  1  0.04409406  0.24673732  0.99601993  1
  H  H9  1  0.24673732  0.04409406  0.21314870  1
  H  H10  1  0.01986305  0.01986305  0.73013695  1
  H  H11  1  0.26986305  0.26986305  0.98013695  1
  O  O12  1  0.53259834  0.20409783  0.24291296  1
  O  O13  1  0.20409783  0.53259834  0.52039186  1
  O  O14  1  0.17605541  0.17605541  0.57394459  1
  O  O15  1  0.54445412  0.54445412  0.20554588  1
  O  O16  1  0.14010668  0.60349636  0.11867015  1
  O  O17  1  0.60349636  0.14010668  0.63772581  1
  O  O18  1  0.47960814  0.75708704  0.79590217  1
  O  O19  1  0.75708704  0.47960814  0.46740166  1
  O  O20  1  0.79445412  0.79445412  0.45554588  1
  O  O21  1  0.42605541  0.42605541  0.82394459  1
  O  O22  1  0.88132985  0.36227419  0.85989332  1
  O  O23  1  0.36227419  0.88132985  0.39650364  1
  O  O24  1  0.93219162  0.93219162  0.81780838  1
  O  O25  1  0.18219162  0.18219162  0.06780838  1
