# generated using pymatgen
data_In3Ag
_symmetry_space_group_name_H-M   'P 1'
_cell_length_a   6.56910449
_cell_length_b   6.56910548
_cell_length_c   5.32144221
_cell_angle_alpha   90.00000000
_cell_angle_beta   90.00000000
_cell_angle_gamma   120.00000713
_symmetry_Int_Tables_number   1
_chemical_formula_structural   In3Ag
_chemical_formula_sum   'In6 Ag2'
_cell_volume   198.87141150
_cell_formula_units_Z   2
loop_
 _symmetry_equiv_pos_site_id
 _symmetry_equiv_pos_as_xyz
  1  'x, y, z'
loop_
 _atom_site_type_symbol
 _atom_site_label
 _atom_site_symmetry_multiplicity
 _atom_site_fract_x
 _atom_site_fract_y
 _atom_site_fract_z
 _atom_site_occupancy
  In  In0  1  0.17149080  0.34298060  0.25000200  1
  In  In1  1  0.65701940  0.82851020  0.25000200  1
  In  In2  1  0.17149080  0.82851020  0.25000200  1
  In  In3  1  0.82851120  0.65701940  0.75000100  1
  In  In4  1  0.34298060  0.17148980  0.75000100  1
  In  In5  1  0.82851020  0.17148980  0.75000100  1
  Ag  Ag6  1  0.33333300  0.66666700  0.75000100  1
  Ag  Ag7  1  0.66666700  0.33333300  0.25000200  1
