# generated using pymatgen
data_Mg2SnIrO6
_symmetry_space_group_name_H-M   'P 1'
_cell_length_a   5.26739717
_cell_length_b   5.41684175
_cell_length_c   7.72767823
_cell_angle_alpha   90.00000000
_cell_angle_beta   89.83968561
_cell_angle_gamma   90.00000000
_symmetry_Int_Tables_number   1
_chemical_formula_structural   Mg2SnIrO6
_chemical_formula_sum   'Mg4 Sn2 Ir2 O12'
_cell_volume   220.49032856
_cell_formula_units_Z   2
loop_
 _symmetry_equiv_pos_site_id
 _symmetry_equiv_pos_as_xyz
  1  'x, y, z'
loop_
 _atom_site_type_symbol
 _atom_site_label
 _atom_site_symmetry_multiplicity
 _atom_site_fract_x
 _atom_site_fract_y
 _atom_site_fract_z
 _atom_site_occupancy
  Mg  Mg0  1  0.00427531  0.94810314  0.25112598  1
  Mg  Mg1  1  0.49572469  0.44810314  0.24887402  1
  Mg  Mg2  1  0.50427531  0.55189686  0.75112598  1
  Mg  Mg3  1  0.99572469  0.05189686  0.74887402  1
  Sn  Sn4  1  0.00000000  0.50000000  0.00000000  1
  Sn  Sn5  1  0.50000000  0.00000000  0.50000000  1
  Ir  Ir6  1  0.00000000  0.50000000  0.50000000  1
  Ir  Ir7  1  0.50000000  0.00000000  0.00000000  1
  O  O8  1  0.13642710  0.41566639  0.74441763  1
  O  O9  1  0.18001384  0.17550724  0.07486459  1
  O  O10  1  0.16911315  0.18175363  0.42683911  1
  O  O11  1  0.33088685  0.68175363  0.07316089  1
  O  O12  1  0.31998616  0.67550724  0.42513541  1
  O  O13  1  0.36357290  0.91566639  0.75558237  1
  O  O14  1  0.63642710  0.08433361  0.24441763  1
  O  O15  1  0.68001384  0.32449276  0.57486459  1
  O  O16  1  0.66911315  0.31824637  0.92683911  1
  O  O17  1  0.81998616  0.82449276  0.92513541  1
  O  O18  1  0.83088685  0.81824637  0.57316089  1
  O  O19  1  0.86357290  0.58433361  0.25558237  1
