# generated using pymatgen
data_Mg16Al12Ni
_symmetry_space_group_name_H-M   'P 1'
_cell_length_a   9.20516605
_cell_length_b   8.98550525
_cell_length_c   8.98550601
_cell_angle_alpha   108.97072745
_cell_angle_beta   109.96718573
_cell_angle_gamma   109.96718948
_symmetry_Int_Tables_number   1
_chemical_formula_structural   Mg16Al12Ni
_chemical_formula_sum   'Mg16 Al12 Ni1'
_cell_volume   568.59082469
_cell_formula_units_Z   1
loop_
 _symmetry_equiv_pos_site_id
 _symmetry_equiv_pos_as_xyz
  1  'x, y, z'
loop_
 _atom_site_type_symbol
 _atom_site_label
 _atom_site_symmetry_multiplicity
 _atom_site_fract_x
 _atom_site_fract_y
 _atom_site_fract_z
 _atom_site_occupancy
  Mg  Mg0  1  0.00207010  0.35223954  0.00000000  1
  Mg  Mg1  1  0.57516766  0.27062212  1.00000000  1
  Mg  Mg2  1  0.99050935  1.00000000  1.00000000  1
  Mg  Mg3  1  0.31917061  0.59381341  0.00000100  1
  Mg  Mg4  1  0.57516666  1.00000000  0.27062212  1
  Mg  Mg5  1  0.68367183  0.67539423  0.27818605  1
  Mg  Mg6  1  0.00827860  0.60279182  0.32460577  1
  Mg  Mg7  1  0.00207010  0.00000000  0.35223954  1
  Mg  Mg8  1  0.40548678  0.72181495  0.39720918  1
  Mg  Mg9  1  0.72535720  0.40618659  0.40618659  1
  Mg  Mg10  1  0.31917061  0.00000000  0.59381441  1
  Mg  Mg11  1  0.00827760  0.32460577  0.60279182  1
  Mg  Mg12  1  0.64982856  0.64775846  0.64775846  1
  Mg  Mg13  1  0.68367283  0.27818605  0.67539423  1
  Mg  Mg14  1  0.40548678  0.39720918  0.72181495  1
  Mg  Mg15  1  0.30454454  0.72937788  0.72937788  1
  Al  Al16  1  0.64802633  0.81023121  0.99999900  1
  Al  Al17  1  0.81350166  0.61564688  1.00000000  1
  Al  Al18  1  0.36610261  0.35873582  0.18027779  1
  Al  Al19  1  0.18582482  0.81972121  0.17845703  1
  Al  Al20  1  0.83779312  0.18976779  0.18976679  1
  Al  Al21  1  0.36610361  0.18027779  0.35873582  1
  Al  Al22  1  0.19785477  0.38435312  0.38435412  1
  Al  Al23  1  0.81350166  1.00000000  0.61564688  1
  Al  Al24  1  0.00736679  0.82154297  0.64126518  1
  Al  Al25  1  0.64802533  0.99999900  0.81023221  1
  Al  Al26  1  0.00736679  0.64126518  0.82154297  1
  Al  Al27  1  0.18582382  0.17845703  0.81972221  1
  Ni  Ni28  1  0.26477889  0.99999900  0.00000000  1
