# generated using pymatgen
data_HoZr
_symmetry_space_group_name_H-M   'P 1'
_cell_length_a   3.40550036
_cell_length_b   3.40552398
_cell_length_c   5.36074645
_cell_angle_alpha   89.99941426
_cell_angle_beta   90.00075634
_cell_angle_gamma   120.00139453
_symmetry_Int_Tables_number   1
_chemical_formula_structural   HoZr
_chemical_formula_sum   'Ho1 Zr1'
_cell_volume   53.84119237
_cell_formula_units_Z   1
loop_
 _symmetry_equiv_pos_site_id
 _symmetry_equiv_pos_as_xyz
  1  'x, y, z'
loop_
 _atom_site_type_symbol
 _atom_site_label
 _atom_site_symmetry_multiplicity
 _atom_site_fract_x
 _atom_site_fract_y
 _atom_site_fract_z
 _atom_site_occupancy
  Ho  Ho0  1  0.66667024  0.33332027  0.75000210  1
  Zr  Zr1  1  0.33332876  0.66667973  0.24999890  1
