# generated using pymatgen
data_Mg16Al12Rh
_symmetry_space_group_name_H-M   'P 1'
_cell_length_a   9.19801897
_cell_length_b   9.00575118
_cell_length_c   9.00575152
_cell_angle_alpha   109.03470456
_cell_angle_beta   109.90428330
_cell_angle_gamma   109.90428457
_symmetry_Int_Tables_number   1
_chemical_formula_structural   Mg16Al12Rh
_chemical_formula_sum   'Mg16 Al12 Rh1'
_cell_volume   571.16717799
_cell_formula_units_Z   1
loop_
 _symmetry_equiv_pos_site_id
 _symmetry_equiv_pos_as_xyz
  1  'x, y, z'
loop_
 _atom_site_type_symbol
 _atom_site_label
 _atom_site_symmetry_multiplicity
 _atom_site_fract_x
 _atom_site_fract_y
 _atom_site_fract_z
 _atom_site_occupancy
  Mg  Mg0  1  0.00221503  0.35289309  1.00000000  1
  Mg  Mg1  1  0.98809553  1.00000000  1.00000000  1
  Mg  Mg2  1  0.57098703  0.25993078  1.00000000  1
  Mg  Mg3  1  0.31811637  0.59244648  0.00000000  1
  Mg  Mg4  1  0.57098703  1.00000000  0.25993078  1
  Mg  Mg5  1  0.68159628  0.67338713  0.27467750  1
  Mg  Mg6  1  0.00820815  0.60129037  0.32661287  1
  Mg  Mg7  1  0.00221503  0.99999900  0.35289309  1
  Mg  Mg8  1  0.40691877  0.72532350  0.39871063  1
  Mg  Mg9  1  0.72567090  0.40755352  0.40755452  1
  Mg  Mg10  1  0.31811637  0.00000100  0.59244648  1
  Mg  Mg11  1  0.00820815  0.32661187  0.60129037  1
  Mg  Mg12  1  0.64932094  0.64710691  0.64710691  1
  Mg  Mg13  1  0.68159528  0.27467850  0.67338713  1
  Mg  Mg14  1  0.40691877  0.39871063  0.72532250  1
  Mg  Mg15  1  0.31105625  0.74006922  0.74006922  1
  Al  Al16  1  0.81058545  0.60903846  0.00000000  1
  Al  Al17  1  0.65294091  0.80936730  1.00000000  1
  Al  Al18  1  0.18380370  0.81835470  0.17931381  1
  Al  Al19  1  0.36544900  0.36096010  0.18164430  1
  Al  Al20  1  0.84357261  0.19063370  0.19063370  1
  Al  Al21  1  0.36544900  0.18164430  0.36096010  1
  Al  Al22  1  0.20154698  0.39096254  0.39096254  1
  Al  Al23  1  0.81058545  0.99999900  0.60903846  1
  Al  Al24  1  0.00448890  0.82068619  0.63904190  1
  Al  Al25  1  0.65294091  1.00000000  0.80936630  1
  Al  Al26  1  0.18380270  0.17931381  0.81835470  1
  Al  Al27  1  0.00448990  0.63904190  0.82068619  1
  Rh  Rh28  1  0.27012161  0.00000000  0.00000000  1
