# generated using pymatgen
data_Mg16Al12Mo
_symmetry_space_group_name_H-M   'P 1'
_cell_length_a   9.46355453
_cell_length_b   8.91341839
_cell_length_c   8.91341937
_cell_angle_alpha   108.18735185
_cell_angle_beta   110.72645045
_cell_angle_gamma   110.72645696
_symmetry_Int_Tables_number   1
_chemical_formula_structural   Mg16Al12Mo
_chemical_formula_sum   'Mg16 Al12 Mo1'
_cell_volume   569.58360653
_cell_formula_units_Z   1
loop_
 _symmetry_equiv_pos_site_id
 _symmetry_equiv_pos_as_xyz
  1  'x, y, z'
loop_
 _atom_site_type_symbol
 _atom_site_label
 _atom_site_symmetry_multiplicity
 _atom_site_fract_x
 _atom_site_fract_y
 _atom_site_fract_z
 _atom_site_occupancy
  Mg  Mg0  1  0.31947803  0.60529551  0.99999900  1
  Mg  Mg1  1  0.58378625  0.28315084  0.00000000  1
  Mg  Mg2  1  0.99382212  1.00000000  0.00000100  1
  Mg  Mg3  1  0.00853218  0.35771304  -0.00000000  1
  Mg  Mg4  1  0.68135601  0.67888390  0.27855244  1
  Mg  Mg5  1  0.58378525  0.00000100  0.28315084  1
  Mg  Mg6  1  0.00247312  0.59966854  0.32111710  1
  Mg  Mg7  1  0.00853218  0.00000100  0.35771304  1
  Mg  Mg8  1  0.71418452  0.39470549  0.39470649  1
  Mg  Mg9  1  0.40280558  0.72144956  0.40033246  1
  Mg  Mg10  1  0.00247312  0.32111710  0.59966854  1
  Mg  Mg11  1  0.31947803  1.00000000  0.60529451  1
  Mg  Mg12  1  0.65081814  0.64228696  0.64228696  1
  Mg  Mg13  1  0.68135701  0.27855144  0.67888390  1
  Mg  Mg14  1  0.30063541  0.71684916  0.71684916  1
  Mg  Mg15  1  0.40280558  0.40033346  0.72144956  1
  Al  Al16  1  0.81274691  0.62083323  1.00000000  1
  Al  Al17  1  0.64572929  0.80858248  0.00000100  1
  Al  Al18  1  0.36680390  0.36418185  0.18148893  1
  Al  Al19  1  0.18531397  0.81851007  0.18269192  1
  Al  Al20  1  0.83714581  0.19141852  0.19141752  1
  Al  Al21  1  0.36680390  0.18148793  0.36418085  1
  Al  Al22  1  0.19191368  0.37916777  0.37916777  1
  Al  Al23  1  0.81274691  1.00000000  0.62083323  1
  Al  Al24  1  0.00262205  0.81730708  0.63581915  1
  Al  Al25  1  0.64572929  0.00000100  0.80858148  1
  Al  Al26  1  0.00262205  0.63581915  0.81730708  1
  Al  Al27  1  0.18531497  0.18269192  0.81851007  1
  Mo  Mo28  1  0.28819175  0.00000100  -0.00000000  1
