# generated using pymatgen
data_Li2(TmGe)3
_symmetry_space_group_name_H-M   'P 1'
_cell_length_a   4.20181971
_cell_length_b   5.87256805
_cell_length_c   14.04484283
_cell_angle_alpha   90.00000000
_cell_angle_beta   90.00000000
_cell_angle_gamma   110.96206563
_symmetry_Int_Tables_number   1
_chemical_formula_structural   Li2(TmGe)3
_chemical_formula_sum   'Li4 Tm6 Ge6'
_cell_volume   323.62671103
_cell_formula_units_Z   2
loop_
 _symmetry_equiv_pos_site_id
 _symmetry_equiv_pos_as_xyz
  1  'x, y, z'
loop_
 _atom_site_type_symbol
 _atom_site_label
 _atom_site_symmetry_multiplicity
 _atom_site_fract_x
 _atom_site_fract_y
 _atom_site_fract_z
 _atom_site_occupancy
  Li  Li0  1  0.21925384  0.43850767  0.91577070  1
  Li  Li1  1  0.78074616  0.56149233  0.08422930  1
  Li  Li2  1  0.21925384  0.43850767  0.58422930  1
  Li  Li3  1  0.78074616  0.56149233  0.41577070  1
  Tm  Tm4  1  0.07434394  0.14868788  0.38510445  1
  Tm  Tm5  1  0.92565606  0.85131212  0.61489555  1
  Tm  Tm6  1  0.07434394  0.14868788  0.11489555  1
  Tm  Tm7  1  0.92565606  0.85131212  0.88510445  1
  Tm  Tm8  1  0.36173481  0.72346963  0.25000000  1
  Tm  Tm9  1  0.63826519  0.27653037  0.75000000  1
  Ge  Ge10  1  0.39766777  0.79533553  0.45520319  1
  Ge  Ge11  1  0.60233223  0.20466447  0.54479681  1
  Ge  Ge12  1  0.39766777  0.79533553  0.04479681  1
  Ge  Ge13  1  0.60233223  0.20466447  0.95520319  1
  Ge  Ge14  1  0.66432404  0.32864808  0.25000000  1
  Ge  Ge15  1  0.33567596  0.67135192  0.75000000  1
