# generated using pymatgen
data_MnCo3
_symmetry_space_group_name_H-M   'P 1'
_cell_length_a   4.92998340
_cell_length_b   4.93070301
_cell_length_c   3.95076414
_cell_angle_alpha   89.98475669
_cell_angle_beta   90.01541716
_cell_angle_gamma   119.99579602
_symmetry_Int_Tables_number   1
_chemical_formula_structural   MnCo3
_chemical_formula_sum   'Mn2 Co6'
_cell_volume   83.17339165
_cell_formula_units_Z   2
loop_
 _symmetry_equiv_pos_site_id
 _symmetry_equiv_pos_as_xyz
  1  'x, y, z'
loop_
 _atom_site_type_symbol
 _atom_site_label
 _atom_site_symmetry_multiplicity
 _atom_site_fract_x
 _atom_site_fract_y
 _atom_site_fract_z
 _atom_site_occupancy
  Mn  Mn0  1  0.33333368  0.66658572  0.75000792  1
  Mn  Mn1  1  0.66663613  0.33356205  0.24998959  1
  Co  Co2  1  0.16784255  0.33561648  0.25000089  1
  Co  Co3  1  0.66438445  0.83214212  0.25000199  1
  Co  Co4  1  0.16779104  0.83217807  0.25000844  1
  Co  Co5  1  0.83219863  0.66433660  0.74999956  1
  Co  Co6  1  0.33564905  0.16777887  0.74999838  1
  Co  Co7  1  0.83216647  0.16780410  0.74999322  1
