# generated using pymatgen
data_Ca2AlSnO5
_symmetry_space_group_name_H-M   'P 1'
_cell_length_a   5.69720093
_cell_length_b   6.08946740
_cell_length_c   8.44768586
_cell_angle_alpha   110.71104276
_cell_angle_beta   108.45106990
_cell_angle_gamma   91.10678981
_symmetry_Int_Tables_number   1
_chemical_formula_structural   Ca2AlSnO5
_chemical_formula_sum   'Ca4 Al2 Sn2 O10'
_cell_volume   257.18252091
_cell_formula_units_Z   2
loop_
 _symmetry_equiv_pos_site_id
 _symmetry_equiv_pos_as_xyz
  1  'x, y, z'
loop_
 _atom_site_type_symbol
 _atom_site_label
 _atom_site_symmetry_multiplicity
 _atom_site_fract_x
 _atom_site_fract_y
 _atom_site_fract_z
 _atom_site_occupancy
  Ca  Ca0  1  0.08136963  0.65432970  0.23716364  1
  Ca  Ca1  1  0.42660166  0.92468930  0.76344580  1
  Ca  Ca2  1  0.89977355  0.33432035  0.76046065  1
  Ca  Ca3  1  0.65652803  0.07328481  0.24328422  1
  Al  Al4  1  0.28148857  0.33172220  0.50989712  1
  Al  Al5  1  0.77664800  0.66165880  0.49409829  1
  Sn  Sn6  1  0.50052128  0.50185294  0.00003415  1
  Sn  Sn7  1  0.02489672  0.00189954  0.00526086  1
  O  O8  1  0.58776610  0.41150599  0.49443621  1
  O  O9  1  0.09455969  0.57777334  0.50987454  1
  O  O10  1  0.66684085  0.70970544  0.29033505  1
  O  O11  1  0.32466061  0.28288046  0.71211196  1
  O  O12  1  0.11022290  0.06878511  0.33159928  1
  O  O13  1  0.77570049  0.92579685  0.67025607  1
  O  O14  1  0.34944642  0.79918898  0.97435901  1
  O  O15  1  0.19539457  0.36906544  0.03032677  1
  O  O16  1  0.68306653  0.22253972  0.03398790  1
  O  O17  1  0.80228941  0.64452803  0.96555949  1
