# generated using pymatgen
data_Mg5Pt
_symmetry_space_group_name_H-M   'P 1'
_cell_length_a   3.33193616
_cell_length_b   5.52218837
_cell_length_c   7.36935656
_cell_angle_alpha   70.52508302
_cell_angle_beta   90.00000000
_cell_angle_gamma   107.55889908
_symmetry_Int_Tables_number   1
_chemical_formula_structural   Mg5Pt
_chemical_formula_sum   'Mg5 Pt1'
_cell_volume   121.11381730
_cell_formula_units_Z   1
loop_
 _symmetry_equiv_pos_site_id
 _symmetry_equiv_pos_as_xyz
  1  'x, y, z'
loop_
 _atom_site_type_symbol
 _atom_site_label
 _atom_site_symmetry_multiplicity
 _atom_site_fract_x
 _atom_site_fract_y
 _atom_site_fract_z
 _atom_site_occupancy
  Mg  Mg0  1  0.69958949  0.39917998  0.07511281  1
  Mg  Mg1  1  0.36119910  0.72239921  0.27752750  1
  Mg  Mg2  1  0.02248742  0.04497385  0.48074348  1
  Mg  Mg3  1  0.71626885  0.43253769  0.63331933  1
  Mg  Mg4  1  0.00614487  0.01228873  0.92193049  1
  Pt  Pt5  1  0.36097727  0.72195454  0.77803540  1
