# generated using pymatgen
data_HgSbOF8
_symmetry_space_group_name_H-M   'P 1'
_cell_length_a   6.39909370
_cell_length_b   7.01626797
_cell_length_c   9.74074611
_cell_angle_alpha   88.64212518
_cell_angle_beta   93.20366779
_cell_angle_gamma   71.58649063
_symmetry_Int_Tables_number   1
_chemical_formula_structural   HgSbOF8
_chemical_formula_sum   'Hg2 Sb2 O2 F16'
_cell_volume   413.90329349
_cell_formula_units_Z   2
loop_
 _symmetry_equiv_pos_site_id
 _symmetry_equiv_pos_as_xyz
  1  'x, y, z'
loop_
 _atom_site_type_symbol
 _atom_site_label
 _atom_site_symmetry_multiplicity
 _atom_site_fract_x
 _atom_site_fract_y
 _atom_site_fract_z
 _atom_site_occupancy
  Hg  Hg0  1  0.96186423  0.93647839  0.62146312  1
  Hg  Hg1  1  0.03813577  0.06352161  0.37853688  1
  Sb  Sb2  1  0.70078021  0.69190837  0.31583044  1
  Sb  Sb3  1  0.29921979  0.30809163  0.68416956  1
  O  O4  1  0.86316073  0.85744396  0.87445171  1
  O  O5  1  0.13683927  0.14255604  0.12554829  1
  F  F6  1  0.70898699  0.42221821  0.36677062  1
  F  F7  1  0.29101301  0.57778179  0.63322938  1
  F  F8  1  0.72975154  0.61843036  0.13009011  1
  F  F9  1  0.27024846  0.38156964  0.86990989  1
  F  F10  1  0.69915900  0.96074197  0.26224247  1
  F  F11  1  0.30084100  0.03925803  0.73775753  1
  F  F12  1  0.66652681  0.77050075  0.50466987  1
  F  F13  1  0.33347319  0.22949925  0.49533013  1
  F  F14  1  0.01339091  0.62215748  0.35259946  1
  F  F15  1  0.98660909  0.37784252  0.64740054  1
  F  F16  1  0.38234769  0.78180238  0.28682119  1
  F  F17  1  0.61765231  0.21819762  0.71317881  1
  F  F18  1  0.78017306  0.69283443  0.85537545  1
  F  F19  1  0.21982694  0.30716557  0.14462455  1
  F  F20  1  0.93534922  0.22272257  0.04133148  1
  F  F21  1  0.06465078  0.77727743  0.95866852  1
