# generated using pymatgen
data_In(BO2)5
_symmetry_space_group_name_H-M   'P 1'
_cell_length_a   4.43950982
_cell_length_b   4.50121962
_cell_length_c   8.63927860
_cell_angle_alpha   82.92611447
_cell_angle_beta   75.53895254
_cell_angle_gamma   60.45248667
_symmetry_Int_Tables_number   1
_chemical_formula_structural   In(BO2)5
_chemical_formula_sum   'In1 B5 O10'
_cell_volume   145.42978586
_cell_formula_units_Z   1
loop_
 _symmetry_equiv_pos_site_id
 _symmetry_equiv_pos_as_xyz
  1  'x, y, z'
loop_
 _atom_site_type_symbol
 _atom_site_label
 _atom_site_symmetry_multiplicity
 _atom_site_fract_x
 _atom_site_fract_y
 _atom_site_fract_z
 _atom_site_occupancy
  In  In0  1  0.37124644  0.25750713  1.00000000  1
  B  B1  1  0.14412301  0.94206286  0.77410581  1
  B  B2  1  0.91381413  0.94206286  0.22589419  1
  B  B3  1  0.79874541  0.59977240  0.77492189  1
  B  B4  1  0.60148219  0.59977240  0.22507811  1
  B  B5  1  0.62040112  0.75919777  0.50000000  1
  O  O6  1  0.87010822  0.56038400  0.60214019  1
  O  O7  1  0.56950778  0.56038400  0.39785981  1
  O  O8  1  0.42830979  0.66864233  0.84872274  1
  O  O9  1  0.90304788  0.66864233  0.15127726  1
  O  O10  1  0.04497814  0.27661889  0.84219636  1
  O  O11  1  0.67840297  0.27661889  0.15780364  1
  O  O12  1  0.82636968  0.89434601  0.81888647  1
  O  O13  1  0.27928431  0.89434601  0.18111353  1
  O  O14  1  0.26802679  0.96073106  0.60204576  1
  O  O15  1  0.77124215  0.96073106  0.39795424  1
