# generated using pymatgen
data_Sr2CrFeAsO3
_symmetry_space_group_name_H-M   'P 1'
_cell_length_a   4.01157623
_cell_length_b   4.01157623
_cell_length_c   16.28607338
_cell_angle_alpha   90.00000000
_cell_angle_beta   90.00000000
_cell_angle_gamma   90.00000000
_symmetry_Int_Tables_number   1
_chemical_formula_structural   Sr2CrFeAsO3
_chemical_formula_sum   'Sr4 Cr2 Fe2 As2 O6'
_cell_volume   262.08760721
_cell_formula_units_Z   2
loop_
 _symmetry_equiv_pos_site_id
 _symmetry_equiv_pos_as_xyz
  1  'x, y, z'
loop_
 _atom_site_type_symbol
 _atom_site_label
 _atom_site_symmetry_multiplicity
 _atom_site_fract_x
 _atom_site_fract_y
 _atom_site_fract_z
 _atom_site_occupancy
  Sr  Sr0  1  0.25000000  0.25000000  0.80154408  1
  Sr  Sr1  1  0.75000000  0.75000000  0.19845592  1
  Sr  Sr2  1  0.25000000  0.25000000  0.58502366  1
  Sr  Sr3  1  0.75000000  0.75000000  0.41497634  1
  Cr  Cr4  1  0.75000000  0.75000000  0.68782535  1
  Cr  Cr5  1  0.25000000  0.25000000  0.31217465  1
  Fe  Fe6  1  0.25000000  0.75000000  -0.00000000  1
  Fe  Fe7  1  0.75000000  0.25000000  0.00000000  1
  As  As8  1  0.75000000  0.75000000  0.89956334  1
  As  As9  1  0.25000000  0.25000000  0.10043666  1
  O  O10  1  0.25000000  0.75000000  0.70527655  1
  O  O11  1  0.75000000  0.25000000  0.70527655  1
  O  O12  1  0.75000000  0.25000000  0.29472345  1
  O  O13  1  0.25000000  0.75000000  0.29472345  1
  O  O14  1  0.75000000  0.75000000  0.56885268  1
  O  O15  1  0.25000000  0.25000000  0.43114732  1
