# generated using pymatgen
data_Na4Ti6O13
_symmetry_space_group_name_H-M   'P 1'
_cell_length_a   3.97615880
_cell_length_b   7.43852103
_cell_length_c   9.33986911
_cell_angle_alpha   92.82198936
_cell_angle_beta   89.99999972
_cell_angle_gamma   105.50176558
_symmetry_Int_Tables_number   1
_chemical_formula_structural   Na4Ti6O13
_chemical_formula_sum   'Na4 Ti6 O13'
_cell_volume   265.84612665
_cell_formula_units_Z   1
loop_
 _symmetry_equiv_pos_site_id
 _symmetry_equiv_pos_as_xyz
  1  'x, y, z'
loop_
 _atom_site_type_symbol
 _atom_site_label
 _atom_site_symmetry_multiplicity
 _atom_site_fract_x
 _atom_site_fract_y
 _atom_site_fract_z
 _atom_site_occupancy
  Na  Na0  1  0.40107315  0.80214629  0.10023606  1
  Na  Na1  1  0.59892685  0.19785371  0.89976394  1
  Na  Na2  1  0.48801807  0.97603614  0.35132877  1
  Na  Na3  1  0.51198193  0.02396386  0.64867123  1
  Ti  Ti4  1  0.11210932  0.22421863  0.12893026  1
  Ti  Ti5  1  0.88789068  0.77578137  0.87106974  1
  Ti  Ti6  1  0.17152366  0.34304732  0.45756337  1
  Ti  Ti7  1  0.82847634  0.65695268  0.54243663  1
  Ti  Ti8  1  0.24422988  0.48845976  0.78051939  1
  Ti  Ti9  1  0.75577012  0.51154024  0.21948061  1
  O  O10  1  0.24342472  0.48684943  0.24601173  1
  O  O11  1  0.75657528  0.51315057  0.75398827  1
  O  O12  1  0.06814108  0.13628216  0.32731322  1
  O  O13  1  0.93185892  0.86371784  0.67268678  1
  O  O14  1  0.30754514  0.61509029  0.55928867  1
  O  O15  1  0.69245486  0.38490971  0.44071133  1
  O  O16  1  0.12909679  0.25819359  0.63778838  1
  O  O17  1  0.87090321  0.74180641  0.36221162  1
  O  O18  1  0.38163937  0.76327874  0.85621313  1
  O  O19  1  0.61836063  0.23672126  0.14378687  1
  O  O20  1  0.18056401  0.36112802  0.94008224  1
  O  O21  1  0.81943599  0.63887198  0.05991776  1
  O  O22  1  0.00000000  0.00000000  -0.00000000  1
