# generated using pymatgen
data_Th2FeS5
_symmetry_space_group_name_H-M   'P 1'
_cell_length_a   6.36240473
_cell_length_b   7.26317479
_cell_length_c   8.15753060
_cell_angle_alpha   96.51418220
_cell_angle_beta   112.95271015
_cell_angle_gamma   90.00000000
_symmetry_Int_Tables_number   1
_chemical_formula_structural   Th2FeS5
_chemical_formula_sum   'Th4 Fe2 S10'
_cell_volume   344.47934531
_cell_formula_units_Z   2
loop_
 _symmetry_equiv_pos_site_id
 _symmetry_equiv_pos_as_xyz
  1  'x, y, z'
loop_
 _atom_site_type_symbol
 _atom_site_label
 _atom_site_symmetry_multiplicity
 _atom_site_fract_x
 _atom_site_fract_y
 _atom_site_fract_z
 _atom_site_occupancy
  Th  Th0  1  0.88895354  0.57891892  0.21338398  1
  Th  Th1  1  0.67556956  0.92108108  0.78661602  1
  Th  Th2  1  0.11104646  0.42108108  0.78661602  1
  Th  Th3  1  0.32443044  0.07891892  0.21338398  1
  Fe  Fe4  1  -0.00000000  -0.00000000  0.50000000  1
  Fe  Fe5  1  0.50000000  0.50000000  0.50000000  1
  S  S6  1  0.08060490  0.75000000  0.00000000  1
  S  S7  1  0.91939510  0.25000000  0.00000000  1
  S  S8  1  0.71976478  0.93245611  0.18238014  1
  S  S9  1  0.53738464  0.56754389  0.81761986  1
  S  S10  1  0.28023522  0.06754389  0.81761986  1
  S  S11  1  0.46261536  0.43245611  0.18238014  1
  S  S12  1  0.85639862  0.68831298  0.55711156  1
  S  S13  1  0.29928707  0.81168702  0.44288844  1
  S  S14  1  0.14360138  0.31168702  0.44288844  1
  S  S15  1  0.70071293  0.18831298  0.55711156  1
