# generated using pymatgen
data_Nd5Si3C
_symmetry_space_group_name_H-M   'P 1'
_cell_length_a   6.72673065
_cell_length_b   8.77472835
_cell_length_c   8.77776233
_cell_angle_alpha   119.98856313
_cell_angle_beta   90.00000000
_cell_angle_gamma   90.00000000
_symmetry_Int_Tables_number   1
_chemical_formula_structural   Nd5Si3C
_chemical_formula_sum   'Nd10 Si6 C2'
_cell_volume   448.74767016
_cell_formula_units_Z   2
loop_
 _symmetry_equiv_pos_site_id
 _symmetry_equiv_pos_as_xyz
  1  'x, y, z'
loop_
 _atom_site_type_symbol
 _atom_site_label
 _atom_site_symmetry_multiplicity
 _atom_site_fract_x
 _atom_site_fract_y
 _atom_site_fract_z
 _atom_site_occupancy
  Nd  Nd0  1  0.49999896  0.33317336  0.66643902  1
  Nd  Nd1  1  0.49999896  0.66673433  0.33356098  1
  Nd  Nd2  1  -0.00000104  0.66682664  0.33356098  1
  Nd  Nd3  1  -0.00000104  0.33326567  0.66643902  1
  Nd  Nd4  1  0.74999712  0.22424329  0.00000000  1
  Nd  Nd5  1  0.74999191  0.77550150  0.77539856  1
  Nd  Nd6  1  0.74999191  0.00010294  0.22460144  1
  Nd  Nd7  1  0.24999712  0.77575671  1.00000000  1
  Nd  Nd8  1  0.24999191  0.22449850  0.22460144  1
  Nd  Nd9  1  0.24999191  0.99989706  0.77539856  1
  Si  Si10  1  0.75002806  0.59115929  0.00000000  1
  Si  Si11  1  0.74999381  0.40860125  0.40840524  1
  Si  Si12  1  0.74999381  0.00019601  0.59159476  1
  Si  Si13  1  0.25002806  0.40884071  1.00000000  1
  Si  Si14  1  0.24999381  0.59139875  0.59159476  1
  Si  Si15  1  0.24999381  0.99980399  0.40840524  1
  C  C16  1  0.50000546  0.99998615  0.00000000  1
  C  C17  1  0.00000546  0.00001385  1.00000000  1
