# generated using pymatgen
data_Co3(PO5)2
_symmetry_space_group_name_H-M   'P 1'
_cell_length_a   7.29709412
_cell_length_b   7.56132492
_cell_length_c   7.15361311
_cell_angle_alpha   90.00000000
_cell_angle_beta   61.49563219
_cell_angle_gamma   90.00000000
_symmetry_Int_Tables_number   1
_chemical_formula_structural   Co3(PO5)2
_chemical_formula_sum   'Co6 P4 O20'
_cell_volume   346.85968432
_cell_formula_units_Z   2
loop_
 _symmetry_equiv_pos_site_id
 _symmetry_equiv_pos_as_xyz
  1  'x, y, z'
loop_
 _atom_site_type_symbol
 _atom_site_label
 _atom_site_symmetry_multiplicity
 _atom_site_fract_x
 _atom_site_fract_y
 _atom_site_fract_z
 _atom_site_occupancy
  Co  Co0  1  0.47053823  0.21846263  0.23852243  1
  Co  Co1  1  0.97053823  0.28153737  0.23852243  1
  Co  Co2  1  0.52946177  0.78153737  0.76147757  1
  Co  Co3  1  0.02946177  0.71846263  0.76147757  1
  Co  Co4  1  0.50000000  0.50000000  0.50000000  1
  Co  Co5  1  0.00000000  -0.00000000  0.50000000  1
  P  P6  1  0.74602968  0.38590855  0.75516638  1
  P  P7  1  0.24602968  0.11409145  0.75516638  1
  P  P8  1  0.25397032  0.61409145  0.24483362  1
  P  P9  1  0.75397032  0.88590855  0.24483362  1
  O  O10  1  0.88177321  0.50043623  0.81569564  1
  O  O11  1  0.38177321  0.99956377  0.81569564  1
  O  O12  1  0.11822679  0.49956377  0.18430436  1
  O  O13  1  0.61822679  0.00043623  0.18430436  1
  O  O14  1  0.87854882  0.01603539  0.31632701  1
  O  O15  1  0.37854882  0.48396461  0.31632701  1
  O  O16  1  0.12145118  0.98396461  0.68367299  1
  O  O17  1  0.62145118  0.51603539  0.68367299  1
  O  O18  1  0.59403727  0.27389229  0.94203463  1
  O  O19  1  0.09403727  0.22610771  0.94203463  1
  O  O20  1  0.40596273  0.72610771  0.05796537  1
  O  O21  1  0.90596273  0.77389229  0.05796537  1
  O  O22  1  0.62240050  0.76556795  0.43723881  1
  O  O23  1  0.12240050  0.73443205  0.43723881  1
  O  O24  1  0.37759950  0.23443205  0.56276119  1
  O  O25  1  0.87759950  0.26556795  0.56276119  1
  O  O26  1  0.78834808  0.86528120  0.70942702  1
  O  O27  1  0.28834808  0.63471880  0.70942702  1
  O  O28  1  0.21165192  0.13471880  0.29057298  1
  O  O29  1  0.71165192  0.36528120  0.29057298  1
