# generated using pymatgen
data_Al(SiO3)2
_symmetry_space_group_name_H-M   'P 1'
_cell_length_a   5.27992697
_cell_length_b   5.27992697
_cell_length_c   19.35924575
_cell_angle_alpha   92.18119175
_cell_angle_beta   92.18119175
_cell_angle_gamma   120.00717253
_symmetry_Int_Tables_number   1
_chemical_formula_structural   Al(SiO3)2
_chemical_formula_sum   'Al4 Si8 O24'
_cell_volume   465.99512905
_cell_formula_units_Z   4
loop_
 _symmetry_equiv_pos_site_id
 _symmetry_equiv_pos_as_xyz
  1  'x, y, z'
loop_
 _atom_site_type_symbol
 _atom_site_label
 _atom_site_symmetry_multiplicity
 _atom_site_fract_x
 _atom_site_fract_y
 _atom_site_fract_z
 _atom_site_occupancy
  Al  Al0  1  0.17798313  0.85537938  0.49995607  1
  Al  Al1  1  0.64462062  0.32201687  0.00004393  1
  Al  Al2  1  0.82201687  0.14462062  0.50004393  1
  Al  Al3  1  0.35537938  0.67798313  0.99995607  1
  Si  Si4  1  0.09918833  0.11391784  0.35896318  1
  Si  Si5  1  0.38608216  0.40081167  0.14103682  1
  Si  Si6  1  0.90081167  0.88608216  0.64103682  1
  Si  Si7  1  0.61391784  0.59918833  0.85896318  1
  Si  Si8  1  0.44389764  0.80385282  0.35882422  1
  Si  Si9  1  0.69614718  0.05610236  0.14117578  1
  Si  Si10  1  0.55610236  0.19614718  0.64117578  1
  Si  Si11  1  0.30385282  0.94389764  0.85882422  1
  O  O12  1  0.08765173  0.08708107  0.44370782  1
  O  O13  1  0.41291893  0.41234827  0.05629218  1
  O  O14  1  0.91234827  0.91291893  0.55629218  1
  O  O15  1  0.58708107  0.58765173  0.94370782  1
  O  O16  1  0.48426566  0.87991029  0.44363270  1
  O  O17  1  0.62008971  0.01573434  0.05636730  1
  O  O18  1  0.51573434  0.12008971  0.55636730  1
  O  O19  1  0.37991029  0.98426566  0.94363270  1
  O  O20  1  0.89057207  0.48695615  0.45497198  1
  O  O21  1  0.01304385  0.60942793  0.04502802  1
  O  O22  1  0.10942793  0.51304385  0.54502802  1
  O  O23  1  0.98695615  0.39057207  0.95497198  1
  O  O24  1  0.28273784  0.45356558  0.33996689  1
  O  O25  1  0.04643442  0.21726216  0.16003311  1
  O  O26  1  0.71726216  0.54643442  0.66003311  1
  O  O27  1  0.95356558  0.78273784  0.83996689  1
  O  O28  1  0.76287625  0.96617509  0.32635824  1
  O  O29  1  0.53382491  0.73712375  0.17364176  1
  O  O30  1  0.23712375  0.03382491  0.67364176  1
  O  O31  1  0.46617509  0.26287625  0.82635824  1
  O  O32  1  0.24651246  0.93386222  0.32614755  1
  O  O33  1  0.56613778  0.25348754  0.17385245  1
  O  O34  1  0.75348754  0.06613778  0.67385245  1
  O  O35  1  0.43386222  0.74651246  0.82614755  1
