# generated using pymatgen
data_K2Si3PbO10
_symmetry_space_group_name_H-M   'P 1'
_cell_length_a   6.67925815
_cell_length_b   11.89220545
_cell_length_c   13.14370315
_cell_angle_alpha   90.00000000
_cell_angle_beta   103.25885240
_cell_angle_gamma   90.00000000
_symmetry_Int_Tables_number   1
_chemical_formula_structural   K2Si3PbO10
_chemical_formula_sum   'K8 Si12 Pb4 O40'
_cell_volume   1016.18939153
_cell_formula_units_Z   4
loop_
 _symmetry_equiv_pos_site_id
 _symmetry_equiv_pos_as_xyz
  1  'x, y, z'
loop_
 _atom_site_type_symbol
 _atom_site_label
 _atom_site_symmetry_multiplicity
 _atom_site_fract_x
 _atom_site_fract_y
 _atom_site_fract_z
 _atom_site_occupancy
  K  K0  1  0.71547770  0.55284457  0.40985444  1
  K  K1  1  0.21547770  0.94715543  0.90985444  1
  K  K2  1  0.28452230  0.44715543  0.59014556  1
  K  K3  1  0.78452230  0.05284457  0.09014556  1
  K  K4  1  0.19959215  0.12035895  0.38047309  1
  K  K5  1  0.69959215  0.37964105  0.88047309  1
  K  K6  1  0.80040785  0.87964105  0.61952691  1
  K  K7  1  0.30040785  0.62035895  0.11952691  1
  Si  Si8  1  0.32201011  0.97060076  0.65962852  1
  Si  Si9  1  0.82201011  0.52939924  0.15962852  1
  Si  Si10  1  0.67798989  0.02939924  0.34037148  1
  Si  Si11  1  0.17798989  0.47060076  0.84037148  1
  Si  Si12  1  0.42646729  0.81347402  0.33638946  1
  Si  Si13  1  0.92646729  0.68652598  0.83638946  1
  Si  Si14  1  0.57353271  0.18652598  0.66361054  1
  Si  Si15  1  0.07353271  0.31347402  0.16361054  1
  Si  Si16  1  0.21428481  0.76384646  0.51274750  1
  Si  Si17  1  0.71428481  0.73615354  0.01274750  1
  Si  Si18  1  0.78571519  0.23615354  0.48725250  1
  Si  Si19  1  0.28571519  0.26384646  0.98725250  1
  Pb  Pb20  1  0.89648991  0.78810285  0.27414076  1
  Pb  Pb21  1  0.39648991  0.71189715  0.77414076  1
  Pb  Pb22  1  0.10351009  0.21189715  0.72585924  1
  Pb  Pb23  1  0.60351009  0.28810285  0.22585924  1
  O  O24  1  0.46637707  0.88921828  0.74687272  1
  O  O25  1  0.96637707  0.61078172  0.24687272  1
  O  O26  1  0.53362293  0.11078172  0.25312728  1
  O  O27  1  0.03362293  0.38921828  0.75312728  1
  O  O28  1  0.26901658  0.67550368  0.60941909  1
  O  O29  1  0.76901658  0.82449632  0.10941909  1
  O  O30  1  0.73098342  0.32449632  0.39058091  1
  O  O31  1  0.23098342  0.17550368  0.89058091  1
  O  O32  1  0.98389816  0.74223021  0.44051985  1
  O  O33  1  0.48389816  0.75776979  0.94051985  1
  O  O34  1  0.01610184  0.25776979  0.55948015  1
  O  O35  1  0.51610184  0.24223021  0.05948015  1
  O  O36  1  0.39343815  0.75101905  0.44417128  1
  O  O37  1  0.89343815  0.74898095  0.94417128  1
  O  O38  1  0.60656185  0.24898095  0.55582872  1
  O  O39  1  0.10656185  0.25101905  0.05582872  1
  O  O40  1  0.20577261  0.82743895  0.25170346  1
  O  O41  1  0.70577261  0.67256105  0.75170346  1
  O  O42  1  0.79422739  0.17256105  0.74829654  1
  O  O43  1  0.29422739  0.32743895  0.24829654  1
  O  O44  1  0.63575771  0.46815243  0.19978775  1
  O  O45  1  0.13575771  0.03184757  0.69978775  1
  O  O46  1  0.36424229  0.53184757  0.80021225  1
  O  O47  1  0.86424229  0.96815243  0.30021225  1
  O  O48  1  0.58274958  0.73902262  0.28497897  1
  O  O49  1  0.08274958  0.76097738  0.78497897  1
  O  O50  1  0.41725042  0.26097738  0.71502103  1
  O  O51  1  0.91725042  0.23902262  0.21502103  1
  O  O52  1  0.52448080  0.93766396  0.37842276  1
  O  O53  1  0.02448080  0.56233604  0.87842276  1
  O  O54  1  0.47551920  0.06233604  0.62157724  1
  O  O55  1  0.97551920  0.43766396  0.12157724  1
  O  O56  1  0.21851351  0.89582277  0.55479588  1
  O  O57  1  0.71851351  0.60417723  0.05479588  1
  O  O58  1  0.78148649  0.10417723  0.44520412  1
  O  O59  1  0.28148649  0.39582277  0.94520412  1
  O  O60  1  0.73296753  0.51612418  0.63907762  1
  O  O61  1  0.23296753  0.98387582  0.13907762  1
  O  O62  1  0.26703247  0.48387582  0.36092238  1
  O  O63  1  0.76703247  0.01612418  0.86092238  1
