# generated using pymatgen
data_FeSi6(H27C10)2
_symmetry_space_group_name_H-M   'P 1'
_cell_length_a   9.43379057
_cell_length_b   9.74563451
_cell_length_c   22.93198126
_cell_angle_alpha   83.01871720
_cell_angle_beta   78.13006418
_cell_angle_gamma   61.05296691
_symmetry_Int_Tables_number   1
_chemical_formula_structural   FeSi6(H27C10)2
_chemical_formula_sum   'Fe2 Si12 H108 C40'
_cell_volume   1804.88289323
_cell_formula_units_Z   2
loop_
 _symmetry_equiv_pos_site_id
 _symmetry_equiv_pos_as_xyz
  1  'x, y, z'
loop_
 _atom_site_type_symbol
 _atom_site_label
 _atom_site_symmetry_multiplicity
 _atom_site_fract_x
 _atom_site_fract_y
 _atom_site_fract_z
 _atom_site_occupancy
  Fe  Fe0  1  0.00000000  -0.00000000  0.50000000  1
  Fe  Fe1  1  0.50000000  0.50000000  -0.00000000  1
  Si  Si2  1  0.17424191  0.73157177  0.59356814  1
  Si  Si3  1  0.49938182  0.76842823  0.90643186  1
  Si  Si4  1  0.82575809  0.26842823  0.40643186  1
  Si  Si5  1  0.50061818  0.23157177  0.09356814  1
  Si  Si6  1  0.81302517  0.98785688  0.63553222  1
  Si  Si7  1  0.43641427  0.51214312  0.86446778  1
  Si  Si8  1  0.18697483  0.01214312  0.36446778  1
  Si  Si9  1  0.56358573  0.48785688  0.13553222  1
  Si  Si10  1  0.10039077  0.07377744  0.61477883  1
  Si  Si11  1  0.78894705  0.42622256  0.88522117  1
  Si  Si12  1  0.89960923  0.92622256  0.38522117  1
  Si  Si13  1  0.21105295  0.57377744  0.11477883  1
  H  H14  1  0.47120506  0.55648613  0.57487639  1
  H  H15  1  0.60256758  0.94351387  0.92512361  1
  H  H16  1  0.52879494  0.44351387  0.42512361  1
  H  H17  1  0.39743242  0.05648613  0.07487639  1
  H  H18  1  0.42582074  0.72111789  0.52561918  1
  H  H19  1  0.67255780  0.77888211  0.97438082  1
  H  H20  1  0.57417926  0.27888211  0.47438082  1
  H  H21  1  0.32744220  0.22111789  0.02561918  1
  H  H22  1  0.43769610  0.73537085  0.60066960  1
  H  H23  1  0.77373655  0.76462915  0.89933040  1
  H  H24  1  0.56230390  0.26462915  0.39933040  1
  H  H25  1  0.22626345  0.23537085  0.10066960  1
  H  H26  1  0.23733292  0.49320589  0.54348593  1
  H  H27  1  0.27402475  0.00679411  0.95651407  1
  H  H28  1  0.76266708  0.50679411  0.45651407  1
  H  H29  1  0.72597525  0.99320589  0.04348593  1
  H  H30  1  0.02306420  0.62469501  0.55062834  1
  H  H31  1  0.19838755  0.87530499  0.94937166  1
  H  H32  1  0.97693580  0.37530499  0.44937166  1
  H  H33  1  0.80161245  0.12469501  0.05062834  1
  H  H34  1  0.16551005  0.65676984  0.49421615  1
  H  H35  1  0.31649605  0.84323016  0.00578385  1
  H  H36  1  0.83448995  0.34323016  0.50578385  1
  H  H37  1  0.68350395  0.15676984  0.99421615  1
  H  H38  1  0.25821941  0.50725643  0.66419653  1
  H  H39  1  0.42967237  0.99274357  0.83580347  1
  H  H40  1  0.74178059  0.49274357  0.33580347  1
  H  H41  1  0.57032763  0.00725643  0.16419653  1
  H  H42  1  0.19108495  0.68027369  0.70316715  1
  H  H43  1  0.57452580  0.81972631  0.79683285  1
  H  H44  1  0.80891505  0.31972631  0.29683285  1
  H  H45  1  0.42547420  0.18027369  0.20316715  1
  H  H46  1  0.04539065  0.63270274  0.68556188  1
  H  H47  1  0.36365528  0.86729726  0.81443812  1
  H  H48  1  0.95460935  0.36729726  0.31443812  1
  H  H49  1  0.63634472  0.13270274  0.18556188  1
  H  H50  1  0.83154103  0.71713327  0.64514670  1
  H  H51  1  0.19382100  0.78286673  0.85485330  1
  H  H52  1  0.16845897  0.28286673  0.35485330  1
  H  H53  1  0.80617900  0.21713327  0.14514670  1
  H  H54  1  0.62803908  0.87213178  0.65961778  1
  H  H55  1  0.15978864  0.62786822  0.84038222  1
  H  H56  1  0.37196092  0.12786822  0.34038222  1
  H  H57  1  0.84021136  0.37213178  0.15961778  1
  H  H58  1  0.73004895  0.82799090  0.58516552  1
  H  H59  1  0.14320537  0.67200910  0.91483448  1
  H  H60  1  0.26995105  0.17200910  0.41483448  1
  H  H61  1  0.85679463  0.32799090  0.08516552  1
  H  H62  1  0.88826673  0.89916961  0.73822450  1
  H  H63  1  0.52566083  0.60083039  0.76177550  1
  H  H64  1  0.11173327  0.10083039  0.26177550  1
  H  H65  1  0.47433917  0.39916961  0.23822450  1
  H  H66  1  0.80764964  0.10571922  0.72881550  1
  H  H67  1  0.64218435  0.39428078  0.77118450  1
  H  H68  1  0.19235036  0.89428078  0.27118450  1
  H  H69  1  0.35781565  0.60571922  0.22881550  1
  H  H70  1  0.67437765  0.02178027  0.74013318  1
  H  H71  1  0.43629110  0.47821973  0.75986682  1
  H  H72  1  0.32562235  0.97821973  0.25986682  1
  H  H73  1  0.56370890  0.52178027  0.24013318  1
  H  H74  1  0.63386111  0.17758687  0.56483943  1
  H  H75  1  0.37628740  0.32241313  0.93516057  1
  H  H76  1  0.36613889  0.82241313  0.43516057  1
  H  H77  1  0.62371260  0.67758687  0.06483943  1
  H  H78  1  0.52326986  0.18703699  0.63790055  1
  H  H79  1  0.34820741  0.31296301  0.86209945  1
  H  H80  1  0.47673014  0.81296301  0.36209945  1
  H  H81  1  0.65179259  0.68703699  0.13790055  1
  H  H82  1  0.64937615  0.28024944  0.62040242  1
  H  H83  1  0.55002802  0.21975056  0.87959758  1
  H  H84  1  0.35062385  0.71975056  0.37959758  1
  H  H85  1  0.44997198  0.78024944  0.12040242  1
  H  H86  1  0.11863066  0.98479684  0.72233346  1
  H  H87  1  0.82576096  0.51520316  0.77766654  1
  H  H88  1  0.88136934  0.01520316  0.27766654  1
  H  H89  1  0.17423904  0.48479684  0.22233346  1
  H  H90  1  0.31414304  0.88364422  0.67690922  1
  H  H91  1  0.87469649  0.61635578  0.82309078  1
  H  H92  1  0.68585696  0.11635578  0.32309078  1
  H  H93  1  0.12530351  0.38364422  0.17690922  1
  H  H94  1  0.23650630  0.08220129  0.69399160  1
  H  H95  1  0.01269919  0.41779871  0.80600840  1
  H  H96  1  0.76349370  0.91779871  0.30600840  1
  H  H97  1  0.98730081  0.58220129  0.19399160  1
  H  H98  1  0.84287017  0.29280360  0.67098287  1
  H  H99  1  0.80665664  0.20719640  0.82901713  1
  H  H100  1  0.15712983  0.70719640  0.32901713  1
  H  H101  1  0.19334336  0.79280360  0.17098287  1
  H  H102  1  0.00637765  0.33809234  0.64729153  1
  H  H103  1  0.99176151  0.16190766  0.85270847  1
  H  H104  1  0.99362235  0.66190766  0.35270847  1
  H  H105  1  0.00823849  0.83809234  0.14729153  1
  H  H106  1  0.88423294  0.35079310  0.59569458  1
  H  H107  1  0.83072061  0.14920690  0.90430542  1
  H  H108  1  0.11576706  0.64920690  0.40430542  1
  H  H109  1  0.16927939  0.85079310  0.09569458  1
  H  H110  1  0.36181596  0.98368589  0.53928826  1
  H  H111  1  0.88479011  0.51631411  0.96071174  1
  H  H112  1  0.63818404  0.01631411  0.46071174  1
  H  H113  1  0.11520989  0.48368589  0.03928826  1
  H  H114  1  0.20090695  0.16280063  0.51595630  1
  H  H115  1  0.87966388  0.33719937  0.98404370  1
  H  H116  1  0.79909305  0.83719937  0.48404370  1
  H  H117  1  0.12033612  0.66280063  0.01595630  1
  H  H118  1  0.30468008  0.16344428  0.57174488  1
  H  H119  1  0.03986924  0.33655572  0.92825512  1
  H  H120  1  0.69531992  0.83655572  0.42825512  1
  H  H121  1  0.96013076  0.66344428  0.07174488  1
  C  C122  1  0.02044240  0.94925359  0.58897426  1
  C  C123  1  0.55867025  0.55074641  0.91102574  1
  C  C124  1  0.97955760  0.05074641  0.41102574  1
  C  C125  1  0.44132975  0.44925359  0.08897426  1
  C  C126  1  0.39690654  0.68473533  0.57175251  1
  C  C127  1  0.65339439  0.81526467  0.92824749  1
  C  C128  1  0.60309346  0.31526467  0.42824749  1
  C  C129  1  0.34660561  0.18473533  0.07175251  1
  C  C130  1  0.14539663  0.61720874  0.54063843  1
  C  C131  1  0.30324379  0.88279126  0.95936157  1
  C  C132  1  0.85460337  0.38279126  0.45936157  1
  C  C133  1  0.69675621  0.11720874  0.04063843  1
  C  C134  1  0.16382518  0.63099564  0.66904443  1
  C  C135  1  0.46386526  0.86900436  0.83095557  1
  C  C136  1  0.83617482  0.36900436  0.33095557  1
  C  C137  1  0.53613474  0.13099564  0.16904443  1
  C  C138  1  0.74773429  0.83530079  0.63027053  1
  C  C139  1  0.21330561  0.66469921  0.86972947  1
  C  C140  1  0.25226571  0.16469921  0.36972947  1
  C  C141  1  0.78669439  0.33530079  0.13027053  1
  C  C142  1  0.79668167  0.00493204  0.71822300  1
  C  C143  1  0.51983670  0.49506796  0.78177700  1
  C  C144  1  0.20331833  0.99506796  0.28177700  1
  C  C145  1  0.48016330  0.50493204  0.21822300  1
  C  C146  1  0.63994807  0.17683314  0.61215914  1
  C  C147  1  0.42894035  0.32316686  0.88784086  1
  C  C148  1  0.36005193  0.82316686  0.38784086  1
  C  C149  1  0.57105965  0.67683314  0.11215914  1
  C  C150  1  0.20182476  0.99652510  0.68331298  1
  C  C151  1  0.88166283  0.50347490  0.81668702  1
  C  C152  1  0.79817524  0.00347490  0.31668702  1
  C  C153  1  0.11833717  0.49652510  0.18331298  1
  C  C154  1  0.94116931  0.28233103  0.63385588  1
  C  C155  1  0.85735621  0.21766897  0.86614412  1
  C  C156  1  0.05883069  0.71766897  0.36614412  1
  C  C157  1  0.14264379  0.78233103  0.13385588  1
  C  C158  1  0.25718283  0.09619295  0.55454290  1
  C  C159  1  0.90791868  0.40380705  0.94545710  1
  C  C160  1  0.74281717  0.90380705  0.44545710  1
  C  C161  1  0.09208132  0.59619295  0.05454290  1
