# generated using pymatgen
data_HoAl3(H3C)12
_symmetry_space_group_name_H-M   'P 1'
_cell_length_a   10.24034011
_cell_length_b   10.24034011
_cell_length_c   13.26206507
_cell_angle_alpha   96.47670033
_cell_angle_beta   96.47670033
_cell_angle_gamma   108.99754302
_symmetry_Int_Tables_number   1
_chemical_formula_structural   HoAl3(H3C)12
_chemical_formula_sum   'Ho2 Al6 H72 C24'
_cell_volume   1289.92674703
_cell_formula_units_Z   2
loop_
 _symmetry_equiv_pos_site_id
 _symmetry_equiv_pos_as_xyz
  1  'x, y, z'
loop_
 _atom_site_type_symbol
 _atom_site_label
 _atom_site_symmetry_multiplicity
 _atom_site_fract_x
 _atom_site_fract_y
 _atom_site_fract_z
 _atom_site_occupancy
  Ho  Ho0  1  0.72944702  0.27055298  0.25000000  1
  Ho  Ho1  1  0.27055298  0.72944702  0.75000000  1
  Al  Al2  1  0.54362676  0.45637324  0.25000000  1
  Al  Al3  1  0.45637324  0.54362676  0.75000000  1
  Al  Al4  1  0.86306018  0.22146084  0.05572813  1
  Al  Al5  1  0.77853916  0.13693982  0.44427187  1
  Al  Al6  1  0.13693982  0.77853916  0.94427187  1
  Al  Al7  1  0.22146084  0.86306018  0.55572813  1
  H  H8  1  0.61930625  0.03593839  0.11078410  1
  H  H9  1  0.96406161  0.38069375  0.38921590  1
  H  H10  1  0.38069375  0.96406161  0.88921590  1
  H  H11  1  0.03593839  0.61930625  0.61078410  1
  H  H12  1  0.72932474  0.43632047  0.41821630  1
  H  H13  1  0.56367953  0.27067526  0.08178370  1
  H  H14  1  0.27067526  0.56367953  0.58178370  1
  H  H15  1  0.43632047  0.72932474  0.91821630  1
  H  H16  1  0.75291474  0.99012993  0.06655071  1
  H  H17  1  0.00987007  0.24708526  0.43344929  1
  H  H18  1  0.24708526  0.00987007  0.93344929  1
  H  H19  1  0.99012993  0.75291474  0.56655071  1
  H  H20  1  0.83515998  0.53567995  0.33483481  1
  H  H21  1  0.46432005  0.16484002  0.16516519  1
  H  H22  1  0.16484002  0.46432005  0.66516519  1
  H  H23  1  0.53567995  0.83515998  0.83483481  1
  H  H24  1  0.94916121  0.46097031  0.08043992  1
  H  H25  1  0.53902969  0.05083879  0.41956008  1
  H  H26  1  0.05083879  0.53902969  0.91956008  1
  H  H27  1  0.46097031  0.94916121  0.58043992  1
  H  H28  1  0.64711535  0.17942191  0.91208432  1
  H  H29  1  0.82057809  0.35288465  0.58791568  1
  H  H30  1  0.35288465  0.82057809  0.08791568  1
  H  H31  1  0.17942191  0.64711535  0.41208432  1
  H  H32  1  0.76530888  0.03244372  0.19806940  1
  H  H33  1  0.96755628  0.23469112  0.30193060  1
  H  H34  1  0.23469112  0.96755628  0.80193060  1
  H  H35  1  0.03244372  0.76530888  0.69806940  1
  H  H36  1  0.71002487  0.58896823  0.38570153  1
  H  H37  1  0.41103177  0.28997513  0.11429847  1
  H  H38  1  0.28997513  0.41103177  0.61429847  1
  H  H39  1  0.58896823  0.71002487  0.88570153  1
  H  H40  1  0.80481752  0.46534167  0.13519736  1
  H  H41  1  0.53465833  0.19518248  0.36480264  1
  H  H42  1  0.19518248  0.53465833  0.86480264  1
  H  H43  1  0.46534167  0.80481752  0.63519736  1
  H  H44  1  0.08787227  0.17224565  0.13099210  1
  H  H45  1  0.82775435  0.91212773  0.36900790  1
  H  H46  1  0.91212773  0.82775435  0.86900790  1
  H  H47  1  0.17224565  0.08787227  0.63099210  1
  H  H48  1  0.96028595  0.46192361  0.21081081  1
  H  H49  1  0.53807639  0.03971405  0.28918919  1
  H  H50  1  0.03971405  0.53807639  0.78918919  1
  H  H51  1  0.46192361  0.96028595  0.71081081  1
  H  H52  1  0.80420877  0.28126877  0.87380960  1
  H  H53  1  0.71873123  0.19579123  0.62619040  1
  H  H54  1  0.19579123  0.71873123  0.12619040  1
  H  H55  1  0.28126877  0.80420877  0.37380960  1
  H  H56  1  0.76600670  0.09949773  0.87029152  1
  H  H57  1  0.90050227  0.23399330  0.62970848  1
  H  H58  1  0.23399330  0.90050227  0.12970848  1
  H  H59  1  0.09949773  0.76600670  0.37029152  1
  H  H60  1  0.41743949  0.51130489  0.39705067  1
  H  H61  1  0.48869511  0.58256051  0.10294933  1
  H  H62  1  0.58256051  0.48869511  0.60294933  1
  H  H63  1  0.51130489  0.41743949  0.89705067  1
  H  H64  1  0.29380074  0.42977628  0.28434955  1
  H  H65  1  0.57022372  0.70619926  0.21565045  1
  H  H66  1  0.70619926  0.57022372  0.71565045  1
  H  H67  1  0.42977628  0.29380074  0.78434955  1
  H  H68  1  0.35941226  0.32653598  0.36080968  1
  H  H69  1  0.67346402  0.64058774  0.13919032  1
  H  H70  1  0.64058774  0.67346402  0.63919032  1
  H  H71  1  0.32653598  0.35941226  0.86080968  1
  H  H72  1  0.06530500  0.15248024  0.99445496  1
  H  H73  1  0.84751976  0.93469500  0.50554504  1
  H  H74  1  0.93469500  0.84751976  0.00554504  1
  H  H75  1  0.15248024  0.06530500  0.49445496  1
  H  H76  1  0.13284804  0.32211314  0.06944419  1
  H  H77  1  0.67788686  0.86715196  0.43055581  1
  H  H78  1  0.86715196  0.67788686  0.93055581  1
  H  H79  1  0.32211314  0.13284804  0.56944419  1
  C  C80  1  0.72746017  0.49317332  0.35240256  1
  C  C81  1  0.50682668  0.27253983  0.14759744  1
  C  C82  1  0.27253983  0.50682668  0.64759744  1
  C  C83  1  0.49317332  0.72746017  0.85240256  1
  C  C84  1  0.38850829  0.42646886  0.33097210  1
  C  C85  1  0.57353114  0.61149171  0.16902790  1
  C  C86  1  0.61149171  0.57353114  0.66902790  1
  C  C87  1  0.42646886  0.38850829  0.83097210  1
  C  C88  1  0.88581775  0.41568958  0.13842493  1
  C  C89  1  0.58431042  0.11418225  0.36157507  1
  C  C90  1  0.11418225  0.58431042  0.86157507  1
  C  C91  1  0.41568958  0.88581775  0.63842493  1
  C  C92  1  0.73466247  0.06534617  0.12510056  1
  C  C93  1  0.93465383  0.26533753  0.37489944  1
  C  C94  1  0.26533753  0.93465383  0.87489944  1
  C  C95  1  0.06534617  0.73466247  0.62510056  1
  C  C96  1  0.75892468  0.19365676  0.91519251  1
  C  C97  1  0.80634324  0.24107532  0.58480749  1
  C  C98  1  0.24107532  0.80634324  0.08480749  1
  C  C99  1  0.19365676  0.75892468  0.41519251  1
  C  C100  1  0.05608162  0.21621233  0.06444118  1
  C  C101  1  0.78378767  0.94391838  0.43555882  1
  C  C102  1  0.94391838  0.78378767  0.93555882  1
  C  C103  1  0.21621233  0.05608162  0.56444118  1
