# generated using pymatgen
data_AlH10C4NCl2
_symmetry_space_group_name_H-M   'P 1'
_cell_length_a   10.90351916
_cell_length_b   12.71640126
_cell_length_c   13.93444183
_cell_angle_alpha   90.00000000
_cell_angle_beta   90.00000000
_cell_angle_gamma   90.00000000
_symmetry_Int_Tables_number   1
_chemical_formula_structural   AlH10C4NCl2
_chemical_formula_sum   'Al8 H80 C32 N8 Cl16'
_cell_volume   1932.05947564
_cell_formula_units_Z   8
loop_
 _symmetry_equiv_pos_site_id
 _symmetry_equiv_pos_as_xyz
  1  'x, y, z'
loop_
 _atom_site_type_symbol
 _atom_site_label
 _atom_site_symmetry_multiplicity
 _atom_site_fract_x
 _atom_site_fract_y
 _atom_site_fract_z
 _atom_site_occupancy
  Al  Al0  1  0.75000000  0.67625259  0.34657795  1
  Al  Al1  1  0.75000000  0.82374741  0.84657795  1
  Al  Al2  1  0.25000000  0.32374741  0.65342205  1
  Al  Al3  1  0.25000000  0.17625259  0.15342205  1
  Al  Al4  1  0.75000000  0.49264516  0.24179740  1
  Al  Al5  1  0.75000000  0.00735484  0.74179740  1
  Al  Al6  1  0.25000000  0.50735484  0.75820260  1
  Al  Al7  1  0.25000000  0.99264516  0.25820260  1
  H  H8  1  0.64977961  0.67660536  0.14691367  1
  H  H9  1  0.85022039  0.82339464  0.64691367  1
  H  H10  1  0.14977961  0.32339464  0.85308633  1
  H  H11  1  0.35022039  0.17660536  0.35308633  1
  H  H12  1  0.35022039  0.32339464  0.85308633  1
  H  H13  1  0.14977961  0.17660536  0.35308633  1
  H  H14  1  0.85022039  0.67660536  0.14691367  1
  H  H15  1  0.64977961  0.82339464  0.64691367  1
  H  H16  1  0.53457106  0.73001932  0.22080932  1
  H  H17  1  0.96542894  0.76998068  0.72080932  1
  H  H18  1  0.03457106  0.26998068  0.77919068  1
  H  H19  1  0.46542894  0.23001932  0.27919068  1
  H  H20  1  0.46542894  0.26998068  0.77919068  1
  H  H21  1  0.03457106  0.23001932  0.27919068  1
  H  H22  1  0.96542894  0.73001932  0.22080932  1
  H  H23  1  0.53457106  0.76998068  0.72080932  1
  H  H24  1  0.45777129  0.64840067  0.07131472  1
  H  H25  1  0.04222871  0.85159933  0.57131472  1
  H  H26  1  0.95777129  0.35159933  0.92868528  1
  H  H27  1  0.54222871  0.14840067  0.42868528  1
  H  H28  1  0.54222871  0.35159933  0.92868528  1
  H  H29  1  0.95777129  0.14840067  0.42868528  1
  H  H30  1  0.04222871  0.64840067  0.07131472  1
  H  H31  1  0.45777129  0.85159933  0.57131472  1
  H  H32  1  0.38773116  0.59057375  0.17287924  1
  H  H33  1  0.11226884  0.90942625  0.67287924  1
  H  H34  1  0.88773116  0.40942625  0.82712076  1
  H  H35  1  0.61226884  0.09057375  0.32712076  1
  H  H36  1  0.61226884  0.40942625  0.82712076  1
  H  H37  1  0.88773116  0.09057375  0.32712076  1
  H  H38  1  0.11226884  0.59057375  0.17287924  1
  H  H39  1  0.38773116  0.90942625  0.67287924  1
  H  H40  1  0.50503730  0.52200410  0.10946982  1
  H  H41  1  0.99496270  0.97799590  0.60946982  1
  H  H42  1  0.00503730  0.47799590  0.89053018  1
  H  H43  1  0.49496270  0.02200410  0.39053018  1
  H  H44  1  0.49496270  0.47799590  0.89053018  1
  H  H45  1  0.00503730  0.02200410  0.39053018  1
  H  H46  1  0.99496270  0.52200410  0.10946982  1
  H  H47  1  0.50503730  0.97799590  0.60946982  1
  H  H48  1  0.46563387  0.50099733  0.30079813  1
  H  H49  1  0.03436613  0.99900267  0.80079813  1
  H  H50  1  0.96563387  0.49900267  0.69920187  1
  H  H51  1  0.53436613  0.00099733  0.19920187  1
  H  H52  1  0.53436613  0.49900267  0.69920187  1
  H  H53  1  0.96563387  0.00099733  0.19920187  1
  H  H54  1  0.03436613  0.50099733  0.30079813  1
  H  H55  1  0.46563387  0.99900267  0.80079813  1
  H  H56  1  0.56447125  0.51046134  0.40080043  1
  H  H57  1  0.93552875  0.98953866  0.90080043  1
  H  H58  1  0.06447125  0.48953866  0.59919957  1
  H  H59  1  0.43552875  0.01046134  0.09919957  1
  H  H60  1  0.43552875  0.48953866  0.59919957  1
  H  H61  1  0.06447125  0.01046134  0.09919957  1
  H  H62  1  0.93552875  0.51046134  0.40080043  1
  H  H63  1  0.56447125  0.98953866  0.90080043  1
  H  H64  1  0.38826619  0.68453167  0.33102357  1
  H  H65  1  0.11173381  0.81546833  0.83102357  1
  H  H66  1  0.88826619  0.31546833  0.66897643  1
  H  H67  1  0.61173381  0.18453167  0.16897643  1
  H  H68  1  0.61173381  0.31546833  0.66897643  1
  H  H69  1  0.88826619  0.18453167  0.16897643  1
  H  H70  1  0.11173381  0.68453167  0.33102357  1
  H  H71  1  0.38826619  0.81546833  0.83102357  1
  H  H72  1  0.37452322  0.60267477  0.43332142  1
  H  H73  1  0.12547678  0.89732523  0.93332142  1
  H  H74  1  0.87452322  0.39732523  0.56667858  1
  H  H75  1  0.62547678  0.10267477  0.06667858  1
  H  H76  1  0.62547678  0.39732523  0.56667858  1
  H  H77  1  0.87452322  0.10267477  0.06667858  1
  H  H78  1  0.12547678  0.60267477  0.43332142  1
  H  H79  1  0.37452322  0.89732523  0.93332142  1
  H  H80  1  0.49218919  0.69859054  0.42849655  1
  H  H81  1  0.00781081  0.80140946  0.92849655  1
  H  H82  1  0.99218919  0.30140946  0.57150345  1
  H  H83  1  0.50781081  0.19859054  0.07150345  1
  H  H84  1  0.50781081  0.30140946  0.57150345  1
  H  H85  1  0.99218919  0.19859054  0.07150345  1
  H  H86  1  0.00781081  0.69859054  0.42849655  1
  H  H87  1  0.49218919  0.80140946  0.92849655  1
  C  C88  1  0.57271543  0.65572599  0.19424903  1
  C  C89  1  0.92728457  0.84427401  0.69424903  1
  C  C90  1  0.07271543  0.34427401  0.80575097  1
  C  C91  1  0.42728457  0.15572599  0.30575097  1
  C  C92  1  0.42728457  0.34427401  0.80575097  1
  C  C93  1  0.07271543  0.15572599  0.30575097  1
  C  C94  1  0.92728457  0.65572599  0.19424903  1
  C  C95  1  0.57271543  0.84427401  0.69424903  1
  C  C96  1  0.47521026  0.59961403  0.13467072  1
  C  C97  1  0.02478974  0.90038597  0.63467072  1
  C  C98  1  0.97521026  0.40038597  0.86532928  1
  C  C99  1  0.52478974  0.09961403  0.36532928  1
  C  C100  1  0.52478974  0.40038597  0.86532928  1
  C  C101  1  0.97521026  0.09961403  0.36532928  1
  C  C102  1  0.02478974  0.59961403  0.13467072  1
  C  C103  1  0.47521026  0.90038597  0.63467072  1
  C  C104  1  0.52238197  0.55594932  0.34249144  1
  C  C105  1  0.97761803  0.94405068  0.84249144  1
  C  C106  1  0.02238197  0.44405068  0.65750856  1
  C  C107  1  0.47761803  0.05594932  0.15750856  1
  C  C108  1  0.47761803  0.44405068  0.65750856  1
  C  C109  1  0.02238197  0.05594932  0.15750856  1
  C  C110  1  0.97761803  0.55594932  0.34249144  1
  C  C111  1  0.52238197  0.94405068  0.84249144  1
  C  C112  1  0.44043115  0.64100770  0.38540090  1
  C  C113  1  0.05956885  0.85899230  0.88540090  1
  C  C114  1  0.94043115  0.35899230  0.61459910  1
  C  C115  1  0.55956885  0.14100770  0.11459910  1
  C  C116  1  0.55956885  0.35899230  0.61459910  1
  C  C117  1  0.94043115  0.14100770  0.11459910  1
  C  C118  1  0.05956885  0.64100770  0.38540090  1
  C  C119  1  0.44043115  0.85899230  0.88540090  1
  N  N120  1  0.62354733  0.59523796  0.27889683  1
  N  N121  1  0.87645267  0.90476204  0.77889683  1
  N  N122  1  0.12354733  0.40476204  0.72110317  1
  N  N123  1  0.37645267  0.09523796  0.22110317  1
  N  N124  1  0.37645267  0.40476204  0.72110317  1
  N  N125  1  0.12354733  0.09523796  0.22110317  1
  N  N126  1  0.87645267  0.59523796  0.27889683  1
  N  N127  1  0.62354733  0.90476204  0.77889683  1
  Cl  Cl128  1  0.75000000  0.35739498  0.33314025  1
  Cl  Cl129  1  0.75000000  0.14260502  0.83314025  1
  Cl  Cl130  1  0.25000000  0.64260502  0.66685975  1
  Cl  Cl131  1  0.25000000  0.85739498  0.16685975  1
  Cl  Cl132  1  0.75000000  0.44801072  0.09458256  1
  Cl  Cl133  1  0.75000000  0.05198928  0.59458256  1
  Cl  Cl134  1  0.25000000  0.55198928  0.90541744  1
  Cl  Cl135  1  0.25000000  0.94801072  0.40541744  1
  Cl  Cl136  1  0.75000000  0.63549164  0.49596215  1
  Cl  Cl137  1  0.75000000  0.86450836  0.99596215  1
  Cl  Cl138  1  0.25000000  0.36450836  0.50403785  1
  Cl  Cl139  1  0.25000000  0.13549164  0.00403785  1
  Cl  Cl140  1  0.75000000  0.84154378  0.32196846  1
  Cl  Cl141  1  0.75000000  0.65845622  0.82196846  1
  Cl  Cl142  1  0.25000000  0.15845622  0.67803154  1
  Cl  Cl143  1  0.25000000  0.34154378  0.17803154  1
