# generated using pymatgen
data_Np3SeO13
_symmetry_space_group_name_H-M   'P 1'
_cell_length_a   6.65988742
_cell_length_b   11.71901868
_cell_length_c   15.96661526
_cell_angle_alpha   90.00000000
_cell_angle_beta   90.00000000
_cell_angle_gamma   107.91447547
_symmetry_Int_Tables_number   1
_chemical_formula_structural   Np3SeO13
_chemical_formula_sum   'Np12 Se4 O52'
_cell_volume   1185.73439909
_cell_formula_units_Z   4
loop_
 _symmetry_equiv_pos_site_id
 _symmetry_equiv_pos_as_xyz
  1  'x, y, z'
loop_
 _atom_site_type_symbol
 _atom_site_label
 _atom_site_symmetry_multiplicity
 _atom_site_fract_x
 _atom_site_fract_y
 _atom_site_fract_z
 _atom_site_occupancy
  Np  Np0  1  0.01075051  0.25106824  0.31930500  1
  Np  Np1  1  0.98924949  0.24893176  0.81930500  1
  Np  Np2  1  0.98924949  0.74893176  0.68069500  1
  Np  Np3  1  0.01075051  0.75106824  0.18069500  1
  Np  Np4  1  0.83094476  0.22244784  0.56428683  1
  Np  Np5  1  0.16905524  0.27755216  0.06428683  1
  Np  Np6  1  0.16905524  0.77755216  0.43571317  1
  Np  Np7  1  0.83094476  0.72244784  0.93571317  1
  Np  Np8  1  0.72195512  0.44802922  0.13148564  1
  Np  Np9  1  0.27804488  0.05197078  0.63148564  1
  Np  Np10  1  0.27804488  0.55197078  0.86851436  1
  Np  Np11  1  0.72195512  0.94802922  0.36851436  1
  Se  Se12  1  0.71789227  0.45228478  0.78969468  1
  Se  Se13  1  0.28210773  0.04771522  0.28969468  1
  Se  Se14  1  0.28210773  0.54771522  0.21030532  1
  Se  Se15  1  0.71789227  0.95228478  0.71030532  1
  O  O16  1  0.95013339  0.38620317  0.56468996  1
  O  O17  1  0.04986661  0.11379683  0.06468996  1
  O  O18  1  0.04986661  0.61379683  0.43531004  1
  O  O19  1  0.95013339  0.88620317  0.93531004  1
  O  O20  1  0.92647900  0.43800842  0.85508714  1
  O  O21  1  0.07352100  0.06199158  0.35508714  1
  O  O22  1  0.07352100  0.56199158  0.14491286  1
  O  O23  1  0.92647900  0.93800842  0.64491286  1
  O  O24  1  0.92792074  0.32702177  0.06618013  1
  O  O25  1  0.07207926  0.17297823  0.56618013  1
  O  O26  1  0.07207926  0.67297823  0.93381987  1
  O  O27  1  0.92792074  0.82702177  0.43381987  1
  O  O28  1  0.88409277  0.26654790  0.71110061  1
  O  O29  1  0.11590723  0.23345210  0.21110061  1
  O  O30  1  0.11590723  0.73345210  0.28889939  1
  O  O31  1  0.88409277  0.76654790  0.78889939  1
  O  O32  1  0.87927907  0.77402364  0.08040160  1
  O  O33  1  0.12072093  0.72597636  0.58040160  1
  O  O34  1  0.12072093  0.22597636  0.91959840  1
  O  O35  1  0.87927907  0.27402364  0.41959840  1
  O  O36  1  0.85501487  0.03857499  0.78635738  1
  O  O37  1  0.14498513  0.46142501  0.28635738  1
  O  O38  1  0.14498513  0.96142501  0.21364262  1
  O  O39  1  0.85501487  0.53857499  0.71364262  1
  O  O40  1  0.72649645  0.35754060  0.22241172  1
  O  O41  1  0.27350355  0.14245940  0.72241172  1
  O  O42  1  0.27350355  0.64245940  0.77758828  1
  O  O43  1  0.72649645  0.85754060  0.27758828  1
  O  O44  1  0.72509703  0.19719264  0.86753041  1
  O  O45  1  0.27490297  0.30280736  0.36753041  1
  O  O46  1  0.27490297  0.80280736  0.13246959  1
  O  O47  1  0.72509703  0.69719264  0.63246959  1
  O  O48  1  0.64037394  0.05381491  0.64297047  1
  O  O49  1  0.35962606  0.44618509  0.14297047  1
  O  O50  1  0.35962606  0.94618509  0.35702953  1
  O  O51  1  0.64037394  0.55381491  0.85702953  1
  O  O52  1  0.55138735  0.22393050  0.56402134  1
  O  O53  1  0.44861265  0.27606950  0.06402134  1
  O  O54  1  0.44861265  0.77606950  0.43597866  1
  O  O55  1  0.55138735  0.72393050  0.93597866  1
  O  O56  1  0.27490594  0.46599305  0.96386113  1
  O  O57  1  0.72509406  0.03400695  0.46386113  1
  O  O58  1  0.72509406  0.53400695  0.03613887  1
  O  O59  1  0.27490594  0.96599305  0.53613887  1
  O  O60  1  0.25957051  0.38964347  0.79724283  1
  O  O61  1  0.74042949  0.11035653  0.29724283  1
  O  O62  1  0.74042949  0.61035653  0.20275717  1
  O  O63  1  0.25957051  0.88964347  0.70275717  1
  O  O64  1  0.41329741  0.45379058  0.60104469  1
  O  O65  1  0.58670259  0.04620942  0.10104469  1
  O  O66  1  0.58670259  0.54620942  0.39895531  1
  O  O67  1  0.41329741  0.95379058  0.89895531  1
