# generated using pymatgen
data_CoH7C3NO6
_symmetry_space_group_name_H-M   'P 1'
_cell_length_a   8.25851521
_cell_length_b   12.83546228
_cell_length_c   12.82736438
_cell_angle_alpha   119.99478729
_cell_angle_beta   90.00000000
_cell_angle_gamma   90.00000000
_symmetry_Int_Tables_number   1
_chemical_formula_structural   CoH7C3NO6
_chemical_formula_sum   'Co6 H42 C18 N6 O36'
_cell_volume   1177.61779827
_cell_formula_units_Z   6
loop_
 _symmetry_equiv_pos_site_id
 _symmetry_equiv_pos_as_xyz
  1  'x, y, z'
loop_
 _atom_site_type_symbol
 _atom_site_label
 _atom_site_symmetry_multiplicity
 _atom_site_fract_x
 _atom_site_fract_y
 _atom_site_fract_z
 _atom_site_occupancy
  Co  Co0  1  0.91246141  0.99762255  0.33222234  1
  Co  Co1  1  0.91246510  0.66774988  0.66540667  1
  Co  Co2  1  0.91257117  0.33458735  0.00243472  1
  Co  Co3  1  0.41246141  0.00237745  0.66777766  1
  Co  Co4  1  0.41246510  0.33225012  0.33459333  1
  Co  Co5  1  0.41257117  0.66541265  0.99756528  1
  H  H6  1  0.17232947  0.86781339  0.14173207  1
  H  H7  1  0.17198498  0.85832810  0.72601572  1
  H  H8  1  0.17224939  0.27413836  0.13233241  1
  H  H9  1  0.67232947  0.13218661  0.85826793  1
  H  H10  1  0.67198498  0.14167190  0.27398428  1
  H  H11  1  0.67224939  0.72586164  0.86766759  1
  H  H12  1  0.19129645  0.94340434  0.45461976  1
  H  H13  1  0.19151417  0.54541582  0.48883439  1
  H  H14  1  0.19145195  0.51132423  0.05663587  1
  H  H15  1  0.69129645  0.05659566  0.54538024  1
  H  H16  1  0.69151417  0.45458418  0.51116561  1
  H  H17  1  0.69145195  0.48867577  0.94336413  1
  H  H18  1  0.13248781  0.21240239  0.38895815  1
  H  H19  1  0.13185098  0.61109846  0.82383375  1
  H  H20  1  0.13222840  0.17630082  0.78744747  1
  H  H21  1  0.63248781  0.78759761  0.61104185  1
  H  H22  1  0.63185098  0.38890154  0.17616625  1
  H  H23  1  0.63222840  0.82369918  0.21255253  1
  H  H24  1  0.00642980  0.72906326  0.30835948  1
  H  H25  1  0.00642335  0.69172578  0.42063072  1
  H  H26  1  0.00663311  0.57953024  0.27107486  1
  H  H27  1  0.50642980  0.27093674  0.69164052  1
  H  H28  1  0.50642335  0.30827422  0.57936928  1
  H  H29  1  0.50663311  0.42046976  0.72892514  1
  H  H30  1  0.84305767  0.66664047  0.33324020  1
  H  H31  1  0.34305767  0.33335953  0.66675980  1
  H  H32  1  0.00604271  0.24600905  0.60434699  1
  H  H33  1  0.00614592  0.39561685  0.64168785  1
  H  H34  1  0.00611743  0.35823385  0.75400007  1
  H  H35  1  0.50604271  0.75399095  0.39565301  1
  H  H36  1  0.50614592  0.60438315  0.35831215  1
  H  H37  1  0.50611743  0.64176615  0.24599993  1
  H  H38  1  0.84260168  0.33337311  0.66672575  1
  H  H39  1  0.34260168  0.66662689  0.33327425  1
  H  H40  1  0.32746119  0.06115553  0.08770069  1
  H  H41  1  0.32742008  0.91239103  0.97361294  1
  H  H42  1  0.32736169  0.02642572  0.93880608  1
  H  H43  1  0.82746119  0.93884447  0.91229931  1
  H  H44  1  0.82742008  0.08760897  0.02638706  1
  H  H45  1  0.82736169  0.97357428  0.06119392  1
  H  H46  1  0.49078823  0.99989096  0.99991049  1
  H  H47  1  0.99078823  0.00010904  0.00008951  1
  C  C48  1  0.16568743  0.81162577  0.18441351  1
  C  C49  1  0.16556884  0.81560620  0.62711419  1
  C  C50  1  0.16582534  0.37300234  0.18854531  1
  C  C51  1  0.66568743  0.18837423  0.81558649  1
  C  C52  1  0.66556884  0.18439380  0.37288581  1
  C  C53  1  0.66582534  0.62699766  0.81145469  1
  C  C54  1  0.17343981  0.04078950  0.51557075  1
  C  C55  1  0.17346175  0.48438965  0.52520885  1
  C  C56  1  0.17355320  0.47478244  0.95918645  1
  C  C57  1  0.67343981  0.95921050  0.48442925  1
  C  C58  1  0.67346175  0.51561035  0.47479115  1
  C  C59  1  0.67355320  0.52521756  0.04081355  1
  C  C60  1  0.15184617  0.14885691  0.29217484  1
  C  C61  1  0.15169145  0.70769726  0.85675768  1
  C  C62  1  0.15189669  0.14325459  0.85111812  1
  C  C63  1  0.65184617  0.85114309  0.70782516  1
  C  C64  1  0.65169145  0.29230274  0.14324232  1
  C  C65  1  0.65189669  0.85674541  0.14888188  1
  N  N66  1  0.96701727  0.66674770  0.33331723  1
  N  N67  1  0.46701727  0.33325230  0.66668277  1
  N  N68  1  0.96666037  0.33330316  0.66667536  1
  N  N69  1  0.46666037  0.66669684  0.33332464  1
  N  N70  1  0.36685891  0.99997310  0.00001782  1
  N  N71  1  0.86685891  0.00002690  -0.00001782  1
  O  O72  1  0.05622360  0.83812394  0.26422331  1
  O  O73  1  0.05635171  0.73565725  0.57380436  1
  O  O74  1  0.05651005  0.42633557  0.16199769  1
  O  O75  1  0.55622360  0.16187606  0.73577669  1
  O  O76  1  0.55635171  0.26434275  0.42619564  1
  O  O77  1  0.55651005  0.57366443  0.83800231  1
  O  O78  1  0.26558054  0.72611682  0.15280258  1
  O  O79  1  0.26536158  0.84736743  0.57325897  1
  O  O80  1  0.26586239  0.42681091  0.27399033  1
  O  O81  1  0.76558054  0.27388318  0.84719742  1
  O  O82  1  0.76536158  0.15263257  0.42674103  1
  O  O83  1  0.76586239  0.57318909  0.72600967  1
  O  O84  1  0.05765135  0.09153735  0.49169323  1
  O  O85  1  0.05752841  0.50823968  0.59973198  1
  O  O86  1  0.05774637  0.40017241  0.90856928  1
  O  O87  1  0.55765135  0.90846265  0.50830677  1
  O  O88  1  0.55752841  0.49176032  0.40026802  1
  O  O89  1  0.55774637  0.59982759  0.09143072  1
  O  O90  1  0.26740646  0.09549516  0.60496900  1
  O  O91  1  0.26724583  0.39494315  0.49054083  1
  O  O92  1  0.26746377  0.50936114  0.90435700  1
  O  O93  1  0.76740646  0.90450484  0.39503100  1
  O  O94  1  0.76724583  0.60505685  0.50945917  1
  O  O95  1  0.76746377  0.49063886  0.09564300  1
  O  O96  1  0.05833538  0.05905649  0.23833242  1
  O  O97  1  0.05825608  0.76160638  0.82072449  1
  O  O98  1  0.05833617  0.17920413  0.94099622  1
  O  O99  1  0.55833538  0.94094351  0.76166758  1
  O  O100  1  0.55825608  0.23839362  0.17927551  1
  O  O101  1  0.55833617  0.82079587  0.05900378  1
  O  O102  1  0.26885648  0.17134646  0.24139475  1
  O  O103  1  0.26895994  0.75832250  0.92976733  1
  O  O104  1  0.26904253  0.07019613  0.82875325  1
  O  O105  1  0.76885648  0.82865354  0.75860525  1
  O  O106  1  0.76895994  0.24167750  0.07023267  1
  O  O107  1  0.76904253  0.92980387  0.17124675  1
