# generated using pymatgen
data_Ca2AlBiO5
_symmetry_space_group_name_H-M   'P 1'
_cell_length_a   5.65762759
_cell_length_b   6.04238109
_cell_length_c   8.75621393
_cell_angle_alpha   110.21352916
_cell_angle_beta   107.44153779
_cell_angle_gamma   89.95946059
_symmetry_Int_Tables_number   1
_chemical_formula_structural   Ca2AlBiO5
_chemical_formula_sum   'Ca4 Al2 Bi2 O10'
_cell_volume   266.21088595
_cell_formula_units_Z   2
loop_
 _symmetry_equiv_pos_site_id
 _symmetry_equiv_pos_as_xyz
  1  'x, y, z'
loop_
 _atom_site_type_symbol
 _atom_site_label
 _atom_site_symmetry_multiplicity
 _atom_site_fract_x
 _atom_site_fract_y
 _atom_site_fract_z
 _atom_site_occupancy
  Ca  Ca0  1  0.16424814  0.62729134  0.23945144  1
  Ca  Ca1  1  0.41328253  0.88865555  0.71063239  1
  Ca  Ca2  1  0.91930436  0.32819792  0.71084491  1
  Ca  Ca3  1  0.63682933  0.10501289  0.23827325  1
  Al  Al4  1  0.28001262  0.31112307  0.48579330  1
  Al  Al5  1  0.78082460  0.67667180  0.48466170  1
  Bi  Bi6  1  0.52269354  0.49636452  0.00782179  1
  Bi  Bi7  1  0.00826035  0.00621116  0.00886272  1
  O  O8  1  0.58855897  0.44226534  0.50395682  1
  O  O9  1  0.09243278  0.56876516  0.50970997  1
  O  O10  1  0.63510358  0.74722276  0.29811232  1
  O  O11  1  0.29377011  0.23209550  0.66519257  1
  O  O12  1  0.15695938  0.04630811  0.29993565  1
  O  O13  1  0.79386598  0.93783142  0.66410576  1
  O  O14  1  0.11305904  0.60850871  0.96601945  1
  O  O15  1  0.34037896  0.29087752  0.11459517  1
  O  O16  1  0.85050134  0.33050989  0.14145980  1
  O  O17  1  0.60354840  0.85645135  0.96471300  1
