# generated using pymatgen
data_Lu(FeO2)2
_symmetry_space_group_name_H-M   'P 1'
_cell_length_a   6.01222925
_cell_length_b   6.01222925
_cell_length_c   16.90650690
_cell_angle_alpha   93.36067552
_cell_angle_beta   93.36067552
_cell_angle_gamma   119.81650708
_symmetry_Int_Tables_number   1
_chemical_formula_structural   Lu(FeO2)2
_chemical_formula_sum   'Lu6 Fe12 O24'
_cell_volume   526.58292189
_cell_formula_units_Z   6
loop_
 _symmetry_equiv_pos_site_id
 _symmetry_equiv_pos_as_xyz
  1  'x, y, z'
loop_
 _atom_site_type_symbol
 _atom_site_label
 _atom_site_symmetry_multiplicity
 _atom_site_fract_x
 _atom_site_fract_y
 _atom_site_fract_z
 _atom_site_occupancy
  Lu  Lu0  1  0.74517312  0.74517312  0.23919934  1
  Lu  Lu1  1  0.25482688  0.25482688  0.76080066  1
  Lu  Lu2  1  0.08588885  0.41630049  0.25308250  1
  Lu  Lu3  1  0.41630049  0.08588885  0.25308250  1
  Lu  Lu4  1  0.91411115  0.58369951  0.74691750  1
  Lu  Lu5  1  0.58369951  0.91411115  0.74691750  1
  Fe  Fe6  1  0.69070004  0.02606102  0.07085959  1
  Fe  Fe7  1  0.02606102  0.69070004  0.07085959  1
  Fe  Fe8  1  0.30929996  0.97393898  0.92914041  1
  Fe  Fe9  1  0.97393898  0.30929996  0.92914041  1
  Fe  Fe10  1  0.13863385  0.13863385  0.42614649  1
  Fe  Fe11  1  0.86136615  0.86136615  0.57385351  1
  Fe  Fe12  1  0.35432357  0.35432357  0.07058599  1
  Fe  Fe13  1  0.64567643  0.64567643  0.92941401  1
  Fe  Fe14  1  0.47876009  0.80883899  0.42820513  1
  Fe  Fe15  1  0.80883899  0.47876009  0.42820513  1
  Fe  Fe16  1  0.52123991  0.19116101  0.57179487  1
  Fe  Fe17  1  0.19116101  0.52123991  0.57179487  1
  O  O18  1  0.20257795  0.20257795  0.55263538  1
  O  O19  1  0.79742205  0.79742205  0.44736462  1
  O  O20  1  0.38751115  0.38751115  0.19075878  1
  O  O21  1  0.61248885  0.61248885  0.80924122  1
  O  O22  1  0.69460726  0.69460726  0.06519028  1
  O  O23  1  0.30539274  0.30539274  0.93480972  1
  O  O24  1  0.01469355  0.35331425  0.05542006  1
  O  O25  1  0.35331425  0.01469355  0.05542006  1
  O  O26  1  0.98530645  0.64668575  0.94457994  1
  O  O27  1  0.64668575  0.98530645  0.94457994  1
  O  O28  1  0.76986845  0.44658066  0.31094369  1
  O  O29  1  0.44658066  0.76986845  0.31094369  1
  O  O30  1  0.23013155  0.55341934  0.68905631  1
  O  O31  1  0.55341934  0.23013155  0.68905631  1
  O  O32  1  0.09029456  0.09029456  0.30834315  1
  O  O33  1  0.90970544  0.90970544  0.69165685  1
  O  O34  1  0.14469902  0.49676953  0.44024029  1
  O  O35  1  0.49676953  0.14469902  0.44024029  1
  O  O36  1  0.85530098  0.50323047  0.55975971  1
  O  O37  1  0.50323047  0.85530098  0.55975971  1
  O  O38  1  0.07384597  0.72839857  0.18898318  1
  O  O39  1  0.72839857  0.07384597  0.18898318  1
  O  O40  1  0.92615403  0.27160143  0.81101682  1
  O  O41  1  0.27160143  0.92615403  0.81101682  1
