# generated using pymatgen
data_Mn2TeSO8
_symmetry_space_group_name_H-M   'P 1'
_cell_length_a   7.39018175
_cell_length_b   8.60449141
_cell_length_c   9.92692565
_cell_angle_alpha   90.00000000
_cell_angle_beta   90.00000000
_cell_angle_gamma   90.00000000
_symmetry_Int_Tables_number   1
_chemical_formula_structural   Mn2TeSO8
_chemical_formula_sum   'Mn8 Te4 S4 O32'
_cell_volume   631.24084689
_cell_formula_units_Z   4
loop_
 _symmetry_equiv_pos_site_id
 _symmetry_equiv_pos_as_xyz
  1  'x, y, z'
loop_
 _atom_site_type_symbol
 _atom_site_label
 _atom_site_symmetry_multiplicity
 _atom_site_fract_x
 _atom_site_fract_y
 _atom_site_fract_z
 _atom_site_occupancy
  Mn  Mn0  1  0.68092228  0.44998464  0.41285276  1
  Mn  Mn1  1  0.31907772  0.94998464  0.58714724  1
  Mn  Mn2  1  0.68092228  0.55001536  0.08714724  1
  Mn  Mn3  1  0.31907772  0.05001536  0.91285276  1
  Mn  Mn4  1  0.31907772  0.55001536  0.58714724  1
  Mn  Mn5  1  0.68092228  0.05001536  0.41285276  1
  Mn  Mn6  1  0.31907772  0.44998464  0.91285276  1
  Mn  Mn7  1  0.68092228  0.94998464  0.08714724  1
  Te  Te8  1  0.35242390  0.25000000  0.21880971  1
  Te  Te9  1  0.64757610  0.75000000  0.78119029  1
  Te  Te10  1  0.35242390  0.75000000  0.28119029  1
  Te  Te11  1  0.64757610  0.25000000  0.71880971  1
  S  S12  1  0.05431128  0.25000000  0.53091666  1
  S  S13  1  0.94568872  0.75000000  0.46908334  1
  S  S14  1  0.05431128  0.75000000  0.96908334  1
  S  S15  1  0.94568872  0.25000000  0.03091666  1
  O  O16  1  0.87368312  0.25000000  0.45759422  1
  O  O17  1  0.12631688  0.75000000  0.54240578  1
  O  O18  1  0.87368312  0.75000000  0.04240578  1
  O  O19  1  0.12631688  0.25000000  0.95759422  1
  O  O20  1  0.55688361  0.25000000  0.33698480  1
  O  O21  1  0.44311639  0.75000000  0.66301520  1
  O  O22  1  0.55688361  0.75000000  0.16301520  1
  O  O23  1  0.44311639  0.25000000  0.83698480  1
  O  O24  1  0.01865418  0.25000000  0.67436449  1
  O  O25  1  0.98134582  0.75000000  0.32563551  1
  O  O26  1  0.01865418  0.75000000  0.82563551  1
  O  O27  1  0.98134582  0.25000000  0.17436449  1
  O  O28  1  0.77727960  0.50000000  0.25000000  1
  O  O29  1  0.22272040  0.00000000  0.75000000  1
  O  O30  1  0.22272040  0.50000000  0.75000000  1
  O  O31  1  0.77727960  0.00000000  0.25000000  1
  O  O32  1  0.43180369  0.41507356  0.10198118  1
  O  O33  1  0.56819631  0.91507356  0.89801882  1
  O  O34  1  0.43180369  0.58492644  0.39801882  1
  O  O35  1  0.56819631  0.08492644  0.60198118  1
  O  O36  1  0.56819631  0.58492644  0.89801882  1
  O  O37  1  0.43180369  0.08492644  0.10198118  1
  O  O38  1  0.56819631  0.41507356  0.60198118  1
  O  O39  1  0.43180369  0.91507356  0.39801882  1
  O  O40  1  0.84175101  0.61028927  0.51656813  1
  O  O41  1  0.15824899  0.11028927  0.48343187  1
  O  O42  1  0.84175101  0.38971073  0.98343187  1
  O  O43  1  0.15824899  0.88971073  0.01656813  1
  O  O44  1  0.15824899  0.38971073  0.48343187  1
  O  O45  1  0.84175101  0.88971073  0.51656813  1
  O  O46  1  0.15824899  0.61028927  0.01656813  1
  O  O47  1  0.84175101  0.11028927  0.98343187  1
