# generated using pymatgen
data_NdB5IO11
_symmetry_space_group_name_H-M   'P 1'
_cell_length_a   6.53663914
_cell_length_b   9.94896672
_cell_length_c   15.72903944
_cell_angle_alpha   90.00000000
_cell_angle_beta   90.00000000
_cell_angle_gamma   87.78053782
_symmetry_Int_Tables_number   1
_chemical_formula_structural   NdB5IO11
_chemical_formula_sum   'Nd4 B20 I4 O44'
_cell_volume   1022.13619691
_cell_formula_units_Z   4
loop_
 _symmetry_equiv_pos_site_id
 _symmetry_equiv_pos_as_xyz
  1  'x, y, z'
loop_
 _atom_site_type_symbol
 _atom_site_label
 _atom_site_symmetry_multiplicity
 _atom_site_fract_x
 _atom_site_fract_y
 _atom_site_fract_z
 _atom_site_occupancy
  Nd  Nd0  1  0.35526790  0.19909086  0.33049119  1
  Nd  Nd1  1  0.85526790  0.69909086  0.16950881  1
  Nd  Nd2  1  0.64473210  0.80090914  0.66950881  1
  Nd  Nd3  1  0.14473210  0.30090914  0.83049119  1
  B  B4  1  0.30869414  0.13772127  0.54423579  1
  B  B5  1  0.80869414  0.63772127  0.95576421  1
  B  B6  1  0.69130586  0.86227873  0.45576421  1
  B  B7  1  0.19130586  0.36227873  0.04423579  1
  B  B8  1  0.83153439  0.00038961  0.34526976  1
  B  B9  1  0.33153439  0.50038961  0.15473024  1
  B  B10  1  0.16846561  0.99961039  0.65473024  1
  B  B11  1  0.66846561  0.49961039  0.84526976  1
  B  B12  1  0.89404831  0.22323053  0.27884787  1
  B  B13  1  0.39404831  0.72323053  0.22115213  1
  B  B14  1  0.10595169  0.77676947  0.72115213  1
  B  B15  1  0.60595169  0.27676947  0.77884787  1
  B  B16  1  0.63859950  0.37041177  0.21222728  1
  B  B17  1  0.13859950  0.87041177  0.28777272  1
  B  B18  1  0.36140050  0.62958823  0.78777272  1
  B  B19  1  0.86140050  0.12958823  0.71222728  1
  B  B20  1  0.49476144  0.10109586  0.67857875  1
  B  B21  1  0.99476144  0.60109586  0.82142125  1
  B  B22  1  0.50523856  0.89890414  0.32142125  1
  B  B23  1  0.00523856  0.39890414  0.17857875  1
  I  I24  1  0.26054641  0.03934407  0.04688861  1
  I  I25  1  0.76054641  0.53934407  0.45311139  1
  I  I26  1  0.73945359  0.96065593  0.95311139  1
  I  I27  1  0.23945359  0.46065593  0.54688861  1
  O  O28  1  0.69628702  0.24479270  0.24690636  1
  O  O29  1  0.19628702  0.74479270  0.25309364  1
  O  O30  1  0.30371298  0.75520730  0.75309364  1
  O  O31  1  0.80371298  0.25520730  0.74690636  1
  O  O32  1  0.04877807  0.30373914  0.25279572  1
  O  O33  1  0.54877807  0.80373914  0.24720428  1
  O  O34  1  0.95122193  0.69626086  0.74720428  1
  O  O35  1  0.45122193  0.19626086  0.75279572  1
  O  O36  1  0.61899748  0.02004194  0.31544937  1
  O  O37  1  0.11899748  0.52004194  0.18455063  1
  O  O38  1  0.38100252  0.97995806  0.68455063  1
  O  O39  1  0.88100252  0.47995806  0.81544937  1
  O  O40  1  0.94674648  0.12435989  0.33446209  1
  O  O41  1  0.44674648  0.62435989  0.16553791  1
  O  O42  1  0.05325352  0.87564011  0.66553791  1
  O  O43  1  0.55325352  0.37564011  0.83446209  1
  O  O44  1  0.43369589  0.39479762  0.21393492  1
  O  O45  1  0.93369589  0.89479762  0.28606508  1
  O  O46  1  0.56630411  0.60520238  0.78606508  1
  O  O47  1  0.06630411  0.10520238  0.71393492  1
  O  O48  1  0.46172319  0.17477866  0.60068181  1
  O  O49  1  0.96172319  0.67477866  0.89931819  1
  O  O50  1  0.53827681  0.82522134  0.39931819  1
  O  O51  1  0.03827681  0.32522134  0.10068181  1
  O  O52  1  0.28698045  0.95457643  0.31343846  1
  O  O53  1  0.78698045  0.45457643  0.18656154  1
  O  O54  1  0.71301955  0.04542357  0.68656154  1
  O  O55  1  0.21301955  0.54542357  0.81343846  1
  O  O56  1  0.16292052  0.04992446  0.56894206  1
  O  O57  1  0.66292052  0.54992446  0.93105794  1
  O  O58  1  0.83707948  0.95007554  0.43105794  1
  O  O59  1  0.33707948  0.45007554  0.06894206  1
  O  O60  1  0.30313362  0.20149473  0.46659414  1
  O  O61  1  0.80313362  0.70149473  0.03340586  1
  O  O62  1  0.69686638  0.79850527  0.53340586  1
  O  O63  1  0.19686638  0.29850527  0.96659414  1
  O  O64  1  0.15685303  0.51107266  0.43904290  1
  O  O65  1  0.65685303  0.01107266  0.06095710  1
  O  O66  1  0.84314697  0.48892734  0.56095710  1
  O  O67  1  0.34314697  0.98892734  0.93904290  1
  O  O68  1  0.68319038  0.38530956  0.39954332  1
  O  O69  1  0.18319038  0.88530956  0.10045668  1
  O  O70  1  0.31680962  0.61469044  0.60045668  1
  O  O71  1  0.81680962  0.11469044  0.89954332  1
