# generated using pymatgen
data_Ag2H6PdS2(NO3)2
_symmetry_space_group_name_H-M   'P 1'
_cell_length_a   5.92228598
_cell_length_b   7.29610039
_cell_length_c   10.76924735
_cell_angle_alpha   108.38823317
_cell_angle_beta   90.00000000
_cell_angle_gamma   90.00000000
_symmetry_Int_Tables_number   1
_chemical_formula_structural   Ag2H6PdS2(NO3)2
_chemical_formula_sum   'Ag4 H12 Pd2 S4 N4 O12'
_cell_volume   441.57518081
_cell_formula_units_Z   2
loop_
 _symmetry_equiv_pos_site_id
 _symmetry_equiv_pos_as_xyz
  1  'x, y, z'
loop_
 _atom_site_type_symbol
 _atom_site_label
 _atom_site_symmetry_multiplicity
 _atom_site_fract_x
 _atom_site_fract_y
 _atom_site_fract_z
 _atom_site_occupancy
  Ag  Ag0  1  0.26205596  0.55806258  0.35120071  1
  Ag  Ag1  1  0.76205596  0.44193742  0.14879929  1
  Ag  Ag2  1  0.73794404  0.44193742  0.64879929  1
  Ag  Ag3  1  0.23794404  0.55806258  0.85120071  1
  H  H4  1  0.80669405  0.15054924  0.38766697  1
  H  H5  1  0.30669405  0.84945076  0.11233303  1
  H  H6  1  0.19330595  0.84945076  0.61233303  1
  H  H7  1  0.69330595  0.15054924  0.88766697  1
  H  H8  1  0.67297303  0.97638109  0.27221236  1
  H  H9  1  0.17297303  0.02361891  0.22778764  1
  H  H10  1  0.32702697  0.02361891  0.72778764  1
  H  H11  1  0.82702697  0.97638109  0.77221236  1
  H  H12  1  0.55540655  0.19341475  0.33146484  1
  H  H13  1  0.05540655  0.80658525  0.16853516  1
  H  H14  1  0.44459345  0.80658525  0.66853516  1
  H  H15  1  0.94459345  0.19341475  0.83146484  1
  Pd  Pd16  1  0.50000000  -0.00000000  0.50000000  1
  Pd  Pd17  1  -0.00000000  -0.00000000  -0.00000000  1
  S  S18  1  0.76503486  0.75334016  0.46302026  1
  S  S19  1  0.26503486  0.24665984  0.03697974  1
  S  S20  1  0.23496514  0.24665984  0.53697974  1
  S  S21  1  0.73496514  0.75334016  0.96302026  1
  N  N22  1  0.65102323  0.09206099  0.35537714  1
  N  N23  1  0.15102323  0.90793901  0.14462286  1
  N  N24  1  0.34897677  0.90793901  0.64462286  1
  N  N25  1  0.84897677  0.09206099  0.85537714  1
  O  O26  1  0.65256872  0.56343869  0.38548313  1
  O  O27  1  0.15256872  0.43656131  0.11451687  1
  O  O28  1  0.34743128  0.43656131  0.61451687  1
  O  O29  1  0.84743128  0.56343869  0.88548313  1
  O  O30  1  0.96687197  0.78295476  0.38625478  1
  O  O31  1  0.46687197  0.21704524  0.11374522  1
  O  O32  1  0.03312803  0.21704524  0.61374522  1
  O  O33  1  0.53312803  0.78295476  0.88625478  1
  O  O34  1  0.84049548  0.73800395  0.59344917  1
  O  O35  1  0.34049548  0.26199605  0.90655083  1
  O  O36  1  0.15950452  0.26199605  0.40655083  1
  O  O37  1  0.65950452  0.73800395  0.09344917  1
