# generated using pymatgen
data_Ba2LiB10O19
_symmetry_space_group_name_H-M   'P 1'
_cell_length_a   6.83416861
_cell_length_b   11.58795394
_cell_length_c   11.77000800
_cell_angle_alpha   59.54514721
_cell_angle_beta   90.37422310
_cell_angle_gamma   73.98496628
_symmetry_Int_Tables_number   1
_chemical_formula_structural   Ba2LiB10O19
_chemical_formula_sum   'Ba4 Li2 B20 O38'
_cell_volume   760.17874158
_cell_formula_units_Z   2
loop_
 _symmetry_equiv_pos_site_id
 _symmetry_equiv_pos_as_xyz
  1  'x, y, z'
loop_
 _atom_site_type_symbol
 _atom_site_label
 _atom_site_symmetry_multiplicity
 _atom_site_fract_x
 _atom_site_fract_y
 _atom_site_fract_z
 _atom_site_occupancy
  Ba  Ba0  1  0.17578253  0.64293372  0.87593080  1
  Ba  Ba1  1  0.82421747  0.35706628  0.12406920  1
  Ba  Ba2  1  0.66786561  0.64629005  0.38900109  1
  Ba  Ba3  1  0.33213439  0.35370995  0.61099891  1
  Li  Li4  1  0.31461893  0.03941873  0.59975413  1
  Li  Li5  1  0.68538107  0.96058127  0.40024587  1
  B  B6  1  0.98596420  0.36340243  0.85532062  1
  B  B7  1  0.01403580  0.63659757  0.14467938  1
  B  B8  1  0.81910372  0.73135673  0.63775608  1
  B  B9  1  0.18089628  0.26864327  0.36224392  1
  B  B10  1  0.48778985  0.06346057  0.14212987  1
  B  B11  1  0.51221015  0.93653943  0.85787013  1
  B  B12  1  0.01793446  0.93374825  0.25395408  1
  B  B13  1  0.98206554  0.06625175  0.74604592  1
  B  B14  1  0.62230792  0.38857714  0.80442525  1
  B  B15  1  0.37769208  0.61142286  0.19557475  1
  B  B16  1  0.12424110  0.68879547  0.30972215  1
  B  B17  1  0.87575890  0.31120453  0.69027785  1
  B  B18  1  0.43454550  0.79245959  0.56712440  1
  B  B19  1  0.56545450  0.20754041  0.43287560  1
  B  B20  1  0.64239698  0.68654256  0.03569160  1
  B  B21  1  0.35760302  0.31345744  0.96430840  1
  B  B22  1  0.89090080  0.25576350  0.50643676  1
  B  B23  1  0.10909920  0.74423650  0.49356324  1
  B  B24  1  0.58041555  0.75140477  0.79459622  1
  B  B25  1  0.41958445  0.24859523  0.20540378  1
  O  O26  1  0.57669755  0.65641033  0.93607929  1
  O  O27  1  0.42330245  0.34358967  0.06392071  1
  O  O28  1  0.91061067  0.34998368  0.55389024  1
  O  O29  1  0.08938933  0.65001632  0.44610976  1
  O  O30  1  0.97279163  0.89180683  0.38273511  1
  O  O31  1  0.02720837  0.10819317  0.61726489  1
  O  O32  1  0.50907920  0.90044969  0.76133514  1
  O  O33  1  0.49092080  0.09955031  0.23866486  1
  O  O34  1  0.12106754  0.37337137  0.93311803  1
  O  O35  1  0.87893246  0.62662863  0.06688197  1
  O  O36  1  0.97528716  0.64980103  0.25182445  1
  O  O37  1  0.02471284  0.35019897  0.74817555  1
  O  O38  1  0.57445074  0.83499762  0.99122479  1
  O  O39  1  0.42554926  0.16500238  0.00877521  1
  O  O40  1  0.43026335  0.74148418  0.70963084  1
  O  O41  1  0.56973665  0.25851582  0.29036916  1
  O  O42  1  0.65794156  0.76194263  0.54359279  1
  O  O43  1  0.34205844  0.23805737  0.45640721  1
  O  O44  1  0.10225918  0.83804897  0.21977920  1
  O  O45  1  0.89774082  0.16195103  0.78022080  1
  O  O46  1  0.42918886  0.39567719  0.83496106  1
  O  O47  1  0.57081114  0.60432281  0.16503894  1
  O  O48  1  0.78695000  0.71612773  0.75902536  1
  O  O49  1  0.21305000  0.28387227  0.24097464  1
  O  O50  1  0.02717781  0.92284394  0.82218355  1
  O  O51  1  0.97282219  0.07715606  0.17781645  1
  O  O52  1  0.01988909  0.71265566  0.61569067  1
  O  O53  1  0.98011091  0.28734434  0.38430933  1
  O  O54  1  0.32727784  0.73410702  0.51316250  1
  O  O55  1  0.67272216  0.26589298  0.48683750  1
  O  O56  1  0.33887662  0.60113914  0.31549974  1
  O  O57  1  0.66112338  0.39886086  0.68450026  1
  O  O58  1  0.21450387  0.62621752  0.11193532  1
  O  O59  1  0.78549613  0.37378248  0.88806468  1
  O  O60  1  0.55673652  0.92065462  0.19717575  1
  O  O61  1  0.44326348  0.07934538  0.80282425  1
  O  O62  1  0.34387975  0.94452332  0.50226579  1
  O  O63  1  0.65612025  0.05547668  0.49773421  1
