# generated using pymatgen
data_MgTa2CuO7
_symmetry_space_group_name_H-M   'P 1'
_cell_length_a   8.31430586
_cell_length_b   10.82389757
_cell_length_c   10.78755968
_cell_angle_alpha   95.63754493
_cell_angle_beta   90.00000000
_cell_angle_gamma   90.00000000
_symmetry_Int_Tables_number   1
_chemical_formula_structural   MgTa2CuO7
_chemical_formula_sum   'Mg6 Ta12 Cu6 O42'
_cell_volume   966.11140361
_cell_formula_units_Z   6
loop_
 _symmetry_equiv_pos_site_id
 _symmetry_equiv_pos_as_xyz
  1  'x, y, z'
loop_
 _atom_site_type_symbol
 _atom_site_label
 _atom_site_symmetry_multiplicity
 _atom_site_fract_x
 _atom_site_fract_y
 _atom_site_fract_z
 _atom_site_occupancy
  Mg  Mg0  1  0.44103064  0.12956356  0.57346951  1
  Mg  Mg1  1  0.94711277  0.50000000  0.75000000  1
  Mg  Mg2  1  0.44103064  0.87043644  0.92653049  1
  Mg  Mg3  1  0.05288723  0.50000000  0.25000000  1
  Mg  Mg4  1  0.55896936  0.87043644  0.42653049  1
  Mg  Mg5  1  0.55896936  0.12956356  0.07346951  1
  Ta  Ta6  1  0.20781848  0.17303826  0.29032182  1
  Ta  Ta7  1  0.75194066  0.16465689  0.37307366  1
  Ta  Ta8  1  0.24805934  0.16465689  0.87307366  1
  Ta  Ta9  1  0.79218152  0.17303826  0.79032182  1
  Ta  Ta10  1  0.29187919  0.48990562  0.97230227  1
  Ta  Ta11  1  0.75194066  0.83534311  0.12692634  1
  Ta  Ta12  1  0.70812081  0.48990562  0.47230227  1
  Ta  Ta13  1  0.24805934  0.83534311  0.62692634  1
  Ta  Ta14  1  0.29187919  0.51009438  0.52769773  1
  Ta  Ta15  1  0.70812081  0.51009438  0.02769773  1
  Ta  Ta16  1  0.79218152  0.82696174  0.70967818  1
  Ta  Ta17  1  0.20781848  0.82696174  0.20967818  1
  Cu  Cu18  1  0.90913723  0.78978655  0.41920806  1
  Cu  Cu19  1  0.09086277  0.21021345  0.58079194  1
  Cu  Cu20  1  0.41332009  0.50000000  0.25000000  1
  Cu  Cu21  1  0.90913723  0.21021345  0.08079194  1
  Cu  Cu22  1  0.58667991  0.50000000  0.75000000  1
  Cu  Cu23  1  0.09086277  0.78978655  0.91920806  1
  O  O24  1  0.72742678  0.20520255  0.96250503  1
  O  O25  1  0.74881970  0.84526914  0.30098155  1
  O  O26  1  0.84196282  0.00000000  0.75000000  1
  O  O27  1  0.89007042  0.49161420  0.11456584  1
  O  O28  1  0.39212068  0.94268191  0.56330320  1
  O  O29  1  0.93605640  0.27241028  0.70621672  1
  O  O30  1  0.33381426  0.31561514  0.94284227  1
  O  O31  1  0.10992958  0.49161420  0.61456584  1
  O  O32  1  0.75766589  0.45221933  0.85951579  1
  O  O33  1  0.39212068  0.05731809  0.93669680  1
  O  O34  1  0.75766589  0.54778067  0.64048421  1
  O  O35  1  0.46014418  0.56282258  0.89147747  1
  O  O36  1  0.96191406  0.84268736  0.06879824  1
  O  O37  1  0.06394360  0.27241028  0.20621672  1
  O  O38  1  0.66618574  0.68438486  0.05715773  1
  O  O39  1  0.33381426  0.68438486  0.55715773  1
  O  O40  1  0.93605640  0.72758972  0.79378328  1
  O  O41  1  0.60787932  0.05731809  0.43669680  1
  O  O42  1  0.27257322  0.20520255  0.46250503  1
  O  O43  1  0.53985582  0.43717742  0.10852253  1
  O  O44  1  0.39558976  0.81874862  0.29450723  1
  O  O45  1  0.24233411  0.54778067  0.14048421  1
  O  O46  1  0.03808594  0.84268736  0.56879824  1
  O  O47  1  0.24233411  0.45221933  0.35951579  1
  O  O48  1  0.89007042  0.50838580  0.38543416  1
  O  O49  1  0.53985582  0.56282258  0.39147747  1
  O  O50  1  0.10992958  0.50838580  0.88543416  1
  O  O51  1  0.60441024  0.81874862  0.79450723  1
  O  O52  1  0.60441024  0.18125138  0.70549277  1
  O  O53  1  0.03808594  0.15731264  0.93120176  1
  O  O54  1  0.06394360  0.72758972  0.29378328  1
  O  O55  1  0.72742678  0.79479745  0.53749497  1
  O  O56  1  0.15803718  0.00000000  0.25000000  1
  O  O57  1  0.25118030  0.84526914  0.80098155  1
  O  O58  1  0.60787932  0.94268191  0.06330320  1
  O  O59  1  0.96191406  0.15731264  0.43120176  1
  O  O60  1  0.27257322  0.79479745  0.03749497  1
  O  O61  1  0.74881970  0.15473086  0.19901845  1
  O  O62  1  0.46014418  0.43717742  0.60852253  1
  O  O63  1  0.66618574  0.31561514  0.44284227  1
  O  O64  1  0.25118030  0.15473086  0.69901845  1
  O  O65  1  0.39558976  0.18125138  0.20549277  1
