# generated using pymatgen
data_K4In8Ge15
_symmetry_space_group_name_H-M   'P 1'
_cell_length_a   11.37771389
_cell_length_b   11.37771389
_cell_length_c   11.37771389
_cell_angle_alpha   90.00000000
_cell_angle_beta   90.00000000
_cell_angle_gamma   90.00000000
_symmetry_Int_Tables_number   1
_chemical_formula_structural   K4In8Ge15
_chemical_formula_sum   'K8 In16 Ge30'
_cell_volume   1472.87206650
_cell_formula_units_Z   2
loop_
 _symmetry_equiv_pos_site_id
 _symmetry_equiv_pos_as_xyz
  1  'x, y, z'
loop_
 _atom_site_type_symbol
 _atom_site_label
 _atom_site_symmetry_multiplicity
 _atom_site_fract_x
 _atom_site_fract_y
 _atom_site_fract_z
 _atom_site_occupancy
  K  K0  1  0.50000000  0.50000000  0.50000000  1
  K  K1  1  -0.00000000  -0.00000000  0.00000000  1
  K  K2  1  0.50000000  -0.00000000  0.75000000  1
  K  K3  1  -0.00000000  0.25000000  0.50000000  1
  K  K4  1  0.75000000  0.50000000  0.00000000  1
  K  K5  1  0.50000000  -0.00000000  0.25000000  1
  K  K6  1  -0.00000000  0.75000000  0.50000000  1
  K  K7  1  0.25000000  0.50000000  0.00000000  1
  In  In8  1  0.67860998  0.32139002  0.67860998  1
  In  In9  1  0.32139002  0.67860998  0.32139002  1
  In  In10  1  0.67860998  0.67860998  0.32139002  1
  In  In11  1  0.32139002  0.32139002  0.67860998  1
  In  In12  1  0.32139002  0.67860998  0.67860998  1
  In  In13  1  0.67860998  0.32139002  0.32139002  1
  In  In14  1  0.32139002  0.32139002  0.32139002  1
  In  In15  1  0.67860998  0.67860998  0.67860998  1
  In  In16  1  0.17860998  0.17860998  0.82139002  1
  In  In17  1  0.82139002  0.82139002  0.17860998  1
  In  In18  1  0.17860998  0.82139002  0.17860998  1
  In  In19  1  0.82139002  0.17860998  0.82139002  1
  In  In20  1  0.82139002  0.17860998  0.17860998  1
  In  In21  1  0.17860998  0.82139002  0.82139002  1
  In  In22  1  0.82139002  0.82139002  0.82139002  1
  In  In23  1  0.17860998  0.17860998  0.17860998  1
  Ge  Ge24  1  -0.00000000  0.50000000  0.75000000  1
  Ge  Ge25  1  0.50000000  0.25000000  0.00000000  1
  Ge  Ge26  1  0.75000000  -0.00000000  0.50000000  1
  Ge  Ge27  1  -0.00000000  0.50000000  0.25000000  1
  Ge  Ge28  1  0.50000000  0.75000000  0.00000000  1
  Ge  Ge29  1  0.25000000  -0.00000000  0.50000000  1
  Ge  Ge30  1  0.61282753  0.17895434  0.50000000  1
  Ge  Ge31  1  0.82104566  0.50000000  0.61282753  1
  Ge  Ge32  1  0.50000000  0.38717247  0.82104566  1
  Ge  Ge33  1  0.38717247  0.82104566  0.50000000  1
  Ge  Ge34  1  0.17895434  0.50000000  0.38717247  1
  Ge  Ge35  1  0.50000000  0.61282753  0.17895434  1
  Ge  Ge36  1  0.61282753  0.82104566  0.50000000  1
  Ge  Ge37  1  0.82104566  0.50000000  0.38717247  1
  Ge  Ge38  1  0.38717247  0.17895434  0.50000000  1
  Ge  Ge39  1  0.17895434  0.50000000  0.61282753  1
  Ge  Ge40  1  0.50000000  0.61282753  0.82104566  1
  Ge  Ge41  1  0.50000000  0.38717247  0.17895434  1
  Ge  Ge42  1  0.11282753  -0.00000000  0.67895434  1
  Ge  Ge43  1  0.32104566  0.11282753  0.00000000  1
  Ge  Ge44  1  -0.00000000  0.32104566  0.88717247  1
  Ge  Ge45  1  0.88717247  -0.00000000  0.32104566  1
  Ge  Ge46  1  0.67895434  0.88717247  0.00000000  1
  Ge  Ge47  1  -0.00000000  0.67895434  0.11282753  1
  Ge  Ge48  1  0.11282753  -0.00000000  0.32104566  1
  Ge  Ge49  1  0.32104566  0.88717247  0.00000000  1
  Ge  Ge50  1  0.88717247  -0.00000000  0.67895434  1
  Ge  Ge51  1  0.67895434  0.11282753  0.00000000  1
  Ge  Ge52  1  -0.00000000  0.32104566  0.11282753  1
  Ge  Ge53  1  -0.00000000  0.67895434  0.88717247  1
