# generated using pymatgen
data_HS2N(ClO2)2
_symmetry_space_group_name_H-M   'P 1'
_cell_length_a   8.31897823
_cell_length_b   10.43960649
_cell_length_c   11.28780393
_cell_angle_alpha   90.00000000
_cell_angle_beta   90.00000000
_cell_angle_gamma   110.28911029
_symmetry_Int_Tables_number   1
_chemical_formula_structural   HS2N(ClO2)2
_chemical_formula_sum   'H4 S8 N4 Cl8 O16'
_cell_volume   919.48682388
_cell_formula_units_Z   4
loop_
 _symmetry_equiv_pos_site_id
 _symmetry_equiv_pos_as_xyz
  1  'x, y, z'
loop_
 _atom_site_type_symbol
 _atom_site_label
 _atom_site_symmetry_multiplicity
 _atom_site_fract_x
 _atom_site_fract_y
 _atom_site_fract_z
 _atom_site_occupancy
  H  H0  1  0.87236571  0.17473834  0.23182458  1
  H  H1  1  0.12763429  0.32526166  0.73182458  1
  H  H2  1  0.12763429  0.82526166  0.76817542  1
  H  H3  1  0.87236571  0.67473834  0.26817542  1
  S  S4  1  0.07088323  0.38926303  0.20086339  1
  S  S5  1  0.92911677  0.11073697  0.70086339  1
  S  S6  1  0.92911677  0.61073697  0.79913661  1
  S  S7  1  0.07088323  0.88926303  0.29913661  1
  S  S8  1  0.69828677  0.30008003  0.26711862  1
  S  S9  1  0.30171323  0.19991997  0.76711862  1
  S  S10  1  0.30171323  0.69991997  0.73288138  1
  S  S11  1  0.69828677  0.80008003  0.23288138  1
  N  N12  1  0.88144111  0.27479024  0.23906379  1
  N  N13  1  0.11855889  0.22520976  0.73906379  1
  N  N14  1  0.11855889  0.72520976  0.76093621  1
  N  N15  1  0.88144111  0.77479024  0.26093621  1
  Cl  Cl16  1  0.19645430  0.42668862  0.35899357  1
  Cl  Cl17  1  0.80354570  0.07331138  0.85899357  1
  Cl  Cl18  1  0.80354570  0.57331138  0.64100643  1
  Cl  Cl19  1  0.19645430  0.92668862  0.14100643  1
  Cl  Cl20  1  0.60946525  0.32184589  0.10328227  1
  Cl  Cl21  1  0.39053475  0.17815411  0.60328227  1
  Cl  Cl22  1  0.39053475  0.67815411  0.89671773  1
  Cl  Cl23  1  0.60946525  0.82184589  0.39671773  1
  O  O24  1  0.04534495  0.51239554  0.16572273  1
  O  O25  1  0.95465505  0.98760446  0.66572273  1
  O  O26  1  0.95465505  0.48760446  0.83427727  1
  O  O27  1  0.04534495  0.01239554  0.33427727  1
  O  O28  1  0.15149646  0.31734900  0.12810557  1
  O  O29  1  0.84850354  0.18265100  0.62810557  1
  O  O30  1  0.84850354  0.68265100  0.87189443  1
  O  O31  1  0.15149646  0.81734900  0.37189443  1
  O  O32  1  0.58736799  0.17341687  0.31457079  1
  O  O33  1  0.41263201  0.32658313  0.81457079  1
  O  O34  1  0.41263201  0.82658313  0.68542921  1
  O  O35  1  0.58736799  0.67341687  0.18542921  1
  O  O36  1  0.73586000  0.42826407  0.32656505  1
  O  O37  1  0.26414000  0.07173593  0.82656505  1
  O  O38  1  0.26414000  0.57173593  0.67343495  1
  O  O39  1  0.73586000  0.92826407  0.17343495  1
