# generated using pymatgen
data_UO3
_symmetry_space_group_name_H-M   'P 1'
_cell_length_a   6.97424460
_cell_length_b   6.97424460
_cell_length_c   11.28055605
_cell_angle_alpha   107.81705601
_cell_angle_beta   107.81705601
_cell_angle_gamma   90.58349868
_symmetry_Int_Tables_number   1
_chemical_formula_structural   UO3
_chemical_formula_sum   'U8 O24'
_cell_volume   494.04508462
_cell_formula_units_Z   8
loop_
 _symmetry_equiv_pos_site_id
 _symmetry_equiv_pos_as_xyz
  1  'x, y, z'
loop_
 _atom_site_type_symbol
 _atom_site_label
 _atom_site_symmetry_multiplicity
 _atom_site_fract_x
 _atom_site_fract_y
 _atom_site_fract_z
 _atom_site_occupancy
  U  U0  1  0.18600176  0.93600176  0.87200352  1
  U  U1  1  0.56399824  0.31399824  0.62799648  1
  U  U2  1  0.81399824  0.06399824  0.12799648  1
  U  U3  1  0.43600176  0.68600176  0.37200352  1
  U  U4  1  -0.00000000  0.50000000  0.50000000  1
  U  U5  1  -0.00000000  0.50000000  -0.00000000  1
  U  U6  1  -0.00000000  -0.00000000  0.50000000  1
  U  U7  1  0.50000000  0.50000000  -0.00000000  1
  O  O8  1  0.09302551  0.64446113  0.68406735  1
  O  O9  1  0.85553887  0.40697449  0.81593265  1
  O  O10  1  0.09104185  0.03960623  0.68406735  1
  O  O11  1  0.46039377  0.40895815  0.81593265  1
  O  O12  1  0.90697449  0.35553887  0.31593265  1
  O  O13  1  0.14446113  0.59302551  0.18406735  1
  O  O14  1  0.90895815  0.96039377  0.31593265  1
  O  O15  1  0.53960623  0.59104185  0.18406735  1
  O  O16  1  0.23716389  0.67709494  0.96726514  1
  O  O17  1  0.82290506  0.26283611  0.53273486  1
  O  O18  1  0.23010125  0.29017019  0.96726514  1
  O  O19  1  0.20982981  0.26989875  0.53273486  1
  O  O20  1  0.76283611  0.32290506  0.03273486  1
  O  O21  1  0.17709494  0.73716389  0.46726514  1
  O  O22  1  0.76989875  0.70982981  0.03273486  1
  O  O23  1  0.79017019  0.73010125  0.46726514  1
  O  O24  1  0.55805269  0.05581151  0.63216223  1
  O  O25  1  0.44418849  0.94194731  0.86783777  1
  O  O26  1  0.57410954  0.57635072  0.63216223  1
  O  O27  1  0.92364928  0.92589046  0.86783777  1
  O  O28  1  0.44194731  0.94418849  0.36783777  1
  O  O29  1  0.55581151  0.05805269  0.13216223  1
  O  O30  1  0.42589046  0.42364928  0.36783777  1
  O  O31  1  0.07635072  0.07410954  0.13216223  1
