# generated using pymatgen
data_Al3Si3Pb2O13
_symmetry_space_group_name_H-M   'P 1'
_cell_length_a   5.89223183
_cell_length_b   10.95014328
_cell_length_c   15.90428264
_cell_angle_alpha   90.00000000
_cell_angle_beta   90.00000000
_cell_angle_gamma   90.00000000
_symmetry_Int_Tables_number   1
_chemical_formula_structural   Al3Si3Pb2O13
_chemical_formula_sum   'Al12 Si12 Pb8 O52'
_cell_volume   1026.15676545
_cell_formula_units_Z   4
loop_
 _symmetry_equiv_pos_site_id
 _symmetry_equiv_pos_as_xyz
  1  'x, y, z'
loop_
 _atom_site_type_symbol
 _atom_site_label
 _atom_site_symmetry_multiplicity
 _atom_site_fract_x
 _atom_site_fract_y
 _atom_site_fract_z
 _atom_site_occupancy
  Al  Al0  1  0.75000000  0.84033089  0.88524848  1
  Al  Al1  1  0.75000000  0.65966911  0.38524848  1
  Al  Al2  1  0.25000000  0.15966911  0.11475152  1
  Al  Al3  1  0.25000000  0.34033089  0.61475152  1
  Al  Al4  1  0.99617869  0.68489496  0.74206170  1
  Al  Al5  1  0.50382131  0.81510504  0.24206170  1
  Al  Al6  1  0.49617869  0.31510504  0.25793830  1
  Al  Al7  1  0.00382131  0.18489496  0.75793830  1
  Al  Al8  1  0.00382131  0.31510504  0.25793830  1
  Al  Al9  1  0.49617869  0.18489496  0.75793830  1
  Al  Al10  1  0.50382131  0.68489496  0.74206170  1
  Al  Al11  1  0.99617869  0.81510504  0.24206170  1
  Si  Si12  1  0.25000000  0.91336920  0.40640489  1
  Si  Si13  1  0.25000000  0.58663080  0.90640489  1
  Si  Si14  1  0.75000000  0.08663080  0.59359511  1
  Si  Si15  1  0.75000000  0.41336920  0.09359511  1
  Si  Si16  1  0.75000000  0.79212373  0.57610694  1
  Si  Si17  1  0.75000000  0.70787627  0.07610694  1
  Si  Si18  1  0.25000000  0.20787627  0.42389306  1
  Si  Si19  1  0.25000000  0.29212373  0.92389306  1
  Si  Si20  1  0.25000000  0.93105025  0.83680283  1
  Si  Si21  1  0.25000000  0.56894975  0.33680283  1
  Si  Si22  1  0.75000000  0.06894975  0.16319717  1
  Si  Si23  1  0.75000000  0.43105025  0.66319717  1
  Pb  Pb24  1  0.25000000  0.94666201  0.63061521  1
  Pb  Pb25  1  0.25000000  0.55333799  0.13061521  1
  Pb  Pb26  1  0.75000000  0.05333799  0.36938479  1
  Pb  Pb27  1  0.75000000  0.44666201  0.86938479  1
  Pb  Pb28  1  0.25000000  0.63775158  0.54734864  1
  Pb  Pb29  1  0.25000000  0.86224842  0.04734864  1
  Pb  Pb30  1  0.75000000  0.36224842  0.45265136  1
  Pb  Pb31  1  0.75000000  0.13775158  0.95265136  1
  O  O32  1  0.47449084  0.88764396  0.34944994  1
  O  O33  1  0.02550916  0.61235604  0.84944994  1
  O  O34  1  0.97449084  0.11235604  0.65055006  1
  O  O35  1  0.52550916  0.38764396  0.15055006  1
  O  O36  1  0.52550916  0.11235604  0.65055006  1
  O  O37  1  0.97449084  0.38764396  0.15055006  1
  O  O38  1  0.02550916  0.88764396  0.34944994  1
  O  O39  1  0.47449084  0.61235604  0.84944994  1
  O  O40  1  0.48004439  0.92021165  0.89496045  1
  O  O41  1  0.01995561  0.57978835  0.39496045  1
  O  O42  1  0.98004439  0.07978835  0.10503955  1
  O  O43  1  0.51995561  0.42021165  0.60503955  1
  O  O44  1  0.51995561  0.07978835  0.10503955  1
  O  O45  1  0.98004439  0.42021165  0.60503955  1
  O  O46  1  0.01995561  0.92021165  0.89496045  1
  O  O47  1  0.48004439  0.57978835  0.39496045  1
  O  O48  1  0.97495122  0.75449467  0.63163541  1
  O  O49  1  0.52504878  0.74550533  0.13163541  1
  O  O50  1  0.47495122  0.24550533  0.36836459  1
  O  O51  1  0.02504878  0.25449467  0.86836459  1
  O  O52  1  0.02504878  0.24550533  0.36836459  1
  O  O53  1  0.47495122  0.25449467  0.86836459  1
  O  O54  1  0.52504878  0.75449467  0.63163541  1
  O  O55  1  0.97495122  0.74550533  0.13163541  1
  O  O56  1  0.75000000  0.77561258  0.78301914  1
  O  O57  1  0.75000000  0.72438742  0.28301914  1
  O  O58  1  0.25000000  0.22438742  0.21698086  1
  O  O59  1  0.25000000  0.27561258  0.71698086  1
  O  O60  1  0.25000000  0.81541125  0.76827921  1
  O  O61  1  0.25000000  0.68458875  0.26827921  1
  O  O62  1  0.75000000  0.18458875  0.23172079  1
  O  O63  1  0.75000000  0.31541125  0.73172079  1
  O  O64  1  0.25000000  0.06342586  0.78566079  1
  O  O65  1  0.25000000  0.43657414  0.28566079  1
  O  O66  1  0.75000000  0.93657414  0.21433921  1
  O  O67  1  0.75000000  0.56342586  0.71433921  1
  O  O68  1  0.25000000  0.83876778  0.49479772  1
  O  O69  1  0.25000000  0.66123222  0.99479772  1
  O  O70  1  0.75000000  0.16123222  0.50520228  1
  O  O71  1  0.75000000  0.33876778  0.00520228  1
  O  O72  1  0.75000000  0.72599804  0.48654235  1
  O  O73  1  0.75000000  0.77400196  0.98654235  1
  O  O74  1  0.25000000  0.27400196  0.51345765  1
  O  O75  1  0.25000000  0.22599804  0.01345765  1
  O  O76  1  0.75000000  0.94178628  0.56344972  1
  O  O77  1  0.75000000  0.55821372  0.06344972  1
  O  O78  1  0.25000000  0.05821372  0.43655028  1
  O  O79  1  0.25000000  0.44178628  0.93655028  1
  O  O80  1  0.25000000  0.59995182  0.70403474  1
  O  O81  1  0.25000000  0.90004818  0.20403474  1
  O  O82  1  0.75000000  0.40004818  0.29596526  1
  O  O83  1  0.75000000  0.09995182  0.79596526  1
