# generated using pymatgen
data_K3Li3P6O19
_symmetry_space_group_name_H-M   'P 1'
_cell_length_a   9.82835194
_cell_length_b   9.82835194
_cell_length_c   9.82835135
_cell_angle_alpha   101.87414888
_cell_angle_beta   101.87414888
_cell_angle_gamma   101.87414807
_symmetry_Int_Tables_number   1
_chemical_formula_structural   K3Li3P6O19
_chemical_formula_sum   'K6 Li6 P12 O38'
_cell_volume   878.14814863
_cell_formula_units_Z   2
loop_
 _symmetry_equiv_pos_site_id
 _symmetry_equiv_pos_as_xyz
  1  'x, y, z'
loop_
 _atom_site_type_symbol
 _atom_site_label
 _atom_site_symmetry_multiplicity
 _atom_site_fract_x
 _atom_site_fract_y
 _atom_site_fract_z
 _atom_site_occupancy
  K  K0  1  0.94104091  0.52958160  0.78437398  1
  K  K1  1  0.52958160  0.78437398  0.94104091  1
  K  K2  1  0.78437398  0.94104091  0.52958160  1
  K  K3  1  0.05895909  0.47041840  0.21562602  1
  K  K4  1  0.47041840  0.21562602  0.05895909  1
  K  K5  1  0.21562602  0.05895909  0.47041840  1
  Li  Li6  1  0.48364946  0.01822246  0.72921470  1
  Li  Li7  1  0.01822246  0.72921470  0.48364946  1
  Li  Li8  1  0.72921470  0.48364946  0.01822246  1
  Li  Li9  1  0.51635054  0.98177754  0.27078530  1
  Li  Li10  1  0.98177754  0.27078530  0.51635054  1
  Li  Li11  1  0.27078530  0.51635054  0.98177754  1
  P  P12  1  0.07441471  0.19640388  0.83235096  1
  P  P13  1  0.19640388  0.83235096  0.07441471  1
  P  P14  1  0.83235096  0.07441471  0.19640388  1
  P  P15  1  0.92558529  0.80359612  0.16764904  1
  P  P16  1  0.80359612  0.16764904  0.92558529  1
  P  P17  1  0.16764904  0.92558529  0.80359612  1
  P  P18  1  0.64233466  0.26863512  0.50276209  1
  P  P19  1  0.26863512  0.50276209  0.64233466  1
  P  P20  1  0.50276209  0.64233466  0.26863512  1
  P  P21  1  0.35766534  0.73136488  0.49723791  1
  P  P22  1  0.73136488  0.49723791  0.35766534  1
  P  P23  1  0.49723791  0.35766534  0.73136488  1
  O  O24  1  0.16482390  0.08735576  0.88522383  1
  O  O25  1  0.08735576  0.88522383  0.16482390  1
  O  O26  1  0.88522383  0.16482390  0.08735576  1
  O  O27  1  0.83517610  0.91264424  0.11477617  1
  O  O28  1  0.91264424  0.11477617  0.83517610  1
  O  O29  1  0.11477617  0.83517610  0.91264424  1
  O  O30  1  0.07023232  0.19327263  0.67851652  1
  O  O31  1  0.19327263  0.67851652  0.07023232  1
  O  O32  1  0.67851652  0.07023232  0.19327263  1
  O  O33  1  0.92976768  0.80672737  0.32148348  1
  O  O34  1  0.80672737  0.32148348  0.92976768  1
  O  O35  1  0.32148348  0.92976768  0.80672737  1
  O  O36  1  0.33462155  0.94843048  0.12907651  1
  O  O37  1  0.94843048  0.12907651  0.33462155  1
  O  O38  1  0.12907651  0.33462155  0.94843048  1
  O  O39  1  0.66537845  0.05156952  0.87092349  1
  O  O40  1  0.05156952  0.87092349  0.66537845  1
  O  O41  1  0.87092349  0.66537845  0.05156952  1
  O  O42  1  0.61342493  0.37433645  0.63725837  1
  O  O43  1  0.37433645  0.63725837  0.61342493  1
  O  O44  1  0.63725837  0.61342493  0.37433645  1
  O  O45  1  0.38657507  0.62566355  0.36274163  1
  O  O46  1  0.62566355  0.36274163  0.38657507  1
  O  O47  1  0.36274163  0.38657507  0.62566355  1
  O  O48  1  0.52290674  0.13310372  0.44082598  1
  O  O49  1  0.13310372  0.44082598  0.52290674  1
  O  O50  1  0.44082598  0.52290674  0.13310372  1
  O  O51  1  0.47709326  0.86689628  0.55917402  1
  O  O52  1  0.86689628  0.55917402  0.47709326  1
  O  O53  1  0.55917402  0.47709326  0.86689628  1
  O  O54  1  0.73846498  0.44830186  0.20532014  1
  O  O55  1  0.44830186  0.20532014  0.73846498  1
  O  O56  1  0.20532014  0.73846498  0.44830186  1
  O  O57  1  0.26153502  0.55169814  0.79467986  1
  O  O58  1  0.55169814  0.79467986  0.26153502  1
  O  O59  1  0.79467986  0.26153502  0.55169814  1
  O  O60  1  0.74448775  0.74448775  0.74448775  1
  O  O61  1  0.25551225  0.25551225  0.25551225  1
