# generated using pymatgen
data_CoP2(H8O5)2
_symmetry_space_group_name_H-M   'P 1'
_cell_length_a   10.48002372
_cell_length_b   10.48002372
_cell_length_c   12.81223374
_cell_angle_alpha   114.14109219
_cell_angle_beta   114.14109219
_cell_angle_gamma   90.00000000
_symmetry_Int_Tables_number   1
_chemical_formula_structural   CoP2(H8O5)2
_chemical_formula_sum   'Co4 P8 H64 O40'
_cell_volume   1147.91881037
_cell_formula_units_Z   4
loop_
 _symmetry_equiv_pos_site_id
 _symmetry_equiv_pos_as_xyz
  1  'x, y, z'
loop_
 _atom_site_type_symbol
 _atom_site_label
 _atom_site_symmetry_multiplicity
 _atom_site_fract_x
 _atom_site_fract_y
 _atom_site_fract_z
 _atom_site_occupancy
  Co  Co0  1  0.12500000  0.37500000  0.25000000  1
  Co  Co1  1  0.62500000  0.87500000  0.25000000  1
  Co  Co2  1  0.87500000  0.62500000  0.75000000  1
  Co  Co3  1  0.37500000  0.12500000  0.75000000  1
  P  P4  1  0.75000000  0.47852462  -0.00000000  1
  P  P5  1  0.75000000  0.97852462  -0.00000000  1
  P  P6  1  0.97852462  0.25000000  0.50000000  1
  P  P7  1  0.02147538  0.75000000  0.50000000  1
  P  P8  1  0.25000000  0.52147538  -0.00000000  1
  P  P9  1  0.25000000  0.02147538  -0.00000000  1
  P  P10  1  0.47852462  0.25000000  0.50000000  1
  P  P11  1  0.52147538  0.75000000  0.50000000  1
  H  H12  1  0.94053479  0.30041120  0.99282859  1
  H  H13  1  0.55229380  0.80041120  0.99282859  1
  H  H14  1  0.80041120  0.44053479  0.49282859  1
  H  H15  1  0.19241739  0.94053479  0.49282859  1
  H  H16  1  0.05946521  0.69958880  0.00717141  1
  H  H17  1  0.44770620  0.19958880  0.00717141  1
  H  H18  1  0.19958880  0.55946521  0.50717141  1
  H  H19  1  0.80758261  0.05946521  0.50717141  1
  H  H20  1  0.44053479  0.69241739  0.99282859  1
  H  H21  1  0.05229380  0.19241739  0.99282859  1
  H  H22  1  0.30041120  0.05229380  0.49282859  1
  H  H23  1  0.69241739  0.55229380  0.49282859  1
  H  H24  1  0.55946521  0.30758261  0.00717141  1
  H  H25  1  0.94770620  0.80758261  0.00717141  1
  H  H26  1  0.69958880  0.94770620  0.50717141  1
  H  H27  1  0.30758261  0.44770620  0.50717141  1
  H  H28  1  0.84314672  0.39809497  0.19423658  1
  H  H29  1  0.85108986  0.89809497  0.19423658  1
  H  H30  1  0.89809497  0.34314672  0.69423658  1
  H  H31  1  0.29614162  0.84314672  0.69423658  1
  H  H32  1  0.15685328  0.60190503  0.80576342  1
  H  H33  1  0.14891014  0.10190503  0.80576342  1
  H  H34  1  0.10190503  0.65685328  0.30576342  1
  H  H35  1  0.70385838  0.15685328  0.30576342  1
  H  H36  1  0.34314672  0.79614162  0.19423658  1
  H  H37  1  0.35108986  0.29614162  0.19423658  1
  H  H38  1  0.39809497  0.35108986  0.69423658  1
  H  H39  1  0.79614162  0.85108986  0.69423658  1
  H  H40  1  0.65685328  0.20385838  0.80576342  1
  H  H41  1  0.64891014  0.70385838  0.80576342  1
  H  H42  1  0.60190503  0.64891014  0.30576342  1
  H  H43  1  0.20385838  0.14891014  0.30576342  1
  H  H44  1  0.90264245  0.34995605  0.30869022  1
  H  H45  1  0.90604776  0.84995605  0.30869022  1
  H  H46  1  0.84995605  0.40264245  0.80869022  1
  H  H47  1  0.45873416  0.90264245  0.80869022  1
  H  H48  1  0.09735755  0.65004395  0.69130978  1
  H  H49  1  0.09395224  0.15004395  0.69130978  1
  H  H50  1  0.15004395  0.59735755  0.19130978  1
  H  H51  1  0.54126584  0.09735755  0.19130978  1
  H  H52  1  0.40264245  0.95873416  0.30869022  1
  H  H53  1  0.40604776  0.45873416  0.30869022  1
  H  H54  1  0.34995605  0.40604776  0.80869022  1
  H  H55  1  0.95873416  0.90604776  0.80869022  1
  H  H56  1  0.59735755  0.04126584  0.69130978  1
  H  H57  1  0.59395224  0.54126584  0.69130978  1
  H  H58  1  0.65004395  0.59395224  0.19130978  1
  H  H59  1  0.04126584  0.09395224  0.19130978  1
  H  H60  1  0.63593624  0.52375559  0.92585683  1
  H  H61  1  0.78992060  0.02375559  0.92585683  1
  H  H62  1  0.02375559  0.13593624  0.42585683  1
  H  H63  1  0.90210124  0.63593624  0.42585683  1
  H  H64  1  0.36406376  0.47624441  0.07414317  1
  H  H65  1  0.21007940  0.97624441  0.07414317  1
  H  H66  1  0.97624441  0.86406376  0.57414317  1
  H  H67  1  0.09789876  0.36406376  0.57414317  1
  H  H68  1  0.13593624  0.40210124  0.92585683  1
  H  H69  1  0.28992060  0.90210124  0.92585683  1
  H  H70  1  0.52375559  0.28992060  0.42585683  1
  H  H71  1  0.40210124  0.78992060  0.42585683  1
  H  H72  1  0.86406376  0.59789876  0.07414317  1
  H  H73  1  0.71007940  0.09789876  0.07414317  1
  H  H74  1  0.47624441  0.71007940  0.57414317  1
  H  H75  1  0.59789876  0.21007940  0.57414317  1
  O  O76  1  0.79167500  0.35645206  0.91008478  1
  O  O77  1  0.61840978  0.85645206  0.91008478  1
  O  O78  1  0.85645206  0.29167500  0.41008478  1
  O  O79  1  0.05363272  0.79167500  0.41008478  1
  O  O80  1  0.20832500  0.64354794  0.08991522  1
  O  O81  1  0.38159022  0.14354794  0.08991522  1
  O  O82  1  0.14354794  0.70832500  0.58991522  1
  O  O83  1  0.94636728  0.20832500  0.58991522  1
  O  O84  1  0.29167500  0.55363272  0.91008478  1
  O  O85  1  0.11840978  0.05363272  0.91008478  1
  O  O86  1  0.35645206  0.11840978  0.41008478  1
  O  O87  1  0.55363272  0.61840978  0.41008478  1
  O  O88  1  0.70832500  0.44636728  0.08991522  1
  O  O89  1  0.88159022  0.94636728  0.08991522  1
  O  O90  1  0.64354794  0.88159022  0.58991522  1
  O  O91  1  0.44636728  0.38159022  0.58991522  1
  O  O92  1  0.02374107  0.27374107  0.04748214  1
  O  O93  1  0.52374107  0.77374107  0.04748214  1
  O  O94  1  0.77374107  0.52374107  0.54748214  1
  O  O95  1  0.27374107  0.02374107  0.54748214  1
  O  O96  1  0.97625893  0.72625893  0.95251786  1
  O  O97  1  0.47625893  0.22625893  0.95251786  1
  O  O98  1  0.22625893  0.47625893  0.45251786  1
  O  O99  1  0.72625893  0.97625893  0.45251786  1
  O  O100  1  0.92891839  0.38343210  0.25731411  1
  O  O101  1  0.82839572  0.88343210  0.25731411  1
  O  O102  1  0.88343210  0.42891839  0.75731411  1
  O  O103  1  0.37388201  0.92891839  0.75731411  1
  O  O104  1  0.07108161  0.61656790  0.74268589  1
  O  O105  1  0.17160428  0.11656790  0.74268589  1
  O  O106  1  0.11656790  0.57108161  0.24268589  1
  O  O107  1  0.62611799  0.07108161  0.24268589  1
  O  O108  1  0.42891839  0.87388201  0.25731411  1
  O  O109  1  0.32839572  0.37388201  0.25731411  1
  O  O110  1  0.38343210  0.32839572  0.75731411  1
  O  O111  1  0.87388201  0.82839572  0.75731411  1
  O  O112  1  0.57108161  0.12611799  0.74268589  1
  O  O113  1  0.67160428  0.62611799  0.74268589  1
  O  O114  1  0.61656790  0.67160428  0.24268589  1
  O  O115  1  0.12611799  0.17160428  0.24268589  1
