# generated using pymatgen
data_Ta2ZnCuO7
_symmetry_space_group_name_H-M   'P 1'
_cell_length_a   8.39357879
_cell_length_b   11.19462792
_cell_length_c   10.69419473
_cell_angle_alpha   94.38066032
_cell_angle_beta   90.00000000
_cell_angle_gamma   90.00000000
_symmetry_Int_Tables_number   1
_chemical_formula_structural   Ta2ZnCuO7
_chemical_formula_sum   'Ta12 Zn6 Cu6 O42'
_cell_volume   1001.92292568
_cell_formula_units_Z   6
loop_
 _symmetry_equiv_pos_site_id
 _symmetry_equiv_pos_as_xyz
  1  'x, y, z'
loop_
 _atom_site_type_symbol
 _atom_site_label
 _atom_site_symmetry_multiplicity
 _atom_site_fract_x
 _atom_site_fract_y
 _atom_site_fract_z
 _atom_site_occupancy
  Ta  Ta0  1  0.21747178  0.16571682  0.28818906  1
  Ta  Ta1  1  0.74667312  0.16544534  0.37859032  1
  Ta  Ta2  1  0.25332688  0.16544534  0.87859032  1
  Ta  Ta3  1  0.78252822  0.16571682  0.78818906  1
  Ta  Ta4  1  0.28895788  0.47932962  0.96640872  1
  Ta  Ta5  1  0.74667312  0.83455466  0.12140968  1
  Ta  Ta6  1  0.71104212  0.47932962  0.46640872  1
  Ta  Ta7  1  0.25332688  0.83455466  0.62140968  1
  Ta  Ta8  1  0.28895788  0.52067038  0.53359128  1
  Ta  Ta9  1  0.71104212  0.52067038  0.03359128  1
  Ta  Ta10  1  0.78252822  0.83428318  0.71181094  1
  Ta  Ta11  1  0.21747178  0.83428318  0.21181094  1
  Zn  Zn12  1  0.43254411  0.12744548  0.57682301  1
  Zn  Zn13  1  0.94391415  0.50000000  0.75000000  1
  Zn  Zn14  1  0.43254411  0.87255452  0.92317699  1
  Zn  Zn15  1  0.05608585  0.50000000  0.25000000  1
  Zn  Zn16  1  0.56745589  0.87255452  0.42317699  1
  Zn  Zn17  1  0.56745589  0.12744548  0.07682301  1
  Cu  Cu18  1  0.91751242  0.79641457  0.41549724  1
  Cu  Cu19  1  0.08248758  0.20358543  0.58450276  1
  Cu  Cu20  1  0.41977772  0.50000000  0.25000000  1
  Cu  Cu21  1  0.91751242  0.20358543  0.08450276  1
  Cu  Cu22  1  0.58022228  0.50000000  0.75000000  1
  Cu  Cu23  1  0.08248758  0.79641457  0.91549724  1
  O  O24  1  0.73413416  0.19816603  0.96307737  1
  O  O25  1  0.75983042  0.83897119  0.29581489  1
  O  O26  1  0.83652487  0.00000000  0.75000000  1
  O  O27  1  0.89567561  0.50315158  0.11599769  1
  O  O28  1  0.39670208  0.94785977  0.57171460  1
  O  O29  1  0.92893724  0.26239705  0.71143983  1
  O  O30  1  0.34294479  0.31251438  0.94064877  1
  O  O31  1  0.10432439  0.50315158  0.61599769  1
  O  O32  1  0.75223731  0.46645012  0.86410866  1
  O  O33  1  0.39670208  0.05214023  0.92828540  1
  O  O34  1  0.75223731  0.53354988  0.63589134  1
  O  O35  1  0.44729769  0.56119954  0.88667839  1
  O  O36  1  0.94651217  0.84765036  0.05335140  1
  O  O37  1  0.07106276  0.26239705  0.21143983  1
  O  O38  1  0.65705521  0.68748562  0.05935123  1
  O  O39  1  0.34294479  0.68748562  0.55935123  1
  O  O40  1  0.92893724  0.73760295  0.78856017  1
  O  O41  1  0.60329792  0.05214023  0.42828540  1
  O  O42  1  0.26586584  0.19816603  0.46307737  1
  O  O43  1  0.55270231  0.43880046  0.11332161  1
  O  O44  1  0.40272018  0.82041563  0.29908560  1
  O  O45  1  0.24776269  0.53354988  0.13589134  1
  O  O46  1  0.05348783  0.84765036  0.55335140  1
  O  O47  1  0.24776269  0.46645012  0.36410866  1
  O  O48  1  0.89567561  0.49684842  0.38400231  1
  O  O49  1  0.55270231  0.56119954  0.38667839  1
  O  O50  1  0.10432439  0.49684842  0.88400231  1
  O  O51  1  0.59727982  0.82041563  0.79908560  1
  O  O52  1  0.59727982  0.17958437  0.70091440  1
  O  O53  1  0.05348783  0.15234964  0.94664860  1
  O  O54  1  0.07106276  0.73760295  0.28856017  1
  O  O55  1  0.73413416  0.80183397  0.53692263  1
  O  O56  1  0.16347513  0.00000000  0.25000000  1
  O  O57  1  0.24016958  0.83897119  0.79581489  1
  O  O58  1  0.60329792  0.94785977  0.07171460  1
  O  O59  1  0.94651217  0.15234964  0.44664860  1
  O  O60  1  0.26586584  0.80183397  0.03692263  1
  O  O61  1  0.75983042  0.16102881  0.20418511  1
  O  O62  1  0.44729769  0.43880046  0.61332161  1
  O  O63  1  0.65705521  0.31251438  0.44064877  1
  O  O64  1  0.24016958  0.16102881  0.70418511  1
  O  O65  1  0.40272018  0.17958437  0.20091440  1
