# generated using pymatgen
data_Eu5V3S6O7
_symmetry_space_group_name_H-M   'P 1'
_cell_length_a   3.73496198
_cell_length_b   10.21311328
_cell_length_c   18.00732877
_cell_angle_alpha   90.00000000
_cell_angle_beta   90.00000000
_cell_angle_gamma   90.00000000
_symmetry_Int_Tables_number   1
_chemical_formula_structural   Eu5V3S6O7
_chemical_formula_sum   'Eu10 V6 S12 O14'
_cell_volume   686.90017662
_cell_formula_units_Z   2
loop_
 _symmetry_equiv_pos_site_id
 _symmetry_equiv_pos_as_xyz
  1  'x, y, z'
loop_
 _atom_site_type_symbol
 _atom_site_label
 _atom_site_symmetry_multiplicity
 _atom_site_fract_x
 _atom_site_fract_y
 _atom_site_fract_z
 _atom_site_occupancy
  Eu  Eu0  1  0.75000000  0.53013360  0.13763231  1
  Eu  Eu1  1  0.75000000  0.53013360  0.36236769  1
  Eu  Eu2  1  0.25000000  0.46986640  0.86236769  1
  Eu  Eu3  1  0.25000000  0.46986640  0.63763231  1
  Eu  Eu4  1  0.25000000  0.27706726  0.25000000  1
  Eu  Eu5  1  0.75000000  0.72293274  0.75000000  1
  Eu  Eu6  1  0.25000000  0.91211818  0.08674274  1
  Eu  Eu7  1  0.25000000  0.91211818  0.41325726  1
  Eu  Eu8  1  0.75000000  0.08788182  0.91325726  1
  Eu  Eu9  1  0.75000000  0.08788182  0.58674274  1
  V  V10  1  0.25000000  0.25323904  0.05622165  1
  V  V11  1  0.25000000  0.25323904  0.44377835  1
  V  V12  1  0.75000000  0.74676096  0.94377835  1
  V  V13  1  0.75000000  0.74676096  0.55622165  1
  V  V14  1  0.75000000  0.81530201  0.25000000  1
  V  V15  1  0.25000000  0.18469799  0.75000000  1
  S  S16  1  0.25000000  0.64269352  0.25000000  1
  S  S17  1  0.75000000  0.35730648  0.75000000  1
  S  S18  1  0.75000000  0.35177542  0.98521290  1
  S  S19  1  0.75000000  0.35177542  0.51478710  1
  S  S20  1  0.25000000  0.64822458  0.01478710  1
  S  S21  1  0.25000000  0.64822458  0.48521290  1
  S  S22  1  0.25000000  0.96720103  0.25000000  1
  S  S23  1  0.75000000  0.03279897  0.75000000  1
  S  S24  1  0.75000000  0.14697443  0.13212876  1
  S  S25  1  0.75000000  0.14697443  0.36787124  1
  S  S26  1  0.25000000  0.85302557  0.86787124  1
  S  S27  1  0.25000000  0.85302557  0.63212876  1
  O  O28  1  0.75000000  0.40723384  0.25000000  1
  O  O29  1  0.25000000  0.59276616  0.75000000  1
  O  O30  1  0.25000000  0.38753202  0.12556135  1
  O  O31  1  0.25000000  0.38753202  0.37443865  1
  O  O32  1  0.75000000  0.61246798  0.87443865  1
  O  O33  1  0.75000000  0.61246798  0.62556135  1
  O  O34  1  0.25000000  0.10599873  0.99967252  1
  O  O35  1  0.25000000  0.10599873  0.50032748  1
  O  O36  1  0.75000000  0.89400127  0.00032748  1
  O  O37  1  0.75000000  0.89400127  0.49967252  1
  O  O38  1  0.75000000  0.79348130  0.14888658  1
  O  O39  1  0.75000000  0.79348130  0.35111342  1
  O  O40  1  0.25000000  0.20651870  0.85111342  1
  O  O41  1  0.25000000  0.20651870  0.64888658  1
