# generated using pymatgen
data_ZnH9C4(NO2)3
_symmetry_space_group_name_H-M   'P 1'
_cell_length_a   8.56656921
_cell_length_b   8.98044968
_cell_length_c   11.92000184
_cell_angle_alpha   90.00000000
_cell_angle_beta   90.00000000
_cell_angle_gamma   90.00000000
_symmetry_Int_Tables_number   1
_chemical_formula_structural   ZnH9C4(NO2)3
_chemical_formula_sum   'Zn4 H36 C16 N12 O24'
_cell_volume   917.02533470
_cell_formula_units_Z   4
loop_
 _symmetry_equiv_pos_site_id
 _symmetry_equiv_pos_as_xyz
  1  'x, y, z'
loop_
 _atom_site_type_symbol
 _atom_site_label
 _atom_site_symmetry_multiplicity
 _atom_site_fract_x
 _atom_site_fract_y
 _atom_site_fract_z
 _atom_site_occupancy
  Zn  Zn0  1  0.24627848  0.25000000  0.75000000  1
  Zn  Zn1  1  0.25372152  0.25000000  0.25000000  1
  Zn  Zn2  1  0.75372152  0.75000000  0.25000000  1
  Zn  Zn3  1  0.74627848  0.75000000  0.75000000  1
  H  H4  1  0.25000000  0.32366400  -0.00000000  1
  H  H5  1  0.25000000  0.17633600  0.50000000  1
  H  H6  1  0.75000000  0.67633600  -0.00000000  1
  H  H7  1  0.75000000  0.82366400  0.50000000  1
  H  H8  1  0.90992268  0.07164295  0.78584658  1
  H  H9  1  0.59007732  0.07164295  0.21415342  1
  H  H10  1  0.90992268  0.42835705  0.71415342  1
  H  H11  1  0.59007732  0.42835705  0.28584658  1
  H  H12  1  0.09007732  0.92835705  0.21415342  1
  H  H13  1  0.40992268  0.92835705  0.78584658  1
  H  H14  1  0.09007732  0.57164295  0.28584658  1
  H  H15  1  0.40992268  0.57164295  0.71415342  1
  H  H16  1  0.16848403  0.93141594  0.92277888  1
  H  H17  1  0.33151597  0.93141594  0.07722112  1
  H  H18  1  0.16848403  0.56858406  0.57722112  1
  H  H19  1  0.33151597  0.56858406  0.42277888  1
  H  H20  1  0.83151597  0.06858406  0.07722112  1
  H  H21  1  0.66848403  0.06858406  0.92277888  1
  H  H22  1  0.83151597  0.43141594  0.42277888  1
  H  H23  1  0.66848403  0.43141594  0.57722112  1
  H  H24  1  0.08596513  0.75962393  0.87585085  1
  H  H25  1  0.41403487  0.75962393  0.12414915  1
  H  H26  1  0.08596513  0.74037607  0.62414915  1
  H  H27  1  0.41403487  0.74037607  0.37585085  1
  H  H28  1  0.91403487  0.24037607  0.12414915  1
  H  H29  1  0.58596513  0.24037607  0.87585085  1
  H  H30  1  0.91403487  0.25962393  0.37585085  1
  H  H31  1  0.58596513  0.25962393  0.62414915  1
  H  H32  1  0.18620505  0.53751297  0.94123324  1
  H  H33  1  0.31379495  0.53751297  0.05876676  1
  H  H34  1  0.18620505  0.96248703  0.55876676  1
  H  H35  1  0.31379495  0.96248703  0.44123324  1
  H  H36  1  0.81379495  0.46248703  0.05876676  1
  H  H37  1  0.68620505  0.46248703  0.94123324  1
  H  H38  1  0.81379495  0.03751297  0.44123324  1
  H  H39  1  0.68620505  0.03751297  0.55876676  1
  C  C40  1  0.25000000  0.20116009  0.00000000  1
  C  C41  1  0.25000000  0.29883991  0.50000000  1
  C  C42  1  0.75000000  0.79883991  0.00000000  1
  C  C43  1  0.75000000  0.70116009  0.50000000  1
  C  C44  1  0.98178556  0.01294751  0.72228372  1
  C  C45  1  0.51821444  0.01294751  0.27771628  1
  C  C46  1  0.98178556  0.48705249  0.77771628  1
  C  C47  1  0.51821444  0.48705249  0.22228372  1
  C  C48  1  0.01821444  0.98705249  0.27771628  1
  C  C49  1  0.48178556  0.98705249  0.72228372  1
  C  C50  1  0.01821444  0.51294751  0.22228372  1
  C  C51  1  0.48178556  0.51294751  0.77771628  1
  C  C52  1  0.25000000  0.74319319  0.00000000  1
  C  C53  1  0.25000000  0.75680681  0.50000000  1
  C  C54  1  0.75000000  0.25680681  0.00000000  1
  C  C55  1  0.75000000  0.24319319  0.50000000  1
  N  N56  1  0.16030204  0.81784664  0.92696506  1
  N  N57  1  0.33969796  0.81784664  0.07303494  1
  N  N58  1  0.16030204  0.68215336  0.57303494  1
  N  N59  1  0.33969796  0.68215336  0.42696506  1
  N  N60  1  0.83969796  0.18215336  0.07303494  1
  N  N61  1  0.66030204  0.18215336  0.92696506  1
  N  N62  1  0.83969796  0.31784664  0.42696506  1
  N  N63  1  0.66030204  0.31784664  0.57303494  1
  N  N64  1  0.25000000  0.59481614  0.00000000  1
  N  N65  1  0.25000000  0.90518386  0.50000000  1
  N  N66  1  0.75000000  0.40518386  0.00000000  1
  N  N67  1  0.75000000  0.09481614  0.50000000  1
  O  O68  1  0.24139345  0.13444464  0.90616783  1
  O  O69  1  0.25860655  0.13444464  0.09383217  1
  O  O70  1  0.24139345  0.36555536  0.59383217  1
  O  O71  1  0.25860655  0.36555536  0.40616783  1
  O  O72  1  0.75860655  0.86555536  0.09383217  1
  O  O73  1  0.74139345  0.86555536  0.90616783  1
  O  O74  1  0.75860655  0.63444464  0.40616783  1
  O  O75  1  0.74139345  0.63444464  0.59383217  1
  O  O76  1  0.10236116  0.07805779  0.68394855  1
  O  O77  1  0.39763884  0.07805779  0.31605145  1
  O  O78  1  0.10236116  0.42194221  0.81605145  1
  O  O79  1  0.39763884  0.42194221  0.18394855  1
  O  O80  1  0.89763884  0.92194221  0.31605145  1
  O  O81  1  0.60236116  0.92194221  0.68394855  1
  O  O82  1  0.89763884  0.57805779  0.18394855  1
  O  O83  1  0.60236116  0.57805779  0.81605145  1
  O  O84  1  0.93982924  0.88368626  0.69162633  1
  O  O85  1  0.56017076  0.88368626  0.30837367  1
  O  O86  1  0.93982924  0.61631374  0.80837367  1
  O  O87  1  0.56017076  0.61631374  0.19162633  1
  O  O88  1  0.06017076  0.11631374  0.30837367  1
  O  O89  1  0.43982924  0.11631374  0.69162633  1
  O  O90  1  0.06017076  0.38368626  0.19162633  1
  O  O91  1  0.43982924  0.38368626  0.80837367  1
