# generated using pymatgen
data_Cs3AsSe4O
_symmetry_space_group_name_H-M   'P 1'
_cell_length_a   10.46810603
_cell_length_b   10.55001504
_cell_length_c   12.11967140
_cell_angle_alpha   90.00000000
_cell_angle_beta   88.94716951
_cell_angle_gamma   90.00000000
_symmetry_Int_Tables_number   1
_chemical_formula_structural   Cs3AsSe4O
_chemical_formula_sum   'Cs12 As4 Se16 O4'
_cell_volume   1338.25449831
_cell_formula_units_Z   4
loop_
 _symmetry_equiv_pos_site_id
 _symmetry_equiv_pos_as_xyz
  1  'x, y, z'
loop_
 _atom_site_type_symbol
 _atom_site_label
 _atom_site_symmetry_multiplicity
 _atom_site_fract_x
 _atom_site_fract_y
 _atom_site_fract_z
 _atom_site_occupancy
  Cs  Cs0  1  0.58700465  0.32574471  0.24965868  1
  Cs  Cs1  1  0.08700465  0.17425529  0.74965868  1
  Cs  Cs2  1  0.41299535  0.67425529  0.75034132  1
  Cs  Cs3  1  0.91299535  0.82574471  0.25034132  1
  Cs  Cs4  1  0.21490234  0.57473226  0.04448705  1
  Cs  Cs5  1  0.71490234  0.92526774  0.54448705  1
  Cs  Cs6  1  0.78509766  0.42526774  0.95551295  1
  Cs  Cs7  1  0.28509766  0.07473226  0.45551295  1
  Cs  Cs8  1  0.18441179  0.53908655  0.45727908  1
  Cs  Cs9  1  0.68441179  0.96091345  0.95727908  1
  Cs  Cs10  1  0.81558821  0.46091345  0.54272092  1
  Cs  Cs11  1  0.31558821  0.03908655  0.04272092  1
  As  As12  1  0.02585131  0.28417113  0.23388432  1
  As  As13  1  0.52585131  0.21582887  0.73388432  1
  As  As14  1  0.97414869  0.71582887  0.76611568  1
  As  As15  1  0.47414869  0.78417113  0.26611568  1
  Se  Se16  1  0.24728092  0.30790232  0.23530795  1
  Se  Se17  1  0.74728092  0.19209768  0.73530795  1
  Se  Se18  1  0.75271908  0.69209768  0.76469205  1
  Se  Se19  1  0.25271908  0.80790232  0.26469205  1
  Se  Se20  1  0.92652932  0.48415197  0.23210535  1
  Se  Se21  1  0.42652932  0.01584803  0.73210535  1
  Se  Se22  1  0.07347068  0.51584803  0.76789465  1
  Se  Se23  1  0.57347068  0.98415197  0.26789465  1
  Se  Se24  1  0.95829703  0.15059468  0.09351555  1
  Se  Se25  1  0.45829703  0.34940532  0.59351555  1
  Se  Se26  1  0.04170297  0.84940532  0.90648445  1
  Se  Se27  1  0.54170297  0.65059468  0.40648445  1
  Se  Se28  1  0.95936446  0.17503383  0.40654237  1
  Se  Se29  1  0.45936446  0.32496617  0.90654237  1
  Se  Se30  1  0.04063554  0.82496617  0.59345763  1
  Se  Se31  1  0.54063554  0.67503383  0.09345763  1
  O  O32  1  0.04515658  0.25040989  0.51232386  1
  O  O33  1  0.54515658  0.24959011  0.01232386  1
  O  O34  1  0.95484342  0.74959011  0.48767614  1
  O  O35  1  0.45484342  0.75040989  0.98767614  1
