# generated using pymatgen
data_CoP2H13C2NO9
_symmetry_space_group_name_H-M   'P 1'
_cell_length_a   7.28174338
_cell_length_b   9.04295690
_cell_length_c   15.88929467
_cell_angle_alpha   89.39336465
_cell_angle_beta   90.00000000
_cell_angle_gamma   90.00000000
_symmetry_Int_Tables_number   1
_chemical_formula_structural   CoP2H13C2NO9
_chemical_formula_sum   'Co4 P8 H52 C8 N4 O36'
_cell_volume   1046.22744147
_cell_formula_units_Z   4
loop_
 _symmetry_equiv_pos_site_id
 _symmetry_equiv_pos_as_xyz
  1  'x, y, z'
loop_
 _atom_site_type_symbol
 _atom_site_label
 _atom_site_symmetry_multiplicity
 _atom_site_fract_x
 _atom_site_fract_y
 _atom_site_fract_z
 _atom_site_occupancy
  Co  Co0  1  0.75915414  0.48124806  0.62599320  1
  Co  Co1  1  0.25915414  0.51875194  0.87400680  1
  Co  Co2  1  0.24084586  0.51875194  0.37400680  1
  Co  Co3  1  0.74084586  0.48124806  0.12599320  1
  P  P4  1  0.60907915  0.69290778  0.46587207  1
  P  P5  1  0.10907915  0.30709222  0.03412793  1
  P  P6  1  0.39092085  0.30709222  0.53412793  1
  P  P7  1  0.89092085  0.69290778  0.96587207  1
  P  P8  1  0.07214984  0.70472449  0.71499187  1
  P  P9  1  0.57214984  0.29527551  0.78500813  1
  P  P10  1  0.92785016  0.29527551  0.28500813  1
  P  P11  1  0.42785016  0.70472449  0.21499187  1
  H  H12  1  0.27627029  0.63402530  0.55778776  1
  H  H13  1  0.77627029  0.36597470  0.94221224  1
  H  H14  1  0.72372971  0.36597470  0.44221224  1
  H  H15  1  0.22372971  0.63402530  0.05778776  1
  H  H16  1  0.42342335  0.67239556  0.63732962  1
  H  H17  1  0.92342335  0.32760444  0.86267038  1
  H  H18  1  0.57657665  0.32760444  0.36267038  1
  H  H19  1  0.07657665  0.67239556  0.13732962  1
  H  H20  1  0.64109336  0.80751256  0.34283032  1
  H  H21  1  0.14109336  0.19248744  0.15716968  1
  H  H22  1  0.35890664  0.19248744  0.65716968  1
  H  H23  1  0.85890664  0.80751256  0.84283032  1
  H  H24  1  0.02988881  0.34965081  0.53132875  1
  H  H25  1  0.52988881  0.65034919  0.96867125  1
  H  H26  1  0.97011119  0.65034919  0.46867125  1
  H  H27  1  0.47011119  0.34965081  0.03132875  1
  H  H28  1  0.91080019  0.22694046  0.57935929  1
  H  H29  1  0.41080019  0.77305954  0.92064071  1
  H  H30  1  0.08919981  0.77305954  0.42064071  1
  H  H31  1  0.58919981  0.22694046  0.07935929  1
  H  H32  1  0.57070605  0.57774471  0.75220435  1
  H  H33  1  0.07070605  0.42225529  0.74779565  1
  H  H34  1  0.42929395  0.42225529  0.24779565  1
  H  H35  1  0.92929395  0.57774471  0.25220435  1
  H  H36  1  0.71170455  0.70748444  0.72200121  1
  H  H37  1  0.21170455  0.29251556  0.77799879  1
  H  H38  1  0.28829545  0.29251556  0.27799879  1
  H  H39  1  0.78829545  0.70748444  0.22200121  1
  H  H40  1  0.27228665  0.86461023  0.82697582  1
  H  H41  1  0.77228665  0.13538977  0.67302418  1
  H  H42  1  0.72771335  0.13538977  0.17302418  1
  H  H43  1  0.22771335  0.86461023  0.32697582  1
  H  H44  1  0.34925236  0.02699289  0.83394372  1
  H  H45  1  0.84925236  0.97300711  0.66605628  1
  H  H46  1  0.65074764  0.97300711  0.16605628  1
  H  H47  1  0.15074764  0.02699289  0.33394372  1
  H  H48  1  0.36545281  0.86903250  0.48954628  1
  H  H49  1  0.86545281  0.13096750  0.01045372  1
  H  H50  1  0.63454719  0.13096750  0.51045372  1
  H  H51  1  0.13454719  0.86903250  0.98954628  1
  H  H52  1  0.53721881  0.88279051  0.56974984  1
  H  H53  1  0.03721881  0.11720949  0.93025016  1
  H  H54  1  0.46278119  0.11720949  0.43025016  1
  H  H55  1  0.96278119  0.88279051  0.06974984  1
  H  H56  1  0.25250867  0.90666134  0.65809026  1
  H  H57  1  0.75250867  0.09333866  0.84190974  1
  H  H58  1  0.74749133  0.09333866  0.34190974  1
  H  H59  1  0.24749133  0.90666134  0.15809026  1
  H  H60  1  0.09294941  0.84426935  0.58137685  1
  H  H61  1  0.59294941  0.15573065  0.91862315  1
  H  H62  1  0.90705059  0.15573065  0.41862315  1
  H  H63  1  0.40705059  0.84426935  0.08137685  1
  C  C64  1  0.45602430  0.80582573  0.53184622  1
  C  C65  1  0.95602430  0.19417427  0.96815378  1
  C  C66  1  0.54397570  0.19417427  0.46815378  1
  C  C67  1  0.04397570  0.80582573  0.03184622  1
  C  C68  1  0.18908712  0.80850970  0.63060542  1
  C  C69  1  0.68908712  0.19149030  0.86939458  1
  C  C70  1  0.81091288  0.19149030  0.36939458  1
  C  C71  1  0.31091288  0.80850970  0.13060542  1
  N  N72  1  0.33721213  0.71848381  0.59076514  1
  N  N73  1  0.83721213  0.28151619  0.90923486  1
  N  N74  1  0.66278787  0.28151619  0.40923486  1
  N  N75  1  0.16278787  0.71848381  0.09076514  1
  O  O76  1  0.68964235  0.81438655  0.40286680  1
  O  O77  1  0.18964235  0.18561345  0.09713320  1
  O  O78  1  0.31035765  0.18561345  0.59713320  1
  O  O79  1  0.81035765  0.81438655  0.90286680  1
  O  O80  1  0.49907439  0.57855963  0.41922938  1
  O  O81  1  0.99907439  0.42144037  0.08077062  1
  O  O82  1  0.50092561  0.42144037  0.58077062  1
  O  O83  1  0.00092561  0.57855963  0.91922938  1
  O  O84  1  0.76891461  0.63387148  0.51926833  1
  O  O85  1  0.26891461  0.36612852  0.98073167  1
  O  O86  1  0.23108539  0.36612852  0.48073167  1
  O  O87  1  0.73108539  0.63387148  0.01926833  1
  O  O88  1  0.90885899  0.80269177  0.74184904  1
  O  O89  1  0.40885899  0.19730823  0.75815096  1
  O  O90  1  0.09114101  0.19730823  0.25815096  1
  O  O91  1  0.59114101  0.80269177  0.24184904  1
  O  O92  1  0.01094693  0.55457023  0.67848781  1
  O  O93  1  0.51094693  0.44542977  0.82151219  1
  O  O94  1  0.98905307  0.44542977  0.32151219  1
  O  O95  1  0.48905307  0.55457023  0.17848781  1
  O  O96  1  0.22268569  0.68712421  0.78216410  1
  O  O97  1  0.72268569  0.31287579  0.71783590  1
  O  O98  1  0.77731431  0.31287579  0.21783590  1
  O  O99  1  0.27731431  0.68712421  0.28216410  1
  O  O100  1  0.90367778  0.32628773  0.55293382  1
  O  O101  1  0.40367778  0.67371227  0.94706618  1
  O  O102  1  0.09632222  0.67371227  0.44706618  1
  O  O103  1  0.59632222  0.32628773  0.05293382  1
  O  O104  1  0.61479378  0.63708204  0.70217946  1
  O  O105  1  0.11479378  0.36291796  0.79782054  1
  O  O106  1  0.38520622  0.36291796  0.29782054  1
  O  O107  1  0.88520622  0.63708204  0.20217946  1
  O  O108  1  0.30681434  0.94173785  0.86792662  1
  O  O109  1  0.80681434  0.05826215  0.63207338  1
  O  O110  1  0.69318566  0.05826215  0.13207338  1
  O  O111  1  0.19318566  0.94173785  0.36792662  1
