# generated using pymatgen
data_BaH6C2SNO5
_symmetry_space_group_name_H-M   'P 1'
_cell_length_a   6.96439470
_cell_length_b   6.98622748
_cell_length_c   10.13791191
_cell_angle_alpha   85.61120186
_cell_angle_beta   72.40612460
_cell_angle_gamma   67.33311982
_symmetry_Int_Tables_number   1
_chemical_formula_structural   BaH6C2SNO5
_chemical_formula_sum   'Ba2 H12 C4 S2 N2 O10'
_cell_volume   433.42073625
_cell_formula_units_Z   2
loop_
 _symmetry_equiv_pos_site_id
 _symmetry_equiv_pos_as_xyz
  1  'x, y, z'
loop_
 _atom_site_type_symbol
 _atom_site_label
 _atom_site_symmetry_multiplicity
 _atom_site_fract_x
 _atom_site_fract_y
 _atom_site_fract_z
 _atom_site_occupancy
  Ba  Ba0  1  0.80574743  0.30782688  0.50228571  1
  Ba  Ba1  1  0.19425257  0.69217312  0.49771429  1
  H  H2  1  0.59010934  0.35643857  0.22280772  1
  H  H3  1  0.40989066  0.64356143  0.77719228  1
  H  H4  1  0.66777559  0.54546822  0.20297276  1
  H  H5  1  0.33222441  0.45453178  0.79702724  1
  H  H6  1  0.93508475  0.04899452  0.79849787  1
  H  H7  1  0.06491525  0.95100548  0.20150213  1
  H  H8  1  0.75415930  0.97612758  0.78629194  1
  H  H9  1  0.24584070  0.02387242  0.21370806  1
  H  H10  1  0.75016560  0.65282338  0.74314448  1
  H  H11  1  0.24983440  0.34717662  0.25685552  1
  H  H12  1  0.95237388  0.45635870  0.75940525  1
  H  H13  1  0.04762612  0.54364130  0.24059475  1
  C  C14  1  0.60546248  0.89916731  0.49109908  1
  C  C15  1  0.39453752  0.10083269  0.50890092  1
  C  C16  1  0.66500401  0.97847246  0.13175338  1
  C  C17  1  0.33499599  0.02152754  0.86824662  1
  S  S18  1  0.87738959  0.76530194  0.07236894  1
  S  S19  1  0.12261041  0.23469806  0.92763106  1
  N  N20  1  0.51025508  0.13434535  0.17331578  1
  N  N21  1  0.48974492  0.86565465  0.82668422  1
  O  O22  1  0.58681181  0.72737265  0.48426361  1
  O  O23  1  0.41318819  0.27262735  0.51573639  1
  O  O24  1  0.77932368  0.92279308  0.48471854  1
  O  O25  1  0.22067632  0.07720692  0.51528146  1
  O  O26  1  0.60393455  0.46409111  0.27274400  1
  O  O27  1  0.39606545  0.53590889  0.72725600  1
  O  O28  1  0.87189297  0.01998534  0.73200617  1
  O  O29  1  0.12810703  0.98001466  0.26799383  1
  O  O30  1  0.88762469  0.54111391  0.69040485  1
  O  O31  1  0.11237531  0.45888609  0.30959515  1
