# generated using pymatgen
data_Na2U2ZnH8(C3O7)4
_symmetry_space_group_name_H-M   'P 1'
_cell_length_a   6.53744819
_cell_length_b   7.98646808
_cell_length_c   13.05736674
_cell_angle_alpha   75.80487513
_cell_angle_beta   84.52133216
_cell_angle_gamma   67.39779949
_symmetry_Int_Tables_number   1
_chemical_formula_structural   Na2U2ZnH8(C3O7)4
_chemical_formula_sum   'Na2 U2 Zn1 H8 C12 O28'
_cell_volume   610.16115227
_cell_formula_units_Z   1
loop_
 _symmetry_equiv_pos_site_id
 _symmetry_equiv_pos_as_xyz
  1  'x, y, z'
loop_
 _atom_site_type_symbol
 _atom_site_label
 _atom_site_symmetry_multiplicity
 _atom_site_fract_x
 _atom_site_fract_y
 _atom_site_fract_z
 _atom_site_occupancy
  Na  Na0  1  0.75013446  0.83535208  0.79217724  1
  Na  Na1  1  0.24986554  0.16464792  0.20782276  1
  U  U2  1  0.76196454  0.33660242  0.80407016  1
  U  U3  1  0.23803546  0.66339758  0.19592984  1
  Zn  Zn4  1  0.50000000  -0.00000000  0.50000000  1
  H  H5  1  0.91743674  0.85845970  0.57407672  1
  H  H6  1  0.08256326  0.14154030  0.42592328  1
  H  H7  1  0.80530588  0.06110890  0.59883088  1
  H  H8  1  0.19469412  0.93889110  0.40116912  1
  H  H9  1  0.75156030  0.98091435  0.31770624  1
  H  H10  1  0.24843970  0.01908565  0.68229376  1
  H  H11  1  0.64922382  0.19248848  0.32815817  1
  H  H12  1  0.35077618  0.80751152  0.67184183  1
  C  C13  1  0.30911087  0.24938969  0.77451389  1
  C  C14  1  0.69088913  0.75061031  0.22548611  1
  C  C15  1  0.21566185  0.45308539  0.78129476  1
  C  C16  1  0.78433815  0.54691461  0.21870524  1
  C  C17  1  0.80205330  0.38823399  0.54617838  1
  C  C18  1  0.19794670  0.61176601  0.45382162  1
  C  C19  1  0.69743506  0.58992863  0.56271338  1
  C  C20  1  0.30256494  0.41007137  0.43728662  1
  C  C21  1  0.52409725  0.58891488  0.97893639  1
  C  C22  1  0.47590275  0.41108512  0.02106361  1
  C  C23  1  0.97391573  0.93269670  0.97532918  1
  C  C24  1  0.02608427  0.06730330  0.02467082  1
  O  O25  1  0.16916230  0.17737223  0.76700982  1
  O  O26  1  0.83083770  0.82262777  0.23299018  1
  O  O27  1  0.00778962  0.52777767  0.79056504  1
  O  O28  1  0.99221038  0.47222233  0.20943496  1
  O  O29  1  0.35497302  0.52995186  0.77643122  1
  O  O30  1  0.64502698  0.47004814  0.22356878  1
  O  O31  1  0.51760987  0.16769239  0.77557322  1
  O  O32  1  0.48239013  0.83230761  0.22442678  1
  O  O33  1  0.81874094  0.26416865  0.63422928  1
  O  O34  1  0.18125906  0.73583135  0.36577072  1
  O  O35  1  0.67988265  0.60098100  0.65954978  1
  O  O36  1  0.32011735  0.39901900  0.34045022  1
  O  O37  1  0.63612053  0.72452296  0.48412801  1
  O  O38  1  0.36387947  0.27547704  0.51587199  1
  O  O39  1  0.85938410  0.35603397  0.45779831  1
  O  O40  1  0.14061590  0.64396603  0.54220169  1
  O  O41  1  0.62990307  0.59841077  0.89214500  1
  O  O42  1  0.37009693  0.40158923  0.10785500  1
  O  O43  1  0.45692914  0.71115565  0.03281740  1
  O  O44  1  0.54307086  0.28884435  0.96718260  1
  O  O45  1  0.88913924  0.99952358  0.88309944  1
  O  O46  1  0.11086076  0.00047642  0.11690056  1
  O  O47  1  0.01729274  0.76875156  0.02900973  1
  O  O48  1  0.98270726  0.23124844  0.97099027  1
  O  O49  1  0.78050016  0.94537943  0.60076495  1
  O  O50  1  0.21949984  0.05462057  0.39923505  1
  O  O51  1  0.70184588  0.06277810  0.36859118  1
  O  O52  1  0.29815412  0.93722190  0.63140882  1
