# generated using pymatgen
data_ErAl3(H3C)12
_symmetry_space_group_name_H-M   'P 1'
_cell_length_a   10.24613243
_cell_length_b   10.24613243
_cell_length_c   13.20569285
_cell_angle_alpha   96.30590443
_cell_angle_beta   96.30590443
_cell_angle_gamma   108.80615805
_symmetry_Int_Tables_number   1
_chemical_formula_structural   ErAl3(H3C)12
_chemical_formula_sum   'Er2 Al6 H72 C24'
_cell_volume   1288.78785186
_cell_formula_units_Z   2
loop_
 _symmetry_equiv_pos_site_id
 _symmetry_equiv_pos_as_xyz
  1  'x, y, z'
loop_
 _atom_site_type_symbol
 _atom_site_label
 _atom_site_symmetry_multiplicity
 _atom_site_fract_x
 _atom_site_fract_y
 _atom_site_fract_z
 _atom_site_occupancy
  Er  Er0  1  0.72913725  0.27086275  0.25000000  1
  Er  Er1  1  0.27086275  0.72913725  0.75000000  1
  Al  Al2  1  0.54495853  0.45504147  0.25000000  1
  Al  Al3  1  0.45504147  0.54495853  0.75000000  1
  Al  Al4  1  0.86139798  0.22163176  0.05703119  1
  Al  Al5  1  0.77836824  0.13860202  0.44296881  1
  Al  Al6  1  0.13860202  0.77836824  0.94296881  1
  Al  Al7  1  0.22163176  0.86139798  0.55703119  1
  H  H8  1  0.71044657  0.58730182  0.38660745  1
  H  H9  1  0.41269818  0.28955343  0.11339255  1
  H  H10  1  0.28955343  0.41269818  0.61339255  1
  H  H11  1  0.58730182  0.71044657  0.88660745  1
  H  H12  1  0.73252647  0.43626598  0.41969460  1
  H  H13  1  0.56373402  0.26747353  0.08030540  1
  H  H14  1  0.26747353  0.56373402  0.58030540  1
  H  H15  1  0.43626598  0.73252647  0.91969460  1
  H  H16  1  0.83633253  0.53580338  0.33521043  1
  H  H17  1  0.46419662  0.16366747  0.16478957  1
  H  H18  1  0.16366747  0.46419662  0.66478957  1
  H  H19  1  0.53580338  0.83633253  0.83521043  1
  H  H20  1  0.29561147  0.42761417  0.28542202  1
  H  H21  1  0.57238583  0.70438853  0.21457798  1
  H  H22  1  0.70438853  0.57238583  0.71457798  1
  H  H23  1  0.42761417  0.29561147  0.78542202  1
  H  H24  1  0.36123442  0.32693432  0.36435226  1
  H  H25  1  0.67306568  0.63876558  0.13564774  1
  H  H26  1  0.63876558  0.67306568  0.63564774  1
  H  H27  1  0.32693432  0.36123442  0.86435226  1
  H  H28  1  0.41721659  0.51067486  0.39791963  1
  H  H29  1  0.48932514  0.58278341  0.10208037  1
  H  H30  1  0.58278341  0.48932514  0.60208037  1
  H  H31  1  0.51067486  0.41721659  0.89791963  1
  H  H32  1  0.94492662  0.46116173  0.07974385  1
  H  H33  1  0.53883827  0.05507338  0.42025615  1
  H  H34  1  0.05507338  0.53883827  0.92025615  1
  H  H35  1  0.46116173  0.94492662  0.57974385  1
  H  H36  1  0.80455191  0.46841186  0.13839627  1
  H  H37  1  0.53158814  0.19544809  0.36160373  1
  H  H38  1  0.19544809  0.53158814  0.86160373  1
  H  H39  1  0.46841186  0.80455191  0.63839627  1
  H  H40  1  0.96029577  0.46219844  0.21082725  1
  H  H41  1  0.53780156  0.03970423  0.28917275  1
  H  H42  1  0.03970423  0.53780156  0.78917275  1
  H  H43  1  0.46219844  0.96029577  0.71082725  1
  H  H44  1  0.76440657  0.03123935  0.20075064  1
  H  H45  1  0.96876065  0.23559343  0.29924936  1
  H  H46  1  0.23559343  0.96876065  0.79924936  1
  H  H47  1  0.03123935  0.76440657  0.70075064  1
  H  H48  1  0.61912813  0.03495499  0.11371124  1
  H  H49  1  0.96504501  0.38087187  0.38628876  1
  H  H50  1  0.38087187  0.96504501  0.88628876  1
  H  H51  1  0.03495499  0.61912813  0.61371124  1
  H  H52  1  0.75274931  0.98948888  0.06924948  1
  H  H53  1  0.01051112  0.24725069  0.43075052  1
  H  H54  1  0.24725069  0.01051112  0.93075052  1
  H  H55  1  0.98948888  0.75274931  0.56924948  1
  H  H56  1  0.76465957  0.10016683  0.87153379  1
  H  H57  1  0.89983317  0.23534043  0.62846621  1
  H  H58  1  0.23534043  0.89983317  0.12846621  1
  H  H59  1  0.10016683  0.76465957  0.37153379  1
  H  H60  1  0.64676688  0.18213653  0.91189529  1
  H  H61  1  0.81786347  0.35323312  0.58810471  1
  H  H62  1  0.35323312  0.81786347  0.08810471  1
  H  H63  1  0.18213653  0.64676688  0.41189529  1
  H  H64  1  0.80388998  0.28098158  0.87322158  1
  H  H65  1  0.71901842  0.19611002  0.62677842  1
  H  H66  1  0.19611002  0.71901842  0.12677842  1
  H  H67  1  0.28098158  0.80388998  0.37322158  1
  H  H68  1  0.06747730  0.16080346  0.99392804  1
  H  H69  1  0.83919654  0.93252270  0.50607196  1
  H  H70  1  0.93252270  0.83919654  0.00607196  1
  H  H71  1  0.16080346  0.06747730  0.49392804  1
  H  H72  1  0.13130943  0.32415549  0.07510173  1
  H  H73  1  0.67584451  0.86869057  0.42489827  1
  H  H74  1  0.86869057  0.67584451  0.92489827  1
  H  H75  1  0.32415549  0.13130943  0.57510173  1
  H  H76  1  0.08716263  0.16841640  0.12964651  1
  H  H77  1  0.83158360  0.91283737  0.37035349  1
  H  H78  1  0.91283737  0.83158360  0.87035349  1
  H  H79  1  0.16841640  0.08716263  0.62964651  1
  C  C80  1  0.72898297  0.49252457  0.35306347  1
  C  C81  1  0.50747543  0.27101703  0.14693653  1
  C  C82  1  0.27101703  0.50747543  0.64693653  1
  C  C83  1  0.49252457  0.72898297  0.85306347  1
  C  C84  1  0.39034740  0.42551089  0.33245604  1
  C  C85  1  0.57448911  0.60965260  0.16754396  1
  C  C86  1  0.60965260  0.57448911  0.66754396  1
  C  C87  1  0.42551089  0.39034740  0.83245604  1
  C  C88  1  0.88417378  0.41670812  0.13923985  1
  C  C89  1  0.58329188  0.11582622  0.36076015  1
  C  C90  1  0.11582622  0.58329188  0.86076015  1
  C  C91  1  0.41670812  0.88417378  0.63923985  1
  C  C92  1  0.73427426  0.06478835  0.12755012  1
  C  C93  1  0.93521165  0.26572574  0.37244988  1
  C  C94  1  0.26572574  0.93521165  0.87244988  1
  C  C95  1  0.06478835  0.73427426  0.62755012  1
  C  C96  1  0.75837935  0.19503377  0.91583260  1
  C  C97  1  0.80496623  0.24162065  0.58416740  1
  C  C98  1  0.24162065  0.80496623  0.08416740  1
  C  C99  1  0.19503377  0.75837935  0.41583260  1
  C  C100  1  0.05483106  0.21752893  0.06588819  1
  C  C101  1  0.78247107  0.94516894  0.43411181  1
  C  C102  1  0.94516894  0.78247107  0.93411181  1
  C  C103  1  0.21752893  0.05483106  0.56588819  1
