# generated using pymatgen
data_YCrO5
_symmetry_space_group_name_H-M   'P 1'
_cell_length_a   8.31134372
_cell_length_b   8.31709792
_cell_length_c   11.60648634
_cell_angle_alpha   90.00000000
_cell_angle_beta   90.00000000
_cell_angle_gamma   90.48249806
_symmetry_Int_Tables_number   1
_chemical_formula_structural   YCrO5
_chemical_formula_sum   'Y8 Cr8 O40'
_cell_volume   802.28453869
_cell_formula_units_Z   8
loop_
 _symmetry_equiv_pos_site_id
 _symmetry_equiv_pos_as_xyz
  1  'x, y, z'
loop_
 _atom_site_type_symbol
 _atom_site_label
 _atom_site_symmetry_multiplicity
 _atom_site_fract_x
 _atom_site_fract_y
 _atom_site_fract_z
 _atom_site_occupancy
  Y  Y0  1  0.63521550  0.83275300  0.06372166  1
  Y  Y1  1  0.13521550  0.33275300  0.43627834  1
  Y  Y2  1  0.36478450  0.16724700  0.93627834  1
  Y  Y3  1  0.86478450  0.66724700  0.56372166  1
  Y  Y4  1  0.93162740  0.17941218  0.92095651  1
  Y  Y5  1  0.43162740  0.67941218  0.57904349  1
  Y  Y6  1  0.06837260  0.82058782  0.07904349  1
  Y  Y7  1  0.56837260  0.32058782  0.42095651  1
  Cr  Cr8  1  0.86080832  0.99831408  0.32914623  1
  Cr  Cr9  1  0.36080832  0.49831408  0.17085377  1
  Cr  Cr10  1  0.13919168  0.00168592  0.67085377  1
  Cr  Cr11  1  0.63919168  0.50168592  0.82914623  1
  Cr  Cr12  1  0.86078646  0.45411530  0.18922412  1
  Cr  Cr13  1  0.36078646  0.95411530  0.31077588  1
  Cr  Cr14  1  0.13921354  0.54588470  0.81077588  1
  Cr  Cr15  1  0.63921354  0.04588470  0.68922412  1
  O  O16  1  0.66284822  0.09508346  0.98468116  1
  O  O17  1  0.16284822  0.59508346  0.51531884  1
  O  O18  1  0.33715178  0.90491654  0.01531884  1
  O  O19  1  0.83715178  0.40491654  0.48468116  1
  O  O20  1  0.92575526  0.31529140  0.09830782  1
  O  O21  1  0.42575526  0.81529140  0.40169218  1
  O  O22  1  0.07424474  0.68470860  0.90169218  1
  O  O23  1  0.57424474  0.18470860  0.59830782  1
  O  O24  1  0.85530592  0.92286138  0.96225996  1
  O  O25  1  0.35530592  0.42286138  0.53774004  1
  O  O26  1  0.14469408  0.07713862  0.03774004  1
  O  O27  1  0.64469408  0.57713862  0.46225996  1
  O  O28  1  0.84104024  0.63207405  0.11883507  1
  O  O29  1  0.34104024  0.13207405  0.38116493  1
  O  O30  1  0.15895976  0.36792595  0.88116493  1
  O  O31  1  0.65895976  0.86792595  0.61883507  1
  O  O32  1  0.84331372  0.93192226  0.19121841  1
  O  O33  1  0.34331372  0.43192226  0.30878159  1
  O  O34  1  0.15668628  0.06807774  0.80878159  1
  O  O35  1  0.65668628  0.56807774  0.69121841  1
  O  O36  1  0.69112403  0.08194835  0.37057686  1
  O  O37  1  0.19112403  0.58194835  0.12942314  1
  O  O38  1  0.30887597  0.91805165  0.62942314  1
  O  O39  1  0.80887597  0.41805165  0.87057686  1
  O  O40  1  0.98403420  0.47611397  0.30325305  1
  O  O41  1  0.48403420  0.97611397  0.19674695  1
  O  O42  1  0.01596580  0.52388603  0.69674695  1
  O  O43  1  0.51596580  0.02388603  0.80325305  1
  O  O44  1  0.00163091  0.13811592  0.33527189  1
  O  O45  1  0.50163091  0.63811592  0.16472811  1
  O  O46  1  0.99836909  0.86188408  0.66472811  1
  O  O47  1  0.49836909  0.36188408  0.83527189  1
  O  O48  1  0.90350385  0.84567821  0.41599620  1
  O  O49  1  0.40350385  0.34567821  0.08400380  1
  O  O50  1  0.09649615  0.15432179  0.58400380  1
  O  O51  1  0.59649615  0.65432179  0.91599620  1
  O  O52  1  0.68684245  0.39265390  0.24152074  1
  O  O53  1  0.18684245  0.89265390  0.25847926  1
  O  O54  1  0.31315755  0.60734610  0.75847926  1
  O  O55  1  0.81315755  0.10734610  0.74152074  1
