# generated using pymatgen
data_CdRe2H26C6S6(N4O3)3
_symmetry_space_group_name_H-M   'P 1'
_cell_length_a   10.75394091
_cell_length_b   10.75394091
_cell_length_c   15.13475785
_cell_angle_alpha   73.67736491
_cell_angle_beta   73.67736491
_cell_angle_gamma   85.17513656
_symmetry_Int_Tables_number   1
_chemical_formula_structural   CdRe2H26C6S6(N4O3)3
_chemical_formula_sum   'Cd2 Re4 H52 C12 S12 N24 O18'
_cell_volume   1612.01809811
_cell_formula_units_Z   2
loop_
 _symmetry_equiv_pos_site_id
 _symmetry_equiv_pos_as_xyz
  1  'x, y, z'
loop_
 _atom_site_type_symbol
 _atom_site_label
 _atom_site_symmetry_multiplicity
 _atom_site_fract_x
 _atom_site_fract_y
 _atom_site_fract_z
 _atom_site_occupancy
  Cd  Cd0  1  -0.00000000  0.50000000  0.00000000  1
  Cd  Cd1  1  0.50000000  -0.00000000  0.50000000  1
  Re  Re2  1  0.99881851  0.66327257  0.35963936  1
  Re  Re3  1  0.33672743  0.00118149  0.14036064  1
  Re  Re4  1  0.00118149  0.33672743  0.64036064  1
  Re  Re5  1  0.66327257  0.99881851  0.85963936  1
  H  H6  1  0.18255908  0.00989609  0.90085981  1
  H  H7  1  0.99010391  0.81744092  0.59914019  1
  H  H8  1  0.81744092  0.99010391  0.09914019  1
  H  H9  1  0.00989609  0.18255908  0.40085981  1
  H  H10  1  0.15411823  0.96983301  0.80332267  1
  H  H11  1  0.03016699  0.84588177  0.69667733  1
  H  H12  1  0.84588177  0.03016699  0.19667733  1
  H  H13  1  0.96983301  0.15411823  0.30332267  1
  H  H14  1  0.11443447  0.87773024  0.05290457  1
  H  H15  1  0.12226976  0.88556553  0.44709543  1
  H  H16  1  0.88556553  0.12226976  0.94709543  1
  H  H17  1  0.87773024  0.11443447  0.55290457  1
  H  H18  1  0.01749962  0.74394651  0.07498797  1
  H  H19  1  0.25605349  0.98250038  0.42501203  1
  H  H20  1  0.98250038  0.25605349  0.92501203  1
  H  H21  1  0.74394651  0.01749962  0.57498797  1
  H  H22  1  0.58746501  0.28463320  0.14895475  1
  H  H23  1  0.71536680  0.41253499  0.35104525  1
  H  H24  1  0.41253499  0.71536680  0.85104525  1
  H  H25  1  0.28463320  0.58746501  0.64895475  1
  H  H26  1  0.71953731  0.38244355  0.13131076  1
  H  H27  1  0.61755645  0.28046269  0.36868924  1
  H  H28  1  0.28046269  0.61755645  0.86868924  1
  H  H29  1  0.38244355  0.71953731  0.63131076  1
  H  H30  1  0.51684950  0.28246245  0.01694000  1
  H  H31  1  0.71753755  0.48315050  0.48306000  1
  H  H32  1  0.48315050  0.71753755  0.98306000  1
  H  H33  1  0.28246245  0.51684950  0.51694000  1
  H  H34  1  0.59884167  0.37486341  0.90141266  1
  H  H35  1  0.62513659  0.40115833  0.59858734  1
  H  H36  1  0.40115833  0.62513659  0.09858734  1
  H  H37  1  0.37486341  0.59884167  0.40141266  1
  H  H38  1  0.62330498  0.79678578  0.22650389  1
  H  H39  1  0.20321422  0.37669502  0.27349611  1
  H  H40  1  0.37669502  0.20321422  0.77349611  1
  H  H41  1  0.79678578  0.62330498  0.72650389  1
  H  H42  1  0.72244322  0.69823102  0.29183693  1
  H  H43  1  0.30176898  0.27755678  0.20816307  1
  H  H44  1  0.27755678  0.30176898  0.70816307  1
  H  H45  1  0.69823102  0.72244322  0.79183693  1
  H  H46  1  0.64006915  0.78980025  0.07366962  1
  H  H47  1  0.21019975  0.35993085  0.42633038  1
  H  H48  1  0.35993085  0.21019975  0.92633038  1
  H  H49  1  0.78980025  0.64006915  0.57366962  1
  H  H50  1  0.73425342  0.66873979  0.02752893  1
  H  H51  1  0.33126021  0.26574658  0.47247107  1
  H  H52  1  0.26574658  0.33126021  0.97247107  1
  H  H53  1  0.66873979  0.73425342  0.52752893  1
  H  H54  1  0.71252137  0.39506882  0.72473518  1
  H  H55  1  0.60493118  0.28747863  0.77526482  1
  H  H56  1  0.28747863  0.60493118  0.27526482  1
  H  H57  1  0.39506882  0.71252137  0.22473518  1
  C  C58  1  0.07566317  0.84612857  0.93486132  1
  C  C59  1  0.15387143  0.92433683  0.56513868  1
  C  C60  1  0.92433683  0.15387143  0.06513868  1
  C  C61  1  0.84612857  0.07566317  0.43486132  1
  C  C62  1  0.67099869  0.38973933  0.00928357  1
  C  C63  1  0.61026067  0.32900131  0.49071643  1
  C  C64  1  0.32900131  0.61026067  0.99071643  1
  C  C65  1  0.38973933  0.67099869  0.50928357  1
  C  C66  1  0.74257569  0.67103223  0.16025929  1
  C  C67  1  0.32896777  0.25742431  0.33974071  1
  C  C68  1  0.25742431  0.32896777  0.83974071  1
  C  C69  1  0.67103223  0.74257569  0.66025929  1
  S  S70  1  0.00738845  0.74826026  0.88927600  1
  S  S71  1  0.25173974  0.99261155  0.61072400  1
  S  S72  1  0.99261155  0.25173974  0.11072400  1
  S  S73  1  0.74826026  0.00738845  0.38927600  1
  S  S74  1  0.78997770  0.49747711  0.93381044  1
  S  S75  1  0.50252289  0.21002230  0.56618956  1
  S  S76  1  0.21002230  0.50252289  0.06618956  1
  S  S77  1  0.49747711  0.78997770  0.43381044  1
  S  S78  1  0.84853974  0.54292571  0.17577207  1
  S  S79  1  0.45707429  0.15146026  0.32422793  1
  S  S80  1  0.15146026  0.45707429  0.82422793  1
  S  S81  1  0.54292571  0.84853974  0.67577207  1
  N  N82  1  0.14287242  0.95029597  0.87483950  1
  N  N83  1  0.04970403  0.85712758  0.62516050  1
  N  N84  1  0.85712758  0.04970403  0.12516050  1
  N  N85  1  0.95029597  0.14287242  0.37483950  1
  N  N86  1  0.06263497  0.82538139  0.02826653  1
  N  N87  1  0.17461861  0.93736503  0.47173347  1
  N  N88  1  0.93736503  0.17461861  0.97173347  1
  N  N89  1  0.82538139  0.06263497  0.52826653  1
  N  N90  1  0.65820132  0.34798097  0.10336576  1
  N  N91  1  0.65201903  0.34179868  0.39663424  1
  N  N92  1  0.34179868  0.65201903  0.89663424  1
  N  N93  1  0.34798097  0.65820132  0.60336576  1
  N  N94  1  0.58736990  0.34817453  0.97341476  1
  N  N95  1  0.65182547  0.41263010  0.52658524  1
  N  N96  1  0.41263010  0.65182547  0.02658524  1
  N  N97  1  0.34817453  0.58736990  0.47341476  1
  N  N98  1  0.69880622  0.73291849  0.22884862  1
  N  N99  1  0.26708151  0.30119378  0.27115138  1
  N  N100  1  0.30119378  0.26708151  0.77115138  1
  N  N101  1  0.73291849  0.69880622  0.72884862  1
  N  N102  1  0.70191956  0.71268924  0.08145660  1
  N  N103  1  0.28731076  0.29808044  0.41854340  1
  N  N104  1  0.29808044  0.28731076  0.91854340  1
  N  N105  1  0.71268924  0.70191956  0.58145660  1
  O  O106  1  0.83734710  0.60801907  0.39823905  1
  O  O107  1  0.39198093  0.16265290  0.10176095  1
  O  O108  1  0.16265290  0.39198093  0.60176095  1
  O  O109  1  0.60801907  0.83734710  0.89823905  1
  O  O110  1  0.02517540  0.77406434  0.24755356  1
  O  O111  1  0.22593566  0.97482460  0.25244644  1
  O  O112  1  0.97482460  0.22593566  0.75244644  1
  O  O113  1  0.77406434  0.02517540  0.74755356  1
  O  O114  1  0.02465044  0.73873111  0.44165090  1
  O  O115  1  0.26126889  0.97534956  0.05834910  1
  O  O116  1  0.97534956  0.26126889  0.55834910  1
  O  O117  1  0.73873111  0.02465044  0.94165090  1
  O  O118  1  0.11013716  0.53328850  0.35149027  1
  O  O119  1  0.46671150  0.88986284  0.14850973  1
  O  O120  1  0.88986284  0.46671150  0.64850973  1
  O  O121  1  0.53328850  0.11013716  0.85149027  1
  O  O122  1  0.61856517  0.38143483  0.75000000  1
  O  O123  1  0.38143483  0.61856517  0.25000000  1
