# generated using pymatgen
data_Nd2Ge6Au
_symmetry_space_group_name_H-M   'P 1'
_cell_length_a   4.20125295
_cell_length_b   4.21502715
_cell_length_c   11.42820192
_cell_angle_alpha   90.00000000
_cell_angle_beta   100.59180496
_cell_angle_gamma   90.00000000
_symmetry_Int_Tables_number   1
_chemical_formula_structural   Nd2Ge6Au
_chemical_formula_sum   'Nd2 Ge6 Au1'
_cell_volume   198.92697841
_cell_formula_units_Z   1
loop_
 _symmetry_equiv_pos_site_id
 _symmetry_equiv_pos_as_xyz
  1  'x, y, z'
loop_
 _atom_site_type_symbol
 _atom_site_label
 _atom_site_symmetry_multiplicity
 _atom_site_fract_x
 _atom_site_fract_y
 _atom_site_fract_z
 _atom_site_occupancy
  Nd  Nd0  1  0.77899317  0.50000000  0.55798634  1
  Nd  Nd1  1  0.11769641  0.50000000  0.23539281  1
  Ge  Ge2  1  0.49187206  0.50000000  0.98374412  1
  Ge  Ge3  1  0.38019924  0.50000000  0.76039848  1
  Ge  Ge4  1  0.99172038  0.00000000  0.98344076  1
  Ge  Ge5  1  0.87990130  0.00000000  0.75980261  1
  Ge  Ge6  1  0.67109336  -0.00000000  0.34218673  1
  Ge  Ge7  1  0.23618714  -0.00000000  0.47237428  1
  Au  Au8  1  0.55933693  -0.00000000  0.11867386  1
