# generated using pymatgen
data_Zr6Ga2NiH10
_symmetry_space_group_name_H-M   'P 1'
_cell_length_a   7.22728760
_cell_length_b   8.03128612
_cell_length_c   8.03128612
_cell_angle_alpha   120.00000425
_cell_angle_beta   90.00000000
_cell_angle_gamma   90.00000000
_symmetry_Int_Tables_number   1
_chemical_formula_structural   Zr6Ga2NiH10
_chemical_formula_sum   'Zr12 Ga4 Ni2 H20'
_cell_volume   403.71617165
_cell_formula_units_Z   2
loop_
 _symmetry_equiv_pos_site_id
 _symmetry_equiv_pos_as_xyz
  1  'x, y, z'
loop_
 _atom_site_type_symbol
 _atom_site_label
 _atom_site_symmetry_multiplicity
 _atom_site_fract_x
 _atom_site_fract_y
 _atom_site_fract_z
 _atom_site_occupancy
  Zr  Zr0  1  -0.00000000  0.26418939  0.26418939  1
  Zr  Zr1  1  -0.00000000  0.00000000  0.73581061  1
  Zr  Zr2  1  0.50000000  0.26418939  0.26418939  1
  Zr  Zr3  1  -0.00000000  0.73581061  0.00000000  1
  Zr  Zr4  1  0.50000000  0.00000000  0.73581061  1
  Zr  Zr5  1  0.50000000  0.73581061  0.00000000  1
  Zr  Zr6  1  0.75000000  0.58044252  0.62603025  1
  Zr  Zr7  1  0.75000000  0.04558772  0.41955748  1
  Zr  Zr8  1  0.25000000  0.95441228  0.37396975  1
  Zr  Zr9  1  0.75000000  0.37396975  0.95441228  1
  Zr  Zr10  1  0.25000000  0.62603025  0.58044252  1
  Zr  Zr11  1  0.25000000  0.41955748  0.04558772  1
  Ga  Ga12  1  0.95267745  0.66666700  0.33333300  1
  Ga  Ga13  1  0.54732255  0.66666700  0.33333300  1
  Ga  Ga14  1  0.04732255  0.33333300  0.66666700  1
  Ga  Ga15  1  0.45267745  0.33333300  0.66666700  1
  Ni  Ni16  1  0.75000000  -0.00000000  -0.00000000  1
  Ni  Ni17  1  0.25000000  -0.00000000  -0.00000000  1
  H  H18  1  -0.00000000  0.72246265  0.72246265  1
  H  H19  1  -0.00000000  0.00000000  0.27753735  1
  H  H20  1  0.50000000  0.72246265  0.72246265  1
  H  H21  1  -0.00000000  0.27753735  0.00000000  1
  H  H22  1  0.50000000  0.00000000  0.27753735  1
  H  H23  1  0.50000000  0.27753735  0.00000000  1
  H  H24  1  0.75000000  0.59436863  0.88866132  1
  H  H25  1  0.75000000  0.29429268  0.40563137  1
  H  H26  1  0.25000000  0.70570732  0.11133868  1
  H  H27  1  0.75000000  0.11133868  0.70570732  1
  H  H28  1  0.25000000  0.88866132  0.59436863  1
  H  H29  1  0.25000000  0.40563137  0.29429268  1
  H  H30  1  0.75000000  0.87765078  0.12054107  1
  H  H31  1  0.75000000  0.24289029  0.12234922  1
  H  H32  1  0.25000000  0.75710971  0.87945893  1
  H  H33  1  0.75000000  0.87945893  0.75710971  1
  H  H34  1  0.25000000  0.12054107  0.87765078  1
  H  H35  1  0.25000000  0.12234922  0.24289029  1
  H  H36  1  -0.00000000  -0.00000000  -0.00000000  1
  H  H37  1  0.50000000  -0.00000000  -0.00000000  1
