# generated using pymatgen
data_V7S8
_symmetry_space_group_name_H-M   'P 1'
_cell_length_a   6.04967871
_cell_length_b   6.38261856
_cell_length_c   6.38261940
_cell_angle_alpha   120.00000132
_cell_angle_beta   90.00000000
_cell_angle_gamma   90.00000000
_symmetry_Int_Tables_number   1
_chemical_formula_structural   V7S8
_chemical_formula_sum   'V7 S8'
_cell_volume   213.43260994
_cell_formula_units_Z   1
loop_
 _symmetry_equiv_pos_site_id
 _symmetry_equiv_pos_as_xyz
  1  'x, y, z'
loop_
 _atom_site_type_symbol
 _atom_site_label
 _atom_site_symmetry_multiplicity
 _atom_site_fract_x
 _atom_site_fract_y
 _atom_site_fract_z
 _atom_site_occupancy
  V  V0  1  0.00000000  -0.00000000  0.00000000  1
  V  V1  1  0.50000000  0.50000196  1.00000000  1
  V  V2  1  0.50000000  0.00000000  0.50000196  1
  V  V3  1  0.50000000  0.49999804  0.49999804  1
  V  V4  1  0.00000000  1.00000000  0.49999173  1
  V  V5  1  0.00000000  0.50000827  0.50000827  1
  V  V6  1  0.00000000  0.49999173  0.00000000  1
  S  S7  1  0.74695938  0.16413988  0.32828060  1
  S  S8  1  0.74695938  0.67171940  0.83585928  1
  S  S9  1  0.25304062  0.32828060  0.16413988  1
  S  S10  1  0.74695938  0.16414072  0.83586012  1
  S  S11  1  0.25304062  0.83585928  0.67171940  1
  S  S12  1  0.25304062  0.83586012  0.16414072  1
  S  S13  1  0.24912107  0.33333300  0.66666700  1
  S  S14  1  0.75087893  0.66666700  0.33333300  1
