# generated using pymatgen
data_GeH10Se3N4
_symmetry_space_group_name_H-M   'P 1'
_cell_length_a   13.18448849
_cell_length_b   13.18448849
_cell_length_c   14.47198889
_cell_angle_alpha   117.09823626
_cell_angle_beta   117.09823626
_cell_angle_gamma   90.00000000
_symmetry_Int_Tables_number   1
_chemical_formula_structural   GeH10Se3N4
_chemical_formula_sum   'Ge8 H80 Se24 N32'
_cell_volume   1924.13503942
_cell_formula_units_Z   8
loop_
 _symmetry_equiv_pos_site_id
 _symmetry_equiv_pos_as_xyz
  1  'x, y, z'
loop_
 _atom_site_type_symbol
 _atom_site_label
 _atom_site_symmetry_multiplicity
 _atom_site_fract_x
 _atom_site_fract_y
 _atom_site_fract_z
 _atom_site_occupancy
  Ge  Ge0  1  0.03843051  0.03843051  0.07686101  1
  Ge  Ge1  1  0.53843051  0.53843051  0.07686101  1
  Ge  Ge2  1  0.78843051  0.28843051  0.57686101  1
  Ge  Ge3  1  0.28843051  0.78843051  0.57686101  1
  Ge  Ge4  1  0.18784310  0.18784310  0.37568619  1
  Ge  Ge5  1  0.68784310  0.68784310  0.37568619  1
  Ge  Ge6  1  0.93784310  0.43784310  0.87568619  1
  Ge  Ge7  1  0.43784310  0.93784310  0.87568619  1
  H  H8  1  0.42667961  0.92932411  0.32749118  1
  H  H9  1  0.92667961  0.89816707  0.32749118  1
  H  H10  1  0.67932411  0.15081158  0.82749118  1
  H  H11  1  0.64816707  0.65081158  0.82749118  1
  H  H12  1  0.90081158  0.39816707  0.32749118  1
  H  H13  1  0.40081158  0.42932411  0.32749118  1
  H  H14  1  0.14816707  0.67667961  0.82749118  1
  H  H15  1  0.17932411  0.17667961  0.82749118  1
  H  H16  1  0.66291965  0.16333663  0.14753987  1
  H  H17  1  0.16291965  0.48420324  0.14753987  1
  H  H18  1  0.91333663  0.73462023  0.64753987  1
  H  H19  1  0.23420324  0.23462023  0.64753987  1
  H  H20  1  0.48462023  0.98420324  0.14753987  1
  H  H21  1  0.98462023  0.66333663  0.14753987  1
  H  H22  1  0.73420324  0.91291965  0.64753987  1
  H  H23  1  0.41333663  0.41291965  0.64753987  1
  H  H24  1  0.24934645  0.78743734  0.18261593  1
  H  H25  1  0.74934645  0.89517859  0.18261593  1
  H  H26  1  0.53743734  0.18326948  0.68261593  1
  H  H27  1  0.64517859  0.68326948  0.68261593  1
  H  H28  1  0.93326948  0.39517859  0.18261593  1
  H  H29  1  0.43326948  0.28743734  0.18261593  1
  H  H30  1  0.14517859  0.49934645  0.68261593  1
  H  H31  1  0.03743734  0.99934645  0.68261593  1
  H  H32  1  0.73459298  0.22620062  0.30165174  1
  H  H33  1  0.23459298  0.57545112  0.30165174  1
  H  H34  1  0.97620062  0.81705876  0.80165174  1
  H  H35  1  0.32545112  0.31705876  0.80165174  1
  H  H36  1  0.56705876  0.07545112  0.30165174  1
  H  H37  1  0.06705876  0.72620062  0.30165174  1
  H  H38  1  0.82545112  0.98459298  0.80165174  1
  H  H39  1  0.47620062  0.48459298  0.80165174  1
  H  H40  1  0.84308859  0.17812484  0.15897344  1
  H  H41  1  0.34308859  0.48084860  0.15897344  1
  H  H42  1  0.92812484  0.56588484  0.65897344  1
  H  H43  1  0.23084860  0.06588484  0.65897344  1
  H  H44  1  0.31588484  0.98084860  0.15897344  1
  H  H45  1  0.81588484  0.67812484  0.15897344  1
  H  H46  1  0.73084860  0.09308859  0.65897344  1
  H  H47  1  0.42812484  0.59308859  0.65897344  1
  H  H48  1  0.36213449  0.73182000  0.17830898  1
  H  H49  1  0.86213449  0.94648899  0.17830898  1
  H  H50  1  0.48182000  0.06617449  0.67830898  1
  H  H51  1  0.69648899  0.56617449  0.67830898  1
  H  H52  1  0.81617449  0.44648899  0.17830898  1
  H  H53  1  0.31617449  0.23182000  0.17830898  1
  H  H54  1  0.19648899  0.61213449  0.67830898  1
  H  H55  1  0.98182000  0.11213449  0.67830898  1
  H  H56  1  0.47520874  0.83698422  0.38748361  1
  H  H57  1  0.97520874  0.05049939  0.38748361  1
  H  H58  1  0.58698422  0.16227486  0.88748361  1
  H  H59  1  0.80049939  0.66227486  0.88748361  1
  H  H60  1  0.91227486  0.55049939  0.38748361  1
  H  H61  1  0.41227486  0.33698422  0.38748361  1
  H  H62  1  0.30049939  0.72520874  0.88748361  1
  H  H63  1  0.08698422  0.22520874  0.88748361  1
  H  H64  1  0.91489009  0.22241433  0.30465083  1
  H  H65  1  0.41489009  0.58223650  0.30465083  1
  H  H66  1  0.97241433  0.63976075  0.80465083  1
  H  H67  1  0.33223650  0.13976075  0.80465083  1
  H  H68  1  0.38976075  0.08223650  0.30465083  1
  H  H69  1  0.88976075  0.72241433  0.30465083  1
  H  H70  1  0.83223650  0.16489009  0.80465083  1
  H  H71  1  0.47241433  0.66489009  0.80465083  1
  H  H72  1  0.36038710  0.89173108  0.39247654  1
  H  H73  1  0.86038710  0.00074546  0.39247654  1
  H  H74  1  0.64173108  0.28208944  0.89247654  1
  H  H75  1  0.75074546  0.78208944  0.89247654  1
  H  H76  1  0.03208944  0.50074546  0.39247654  1
  H  H77  1  0.53208944  0.39173108  0.39247654  1
  H  H78  1  0.25074546  0.61038710  0.89247654  1
  H  H79  1  0.14173108  0.11038710  0.89247654  1
  H  H80  1  0.74636918  0.08799168  0.21482817  1
  H  H81  1  0.24636918  0.62683649  0.21482817  1
  H  H82  1  0.83799168  0.71845900  0.71482817  1
  H  H83  1  0.37683649  0.21845900  0.71482817  1
  H  H84  1  0.46845900  0.12683649  0.21482817  1
  H  H85  1  0.96845900  0.58799168  0.21482817  1
  H  H86  1  0.87683649  0.99636918  0.71482817  1
  H  H87  1  0.33799168  0.49636918  0.71482817  1
  Se  Se88  1  0.11703871  0.25039783  0.22691602  1
  Se  Se89  1  0.61703871  0.47651819  0.22691602  1
  Se  Se90  1  0.00039783  0.35987731  0.72691602  1
  Se  Se91  1  0.22651819  0.85987731  0.72691602  1
  Se  Se92  1  0.10987731  0.97651819  0.22691602  1
  Se  Se93  1  0.60987731  0.75039783  0.22691602  1
  Se  Se94  1  0.72651819  0.36703871  0.72691602  1
  Se  Se95  1  0.50039783  0.86703871  0.72691602  1
  Se  Se96  1  0.09209092  0.24219971  0.48710072  1
  Se  Se97  1  0.59209092  0.74490101  0.48710072  1
  Se  Se98  1  0.99219971  0.64500980  0.98710072  1
  Se  Se99  1  0.49490101  0.14500980  0.98710072  1
  Se  Se100  1  0.39500980  0.24490101  0.48710072  1
  Se  Se101  1  0.89500980  0.74219971  0.48710072  1
  Se  Se102  1  0.99490101  0.34209092  0.98710072  1
  Se  Se103  1  0.49219971  0.84209092  0.98710072  1
  Se  Se104  1  0.13658744  0.97919379  0.96818400  1
  Se  Se105  1  0.63658744  0.48899020  0.96818400  1
  Se  Se106  1  0.72919379  0.08159656  0.46818400  1
  Se  Se107  1  0.23899020  0.58159656  0.46818400  1
  Se  Se108  1  0.83159656  0.98899020  0.96818400  1
  Se  Se109  1  0.33159656  0.47919379  0.96818400  1
  Se  Se110  1  0.73899020  0.38658744  0.46818400  1
  Se  Se111  1  0.22919379  0.88658744  0.46818400  1
  N  N112  1  0.84326041  0.22966301  0.23848798  1
  N  N113  1  0.34326041  0.50882496  0.23848798  1
  N  N114  1  0.97966301  0.64522757  0.73848798  1
  N  N115  1  0.25882496  0.14522757  0.73848798  1
  N  N116  1  0.39522757  0.00882496  0.23848798  1
  N  N117  1  0.89522757  0.72966301  0.23848798  1
  N  N118  1  0.75882496  0.09326041  0.73848798  1
  N  N119  1  0.47966301  0.59326041  0.73848798  1
  N  N120  1  0.31978868  0.76039180  0.22665372  1
  N  N121  1  0.81978868  0.96626192  0.22665372  1
  N  N122  1  0.51039180  0.15686504  0.72665372  1
  N  N123  1  0.71626192  0.65686504  0.72665372  1
  N  N124  1  0.90686504  0.46626192  0.22665372  1
  N  N125  1  0.40686504  0.26039180  0.22665372  1
  N  N126  1  0.21626192  0.56978868  0.72665372  1
  N  N127  1  0.01039180  0.06978868  0.72665372  1
  N  N128  1  0.73957308  0.17120263  0.22389394  1
  N  N129  1  0.23957308  0.55269131  0.22389394  1
  N  N130  1  0.92120263  0.73432086  0.72389394  1
  N  N131  1  0.30269131  0.23432086  0.72389394  1
  N  N132  1  0.48432086  0.05269131  0.22389394  1
  N  N133  1  0.98432086  0.67120263  0.22389394  1
  N  N134  1  0.80269131  0.98957308  0.72389394  1
  N  N135  1  0.42120263  0.48957308  0.72389394  1
  N  N136  1  0.40212431  0.86348321  0.34131973  1
  N  N137  1  0.90212431  0.97783652  0.34131973  1
  N  N138  1  0.61348321  0.18919542  0.84131973  1
  N  N139  1  0.72783652  0.68919542  0.84131973  1
  N  N140  1  0.93919542  0.47783652  0.34131973  1
  N  N141  1  0.43919542  0.36348321  0.34131973  1
  N  N142  1  0.22783652  0.65212431  0.84131973  1
  N  N143  1  0.11348321  0.15212431  0.84131973  1
