# generated using pymatgen
data_ThSiGe
_symmetry_space_group_name_H-M   'P 1'
_cell_length_a   4.08283249
_cell_length_b   4.08283249
_cell_length_c   8.36706544
_cell_angle_alpha   104.12170148
_cell_angle_beta   104.12170148
_cell_angle_gamma   90.00000000
_symmetry_Int_Tables_number   1
_chemical_formula_structural   ThSiGe
_chemical_formula_sum   'Th2 Si2 Ge2'
_cell_volume   130.90937348
_cell_formula_units_Z   2
loop_
 _symmetry_equiv_pos_site_id
 _symmetry_equiv_pos_as_xyz
  1  'x, y, z'
loop_
 _atom_site_type_symbol
 _atom_site_label
 _atom_site_symmetry_multiplicity
 _atom_site_fract_x
 _atom_site_fract_y
 _atom_site_fract_z
 _atom_site_occupancy
  Th  Th0  1  0.58242690  0.58242690  0.16485381  1
  Th  Th1  1  0.83242690  0.33242690  0.66485381  1
  Si  Si2  1  0.00048799  0.00048799  0.00097599  1
  Si  Si3  1  0.25048799  0.75048799  0.50097599  1
  Ge  Ge4  1  0.16408510  0.16408510  0.32817020  1
  Ge  Ge5  1  0.41408510  0.91408510  0.82817020  1
