# generated using pymatgen
data_LaMgNi2
_symmetry_space_group_name_H-M   'P 1'
_cell_length_a   4.19581505
_cell_length_b   6.74312863
_cell_length_c   5.68382279
_cell_angle_alpha   90.00000000
_cell_angle_beta   90.00000000
_cell_angle_gamma   108.12660880
_symmetry_Int_Tables_number   1
_chemical_formula_structural   LaMgNi2
_chemical_formula_sum   'La2 Mg2 Ni4'
_cell_volume   152.83106656
_cell_formula_units_Z   2
loop_
 _symmetry_equiv_pos_site_id
 _symmetry_equiv_pos_as_xyz
  1  'x, y, z'
loop_
 _atom_site_type_symbol
 _atom_site_label
 _atom_site_symmetry_multiplicity
 _atom_site_fract_x
 _atom_site_fract_y
 _atom_site_fract_z
 _atom_site_occupancy
  La  La0  1  0.72025249  0.44050498  0.25000000  1
  La  La1  1  0.27974751  0.55949502  0.75000000  1
  Mg  Mg2  1  0.45643265  0.91286531  0.25000000  1
  Mg  Mg3  1  0.54356735  0.08713469  0.75000000  1
  Ni  Ni4  1  0.09016623  0.18033245  0.03936294  1
  Ni  Ni5  1  0.90983377  0.81966755  0.96063706  1
  Ni  Ni6  1  0.90983377  0.81966755  0.53936294  1
  Ni  Ni7  1  0.09016623  0.18033245  0.46063706  1
