# generated using pymatgen
data_Ti2Nb2Sb3O14
_symmetry_space_group_name_H-M   'P 1'
_cell_length_a   4.98731988
_cell_length_b   5.63183691
_cell_length_c   20.21957083
_cell_angle_alpha   92.31916934
_cell_angle_beta   97.08426783
_cell_angle_gamma   90.00000000
_symmetry_Int_Tables_number   1
_chemical_formula_structural   Ti2Nb2Sb3O14
_chemical_formula_sum   'Ti4 Nb4 Sb6 O28'
_cell_volume   563.11832578
_cell_formula_units_Z   2
loop_
 _symmetry_equiv_pos_site_id
 _symmetry_equiv_pos_as_xyz
  1  'x, y, z'
loop_
 _atom_site_type_symbol
 _atom_site_label
 _atom_site_symmetry_multiplicity
 _atom_site_fract_x
 _atom_site_fract_y
 _atom_site_fract_z
 _atom_site_occupancy
  Ti  Ti0  1  0.55946499  0.31966489  0.55838690  1
  Ti  Ti1  1  0.44053501  0.68033511  0.44161310  1
  Ti  Ti2  1  0.00107809  0.18033511  0.44161310  1
  Ti  Ti3  1  0.99892191  0.81966489  0.55838690  1
  Nb  Nb4  1  0.67863296  0.13893347  0.85174273  1
  Nb  Nb5  1  0.32136704  0.86106653  0.14825727  1
  Nb  Nb6  1  0.82689023  0.36106653  0.14825727  1
  Nb  Nb7  1  0.17310977  0.63893347  0.85174273  1
  Sb  Sb8  1  0.46122442  0.25462663  0.30065195  1
  Sb  Sb9  1  0.53877558  0.74537337  0.69934805  1
  Sb  Sb10  1  0.16057248  0.24537337  0.69934805  1
  Sb  Sb11  1  0.83942752  0.75462663  0.30065195  1
  Sb  Sb12  1  0.19922180  0.25000000  1.00000000  1
  Sb  Sb13  1  0.80077820  0.75000000  0.00000000  1
  O  O14  1  0.89120217  0.07132401  0.94356677  1
  O  O15  1  0.10879783  0.92867599  0.05643323  1
  O  O16  1  0.94763540  0.42867599  0.05643323  1
  O  O17  1  0.05236460  0.57132401  0.94356677  1
  O  O18  1  0.41579183  0.41894012  0.64834212  1
  O  O19  1  0.58420817  0.58105988  0.35165788  1
  O  O20  1  0.76744971  0.08105988  0.35165788  1
  O  O21  1  0.23255029  0.91894012  0.64834212  1
  O  O22  1  0.76327575  0.08016322  0.59323101  1
  O  O23  1  0.23672425  0.91983678  0.40676899  1
  O  O24  1  0.17004474  0.41983678  0.40676899  1
  O  O25  1  0.82995526  0.58016322  0.59323101  1
  O  O26  1  0.69075072  0.34478959  0.47498346  1
  O  O27  1  0.30924928  0.65521041  0.52501654  1
  O  O28  1  0.21576725  0.15521041  0.52501654  1
  O  O29  1  0.78423275  0.84478959  0.47498346  1
  O  O30  1  0.57411957  0.12863263  0.11507328  1
  O  O31  1  0.42588043  0.87136737  0.88492672  1
  O  O32  1  0.45904629  0.37136737  0.88492672  1
  O  O33  1  0.54095371  0.62863263  0.11507328  1
  O  O34  1  0.12461589  0.17630830  0.18093871  1
  O  O35  1  0.87538411  0.82369170  0.81906129  1
  O  O36  1  0.94367717  0.32369170  0.81906129  1
  O  O37  1  0.05632283  0.67630830  0.18093871  1
  O  O38  1  0.45807936  0.08078090  0.75990230  1
  O  O39  1  0.54192064  0.91921910  0.24009770  1
  O  O40  1  0.69817705  0.41921910  0.24009770  1
  O  O41  1  0.30182295  0.58078090  0.75990230  1
