# generated using pymatgen
data_Ca3Cr6(FeO6)4
_symmetry_space_group_name_H-M   'P 1'
_cell_length_a   6.84175282
_cell_length_b   8.62299505
_cell_length_c   9.99860026
_cell_angle_alpha   104.86262353
_cell_angle_beta   106.98856620
_cell_angle_gamma   103.39723341
_symmetry_Int_Tables_number   1
_chemical_formula_structural   Ca3Cr6(FeO6)4
_chemical_formula_sum   'Ca3 Cr6 Fe4 O24'
_cell_volume   514.38942033
_cell_formula_units_Z   1
loop_
 _symmetry_equiv_pos_site_id
 _symmetry_equiv_pos_as_xyz
  1  'x, y, z'
loop_
 _atom_site_type_symbol
 _atom_site_label
 _atom_site_symmetry_multiplicity
 _atom_site_fract_x
 _atom_site_fract_y
 _atom_site_fract_z
 _atom_site_occupancy
  Ca  Ca0  1  0.00000000  0.50000000  0.50000000  1
  Ca  Ca1  1  0.28506339  0.30272589  0.78977041  1
  Ca  Ca2  1  0.71493661  0.69727411  0.21022959  1
  Cr  Cr3  1  0.78067209  0.34201891  0.73557574  1
  Cr  Cr4  1  0.21932791  0.65798109  0.26442426  1
  Cr  Cr5  1  0.89416538  0.90315708  0.66892570  1
  Cr  Cr6  1  0.39763385  0.74094521  0.86521782  1
  Cr  Cr7  1  0.10583462  0.09684292  0.33107430  1
  Cr  Cr8  1  0.60236615  0.25905479  0.13478218  1
  Fe  Fe9  1  0.37943033  0.95496513  0.60317274  1
  Fe  Fe10  1  0.62056967  0.04503487  0.39682726  1
  Fe  Fe11  1  0.04220817  0.21123792  0.02480759  1
  Fe  Fe12  1  0.95779183  0.78876208  0.97519241  1
  O  O13  1  0.84248430  0.69956540  0.57953130  1
  O  O14  1  0.15751570  0.30043460  0.42046870  1
  O  O15  1  0.25680678  0.53795872  0.73561332  1
  O  O16  1  0.74319322  0.46204128  0.26438668  1
  O  O17  1  0.78082879  0.28539360  0.55331094  1
  O  O18  1  0.21917121  0.71460640  0.44668906  1
  O  O19  1  0.66894728  0.96107393  0.57655507  1
  O  O20  1  0.33105272  0.03892607  0.42344493  1
  O  O21  1  0.64842314  0.74193373  0.98081518  1
  O  O22  1  0.35157686  0.25806627  0.01918482  1
  O  O23  1  0.46398715  0.78689744  0.27902339  1
  O  O24  1  0.53601285  0.21310256  0.72097661  1
  O  O25  1  0.12783971  0.01553901  0.65031683  1
  O  O26  1  0.06538521  0.04642583  0.14078290  1
  O  O27  1  0.93461479  0.95357417  0.85921710  1
  O  O28  1  0.56234827  0.12395876  0.23086639  1
  O  O29  1  0.43765173  0.87604124  0.76913361  1
  O  O30  1  0.17688015  0.44962684  0.18217758  1
  O  O31  1  0.82311985  0.55037316  0.81782242  1
  O  O32  1  0.98527937  0.28762337  0.85001783  1
  O  O33  1  0.01472063  0.71237663  0.14998217  1
  O  O34  1  0.23824659  0.78979156  0.96220237  1
  O  O35  1  0.76175341  0.21020844  0.03779763  1
  O  O36  1  0.87216029  0.98446099  0.34968317  1
