# generated using pymatgen
data_Li6La3(SbO6)2
_symmetry_space_group_name_H-M   'P 1'
_cell_length_a   11.31386274
_cell_length_b   11.31386274
_cell_length_c   11.31386274
_cell_angle_alpha   109.47122063
_cell_angle_beta   109.47122063
_cell_angle_gamma   109.47122063
_symmetry_Int_Tables_number   1
_chemical_formula_structural   Li6La3(SbO6)2
_chemical_formula_sum   'Li24 La12 Sb8 O48'
_cell_volume   1114.83559403
_cell_formula_units_Z   4
loop_
 _symmetry_equiv_pos_site_id
 _symmetry_equiv_pos_as_xyz
  1  'x, y, z'
loop_
 _atom_site_type_symbol
 _atom_site_label
 _atom_site_symmetry_multiplicity
 _atom_site_fract_x
 _atom_site_fract_y
 _atom_site_fract_z
 _atom_site_occupancy
  Li  Li0  1  0.56962412  0.60885907  0.32150967  1
  Li  Li1  1  0.93037588  0.75188554  0.53923495  1
  Li  Li2  1  0.21265060  0.89114093  0.96076505  1
  Li  Li3  1  0.60885907  0.32150967  0.56962412  1
  Li  Li4  1  0.28734940  0.74811446  0.17849033  1
  Li  Li5  1  0.75188554  0.53923495  0.93037588  1
  Li  Li6  1  0.89114093  0.96076505  0.21265060  1
  Li  Li7  1  0.74811446  0.17849033  0.28734940  1
  Li  Li8  1  0.32150967  0.56962412  0.60885907  1
  Li  Li9  1  0.96076505  0.21265060  0.89114093  1
  Li  Li10  1  0.17849033  0.28734940  0.74811446  1
  Li  Li11  1  0.53923495  0.93037588  0.75188554  1
  Li  Li12  1  0.68317173  0.43558952  0.39200255  1
  Li  Li13  1  0.81682827  0.70883082  0.25241778  1
  Li  Li14  1  0.45641304  0.06441048  0.24758222  1
  Li  Li15  1  0.43558952  0.39200255  0.68317173  1
  Li  Li16  1  0.04358696  0.79116918  0.10799745  1
  Li  Li17  1  0.70883082  0.25241778  0.81682827  1
  Li  Li18  1  0.06441048  0.24758222  0.45641304  1
  Li  Li19  1  0.79116918  0.10799745  0.04358696  1
  Li  Li20  1  0.39200255  0.68317173  0.43558952  1
  Li  Li21  1  0.24758222  0.45641304  0.06441048  1
  Li  Li22  1  0.10799745  0.04358696  0.79116918  1
  Li  Li23  1  0.25241778  0.81682827  0.70883082  1
  La  La24  1  0.38025108  0.13025108  0.75000000  1
  La  La25  1  0.11974892  0.36974892  0.25000000  1
  La  La26  1  0.13025108  0.75000000  0.38025108  1
  La  La27  1  0.36974892  0.25000000  0.11974892  1
  La  La28  1  0.75000000  0.38025108  0.13025108  1
  La  La29  1  0.25000000  0.11974892  0.36974892  1
  La  La30  1  0.88280188  0.63280188  0.75000000  1
  La  La31  1  0.61719812  0.86719812  0.25000000  1
  La  La32  1  0.63280188  0.75000000  0.88280188  1
  La  La33  1  0.86719812  0.25000000  0.61719812  1
  La  La34  1  0.75000000  0.88280188  0.63280188  1
  La  La35  1  0.25000000  0.61719812  0.86719812  1
  Sb  Sb36  1  0.00029085  0.00029085  0.00029085  1
  Sb  Sb37  1  0.49970915  -0.00000000  0.50000000  1
  Sb  Sb38  1  0.50000000  0.49970915  0.00000000  1
  Sb  Sb39  1  0.00000000  0.50000000  0.49970915  1
  Sb  Sb40  1  0.50016599  0.50016599  0.50016599  1
  Sb  Sb41  1  -0.00016599  0.00000000  0.50000000  1
  Sb  Sb42  1  0.50000000  -0.00016599  -0.00000000  1
  Sb  Sb43  1  0.00000000  0.50000000  -0.00016599  1
  O  O44  1  0.53057627  0.81791954  0.41247048  1
  O  O45  1  0.96942373  0.88189421  0.78734326  1
  O  O46  1  0.09455095  0.68208046  0.71265674  1
  O  O47  1  0.81791954  0.41247048  0.53057627  1
  O  O48  1  0.40544905  0.61810579  0.08752952  1
  O  O49  1  0.88189421  0.78734326  0.96942373  1
  O  O50  1  0.68208046  0.71265674  0.09455095  1
  O  O51  1  0.61810579  0.08752952  0.40544905  1
  O  O52  1  0.41247048  0.53057627  0.81791954  1
  O  O53  1  0.71265674  0.09455095  0.68208046  1
  O  O54  1  0.08752952  0.40544905  0.61810579  1
  O  O55  1  0.78734326  0.96942373  0.88189421  1
  O  O56  1  0.38416013  0.48527119  0.30940799  1
  O  O57  1  0.11583987  0.92524786  0.60111106  1
  O  O58  1  0.32413680  0.01472881  0.89888894  1
  O  O59  1  0.48527119  0.30940799  0.38416013  1
  O  O60  1  0.17586320  0.57475214  0.19059201  1
  O  O61  1  0.92524786  0.60111106  0.11583987  1
  O  O62  1  0.01472881  0.89888894  0.32413680  1
  O  O63  1  0.57475214  0.19059201  0.17586320  1
  O  O64  1  0.30940799  0.38416013  0.48527119  1
  O  O65  1  0.89888894  0.32413680  0.01472881  1
  O  O66  1  0.19059201  0.17586320  0.57475214  1
  O  O67  1  0.60111106  0.11583987  0.92524786  1
  O  O68  1  0.69095136  0.61742763  0.51534832  1
  O  O69  1  0.80904864  0.82439697  0.42647627  1
  O  O70  1  0.39792070  0.88257237  0.07352373  1
  O  O71  1  0.61742763  0.51534832  0.69095136  1
  O  O72  1  0.10207930  0.67560303  0.98465168  1
  O  O73  1  0.82439697  0.42647627  0.80904864  1
  O  O74  1  0.88257237  0.07352373  0.39792070  1
  O  O75  1  0.67560303  0.98465168  0.10207930  1
  O  O76  1  0.51534832  0.69095136  0.61742763  1
  O  O77  1  0.07352373  0.39792070  0.88257237  1
  O  O78  1  0.98465168  0.10207930  0.67560303  1
  O  O79  1  0.42647627  0.80904864  0.82439697  1
  O  O80  1  0.58978278  0.47003411  0.18240666  1
  O  O81  1  0.91021722  0.59262389  0.38025133  1
  O  O82  1  0.21237255  0.02996589  0.11974867  1
  O  O83  1  0.47003411  0.18240666  0.58978278  1
  O  O84  1  0.28762745  0.90737611  0.31759334  1
  O  O85  1  0.59262389  0.38025133  0.91021722  1
  O  O86  1  0.02996589  0.11974867  0.21237255  1
  O  O87  1  0.90737611  0.31759334  0.28762745  1
  O  O88  1  0.18240666  0.58978278  0.47003411  1
  O  O89  1  0.11974867  0.21237255  0.02996589  1
  O  O90  1  0.31759334  0.28762745  0.90737611  1
  O  O91  1  0.38025133  0.91021722  0.59262389  1
