# generated using pymatgen
data_KLiYb2(MoO4)4
_symmetry_space_group_name_H-M   'P 1'
_cell_length_a   5.22862006
_cell_length_b   6.97044912
_cell_length_c   19.88143568
_cell_angle_alpha   88.67616473
_cell_angle_beta   86.46838952
_cell_angle_gamma   67.97221057
_symmetry_Int_Tables_number   1
_chemical_formula_structural   KLiYb2(MoO4)4
_chemical_formula_sum   'K2 Li2 Yb4 Mo8 O32'
_cell_volume   670.42586477
_cell_formula_units_Z   2
loop_
 _symmetry_equiv_pos_site_id
 _symmetry_equiv_pos_as_xyz
  1  'x, y, z'
loop_
 _atom_site_type_symbol
 _atom_site_label
 _atom_site_symmetry_multiplicity
 _atom_site_fract_x
 _atom_site_fract_y
 _atom_site_fract_z
 _atom_site_occupancy
  K  K0  1  0.46721014  0.06557971  0.75000000  1
  K  K1  1  0.53278986  0.93442029  0.25000000  1
  Li  Li2  1  0.18935467  0.62129067  0.75000000  1
  Li  Li3  1  0.81064533  0.37870933  0.25000000  1
  Yb  Yb4  1  0.35085906  0.29458340  0.96881907  1
  Yb  Yb5  1  0.64914094  0.70541660  0.03118093  1
  Yb  Yb6  1  0.35455754  0.29458340  0.53118093  1
  Yb  Yb7  1  0.64544246  0.70541660  0.46881907  1
  Mo  Mo8  1  0.08411653  0.87472476  0.90923832  1
  Mo  Mo9  1  0.91588347  0.12527524  0.09076168  1
  Mo  Mo10  1  0.04115871  0.87472476  0.59076168  1
  Mo  Mo11  1  0.95884129  0.12527524  0.40923832  1
  Mo  Mo12  1  0.77033632  0.48505939  0.85306605  1
  Mo  Mo13  1  0.22966368  0.51494061  0.14693395  1
  Mo  Mo14  1  0.74460429  0.48505939  0.64693395  1
  Mo  Mo15  1  0.25539571  0.51494061  0.35306605  1
  O  O16  1  0.33114047  0.66385773  0.95574002  1
  O  O17  1  0.66885953  0.33614227  0.04425998  1
  O  O18  1  0.00500180  0.66385773  0.54425998  1
  O  O19  1  0.99499820  0.33614227  0.45574002  1
  O  O20  1  0.49917734  0.72652729  0.82592961  1
  O  O21  1  0.50082266  0.27347271  0.17407039  1
  O  O22  1  0.77429537  0.72652729  0.67407039  1
  O  O23  1  0.22570463  0.27347271  0.32592961  1
  O  O24  1  0.27238324  0.96142412  0.53852964  1
  O  O25  1  0.72761676  0.03857588  0.46147036  1
  O  O26  1  0.76619264  0.96142412  0.96147036  1
  O  O27  1  0.23380736  0.03857588  0.03852964  1
  O  O28  1  0.56843423  0.51959141  0.56839474  1
  O  O29  1  0.43156577  0.48040859  0.43160526  1
  O  O30  1  0.91197436  0.51959141  0.93160526  1
  O  O31  1  0.08802564  0.48040859  0.06839474  1
  O  O32  1  0.20587606  0.80919343  0.67142812  1
  O  O33  1  0.79412394  0.19080657  0.32857188  1
  O  O34  1  0.98493052  0.80919343  0.82857188  1
  O  O35  1  0.01506948  0.19080657  0.17142812  1
  O  O36  1  0.27736667  0.91090501  0.39937957  1
  O  O37  1  0.72263333  0.08909499  0.60062043  1
  O  O38  1  0.81172832  0.91090501  0.10062043  1
  O  O39  1  0.18827168  0.08909499  0.89937957  1
  O  O40  1  0.60670809  0.30216244  0.86549022  1
  O  O41  1  0.39329191  0.69783756  0.13450978  1
  O  O42  1  0.09112947  0.30216244  0.63450978  1
  O  O43  1  0.90887053  0.69783756  0.36549022  1
  O  O44  1  0.56231990  0.40650128  0.71248821  1
  O  O45  1  0.43768010  0.59349872  0.28751179  1
  O  O46  1  0.03117882  0.40650128  0.78751179  1
  O  O47  1  0.96882118  0.59349872  0.21248821  1
