# generated using pymatgen
data_Nd2RuO5
_symmetry_space_group_name_H-M   'P 1'
_cell_length_a   3.98792876
_cell_length_b   10.65258944
_cell_length_c   11.54703654
_cell_angle_alpha   90.00000000
_cell_angle_beta   90.00000000
_cell_angle_gamma   90.00000000
_symmetry_Int_Tables_number   1
_chemical_formula_structural   Nd2RuO5
_chemical_formula_sum   'Nd8 Ru4 O20'
_cell_volume   490.53852503
_cell_formula_units_Z   4
loop_
 _symmetry_equiv_pos_site_id
 _symmetry_equiv_pos_as_xyz
  1  'x, y, z'
loop_
 _atom_site_type_symbol
 _atom_site_label
 _atom_site_symmetry_multiplicity
 _atom_site_fract_x
 _atom_site_fract_y
 _atom_site_fract_z
 _atom_site_occupancy
  Nd  Nd0  1  0.75000000  0.89830110  0.26923860  1
  Nd  Nd1  1  0.25000000  0.10169890  0.73076140  1
  Nd  Nd2  1  0.25000000  0.60169890  0.76923860  1
  Nd  Nd3  1  0.75000000  0.39830110  0.23076140  1
  Nd  Nd4  1  0.75000000  0.86703452  0.93432408  1
  Nd  Nd5  1  0.25000000  0.13296548  0.06567592  1
  Nd  Nd6  1  0.25000000  0.63296548  0.43432408  1
  Nd  Nd7  1  0.75000000  0.36703452  0.56567592  1
  Ru  Ru8  1  0.75000000  0.81147333  0.61769702  1
  Ru  Ru9  1  0.25000000  0.18852667  0.38230298  1
  Ru  Ru10  1  0.25000000  0.68852667  0.11769702  1
  Ru  Ru11  1  0.75000000  0.31147333  0.88230298  1
  O  O12  1  0.75000000  0.51122149  0.40468940  1
  O  O13  1  0.25000000  0.48877851  0.59531060  1
  O  O14  1  0.25000000  0.98877851  0.90468940  1
  O  O15  1  0.75000000  0.01122149  0.09531060  1
  O  O16  1  0.75000000  0.77970203  0.45555040  1
  O  O17  1  0.25000000  0.22029797  0.54444960  1
  O  O18  1  0.25000000  0.72029797  0.95555040  1
  O  O19  1  0.75000000  0.27970203  0.04444960  1
  O  O20  1  0.75000000  0.72561917  0.77062567  1
  O  O21  1  0.25000000  0.27438083  0.22937433  1
  O  O22  1  0.25000000  0.77438083  0.27062567  1
  O  O23  1  0.75000000  0.22561917  0.72937433  1
  O  O24  1  0.75000000  0.96705048  0.69975143  1
  O  O25  1  0.25000000  0.03294952  0.30024857  1
  O  O26  1  0.25000000  0.53294952  0.19975143  1
  O  O27  1  0.75000000  0.46705048  0.80024857  1
  O  O28  1  0.75000000  0.73585282  0.11561085  1
  O  O29  1  0.25000000  0.26414718  0.88438915  1
  O  O30  1  0.25000000  0.76414718  0.61561085  1
  O  O31  1  0.75000000  0.23585282  0.38438915  1
