# generated using pymatgen
data_Zn2H16C4N18O7
_symmetry_space_group_name_H-M   'P 1'
_cell_length_a   8.01020495
_cell_length_b   10.18828297
_cell_length_c   23.77047282
_cell_angle_alpha   90.00000000
_cell_angle_beta   90.00000000
_cell_angle_gamma   90.00000000
_symmetry_Int_Tables_number   1
_chemical_formula_structural   Zn2H16C4N18O7
_chemical_formula_sum   'Zn8 H64 C16 N72 O28'
_cell_volume   1939.91386525
_cell_formula_units_Z   4
loop_
 _symmetry_equiv_pos_site_id
 _symmetry_equiv_pos_as_xyz
  1  'x, y, z'
loop_
 _atom_site_type_symbol
 _atom_site_label
 _atom_site_symmetry_multiplicity
 _atom_site_fract_x
 _atom_site_fract_y
 _atom_site_fract_z
 _atom_site_occupancy
  Zn  Zn0  1  0.01421124  0.63271714  0.06360826  1
  Zn  Zn1  1  0.01421124  0.36728286  0.93639174  1
  Zn  Zn2  1  0.98578876  0.86728286  0.56360826  1
  Zn  Zn3  1  0.98578876  0.13271714  0.43639174  1
  Zn  Zn4  1  0.52713677  0.00465284  0.16705532  1
  Zn  Zn5  1  0.52713677  0.99534716  0.83294468  1
  Zn  Zn6  1  0.47286323  0.49534716  0.66705532  1
  Zn  Zn7  1  0.47286323  0.50465284  0.33294468  1
  H  H8  1  0.31541915  0.07064235  0.42770040  1
  H  H9  1  0.31541915  0.92935765  0.57229960  1
  H  H10  1  0.68458085  0.42935765  0.92770040  1
  H  H11  1  0.68458085  0.57064235  0.07229960  1
  H  H12  1  0.34220890  0.67455755  0.10959898  1
  H  H13  1  0.34220890  0.32544245  0.89040102  1
  H  H14  1  0.65779110  0.82544245  0.60959898  1
  H  H15  1  0.65779110  0.17455755  0.39040102  1
  H  H16  1  0.31648080  0.15428793  0.48399685  1
  H  H17  1  0.31648080  0.84571207  0.51600315  1
  H  H18  1  0.68351920  0.34571207  0.98399685  1
  H  H19  1  0.68351920  0.65428793  0.01600315  1
  H  H20  1  0.04208893  0.39881010  0.45128235  1
  H  H21  1  0.04208893  0.60118990  0.54871765  1
  H  H22  1  0.95791107  0.10118990  0.95128235  1
  H  H23  1  0.95791107  0.89881010  0.04871765  1
  H  H24  1  0.14877102  0.51011783  0.29623698  1
  H  H25  1  0.14877102  0.48988217  0.70376302  1
  H  H26  1  0.85122898  0.98988217  0.79623698  1
  H  H27  1  0.85122898  0.01011783  0.20376302  1
  H  H28  1  0.09482155  0.88555033  0.09842124  1
  H  H29  1  0.09482155  0.11444967  0.90157876  1
  H  H30  1  0.90517845  0.61444967  0.59842124  1
  H  H31  1  0.90517845  0.38555033  0.40157876  1
  H  H32  1  0.40772028  0.32497961  0.41894332  1
  H  H33  1  0.40772028  0.67502039  0.58105668  1
  H  H34  1  0.59227972  0.17502039  0.91894332  1
  H  H35  1  0.59227972  0.82497961  0.08105668  1
  H  H36  1  0.03403192  0.31932601  0.19828414  1
  H  H37  1  0.03403192  0.68067399  0.80171586  1
  H  H38  1  0.96596808  0.18067399  0.69828414  1
  H  H39  1  0.96596808  0.81932601  0.30171586  1
  H  H40  1  0.18547314  0.00364156  0.80929667  1
  H  H41  1  0.18547314  0.99635844  0.19070333  1
  H  H42  1  0.81452686  0.49635844  0.30929667  1
  H  H43  1  0.81452686  0.50364156  0.69070333  1
  H  H44  1  0.53651845  0.43455781  0.44232846  1
  H  H45  1  0.53651845  0.56544219  0.55767154  1
  H  H46  1  0.46348155  0.06544219  0.94232846  1
  H  H47  1  0.46348155  0.93455781  0.05767154  1
  H  H48  1  0.45714012  0.44442114  0.19266501  1
  H  H49  1  0.45714012  0.55557886  0.80733499  1
  H  H50  1  0.54285988  0.05557886  0.69266501  1
  H  H51  1  0.54285988  0.94442114  0.30733499  1
  H  H52  1  0.25174038  0.07328465  0.01027732  1
  H  H53  1  0.25174038  0.92671535  0.98972268  1
  H  H54  1  0.74825962  0.42671535  0.51027732  1
  H  H55  1  0.74825962  0.57328465  0.48972268  1
  H  H56  1  0.16634883  0.37979768  0.32992349  1
  H  H57  1  0.16634883  0.62020232  0.67007651  1
  H  H58  1  0.83365117  0.12020232  0.82992349  1
  H  H59  1  0.83365117  0.87979768  0.17007651  1
  H  H60  1  0.35217318  0.54723039  0.07312876  1
  H  H61  1  0.35217318  0.45276961  0.92687124  1
  H  H62  1  0.64782682  0.95276961  0.57312876  1
  H  H63  1  0.64782682  0.04723039  0.42687124  1
  H  H64  1  0.19309989  0.08988117  0.13827809  1
  H  H65  1  0.19309989  0.91011883  0.86172191  1
  H  H66  1  0.80690011  0.41011883  0.63827809  1
  H  H67  1  0.80690011  0.58988117  0.36172191  1
  H  H68  1  0.24271601  0.44306256  0.52226811  1
  H  H69  1  0.24271601  0.55693744  0.47773189  1
  H  H70  1  0.75728399  0.05693744  0.02226811  1
  H  H71  1  0.75728399  0.94306256  0.97773189  1
  C  C72  1  0.52115807  0.30415006  0.13356105  1
  C  C73  1  0.52115807  0.69584994  0.86643895  1
  C  C74  1  0.47884193  0.19584994  0.63356105  1
  C  C75  1  0.47884193  0.80415006  0.36643895  1
  C  C76  1  0.01226122  0.01623051  0.31515471  1
  C  C77  1  0.01226122  0.98376949  0.68484529  1
  C  C78  1  0.98773878  0.48376949  0.81515471  1
  C  C79  1  0.98773878  0.51623051  0.18484529  1
  C  C80  1  0.04349685  0.35140103  0.11300963  1
  C  C81  1  0.04349685  0.64859897  0.88699037  1
  C  C82  1  0.95650315  0.14859897  0.61300963  1
  C  C83  1  0.95650315  0.85140103  0.38699037  1
  C  C84  1  0.50560581  0.27071686  0.23388291  1
  C  C85  1  0.50560581  0.72928314  0.76611709  1
  C  C86  1  0.49439419  0.22928314  0.73388291  1
  C  C87  1  0.49439419  0.77071686  0.26611709  1
  N  N88  1  0.59497413  0.31028760  0.04770754  1
  N  N89  1  0.59497413  0.68971240  0.95229246  1
  N  N90  1  0.40502587  0.18971240  0.54770754  1
  N  N91  1  0.40502587  0.81028760  0.45229246  1
  N  N92  1  0.52034951  0.31999863  0.28664506  1
  N  N93  1  0.52034951  0.68000137  0.71335494  1
  N  N94  1  0.47965049  0.18000137  0.78664506  1
  N  N95  1  0.47965049  0.81999863  0.21335494  1
  N  N96  1  0.55546933  0.17984284  0.11817898  1
  N  N97  1  0.55546933  0.82015716  0.88182102  1
  N  N98  1  0.44453067  0.32015716  0.61817898  1
  N  N99  1  0.44453067  0.67984284  0.38182102  1
  N  N100  1  0.05832596  0.34105511  0.02352980  1
  N  N101  1  0.05832596  0.65894489  0.97647020  1
  N  N102  1  0.94167404  0.15894489  0.52352980  1
  N  N103  1  0.94167404  0.84105511  0.47647020  1
  N  N104  1  0.60415424  0.18783388  0.06374079  1
  N  N105  1  0.60415424  0.81216612  0.93625921  1
  N  N106  1  0.39584576  0.31216612  0.56374079  1
  N  N107  1  0.39584576  0.68783388  0.43625921  1
  N  N108  1  0.54259746  0.38840446  0.09029522  1
  N  N109  1  0.54259746  0.61159554  0.90970478  1
  N  N110  1  0.45740254  0.11159554  0.59029522  1
  N  N111  1  0.45740254  0.88840446  0.40970478  1
  N  N112  1  0.02782829  0.05183745  0.26067126  1
  N  N113  1  0.02782829  0.94816255  0.73932874  1
  N  N114  1  0.97217171  0.44816255  0.76067126  1
  N  N115  1  0.97217171  0.55183745  0.23932874  1
  N  N116  1  0.01861536  0.39023777  0.16766095  1
  N  N117  1  0.01861536  0.60976223  0.83233905  1
  N  N118  1  0.98138464  0.10976223  0.66766095  1
  N  N119  1  0.98138464  0.89023777  0.33233905  1
  N  N120  1  0.52831304  0.13974901  0.23451962  1
  N  N121  1  0.52831304  0.86025099  0.76548038  1
  N  N122  1  0.47168696  0.36025099  0.73451962  1
  N  N123  1  0.47168696  0.63974901  0.26548038  1
  N  N124  1  0.55413389  0.21477834  0.31948561  1
  N  N125  1  0.55413389  0.78522166  0.68051439  1
  N  N126  1  0.44586611  0.28522166  0.81948561  1
  N  N127  1  0.44586611  0.71477834  0.18051439  1
  N  N128  1  0.55958041  0.10939799  0.28871452  1
  N  N129  1  0.55958041  0.89060201  0.71128548  1
  N  N130  1  0.44041959  0.39060201  0.78871452  1
  N  N131  1  0.44041959  0.60939799  0.21128548  1
  N  N132  1  0.47530161  0.34355824  0.18669950  1
  N  N133  1  0.47530161  0.65644176  0.81330050  1
  N  N134  1  0.52469839  0.15644176  0.68669950  1
  N  N135  1  0.52469839  0.84355824  0.31330050  1
  N  N136  1  0.05976468  0.22322923  0.31488483  1
  N  N137  1  0.05976468  0.77677077  0.68511517  1
  N  N138  1  0.94023532  0.27677077  0.81488483  1
  N  N139  1  0.94023532  0.72322923  0.18511517  1
  N  N140  1  0.03093231  0.12008137  0.34948597  1
  N  N141  1  0.03093231  0.87991863  0.65051403  1
  N  N142  1  0.96906769  0.37991863  0.84948597  1
  N  N143  1  0.96906769  0.62008137  0.15051403  1
  N  N144  1  0.05747303  0.18303867  0.26273655  1
  N  N145  1  0.05747303  0.81696133  0.73726345  1
  N  N146  1  0.94252697  0.31696133  0.76273655  1
  N  N147  1  0.94252697  0.68303867  0.23726345  1
  N  N148  1  0.01910518  0.42377564  0.06629706  1
  N  N149  1  0.01910518  0.57622436  0.93370294  1
  N  N150  1  0.98089482  0.07622436  0.56629706  1
  N  N151  1  0.98089482  0.92377564  0.43370294  1
  N  N152  1  0.09662607  0.22958981  0.09995128  1
  N  N153  1  0.09662607  0.77041019  0.90004872  1
  N  N154  1  0.90337393  0.27041019  0.59995128  1
  N  N155  1  0.90337393  0.72958981  0.40004872  1
  N  N156  1  0.10415365  0.22680998  0.04370361  1
  N  N157  1  0.10415365  0.77319002  0.95629639  1
  N  N158  1  0.89584635  0.27319002  0.54370361  1
  N  N159  1  0.89584635  0.72680998  0.45629639  1
  O  O160  1  0.83265481  -0.00000000  -0.00000000  1
  O  O161  1  0.16734519  0.50000000  0.50000000  1
  O  O162  1  0.26388559  0.14797902  0.44531071  1
  O  O163  1  0.26388559  0.85202098  0.55468929  1
  O  O164  1  0.73611441  0.35202098  0.94531071  1
  O  O165  1  0.73611441  0.64797902  0.05468929  1
  O  O166  1  0.24207159  0.00744964  0.15429423  1
  O  O167  1  0.24207159  0.99255036  0.84570577  1
  O  O168  1  0.75792841  0.49255036  0.65429423  1
  O  O169  1  0.75792841  0.50744964  0.34570577  1
  O  O170  1  0.29084451  0.63006539  0.07676164  1
  O  O171  1  0.29084451  0.36993461  0.92323836  1
  O  O172  1  0.70915549  0.86993461  0.57676164  1
  O  O173  1  0.70915549  0.13006539  0.42323836  1
  O  O174  1  0.47138033  0.40367814  0.40953202  1
  O  O175  1  0.47138033  0.59632186  0.59046798  1
  O  O176  1  0.52861967  0.09632186  0.90953202  1
  O  O177  1  0.52861967  0.90367814  0.09046798  1
  O  O178  1  0.21285943  0.47033412  0.32722654  1
  O  O179  1  0.21285943  0.52966588  0.67277346  1
  O  O180  1  0.78714057  0.02966588  0.82722654  1
  O  O181  1  0.78714057  0.97033412  0.17277346  1
  O  O182  1  0.02397677  0.83722941  0.07208664  1
  O  O183  1  0.02397677  0.16277059  0.92791336  1
  O  O184  1  0.97602323  0.66277059  0.57208664  1
  O  O185  1  0.97602323  0.33722941  0.42791336  1
  O  O186  1  0.32653688  -0.00000000  -0.00000000  1
  O  O187  1  0.67346312  0.50000000  0.50000000  1
