# generated using pymatgen
data_Sr2DyCu2(BiO4)2
_symmetry_space_group_name_H-M   'P 1'
_cell_length_a   5.50443889
_cell_length_b   5.35504530
_cell_length_c   15.64966017
_cell_angle_alpha   90.00000000
_cell_angle_beta   100.12896976
_cell_angle_gamma   90.00000000
_symmetry_Int_Tables_number   1
_chemical_formula_structural   Sr2DyCu2(BiO4)2
_chemical_formula_sum   'Sr4 Dy2 Cu4 Bi4 O16'
_cell_volume   454.10790962
_cell_formula_units_Z   2
loop_
 _symmetry_equiv_pos_site_id
 _symmetry_equiv_pos_as_xyz
  1  'x, y, z'
loop_
 _atom_site_type_symbol
 _atom_site_label
 _atom_site_symmetry_multiplicity
 _atom_site_fract_x
 _atom_site_fract_y
 _atom_site_fract_z
 _atom_site_occupancy
  Sr  Sr0  1  0.61295908  -0.00000000  0.72324440  1
  Sr  Sr1  1  0.38704092  -0.00000000  0.27675560  1
  Sr  Sr2  1  0.11028532  0.50000000  0.72324440  1
  Sr  Sr3  1  0.88971468  0.50000000  0.27675560  1
  Dy  Dy4  1  0.50000000  -0.00000000  0.50000000  1
  Dy  Dy5  1  0.00000000  0.50000000  0.50000000  1
  Cu  Cu6  1  0.05028335  -0.00000000  0.60005132  1
  Cu  Cu7  1  0.94971665  -0.00000000  0.39994868  1
  Cu  Cu8  1  0.54976797  0.50000000  0.60005132  1
  Cu  Cu9  1  0.45023203  0.50000000  0.39994868  1
  Bi  Bi10  1  0.22430277  -0.00000000  0.90364019  1
  Bi  Bi11  1  0.77569723  -0.00000000  0.09635981  1
  Bi  Bi12  1  0.67933742  0.50000000  0.90364019  1
  Bi  Bi13  1  0.32066258  0.50000000  0.09635981  1
  O  O14  1  0.12588058  -0.00000000  0.76751385  1
  O  O15  1  0.87411942  -0.00000000  0.23248615  1
  O  O16  1  0.64163327  0.50000000  0.76751385  1
  O  O17  1  0.35836673  0.50000000  0.23248615  1
  O  O18  1  0.70195873  0.25000000  0.40391746  1
  O  O19  1  0.29804127  0.75000000  0.59608254  1
  O  O20  1  0.29804127  0.25000000  0.59608254  1
  O  O21  1  0.70195873  0.75000000  0.40391746  1
  O  O22  1  0.61483057  -0.00000000  0.89888478  1
  O  O23  1  0.38516943  -0.00000000  0.10111522  1
  O  O24  1  0.28405421  0.50000000  0.89888478  1
  O  O25  1  0.71594579  0.50000000  0.10111522  1
  O  O26  1  0.79801163  0.25000000  0.59602325  1
  O  O27  1  0.20198837  0.75000000  0.40397675  1
  O  O28  1  0.20198837  0.25000000  0.40397675  1
  O  O29  1  0.79801163  0.75000000  0.59602325  1
