# generated using pymatgen
data_Sr2YCu2(BiO4)2
_symmetry_space_group_name_H-M   'P 1'
_cell_length_a   5.35020498
_cell_length_b   5.50588523
_cell_length_c   15.59802832
_cell_angle_alpha   100.16555245
_cell_angle_beta   90.00000000
_cell_angle_gamma   90.00000000
_symmetry_Int_Tables_number   1
_chemical_formula_structural   Sr2YCu2(BiO4)2
_chemical_formula_sum   'Sr4 Y2 Cu4 Bi4 O16'
_cell_volume   452.26773111
_cell_formula_units_Z   2
loop_
 _symmetry_equiv_pos_site_id
 _symmetry_equiv_pos_as_xyz
  1  'x, y, z'
loop_
 _atom_site_type_symbol
 _atom_site_label
 _atom_site_symmetry_multiplicity
 _atom_site_fract_x
 _atom_site_fract_y
 _atom_site_fract_z
 _atom_site_occupancy
  Sr  Sr0  1  -0.00000000  0.89012236  0.27651568  1
  Sr  Sr1  1  -0.00000000  0.10987764  0.72348432  1
  Sr  Sr2  1  0.50000000  0.38639333  0.27651568  1
  Sr  Sr3  1  0.50000000  0.61360667  0.72348432  1
  Y  Y4  1  -0.00000000  -0.00000000  0.50000000  1
  Y  Y5  1  0.50000000  0.50000000  0.50000000  1
  Cu  Cu6  1  -0.00000000  0.44911137  0.39812468  1
  Cu  Cu7  1  -0.00000000  0.55088863  0.60187532  1
  Cu  Cu8  1  0.50000000  0.94901331  0.39812468  1
  Cu  Cu9  1  0.50000000  0.05098669  0.60187532  1
  Bi  Bi10  1  -0.00000000  0.31992735  0.09612252  1
  Bi  Bi11  1  -0.00000000  0.68007265  0.90387748  1
  Bi  Bi12  1  0.50000000  0.77619517  0.09612252  1
  Bi  Bi13  1  0.50000000  0.22380483  0.90387748  1
  O  O14  1  -0.00000000  0.35430416  0.23240998  1
  O  O15  1  -0.00000000  0.64569584  0.76759002  1
  O  O16  1  0.50000000  0.87810581  0.23240998  1
  O  O17  1  0.50000000  0.12189419  0.76759002  1
  O  O18  1  0.25000000  0.29850764  0.59701527  1
  O  O19  1  0.75000000  0.70149236  0.40298473  1
  O  O20  1  0.25000000  0.70149236  0.40298473  1
  O  O21  1  0.75000000  0.29850764  0.59701527  1
  O  O22  1  -0.00000000  0.71532208  0.10135597  1
  O  O23  1  -0.00000000  0.28467792  0.89864403  1
  O  O24  1  0.50000000  0.38603389  0.10135597  1
  O  O25  1  0.50000000  0.61396611  0.89864403  1
  O  O26  1  0.25000000  0.20181723  0.40363445  1
  O  O27  1  0.75000000  0.79818277  0.59636555  1
  O  O28  1  0.25000000  0.79818277  0.59636555  1
  O  O29  1  0.75000000  0.20181723  0.40363445  1
