# generated using pymatgen
data_ZnNiBiP2O9
_symmetry_space_group_name_H-M   'P 1'
_cell_length_a   6.69563585
_cell_length_b   8.02697073
_cell_length_c   13.84410234
_cell_angle_alpha   89.95059566
_cell_angle_beta   89.99717134
_cell_angle_gamma   89.96142618
_symmetry_Int_Tables_number   1
_chemical_formula_structural   ZnNiBiP2O9
_chemical_formula_sum   'Zn4 Ni4 Bi4 P8 O36'
_cell_volume   744.06015068
_cell_formula_units_Z   4
loop_
 _symmetry_equiv_pos_site_id
 _symmetry_equiv_pos_as_xyz
  1  'x, y, z'
loop_
 _atom_site_type_symbol
 _atom_site_label
 _atom_site_symmetry_multiplicity
 _atom_site_fract_x
 _atom_site_fract_y
 _atom_site_fract_z
 _atom_site_occupancy
  Zn  Zn0  1  0.75001219  0.96560031  0.79128514  1
  Zn  Zn1  1  0.74986836  0.53448380  0.29122098  1
  Zn  Zn2  1  0.24998793  0.03442102  0.20872410  1
  Zn  Zn3  1  0.25020223  0.46553139  0.70881018  1
  Ni  Ni4  1  0.50002899  0.00001541  0.99998477  1
  Ni  Ni5  1  0.50006976  0.49995637  0.49999420  1
  Ni  Ni6  1  0.99992216  0.49990451  0.50010609  1
  Ni  Ni7  1  0.99997198  0.00002856  0.99997764  1
  Bi  Bi8  1  0.74964111  0.35942286  0.88407862  1
  Bi  Bi9  1  0.25040561  0.64059192  0.11594521  1
  Bi  Bi10  1  0.24979300  0.85963822  0.61604870  1
  Bi  Bi11  1  0.75023471  0.14038999  0.38392114  1
  P  P12  1  0.24979334  0.33548889  0.90278767  1
  P  P13  1  0.75022325  0.66454254  0.09717770  1
  P  P14  1  0.74988817  0.83556848  0.59700990  1
  P  P15  1  0.25013779  0.16444160  0.40297146  1
  P  P16  1  0.75004109  0.36155388  0.67310237  1
  P  P17  1  0.24983996  0.63845593  0.32695532  1
  P  P18  1  0.25010901  0.86136448  0.82682972  1
  P  P19  1  0.74991582  0.13869057  0.17314644  1
  O  O20  1  0.05463944  0.63928577  0.38719846  1
  O  O21  1  0.55497021  0.36048694  0.61275178  1
  O  O22  1  0.94494915  0.13969372  0.11274200  1
  O  O23  1  0.44526142  0.86049576  0.88703107  1
  O  O24  1  0.94532372  0.36040367  0.61297262  1
  O  O25  1  0.44503868  0.63953831  0.38727614  1
  O  O26  1  0.05511444  0.86037392  0.88723524  1
  O  O27  1  0.55474011  0.13955102  0.11293649  1
  O  O28  1  0.25005027  0.33818372  0.44897111  1
  O  O29  1  0.74994519  0.66180234  0.55103194  1
  O  O30  1  0.74991502  0.83842818  0.05115430  1
  O  O31  1  0.25009420  0.16159030  0.94881465  1
  O  O32  1  0.75020201  0.07912420  0.92211714  1
  O  O33  1  0.24981201  0.92086127  0.07785336  1
  O  O34  1  0.25004939  0.57952630  0.57758927  1
  O  O35  1  0.74984273  0.42039207  0.42245371  1
  O  O36  1  0.74993772  0.20263533  0.73813161  1
  O  O37  1  0.24995274  0.79737718  0.26190654  1
  O  O38  1  0.25000488  0.70250041  0.76182423  1
  O  O39  1  0.75000083  0.29754070  0.23817084  1
  O  O40  1  0.42597025  0.14024334  0.32921528  1
  O  O41  1  0.92535324  0.85948362  0.67099040  1
  O  O42  1  0.57482079  0.64048883  0.17130378  1
  O  O43  1  0.07374569  0.35967679  0.82913128  1
  O  O44  1  0.57409908  0.85977608  0.67077114  1
  O  O45  1  0.07469763  0.14053616  0.32895592  1
  O  O46  1  0.42517273  0.35953107  0.82868421  1
  O  O47  1  0.92633265  0.64034275  0.17083249  1
  O  O48  1  0.75025901  0.99076070  0.24619850  1
  O  O49  1  0.24975109  0.00925834  0.75377895  1
  O  O50  1  0.25022893  0.49069004  0.25394264  1
  O  O51  1  0.74971323  0.50924835  0.74599421  1
  O  O52  1  0.75026130  0.97523922  0.52246207  1
  O  O53  1  0.24968948  0.02476483  0.47751088  1
  O  O54  1  0.25027602  0.47465466  0.97750416  1
  O  O55  1  0.74969828  0.52542337  0.02248422  1
