# generated using pymatgen
data_Sb2HF13
_symmetry_space_group_name_H-M   'P 1'
_cell_length_a   5.52440724
_cell_length_b   6.95023493
_cell_length_c   7.73310858
_cell_angle_alpha   115.98721149
_cell_angle_beta   94.81438868
_cell_angle_gamma   94.90670645
_symmetry_Int_Tables_number   1
_chemical_formula_structural   Sb2HF13
_chemical_formula_sum   'Sb2 H1 F13'
_cell_volume   263.46611746
_cell_formula_units_Z   1
loop_
 _symmetry_equiv_pos_site_id
 _symmetry_equiv_pos_as_xyz
  1  'x, y, z'
loop_
 _atom_site_type_symbol
 _atom_site_label
 _atom_site_symmetry_multiplicity
 _atom_site_fract_x
 _atom_site_fract_y
 _atom_site_fract_z
 _atom_site_occupancy
  Sb  Sb0  1  0.18193047  0.15410216  0.28169090  1
  Sb  Sb1  1  0.81806953  0.84589784  0.71830910  1
  H  H2  1  0.50000000  0.50000000  -0.00000000  1
  F  F3  1  0.35379846  0.29768627  0.53779911  1
  F  F4  1  0.64620154  0.70231373  0.46220089  1
  F  F5  1  0.88384741  0.07964979  0.35937605  1
  F  F6  1  0.11615259  0.92035021  0.64062395  1
  F  F7  1  0.67950955  0.58469290  0.10043347  1
  F  F8  1  0.32049045  0.41530710  0.89956653  1
  F  F9  1  0.27832342  0.88244222  0.23222491  1
  F  F10  1  0.72167658  0.11755778  0.76777509  1
  F  F11  1  0.45799068  0.21583940  0.17298619  1
  F  F12  1  0.54200932  0.78416060  0.82701381  1
  F  F13  1  0.06358271  0.40740115  0.29148669  1
  F  F14  1  0.93641729  0.59259885  0.70851331  1
  F  F15  1  -0.00000000  0.00000000  -0.00000000  1
