# generated using pymatgen
data_Ba2Sm3Si3SeO12
_symmetry_space_group_name_H-M   'P 1'
_cell_length_a   7.20526736
_cell_length_b   10.10036628
_cell_length_c   10.10036628
_cell_angle_alpha   119.99999921
_cell_angle_beta   90.00000000
_cell_angle_gamma   90.00000000
_symmetry_Int_Tables_number   1
_chemical_formula_structural   Ba2Sm3Si3SeO12
_chemical_formula_sum   'Ba4 Sm6 Si6 Se2 O24'
_cell_volume   636.58292031
_cell_formula_units_Z   2
loop_
 _symmetry_equiv_pos_site_id
 _symmetry_equiv_pos_as_xyz
  1  'x, y, z'
loop_
 _atom_site_type_symbol
 _atom_site_label
 _atom_site_symmetry_multiplicity
 _atom_site_fract_x
 _atom_site_fract_y
 _atom_site_fract_z
 _atom_site_occupancy
  Ba  Ba0  1  0.99819255  0.66666700  0.33333300  1
  Ba  Ba1  1  0.00180745  0.33333300  0.66666700  1
  Ba  Ba2  1  0.49819255  0.33333300  0.66666700  1
  Ba  Ba3  1  0.50180745  0.66666700  0.33333300  1
  Sm  Sm4  1  0.75000000  0.73349702  0.99557316  1
  Sm  Sm5  1  0.25000000  0.26650298  0.00442684  1
  Sm  Sm6  1  0.75000000  0.26207615  0.26650298  1
  Sm  Sm7  1  0.25000000  0.73792385  0.73349702  1
  Sm  Sm8  1  0.75000000  0.00442684  0.73792385  1
  Sm  Sm9  1  0.25000000  0.99557316  0.26207615  1
  Si  Si10  1  0.75000000  0.97931545  0.36094120  1
  Si  Si11  1  0.25000000  0.02068455  0.63905880  1
  Si  Si12  1  0.75000000  0.38162576  0.02068455  1
  Si  Si13  1  0.25000000  0.61837424  0.97931545  1
  Si  Si14  1  0.75000000  0.63905880  0.61837424  1
  Si  Si15  1  0.25000000  0.36094120  0.38162576  1
  Se  Se16  1  0.00000000  0.00000000  0.00000000  1
  Se  Se17  1  0.50000000  0.00000000  0.00000000  1
  O  O18  1  0.93082839  0.90116250  0.24678498  1
  O  O19  1  0.06917161  0.09883750  0.75321502  1
  O  O20  1  0.93082839  0.34562248  0.09883750  1
  O  O21  1  0.43082839  0.09883750  0.75321502  1
  O  O22  1  0.06917161  0.65437752  0.90116250  1
  O  O23  1  0.56917161  0.90116250  0.24678498  1
  O  O24  1  0.93082839  0.75321502  0.65437752  1
  O  O25  1  0.43082839  0.65437752  0.90116250  1
  O  O26  1  0.06917161  0.24678498  0.34562248  1
  O  O27  1  0.56917161  0.34562248  0.09883750  1
  O  O28  1  0.43082839  0.24678498  0.34562248  1
  O  O29  1  0.56917161  0.75321502  0.65437752  1
  O  O30  1  0.75000000  0.91907972  0.48627225  1
  O  O31  1  0.25000000  0.08092028  0.51372775  1
  O  O32  1  0.75000000  0.56719254  0.08092028  1
  O  O33  1  0.25000000  0.43280746  0.91907972  1
  O  O34  1  0.75000000  0.51372775  0.43280746  1
  O  O35  1  0.25000000  0.48627225  0.56719254  1
  O  O36  1  0.75000000  0.55475323  0.72043989  1
  O  O37  1  0.25000000  0.44524677  0.27956011  1
  O  O38  1  0.75000000  0.16568666  0.44524677  1
  O  O39  1  0.25000000  0.83431334  0.55475323  1
  O  O40  1  0.75000000  0.27956011  0.83431334  1
  O  O41  1  0.25000000  0.72043989  0.16568666  1
