# generated using pymatgen
data_CaOsO3
_symmetry_space_group_name_H-M   'P 1'
_cell_length_a   5.38927171
_cell_length_b   5.63878363
_cell_length_c   7.75987339
_cell_angle_alpha   90.00000000
_cell_angle_beta   90.00000000
_cell_angle_gamma   90.00000000
_symmetry_Int_Tables_number   1
_chemical_formula_structural   CaOsO3
_chemical_formula_sum   'Ca4 Os4 O12'
_cell_volume   235.81430432
_cell_formula_units_Z   4
loop_
 _symmetry_equiv_pos_site_id
 _symmetry_equiv_pos_as_xyz
  1  'x, y, z'
loop_
 _atom_site_type_symbol
 _atom_site_label
 _atom_site_symmetry_multiplicity
 _atom_site_fract_x
 _atom_site_fract_y
 _atom_site_fract_z
 _atom_site_occupancy
  Ca  Ca0  1  0.01630661  0.43901737  0.25000000  1
  Ca  Ca1  1  0.98369339  0.56098263  0.75000000  1
  Ca  Ca2  1  0.51630661  0.06098263  0.75000000  1
  Ca  Ca3  1  0.48369339  0.93901737  0.25000000  1
  Os  Os4  1  0.00000000  0.00000000  -0.00000000  1
  Os  Os5  1  0.50000000  0.50000000  -0.00000000  1
  Os  Os6  1  0.00000000  0.00000000  0.50000000  1
  Os  Os7  1  0.50000000  0.50000000  0.50000000  1
  O  O8  1  0.30610230  0.19897049  0.05116543  1
  O  O9  1  0.69389770  0.80102951  0.94883457  1
  O  O10  1  0.80610230  0.30102951  0.94883457  1
  O  O11  1  0.69389770  0.80102951  0.55116543  1
  O  O12  1  0.19389770  0.69897049  0.05116543  1
  O  O13  1  0.30610230  0.19897049  0.44883457  1
  O  O14  1  0.19389770  0.69897049  0.44883457  1
  O  O15  1  0.80610230  0.30102951  0.55116543  1
  O  O16  1  0.60274656  0.53236201  0.25000000  1
  O  O17  1  0.39725344  0.46763799  0.75000000  1
  O  O18  1  0.10274656  0.96763799  0.75000000  1
  O  O19  1  0.89725344  0.03236201  0.25000000  1
