# generated using pymatgen
data_FeH12C4(N9O2)2
_symmetry_space_group_name_H-M   'P 1'
_cell_length_a   7.47290400
_cell_length_b   7.77749251
_cell_length_c   14.87641545
_cell_angle_alpha   90.00000000
_cell_angle_beta   90.00000000
_cell_angle_gamma   109.11856440
_symmetry_Int_Tables_number   1
_chemical_formula_structural   FeH12C4(N9O2)2
_chemical_formula_sum   'Fe2 H24 C8 N36 O8'
_cell_volume   816.93382801
_cell_formula_units_Z   2
loop_
 _symmetry_equiv_pos_site_id
 _symmetry_equiv_pos_as_xyz
  1  'x, y, z'
loop_
 _atom_site_type_symbol
 _atom_site_label
 _atom_site_symmetry_multiplicity
 _atom_site_fract_x
 _atom_site_fract_y
 _atom_site_fract_z
 _atom_site_occupancy
  Fe  Fe0  1  0.00000000  0.50000000  -0.00000000  1
  Fe  Fe1  1  0.50000000  0.50000000  0.50000000  1
  H  H2  1  0.37182101  0.16880901  0.18302641  1
  H  H3  1  0.62817899  0.83119099  0.81697359  1
  H  H4  1  0.12817899  0.83119099  0.68302641  1
  H  H5  1  0.87182101  0.16880901  0.31697359  1
  H  H6  1  0.17997245  0.51486328  0.40293537  1
  H  H7  1  0.82002755  0.48513672  0.59706463  1
  H  H8  1  0.32002755  0.48513672  0.90293537  1
  H  H9  1  0.67997245  0.51486328  0.09706463  1
  H  H10  1  0.22013638  0.67383666  0.47449906  1
  H  H11  1  0.77986362  0.32616334  0.52550094  1
  H  H12  1  0.27986362  0.32616334  0.97449906  1
  H  H13  1  0.72013638  0.67383666  0.02550094  1
  H  H14  1  0.09452640  0.23773130  0.70703798  1
  H  H15  1  0.90547360  0.76226870  0.29296202  1
  H  H16  1  0.40547360  0.76226870  0.20703798  1
  H  H17  1  0.59452640  0.23773130  0.79296202  1
  H  H18  1  0.06087226  0.82237508  0.21507769  1
  H  H19  1  0.93912774  0.17762492  0.78492231  1
  H  H20  1  0.43912774  0.17762492  0.71507769  1
  H  H21  1  0.56087226  0.82237508  0.28492231  1
  H  H22  1  0.19239173  0.99684645  0.33345745  1
  H  H23  1  0.80760827  0.00315355  0.66654255  1
  H  H24  1  0.30760827  0.00315355  0.83345745  1
  H  H25  1  0.69239173  0.99684645  0.16654255  1
  C  C26  1  0.28428121  0.07834289  0.46312518  1
  C  C27  1  0.71571879  0.92165711  0.53687482  1
  C  C28  1  0.21571879  0.92165711  0.96312518  1
  C  C29  1  0.78428121  0.07834289  0.03687482  1
  C  C30  1  0.41140978  0.24531213  0.32785299  1
  C  C31  1  0.58859022  0.75468787  0.67214701  1
  C  C32  1  0.08859022  0.75468787  0.82785299  1
  C  C33  1  0.91140978  0.24531213  0.17214701  1
  N  N34  1  0.29176859  0.08461863  0.00306238  1
  N  N35  1  0.70823141  0.91538137  0.99693762  1
  N  N36  1  0.20823141  0.91538137  0.50306238  1
  N  N37  1  0.79176859  0.08461863  0.49693762  1
  N  N38  1  0.35003490  0.21283702  0.52373394  1
  N  N39  1  0.64996510  0.78716298  0.47626606  1
  N  N40  1  0.14996510  0.78716298  0.02373394  1
  N  N41  1  0.85003490  0.21283702  0.97626606  1
  N  N42  1  0.02824635  0.40051456  0.13585733  1
  N  N43  1  0.97175365  0.59948544  0.86414267  1
  N  N44  1  0.47175365  0.59948544  0.63585733  1
  N  N45  1  0.52824635  0.40051456  0.36414267  1
  N  N46  1  0.29015626  0.10075744  0.37092828  1
  N  N47  1  0.70984374  0.89924256  0.62907172  1
  N  N48  1  0.20984374  0.89924256  0.87092828  1
  N  N49  1  0.79015626  0.10075744  0.12907172  1
  N  N50  1  0.43814059  0.25652395  0.23764278  1
  N  N51  1  0.56185941  0.74347605  0.76235722  1
  N  N52  1  0.06185941  0.74347605  0.73764278  1
  N  N53  1  0.93814059  0.25652395  0.26235722  1
  N  N54  1  0.31344999  0.12943917  0.60418337  1
  N  N55  1  0.68655001  0.87056083  0.39581663  1
  N  N56  1  0.18655001  0.87056083  0.10418337  1
  N  N57  1  0.81344999  0.12943917  0.89581663  1
  N  N58  1  0.07310478  0.41769458  0.28082407  1
  N  N59  1  0.92689522  0.58230542  0.71917593  1
  N  N60  1  0.42689522  0.58230542  0.78082407  1
  N  N61  1  0.57310478  0.41769458  0.21917593  1
  N  N62  1  0.27151322  0.04506597  0.09158071  1
  N  N63  1  0.72848678  0.95493403  0.90841929  1
  N  N64  1  0.22848678  0.95493403  0.59158071  1
  N  N65  1  0.77151322  0.04506597  0.40841929  1
  N  N66  1  0.12715628  0.50156143  0.20542443  1
  N  N67  1  0.87284372  0.49843857  0.79457557  1
  N  N68  1  0.37284372  0.49843857  0.70542443  1
  N  N69  1  0.62715628  0.50156143  0.29457557  1
  O  O70  1  0.23982296  0.55585349  0.46158311  1
  O  O71  1  0.76017704  0.44414651  0.53841689  1
  O  O72  1  0.26017704  0.44414651  0.96158311  1
  O  O73  1  0.73982296  0.55585349  0.03841689  1
  O  O74  1  0.01568887  0.86140317  0.27171027  1
  O  O75  1  0.98431113  0.13859683  0.72828973  1
  O  O76  1  0.48431113  0.13859683  0.77171027  1
  O  O77  1  0.51568887  0.86140317  0.22828973  1
