# generated using pymatgen
data_Ba6Fe3Si8C2(ClO10)3
_symmetry_space_group_name_H-M   'P 1'
_cell_length_a   7.23343534
_cell_length_b   10.86779526
_cell_length_c   10.86779526
_cell_angle_alpha   120.00000109
_cell_angle_beta   90.00000000
_cell_angle_gamma   90.00000000
_symmetry_Int_Tables_number   1
_chemical_formula_structural   Ba6Fe3Si8C2(ClO10)3
_chemical_formula_sum   'Ba6 Fe3 Si8 C2 Cl3 O30'
_cell_volume   739.87461450
_cell_formula_units_Z   1
loop_
 _symmetry_equiv_pos_site_id
 _symmetry_equiv_pos_as_xyz
  1  'x, y, z'
loop_
 _atom_site_type_symbol
 _atom_site_label
 _atom_site_symmetry_multiplicity
 _atom_site_fract_x
 _atom_site_fract_y
 _atom_site_fract_z
 _atom_site_occupancy
  Ba  Ba0  1  0.47548493  0.17136852  0.34273704  1
  Ba  Ba1  1  0.47548493  0.17136852  0.82863148  1
  Ba  Ba2  1  0.47548493  0.65726296  0.82863148  1
  Ba  Ba3  1  0.99858875  0.48759254  0.97518509  1
  Ba  Ba4  1  0.99858875  0.48759254  0.51240746  1
  Ba  Ba5  1  0.99858875  0.02481491  0.51240746  1
  Fe  Fe6  1  0.49626573  0.56355168  0.12710335  1
  Fe  Fe7  1  0.49626573  0.56355168  0.43644832  1
  Fe  Fe8  1  0.49626573  0.87289665  0.43644832  1
  Si  Si9  1  0.22496668  0.83177443  0.66354886  1
  Si  Si10  1  0.22496668  0.83177443  0.16822557  1
  Si  Si11  1  0.22496668  0.33645114  0.16822557  1
  Si  Si12  1  0.78020214  0.00000000  0.00000000  1
  Si  Si13  1  0.76801592  0.83151731  0.66303462  1
  Si  Si14  1  0.76801592  0.83151731  0.16848269  1
  Si  Si15  1  0.76801592  0.33696538  0.16848269  1
  Si  Si16  1  0.21636100  0.00000000  0.00000000  1
  C  C17  1  0.33542296  0.33333300  0.66666700  1
  C  C18  1  0.74979863  0.33333300  0.66666700  1
  Cl  Cl19  1  0.04798008  0.16207202  0.32414404  1
  Cl  Cl20  1  0.04798008  0.16207202  0.83792798  1
  Cl  Cl21  1  0.04798008  0.67585596  0.83792798  1
  O  O22  1  0.68737988  0.92080714  0.33026200  1
  O  O23  1  0.68737988  0.40945486  0.07919286  1
  O  O24  1  0.68737988  0.40945486  0.33026200  1
  O  O25  1  0.68737988  0.66973800  0.59054514  1
  O  O26  1  0.68737988  0.66973800  0.07919286  1
  O  O27  1  0.68737988  0.92080714  0.59054514  1
  O  O28  1  0.99662945  0.82691876  0.65383753  1
  O  O29  1  0.99662945  0.82691876  0.17308124  1
  O  O30  1  0.99662945  0.34616247  0.17308124  1
  O  O31  1  0.49894004  0.66666700  0.33333300  1
  O  O32  1  0.75375440  0.26482833  0.52965665  1
  O  O33  1  0.75375440  0.26482833  0.73517167  1
  O  O34  1  0.75375440  0.47034335  0.73517167  1
  O  O35  1  0.99443214  0.66666700  0.33333300  1
  O  O36  1  0.99837029  0.00000000  0.00000000  1
  O  O37  1  0.33707721  0.40239653  0.80479307  1
  O  O38  1  0.33707721  0.40239653  0.59760347  1
  O  O39  1  0.33707721  0.19520693  0.59760347  1
  O  O40  1  0.30683699  0.91798248  0.32937066  1
  O  O41  1  0.30683699  0.41138818  0.08201752  1
  O  O42  1  0.30683699  0.41138818  0.32937066  1
  O  O43  1  0.30683699  0.67062934  0.58861182  1
  O  O44  1  0.30683699  0.67062934  0.08201752  1
  O  O45  1  0.30683699  0.91798248  0.58861182  1
  O  O46  1  0.29678012  0.91761474  0.83522949  1
  O  O47  1  0.29678012  0.91761474  0.08238526  1
  O  O48  1  0.29678012  0.16477051  0.08238526  1
  O  O49  1  0.70288059  0.91764425  0.83528849  1
  O  O50  1  0.70288059  0.91764425  0.08235575  1
  O  O51  1  0.70288059  0.16471151  0.08235575  1
