# generated using pymatgen
data_Co2BO4
_symmetry_space_group_name_H-M   'P 1'
_cell_length_a   3.16627113
_cell_length_b   9.22185890
_cell_length_c   9.36615073
_cell_angle_alpha   90.00000000
_cell_angle_beta   90.00000000
_cell_angle_gamma   90.00000000
_symmetry_Int_Tables_number   1
_chemical_formula_structural   Co2BO4
_chemical_formula_sum   'Co8 B4 O16'
_cell_volume   273.48135100
_cell_formula_units_Z   4
loop_
 _symmetry_equiv_pos_site_id
 _symmetry_equiv_pos_as_xyz
  1  'x, y, z'
loop_
 _atom_site_type_symbol
 _atom_site_label
 _atom_site_symmetry_multiplicity
 _atom_site_fract_x
 _atom_site_fract_y
 _atom_site_fract_z
 _atom_site_occupancy
  Co  Co0  1  0.75000000  0.88107698  0.92942635  1
  Co  Co1  1  0.25000000  0.11892302  0.07057365  1
  Co  Co2  1  0.25000000  0.61892302  0.42942635  1
  Co  Co3  1  0.75000000  0.38107698  0.57057365  1
  Co  Co4  1  0.75000000  0.89687858  0.29973899  1
  Co  Co5  1  0.25000000  0.10312142  0.70026101  1
  Co  Co6  1  0.25000000  0.60312142  0.79973899  1
  Co  Co7  1  0.75000000  0.39687858  0.20026101  1
  B  B8  1  0.75000000  0.83695436  0.61833864  1
  B  B9  1  0.25000000  0.16304564  0.38166136  1
  B  B10  1  0.25000000  0.66304564  0.11833864  1
  B  B11  1  0.75000000  0.33695436  0.88166136  1
  O  O12  1  0.75000000  0.48334600  0.37633568  1
  O  O13  1  0.25000000  0.51665400  0.62366432  1
  O  O14  1  0.25000000  0.01665400  0.87633568  1
  O  O15  1  0.75000000  0.98334600  0.12366432  1
  O  O16  1  0.75000000  0.75381255  0.74262150  1
  O  O17  1  0.25000000  0.24618745  0.25737850  1
  O  O18  1  0.25000000  0.74618745  0.24262150  1
  O  O19  1  0.75000000  0.25381255  0.75737850  1
  O  O20  1  0.75000000  0.98631177  0.63019929  1
  O  O21  1  0.25000000  0.01368823  0.36980071  1
  O  O22  1  0.25000000  0.51368823  0.13019929  1
  O  O23  1  0.75000000  0.48631177  0.86980071  1
  O  O24  1  0.75000000  0.77286862  0.48431208  1
  O  O25  1  0.25000000  0.22713138  0.51568792  1
  O  O26  1  0.25000000  0.72713138  0.98431208  1
  O  O27  1  0.75000000  0.27286862  0.01568792  1
