# generated using pymatgen
data_CsSmBr3
_symmetry_space_group_name_H-M   'P 1'
_cell_length_a   8.01257111
_cell_length_b   8.36219530
_cell_length_c   11.65026863
_cell_angle_alpha   90.00000000
_cell_angle_beta   90.00000000
_cell_angle_gamma   90.00000000
_symmetry_Int_Tables_number   1
_chemical_formula_structural   CsSmBr3
_chemical_formula_sum   'Cs4 Sm4 Br12'
_cell_volume   780.59927309
_cell_formula_units_Z   4
loop_
 _symmetry_equiv_pos_site_id
 _symmetry_equiv_pos_as_xyz
  1  'x, y, z'
loop_
 _atom_site_type_symbol
 _atom_site_label
 _atom_site_symmetry_multiplicity
 _atom_site_fract_x
 _atom_site_fract_y
 _atom_site_fract_z
 _atom_site_occupancy
  Cs  Cs0  1  0.02893899  0.44536083  0.25000000  1
  Cs  Cs1  1  0.97106101  0.55463917  0.75000000  1
  Cs  Cs2  1  0.52893899  0.05463917  0.75000000  1
  Cs  Cs3  1  0.47106101  0.94536083  0.25000000  1
  Sm  Sm4  1  0.00000000  -0.00000000  -0.00000000  1
  Sm  Sm5  1  0.50000000  0.50000000  -0.00000000  1
  Sm  Sm6  1  -0.00000000  -0.00000000  0.50000000  1
  Sm  Sm7  1  0.50000000  0.50000000  0.50000000  1
  Br  Br8  1  0.28432358  0.21840392  0.02404323  1
  Br  Br9  1  0.71567642  0.78159608  0.97595677  1
  Br  Br10  1  0.78432358  0.28159608  0.97595677  1
  Br  Br11  1  0.71567642  0.78159608  0.52404323  1
  Br  Br12  1  0.21567642  0.71840392  0.02404323  1
  Br  Br13  1  0.28432358  0.21840392  0.47595677  1
  Br  Br14  1  0.21567642  0.71840392  0.47595677  1
  Br  Br15  1  0.78432358  0.28159608  0.52404323  1
  Br  Br16  1  0.55187348  0.49988891  0.25000000  1
  Br  Br17  1  0.44812652  0.50011109  0.75000000  1
  Br  Br18  1  0.05187348  0.00011109  0.75000000  1
  Br  Br19  1  0.94812652  -0.00011109  0.25000000  1
