# generated using pymatgen
data_Ba2In2(PO4)3
_symmetry_space_group_name_H-M   'P 1'
_cell_length_a   10.48593349
_cell_length_b   10.48593349
_cell_length_c   10.48593349
_cell_angle_alpha   90.00000000
_cell_angle_beta   90.00000000
_cell_angle_gamma   90.00000000
_symmetry_Int_Tables_number   1
_chemical_formula_structural   Ba2In2(PO4)3
_chemical_formula_sum   'Ba8 In8 P12 O48'
_cell_volume   1152.97873184
_cell_formula_units_Z   4
loop_
 _symmetry_equiv_pos_site_id
 _symmetry_equiv_pos_as_xyz
  1  'x, y, z'
loop_
 _atom_site_type_symbol
 _atom_site_label
 _atom_site_symmetry_multiplicity
 _atom_site_fract_x
 _atom_site_fract_y
 _atom_site_fract_z
 _atom_site_occupancy
  Ba  Ba0  1  0.05574047  0.05574047  0.05574047  1
  Ba  Ba1  1  0.44425953  0.94425953  0.55574047  1
  Ba  Ba2  1  0.94425953  0.55574047  0.44425953  1
  Ba  Ba3  1  0.55574047  0.44425953  0.94425953  1
  Ba  Ba4  1  0.80727184  0.80727184  0.80727184  1
  Ba  Ba5  1  0.69272816  0.19272816  0.30727184  1
  Ba  Ba6  1  0.19272816  0.30727184  0.69272816  1
  Ba  Ba7  1  0.30727184  0.69272816  0.19272816  1
  In  In8  1  0.33050968  0.33050968  0.33050968  1
  In  In9  1  0.16949032  0.66949032  0.83050968  1
  In  In10  1  0.66949032  0.83050968  0.16949032  1
  In  In11  1  0.83050968  0.16949032  0.66949032  1
  In  In12  1  0.58541875  0.58541875  0.58541875  1
  In  In13  1  0.91458125  0.41458125  0.08541875  1
  In  In14  1  0.41458125  0.08541875  0.91458125  1
  In  In15  1  0.08541875  0.91458125  0.41458125  1
  P  P16  1  0.01450764  0.23038363  0.37904964  1
  P  P17  1  0.48549236  0.76961637  0.87904964  1
  P  P18  1  0.98549236  0.73038363  0.12095036  1
  P  P19  1  0.37904964  0.01450764  0.23038363  1
  P  P20  1  0.51450764  0.26961637  0.62095036  1
  P  P21  1  0.87904964  0.48549236  0.76961637  1
  P  P22  1  0.12095036  0.98549236  0.73038363  1
  P  P23  1  0.62095036  0.51450764  0.26961637  1
  P  P24  1  0.23038363  0.37904964  0.01450764  1
  P  P25  1  0.73038363  0.12095036  0.98549236  1
  P  P26  1  0.26961637  0.62095036  0.51450764  1
  P  P27  1  0.76961637  0.87904964  0.48549236  1
  O  O28  1  0.00097601  0.10158789  0.30795640  1
  O  O29  1  0.49902399  0.89841211  0.80795640  1
  O  O30  1  0.99902399  0.60158789  0.19204360  1
  O  O31  1  0.30795640  0.00097601  0.10158789  1
  O  O32  1  0.50097601  0.39841211  0.69204360  1
  O  O33  1  0.80795640  0.49902399  0.89841211  1
  O  O34  1  0.19204360  0.99902399  0.60158789  1
  O  O35  1  0.69204360  0.50097601  0.39841211  1
  O  O36  1  0.10158789  0.30795640  0.00097601  1
  O  O37  1  0.60158789  0.19204360  0.99902399  1
  O  O38  1  0.39841211  0.69204360  0.50097601  1
  O  O39  1  0.89841211  0.80795640  0.49902399  1
  O  O40  1  0.04752252  0.83671512  0.20429467  1
  O  O41  1  0.45247748  0.16328488  0.70429467  1
  O  O42  1  0.95247748  0.33671512  0.29570533  1
  O  O43  1  0.20429467  0.04752252  0.83671512  1
  O  O44  1  0.54752252  0.66328488  0.79570533  1
  O  O45  1  0.70429467  0.45247748  0.16328488  1
  O  O46  1  0.29570533  0.95247748  0.33671512  1
  O  O47  1  0.79570533  0.54752252  0.66328488  1
  O  O48  1  0.83671512  0.20429467  0.04752252  1
  O  O49  1  0.33671512  0.29570533  0.95247748  1
  O  O50  1  0.66328488  0.79570533  0.54752252  1
  O  O51  1  0.16328488  0.70429467  0.45247748  1
  O  O52  1  0.15665196  0.25704633  0.41465913  1
  O  O53  1  0.34334804  0.74295367  0.91465913  1
  O  O54  1  0.84334804  0.75704633  0.08534087  1
  O  O55  1  0.41465913  0.15665196  0.25704633  1
  O  O56  1  0.65665196  0.24295367  0.58534087  1
  O  O57  1  0.91465913  0.34334804  0.74295367  1
  O  O58  1  0.08534087  0.84334804  0.75704633  1
  O  O59  1  0.58534087  0.65665196  0.24295367  1
  O  O60  1  0.25704633  0.41465913  0.15665196  1
  O  O61  1  0.75704633  0.08534087  0.84334804  1
  O  O62  1  0.24295367  0.58534087  0.65665196  1
  O  O63  1  0.74295367  0.91465913  0.34334804  1
  O  O64  1  0.26641517  0.49385518  0.43914400  1
  O  O65  1  0.23358483  0.50614482  0.93914400  1
  O  O66  1  0.73358483  0.99385518  0.06085600  1
  O  O67  1  0.43914400  0.26641517  0.49385518  1
  O  O68  1  0.76641517  0.00614482  0.56085600  1
  O  O69  1  0.93914400  0.23358483  0.50614482  1
  O  O70  1  0.06085600  0.73358483  0.99385518  1
  O  O71  1  0.56085600  0.76641517  0.00614482  1
  O  O72  1  0.49385518  0.43914400  0.26641517  1
  O  O73  1  0.99385518  0.06085600  0.73358483  1
  O  O74  1  0.00614482  0.56085600  0.76641517  1
  O  O75  1  0.50614482  0.93914400  0.23358483  1
