# generated using pymatgen
data_H2C3N2O3
_symmetry_space_group_name_H-M   'P 1'
_cell_length_a   5.21154858
_cell_length_b   8.59942328
_cell_length_c   10.94472160
_cell_angle_alpha   90.00000000
_cell_angle_beta   92.37203347
_cell_angle_gamma   90.00000000
_symmetry_Int_Tables_number   1
_chemical_formula_structural   H2C3N2O3
_chemical_formula_sum   'H8 C12 N8 O12'
_cell_volume   490.08177426
_cell_formula_units_Z   4
loop_
 _symmetry_equiv_pos_site_id
 _symmetry_equiv_pos_as_xyz
  1  'x, y, z'
loop_
 _atom_site_type_symbol
 _atom_site_label
 _atom_site_symmetry_multiplicity
 _atom_site_fract_x
 _atom_site_fract_y
 _atom_site_fract_z
 _atom_site_occupancy
  H  H0  1  0.08525904  0.86067641  0.39030119  1
  H  H1  1  0.91474096  0.13932359  0.60969881  1
  H  H2  1  0.41474096  0.36067641  0.10969881  1
  H  H3  1  0.58525904  0.63932359  0.89030119  1
  H  H4  1  0.39824566  0.30330623  0.48817845  1
  H  H5  1  0.60175434  0.69669377  0.51182155  1
  H  H6  1  0.10175434  0.80330623  0.01182155  1
  H  H7  1  0.89824566  0.19669377  0.98817845  1
  C  C8  1  0.16777073  0.86624181  0.20070654  1
  C  C9  1  0.83222927  0.13375819  0.79929346  1
  C  C10  1  0.33222927  0.36624181  0.29929346  1
  C  C11  1  0.66777073  0.63375819  0.70070654  1
  C  C12  1  0.82681973  0.73165578  0.27418573  1
  C  C13  1  0.17318027  0.26834422  0.72581427  1
  C  C14  1  0.67318027  0.23165578  0.22581427  1
  C  C15  1  0.32681973  0.76834422  0.77418573  1
  C  C16  1  0.83320512  0.70992403  0.13393791  1
  C  C17  1  0.16679488  0.29007597  0.86606209  1
  C  C18  1  0.66679488  0.20992403  0.36606209  1
  C  C19  1  0.33320512  0.79007597  0.63393791  1
  N  N20  1  0.04130014  0.79425874  0.10007461  1
  N  N21  1  0.95869986  0.20574126  0.89992539  1
  N  N22  1  0.45869986  0.29425874  0.39992539  1
  N  N23  1  0.54130014  0.70574126  0.60007461  1
  N  N24  1  0.03145064  0.82554320  0.30333379  1
  N  N25  1  0.96854936  0.17445680  0.69666621  1
  N  N26  1  0.46854936  0.32554320  0.19666621  1
  N  N27  1  0.53145064  0.67445680  0.80333379  1
  O  O28  1  0.14065680  0.44677022  0.30068729  1
  O  O29  1  0.85934320  0.55322978  0.69931271  1
  O  O30  1  0.35934320  0.94677022  0.19931271  1
  O  O31  1  0.64065680  0.05322978  0.80068729  1
  O  O32  1  0.66868373  0.67606913  0.34143689  1
  O  O33  1  0.33131627  0.32393087  0.65856311  1
  O  O34  1  0.83131627  0.17606913  0.15856311  1
  O  O35  1  0.16868373  0.82393087  0.84143689  1
  O  O36  1  0.68178311  0.63359385  0.06980702  1
  O  O37  1  0.31821689  0.36640615  0.93019298  1
  O  O38  1  0.81821689  0.13359385  0.43019298  1
  O  O39  1  0.18178311  0.86640615  0.56980702  1
