# generated using pymatgen
data_Fe2O2F5
_symmetry_space_group_name_H-M   'P 1'
_cell_length_a   5.60809605
_cell_length_b   7.40588932
_cell_length_c   7.40588932
_cell_angle_alpha   62.22458427
_cell_angle_beta   67.75151897
_cell_angle_gamma   67.75151897
_symmetry_Int_Tables_number   1
_chemical_formula_structural   Fe2O2F5
_chemical_formula_sum   'Fe4 O4 F10'
_cell_volume   244.08933627
_cell_formula_units_Z   2
loop_
 _symmetry_equiv_pos_site_id
 _symmetry_equiv_pos_as_xyz
  1  'x, y, z'
loop_
 _atom_site_type_symbol
 _atom_site_label
 _atom_site_symmetry_multiplicity
 _atom_site_fract_x
 _atom_site_fract_y
 _atom_site_fract_z
 _atom_site_occupancy
  Fe  Fe0  1  0.50000000  0.50000000  0.50000000  1
  Fe  Fe1  1  0.00000000  0.00000000  -0.00000000  1
  Fe  Fe2  1  0.50000000  0.00000000  0.50000000  1
  Fe  Fe3  1  0.50000000  0.50000000  -0.00000000  1
  O  O4  1  0.05030428  0.53508711  0.53508711  1
  O  O5  1  0.94969572  0.46491289  0.46491289  1
  O  O6  1  0.37952151  0.03508711  0.03508711  1
  O  O7  1  0.62047849  0.96491289  0.96491289  1
  F  F8  1  0.39814792  0.80791558  0.44490890  1
  F  F9  1  0.60185208  0.55509110  0.19208442  1
  F  F10  1  0.84902760  0.30791558  0.94490890  1
  F  F11  1  0.15097240  0.05509110  0.69208442  1
  F  F12  1  0.60185208  0.19208442  0.55509110  1
  F  F13  1  0.39814792  0.44490890  0.80791558  1
  F  F14  1  0.15097240  0.69208442  0.05509110  1
  F  F15  1  0.84902760  0.94490890  0.30791558  1
  F  F16  1  0.61144827  0.75000000  0.75000000  1
  F  F17  1  0.38855173  0.25000000  0.25000000  1
