# generated using pymatgen
data_TmNiGe
_symmetry_space_group_name_H-M   'P 1'
_cell_length_a   4.11424807
_cell_length_b   5.48532343
_cell_length_c   5.46749375
_cell_angle_alpha   92.70827321
_cell_angle_beta   112.10135987
_cell_angle_gamma   67.97424766
_symmetry_Int_Tables_number   1
_chemical_formula_structural   TmNiGe
_chemical_formula_sum   'Tm2 Ni2 Ge2'
_cell_volume   105.34510521
_cell_formula_units_Z   2
loop_
 _symmetry_equiv_pos_site_id
 _symmetry_equiv_pos_as_xyz
  1  'x, y, z'
loop_
 _atom_site_type_symbol
 _atom_site_label
 _atom_site_symmetry_multiplicity
 _atom_site_fract_x
 _atom_site_fract_y
 _atom_site_fract_z
 _atom_site_occupancy
  Tm  Tm0  1  0.76000663  0.68992691  0.20994016  1
  Tm  Tm1  1  0.23999337  0.31007309  0.79005984  1
  Ni  Ni2  1  0.55153753  0.27991342  0.38298848  1
  Ni  Ni3  1  0.44846247  0.72008658  0.61701152  1
  Ge  Ge4  1  0.06558094  0.10432341  0.23548528  1
  Ge  Ge5  1  0.93441906  0.89567659  0.76451472  1
