# generated using pymatgen
data_Al119Cr16Fe13
_symmetry_space_group_name_H-M   'P 1'
_cell_length_a   12.13829641
_cell_length_b   12.56859941
_cell_length_c   17.23669959
_cell_angle_alpha   111.67765090
_cell_angle_beta   110.61619187
_cell_angle_gamma   90.00000000
_symmetry_Int_Tables_number   1
_chemical_formula_structural   Al119Cr16Fe13
_chemical_formula_sum   'Al119 Cr16 Fe13'
_cell_volume   2261.46714153
_cell_formula_units_Z   1
loop_
 _symmetry_equiv_pos_site_id
 _symmetry_equiv_pos_as_xyz
  1  'x, y, z'
loop_
 _atom_site_type_symbol
 _atom_site_label
 _atom_site_symmetry_multiplicity
 _atom_site_fract_x
 _atom_site_fract_y
 _atom_site_fract_z
 _atom_site_occupancy
  Al  Al0  1  0.94079098  0.45499008  0.88158196  1
  Al  Al1  1  0.29314284  0.54180360  0.21740006  1
  Al  Al2  1  0.92425721  0.54180360  0.21740006  1
  Al  Al3  1  0.93939880  0.67916458  0.87879760  1
  Al  Al4  1  0.59048775  0.59591915  0.18097550  1
  Al  Al5  1  0.29274766  0.72486842  0.58549533  1
  Al  Al6  1  0.38102680  0.01446602  0.39028481  1
  Al  Al7  1  0.00925801  0.01446602  0.39028481  1
  Al  Al8  1  0.79996910  0.25013930  0.85085108  1
  Al  Al9  1  0.05088197  0.25013930  0.85085108  1
  Al  Al10  1  0.68872386  0.62791658  0.76633083  1
  Al  Al11  1  0.07760697  0.62791658  0.76633083  1
  Al  Al12  1  0.50492333  0.02539945  0.00984667  1
  Al  Al13  1  0.52792435  0.84022368  0.62117197  1
  Al  Al14  1  0.09324762  0.84022368  0.62117197  1
  Al  Al15  1  0.73114866  0.36094809  0.46229732  1
  Al  Al16  1  0.29562449  0.92702118  0.20774427  1
  Al  Al17  1  0.91211978  0.92702118  0.20774427  1
  Al  Al18  1  0.50093789  0.44239728  0.64430347  1
  Al  Al19  1  0.14336558  0.44239728  0.64430347  1
  Al  Al20  1  0.55674635  0.69122837  0.88312635  1
  Al  Al21  1  0.32637999  0.69122837  0.88312635  1
  Al  Al22  1  0.99772456  0.24736078  0.99544912  1
  Al  Al23  1  0.79428911  0.10191290  0.94425604  1
  Al  Al24  1  0.14996693  0.10191290  0.94425604  1
  Al  Al25  1  0.53511319  0.59440252  0.32500228  1
  Al  Al26  1  0.78988908  0.59440252  0.32500228  1
  Al  Al27  1  0.54918773  0.98685605  0.32266228  1
  Al  Al28  1  0.77347454  0.98685605  0.32266228  1
  Al  Al29  1  0.66310026  0.30128998  0.95798226  1
  Al  Al30  1  0.29488200  0.30128998  0.95798226  1
  Al  Al31  1  0.49300750  0.00159015  0.55494301  1
  Al  Al32  1  0.06193551  0.00159015  0.55494301  1
  Al  Al33  1  0.26315716  0.77196136  0.29501944  1
  Al  Al34  1  0.03186228  0.77196136  0.29501944  1
  Al  Al35  1  0.12940026  0.45972168  0.03177206  1
  Al  Al36  1  0.90237180  0.45972168  0.03177206  1
  Al  Al37  1  0.77386674  0.59565235  0.93765790  1
  Al  Al38  1  0.16379117  0.59565235  0.93765790  1
  Al  Al39  1  0.72382414  0.75424567  0.44764828  1
  Al  Al40  1  0.37096830  0.91153025  0.74193659  1
  Al  Al41  1  0.81480336  0.85813613  0.85412403  1
  Al  Al42  1  0.03932066  0.85813613  0.85412403  1
  Al  Al43  1  0.08290887  0.20957455  0.16581773  1
  Al  Al44  1  0.45890112  0.38527275  0.14500902  1
  Al  Al45  1  0.68610789  0.38527275  0.14500902  1
  Al  Al46  1  0.55547217  0.07120967  0.88185529  1
  Al  Al47  1  0.32638312  0.07120967  0.88185529  1
  Al  Al48  1  0.08308729  0.81821466  0.16617459  1
  Al  Al49  1  0.50539206  0.63494231  0.01078412  1
  Al  Al50  1  0.69310585  0.40541242  0.77254536  1
  Al  Al51  1  0.07943951  0.40541242  0.77254536  1
  Al  Al52  1  0.86137556  0.88360425  0.72275111  1
  Al  Al53  1  0.67803226  0.91917145  0.97003981  1
  Al  Al54  1  0.29200754  0.91917145  0.97003981  1
  Al  Al55  1  0.21657707  0.93073248  0.43315415  1
  Al  Al56  1  0.68304301  0.54753433  0.59128144  1
  Al  Al57  1  0.90823843  0.54753433  0.59128144  1
  Al  Al58  1  0.50952247  0.44392046  0.40690657  1
  Al  Al59  1  0.89738410  0.44392046  0.40690657  1
  Al  Al60  1  0.37535581  0.49220593  0.75071162  1
  Al  Al61  1  0.57796006  0.82699328  0.78585034  1
  Al  Al62  1  0.20789029  0.82699328  0.78585034  1
  Al  Al63  1  0.23729344  0.06554366  0.11343147  1
  Al  Al64  1  0.87613804  0.06554366  0.11343147  1
  Al  Al65  1  0.42625267  0.25039158  0.23872744  1
  Al  Al66  1  0.81247478  0.25039158  0.23872744  1
  Al  Al67  1  0.48056290  0.08683515  0.72576065  1
  Al  Al68  1  0.24519775  0.08683515  0.72576065  1
  Al  Al69  1  0.08215033  0.61005115  0.16430067  1
  Al  Al70  1  0.33496903  0.55221805  0.44532003  1
  Al  Al71  1  0.11035100  0.55221805  0.44532003  1
  Al  Al72  1  0.64928075  0.16722108  0.29856149  1
  Al  Al73  1  0.43760371  0.74309490  0.23205161  1
  Al  Al74  1  0.79444790  0.74309490  0.23205161  1
  Al  Al75  1  0.12727103  0.82571049  0.02820948  1
  Al  Al76  1  0.90093845  0.82571049  0.02820948  1
  Al  Al77  1  0.67906346  0.30669168  0.58944946  1
  Al  Al78  1  0.91038600  0.30669168  0.58944946  1
  Al  Al79  1  0.46530396  0.20900605  0.55381047  1
  Al  Al80  1  0.08850651  0.20900605  0.55381047  1
  Al  Al81  1  0.34866568  0.35156389  0.46684504  1
  Al  Al82  1  0.11817936  0.35156389  0.46684504  1
  Al  Al83  1  0.35089876  0.77900127  0.06341097  1
  Al  Al84  1  0.71251222  0.77900127  0.06341097  1
  Al  Al85  1  0.51035798  0.22162720  0.40850676  1
  Al  Al86  1  0.89814879  0.22162720  0.40850676  1
  Al  Al87  1  0.64803526  0.39197132  0.29607052  1
  Al  Al88  1  0.72780234  0.96037980  0.45560467  1
  Al  Al89  1  0.50613792  0.23449875  0.01227584  1
  Al  Al90  1  0.29536336  0.11426810  0.59072671  1
  Al  Al91  1  0.86270419  0.09013244  0.72540839  1
  Al  Al92  1  0.36985860  0.69266038  0.73971720  1
  Al  Al93  1  0.85773352  0.48873130  0.71546704  1
  Al  Al94  1  0.23716313  0.30161204  0.10832342  1
  Al  Al95  1  0.87116029  0.30161204  0.10832342  1
  Al  Al96  1  0.25920749  0.38455399  0.28673245  1
  Al  Al97  1  0.02752496  0.38455399  0.28673245  1
  Al  Al98  1  0.26430185  0.15901055  0.29575439  1
  Al  Al99  1  0.03145254  0.15901055  0.29575439  1
  Al  Al100  1  0.46139936  0.01910019  0.14874121  1
  Al  Al101  1  0.68734185  0.01910019  0.14874121  1
  Al  Al102  1  0.55982632  0.45682899  0.88911047  1
  Al  Al103  1  0.32928415  0.45682899  0.88911047  1
  Al  Al104  1  0.49504749  0.63062218  0.61448865  1
  Al  Al105  1  0.11944116  0.63062218  0.61448865  1
  Al  Al106  1  0.58778905  0.84138153  0.17557809  1
  Al  Al107  1  0.00057023  0.00133609  0.00114046  1
  Al  Al108  1  0.52101681  0.82884979  0.41679034  1
  Al  Al109  1  0.89577353  0.82884979  0.41679034  1
  Al  Al110  1  0.34447788  0.75799322  0.45232426  1
  Al  Al111  1  0.10784638  0.75799322  0.45232426  1
  Al  Al112  1  0.69316084  0.01530110  0.75953362  1
  Al  Al113  1  0.06637277  0.01530110  0.75953362  1
  Al  Al114  1  0.21783336  0.14942397  0.43566673  1
  Al  Al115  1  0.47795146  0.29117207  0.72790721  1
  Al  Al116  1  0.24995574  0.29117207  0.72790721  1
  Al  Al117  1  0.35081734  0.54217799  0.06790523  1
  Al  Al118  1  0.71708789  0.54217799  0.06790523  1
  Cr  Cr119  1  0.29340061  0.52287378  0.58680122  1
  Cr  Cr120  1  0.57156826  0.67196700  0.49686673  1
  Cr  Cr121  1  0.92529847  0.67196700  0.49686673  1
  Cr  Cr122  1  0.65547497  0.16930322  0.67905551  1
  Cr  Cr123  1  0.02358054  0.16930322  0.67905551  1
  Cr  Cr124  1  0.58104314  0.20725694  0.16208629  1
  Cr  Cr125  1  0.72524518  0.55411678  0.45049037  1
  Cr  Cr126  1  0.86406107  0.29884568  0.72812213  1
  Cr  Cr127  1  0.07668073  0.40096269  0.15336146  1
  Cr  Cr128  1  0.79226421  0.71620571  0.58452841  1
  Cr  Cr129  1  0.79607552  0.13588515  0.59215104  1
  Cr  Cr130  1  0.70077878  0.92007974  0.58861635  1
  Cr  Cr131  1  0.88783757  0.92007974  0.58861635  1
  Cr  Cr132  1  0.72436835  0.15890264  0.44873671  1
  Cr  Cr133  1  0.51127507  0.44366800  0.02255014  1
  Cr  Cr134  1  0.00702267  0.63714307  0.01404534  1
  Fe  Fe135  1  0.34973984  0.14892641  0.05287345  1
  Fe  Fe136  1  0.70313362  0.14892641  0.05287345  1
  Fe  Fe137  1  0.15823703  0.58554758  0.31647405  1
  Fe  Fe138  1  0.29524234  0.30786408  0.59048468  1
  Fe  Fe139  1  0.42963269  0.25360259  0.85926538  1
  Fe  Fe140  1  0.51193884  0.83283513  0.02387768  1
  Fe  Fe141  1  0.65173246  0.78800381  0.30346492  1
  Fe  Fe142  1  0.23804055  0.69467220  0.12316547  1
  Fe  Fe143  1  0.88512492  0.69467220  0.12316547  1
  Fe  Fe144  1  0.07756504  0.01271234  0.15513008  1
  Fe  Fe145  1  0.93595380  0.05305920  0.87190759  1
  Fe  Fe146  1  0.86682341  0.68796735  0.73364683  1
  Fe  Fe147  1  0.29373600  0.91971471  0.58747201  1
