# generated using pymatgen
data_ZrNb2VC4
_symmetry_space_group_name_H-M   'P 1'
_cell_length_a   3.17197934
_cell_length_b   3.17197934
_cell_length_c   10.47576019
_cell_angle_alpha   90.00000000
_cell_angle_beta   81.29215635
_cell_angle_gamma   120.00000000
_symmetry_Int_Tables_number   1
_chemical_formula_structural   ZrNb2VC4
_chemical_formula_sum   'Zr1 Nb2 V1 C4'
_cell_volume   89.87462897
_cell_formula_units_Z   1
loop_
 _symmetry_equiv_pos_site_id
 _symmetry_equiv_pos_as_xyz
  1  'x, y, z'
loop_
 _atom_site_type_symbol
 _atom_site_label
 _atom_site_symmetry_multiplicity
 _atom_site_fract_x
 _atom_site_fract_y
 _atom_site_fract_z
 _atom_site_occupancy
  Zr  Zr0  1  0.75604300  0.87802150  0.36593550  1
  Nb  Nb1  1  0.24638853  0.12319427  0.63041720  1
  Nb  Nb2  1  0.74390927  0.37195464  0.88413609  1
  V  V3  1  0.25424760  0.62712380  0.11862860  1
  C  C4  1  0.99690107  0.49845054  0.50464839  1
  C  C5  1  0.49551384  0.74775692  0.75672923  1
  C  C6  1  0.99349546  0.99674773  0.00975681  1
  C  C7  1  0.51350122  0.25675061  0.22974817  1
