# generated using pymatgen
data_Zn2GaCuSe4
_symmetry_space_group_name_H-M   'P 1'
_cell_length_a   4.07854004
_cell_length_b   4.07854004
_cell_length_c   13.38527394
_cell_angle_alpha   81.23676092
_cell_angle_beta   98.76323908
_cell_angle_gamma   120.00000000
_symmetry_Int_Tables_number   1
_chemical_formula_structural   Zn2GaCuSe4
_chemical_formula_sum   'Zn2 Ga1 Cu1 Se4'
_cell_volume   189.81952388
_cell_formula_units_Z   1
loop_
 _symmetry_equiv_pos_site_id
 _symmetry_equiv_pos_as_xyz
  1  'x, y, z'
loop_
 _atom_site_type_symbol
 _atom_site_label
 _atom_site_symmetry_multiplicity
 _atom_site_fract_x
 _atom_site_fract_y
 _atom_site_fract_z
 _atom_site_occupancy
  Zn  Zn0  1  0.50158093  0.49841907  0.50474278  1
  Zn  Zn1  1  0.25269047  0.74730953  0.75807141  1
  Ga  Ga2  1  0.74999235  0.25000765  0.24997705  1
  Cu  Cu3  1  0.99530466  0.00469534  0.98591399  1
  Se  Se4  1  0.06046362  0.93953638  0.18139085  1
  Se  Se5  1  0.81265991  0.18734009  0.43797974  1
  Se  Se6  1  0.56274127  0.43725873  0.68822382  1
  Se  Se7  1  0.31456679  0.68543321  0.94370036  1
