# generated using pymatgen
data_V4C3
_symmetry_space_group_name_H-M   'P 1'
_cell_length_a   2.92336810
_cell_length_b   2.92336810
_cell_length_c   9.54496623
_cell_angle_alpha   90.00000000
_cell_angle_beta   81.19125131
_cell_angle_gamma   120.00000000
_symmetry_Int_Tables_number   1
_chemical_formula_structural   V4C3
_chemical_formula_sum   'V4 C3'
_cell_volume   69.53026770
_cell_formula_units_Z   1
loop_
 _symmetry_equiv_pos_site_id
 _symmetry_equiv_pos_as_xyz
  1  'x, y, z'
loop_
 _atom_site_type_symbol
 _atom_site_label
 _atom_site_symmetry_multiplicity
 _atom_site_fract_x
 _atom_site_fract_y
 _atom_site_fract_z
 _atom_site_occupancy
  V  V0  1  0.00452347  0.50226173  0.49321480  1
  V  V1  1  0.49547653  0.74773827  0.75678520  1
  V  V2  1  0.00032714  0.00016357  0.99950928  1
  V  V3  1  0.49967286  0.24983643  0.25049072  1
  C  C4  1  0.75812786  0.87906393  0.36280821  1
  C  C5  1  0.25000000  0.12500000  0.62500000  1
  C  C6  1  0.74187214  0.37093607  0.88719179  1
