# generated using pymatgen
data_Yb3Ni7B2
_symmetry_space_group_name_H-M   'P 1'
_cell_length_a   5.06520421
_cell_length_b   5.06162578
_cell_length_c   7.09160277
_cell_angle_alpha   90.00000000
_cell_angle_beta   90.00000000
_cell_angle_gamma   59.87398154
_symmetry_Int_Tables_number   1
_chemical_formula_structural   Yb3Ni7B2
_chemical_formula_sum   'Yb3 Ni7 B2'
_cell_volume   157.25669228
_cell_formula_units_Z   1
loop_
 _symmetry_equiv_pos_site_id
 _symmetry_equiv_pos_as_xyz
  1  'x, y, z'
loop_
 _atom_site_type_symbol
 _atom_site_label
 _atom_site_symmetry_multiplicity
 _atom_site_fract_x
 _atom_site_fract_y
 _atom_site_fract_z
 _atom_site_occupancy
  Yb  Yb0  1  0.99995473  0.99973075  0.00000000  1
  Yb  Yb1  1  0.00001374  0.00009505  0.50000000  1
  Yb  Yb2  1  0.66675139  0.66708118  0.00000000  1
  Ni  Ni3  1  0.49612615  0.00745768  0.30626797  1
  Ni  Ni4  1  0.00742239  0.49606383  0.30624141  1
  Ni  Ni5  1  0.49629042  0.49614161  0.30630579  1
  Ni  Ni6  1  0.49612615  0.00745768  0.69373203  1
  Ni  Ni7  1  0.00742239  0.49606383  0.69375859  1
  Ni  Ni8  1  0.49629042  0.49614161  0.69369421  1
  Ni  Ni9  1  0.33338741  0.33345786  0.00000000  1
  B  B10  1  0.66663189  0.66660667  0.50000000  1
  B  B11  1  0.33338291  0.33370224  0.50000000  1
