# generated using pymatgen
data_VCl2O
_symmetry_space_group_name_H-M   'P 1'
_cell_length_a   3.50736022
_cell_length_b   3.74636241
_cell_length_c   6.75636057
_cell_angle_alpha   73.90402620
_cell_angle_beta   74.95605167
_cell_angle_gamma   90.00000000
_symmetry_Int_Tables_number   1
_chemical_formula_structural   VCl2O
_chemical_formula_sum   'V1 Cl2 O1'
_cell_volume   82.12580762
_cell_formula_units_Z   1
loop_
 _symmetry_equiv_pos_site_id
 _symmetry_equiv_pos_as_xyz
  1  'x, y, z'
loop_
 _atom_site_type_symbol
 _atom_site_label
 _atom_site_symmetry_multiplicity
 _atom_site_fract_x
 _atom_site_fract_y
 _atom_site_fract_z
 _atom_site_occupancy
  V  V0  1  1.00000000  0.93753565  0.00000000  1
  Cl  Cl1  1  0.63228271  0.12830800  0.73543459  1
  Cl  Cl2  1  0.36771729  0.86374259  0.26456541  1
  O  O3  1  0.00000000  0.48531377  1.00000000  1
