# generated using pymatgen
data_TiNbN2
_symmetry_space_group_name_H-M   'P 1'
_cell_length_a   3.06453319
_cell_length_b   3.06453319
_cell_length_c   5.37473845
_cell_angle_alpha   73.43596724
_cell_angle_beta   90.00000000
_cell_angle_gamma   120.00000000
_symmetry_Int_Tables_number   1
_chemical_formula_structural   TiNbN2
_chemical_formula_sum   'Ti1 Nb1 N2'
_cell_volume   41.27717387
_cell_formula_units_Z   1
loop_
 _symmetry_equiv_pos_site_id
 _symmetry_equiv_pos_as_xyz
  1  'x, y, z'
loop_
 _atom_site_type_symbol
 _atom_site_label
 _atom_site_symmetry_multiplicity
 _atom_site_fract_x
 _atom_site_fract_y
 _atom_site_fract_z
 _atom_site_occupancy
  Ti  Ti0  1  0.50000000  0.00000000  0.50000000  1
  Nb  Nb1  1  -0.00000000  0.00000000  -0.00000000  1
  N  N2  1  0.24358208  0.48716415  0.26925377  1
  N  N3  1  0.75641792  0.51283585  0.73074623  1
