# generated using pymatgen
data_TmAlNi
_symmetry_space_group_name_H-M   'P 1'
_cell_length_a   5.28536762
_cell_length_b   5.28500840
_cell_length_c   8.41819511
_cell_angle_alpha   90.00000000
_cell_angle_beta   90.00000000
_cell_angle_gamma   60.73493271
_symmetry_Int_Tables_number   1
_chemical_formula_structural   TmAlNi
_chemical_formula_sum   'Tm4 Al4 Ni4'
_cell_volume   205.13479769
_cell_formula_units_Z   4
loop_
 _symmetry_equiv_pos_site_id
 _symmetry_equiv_pos_as_xyz
  1  'x, y, z'
loop_
 _atom_site_type_symbol
 _atom_site_label
 _atom_site_symmetry_multiplicity
 _atom_site_fract_x
 _atom_site_fract_y
 _atom_site_fract_z
 _atom_site_occupancy
  Tm  Tm0  1  0.33296325  0.33296132  0.54387694  1
  Tm  Tm1  1  0.66977871  0.66977388  0.42617306  1
  Tm  Tm2  1  0.66977871  0.66977388  0.07382694  1
  Tm  Tm3  1  0.33296325  0.33296132  0.95612306  1
  Al  Al4  1  0.99545388  0.99546172  0.48631522  1
  Al  Al5  1  0.99545388  0.99546172  0.01368478  1
  Al  Al6  1  0.83226172  0.34086937  0.75000000  1
  Al  Al7  1  0.34086594  0.83225533  0.75000000  1
  Ni  Ni8  1  0.83278537  0.83278098  0.75000000  1
  Ni  Ni9  1  0.17020821  0.66017107  0.25000000  1
  Ni  Ni10  1  0.66019177  0.17018500  0.25000000  1
  Ni  Ni11  1  0.16729530  0.16734441  0.25000000  1
