# generated using pymatgen
data_U2(CuNi)5
_symmetry_space_group_name_H-M   'P 1'
_cell_length_a   4.83894642
_cell_length_b   4.77105224
_cell_length_c   8.38335248
_cell_angle_alpha   73.46774047
_cell_angle_beta   88.95746442
_cell_angle_gamma   119.53694078
_symmetry_Int_Tables_number   1
_chemical_formula_structural   U2(CuNi)5
_chemical_formula_sum   'U2 Cu5 Ni5'
_cell_volume   158.48973116
_cell_formula_units_Z   1
loop_
 _symmetry_equiv_pos_site_id
 _symmetry_equiv_pos_as_xyz
  1  'x, y, z'
loop_
 _atom_site_type_symbol
 _atom_site_label
 _atom_site_symmetry_multiplicity
 _atom_site_fract_x
 _atom_site_fract_y
 _atom_site_fract_z
 _atom_site_occupancy
  U  U0  1  0.00837115  0.00513163  0.99810789  1
  U  U1  1  0.50761357  0.00350251  0.50060855  1
  Cu  Cu2  1  0.43459940  0.37518042  0.18802329  1
  Cu  Cu3  1  0.93378090  0.37534351  0.68860131  1
  Cu  Cu4  1  0.43459940  0.87139569  0.18802329  1
  Cu  Cu5  1  0.93378090  0.86983608  0.68860131  1
  Cu  Cu6  1  0.18696473  0.37579192  0.43538088  1
  Ni  Ni7  1  0.68625792  0.37429630  0.93766532  1
  Ni  Ni8  1  0.93568125  0.37373511  0.18821102  1
  Ni  Ni9  1  0.43693886  0.37480758  0.68732371  1
  Ni  Ni10  1  0.87553032  0.74976599  0.37599835  1
  Ni  Ni11  1  0.37588159  0.75121325  0.87345509  1
