# generated using pymatgen
data_UReSi2Ru
_symmetry_space_group_name_H-M   'P 1'
_cell_length_a   4.17691040
_cell_length_b   4.17691040
_cell_length_c   5.62935788
_cell_angle_alpha   68.22309285
_cell_angle_beta   68.22309285
_cell_angle_gamma   90.00000000
_symmetry_Int_Tables_number   1
_chemical_formula_structural   UReSi2Ru
_chemical_formula_sum   'U1 Re1 Si2 Ru1'
_cell_volume   83.60967879
_cell_formula_units_Z   1
loop_
 _symmetry_equiv_pos_site_id
 _symmetry_equiv_pos_as_xyz
  1  'x, y, z'
loop_
 _atom_site_type_symbol
 _atom_site_label
 _atom_site_symmetry_multiplicity
 _atom_site_fract_x
 _atom_site_fract_y
 _atom_site_fract_z
 _atom_site_occupancy
  U  U0  1  -0.00000000  -0.00000000  0.00000000  1
  Re  Re1  1  0.75000000  0.25000000  0.50000000  1
  Si  Si2  1  0.37585538  0.37585538  0.24828925  1
  Si  Si3  1  0.62414462  0.62414462  0.75171075  1
  Ru  Ru4  1  0.25000000  0.75000000  0.50000000  1
