# generated using pymatgen
data_TiAlCr
_symmetry_space_group_name_H-M   'P 1'
_cell_length_a   4.95993936
_cell_length_b   4.98171592
_cell_length_c   8.26897449
_cell_angle_alpha   90.00000000
_cell_angle_beta   90.00000000
_cell_angle_gamma   120.14388303
_symmetry_Int_Tables_number   1
_chemical_formula_structural   TiAlCr
_chemical_formula_sum   'Ti4 Al4 Cr4'
_cell_volume   176.68761742
_cell_formula_units_Z   4
loop_
 _symmetry_equiv_pos_site_id
 _symmetry_equiv_pos_as_xyz
  1  'x, y, z'
loop_
 _atom_site_type_symbol
 _atom_site_label
 _atom_site_symmetry_multiplicity
 _atom_site_fract_x
 _atom_site_fract_y
 _atom_site_fract_z
 _atom_site_occupancy
  Ti  Ti0  1  0.66987531  0.33489151  0.55734158  1
  Ti  Ti1  1  0.34266557  0.67136779  0.42864677  1
  Ti  Ti2  1  0.34266557  0.67136779  0.07135323  1
  Ti  Ti3  1  0.66987531  0.33489151  0.94265842  1
  Al  Al4  1  0.98510076  0.99262399  0.49255531  1
  Al  Al5  1  0.98510076  0.99262399  0.00744469  1
  Al  Al6  1  0.17488842  0.34250694  0.75000000  1
  Al  Al7  1  0.17480567  0.83234647  0.75000000  1
  Cr  Cr8  1  0.66443056  0.83232267  0.75000000  1
  Cr  Cr9  1  0.81960412  0.63974438  0.25000000  1
  Cr  Cr10  1  0.81933995  0.17965819  0.25000000  1
  Cr  Cr11  1  0.35164802  0.17565476  0.25000000  1
