# generated using pymatgen
data_Ta2FeS4
_symmetry_space_group_name_H-M   'P 1'
_cell_length_a   3.32376644
_cell_length_b   3.32376644
_cell_length_c   11.91691499
_cell_angle_alpha   89.99924753
_cell_angle_beta   90.00075247
_cell_angle_gamma   119.99976163
_symmetry_Int_Tables_number   1
_chemical_formula_structural   Ta2FeS4
_chemical_formula_sum   'Ta2 Fe1 S4'
_cell_volume   114.01356203
_cell_formula_units_Z   1
loop_
 _symmetry_equiv_pos_site_id
 _symmetry_equiv_pos_as_xyz
  1  'x, y, z'
loop_
 _atom_site_type_symbol
 _atom_site_label
 _atom_site_symmetry_multiplicity
 _atom_site_fract_x
 _atom_site_fract_y
 _atom_site_fract_z
 _atom_site_occupancy
  Ta  Ta0  1  0.00000796  0.99999204  0.74030271  1
  Ta  Ta1  1  0.99999204  0.00000796  0.25969729  1
  Fe  Fe2  1  0.00000000  -0.00000000  0.50000000  1
  S  S3  1  0.66666804  0.33333196  0.60406652  1
  S  S4  1  0.33333196  0.66666804  0.39593348  1
  S  S5  1  0.33332577  0.66667423  0.12882027  1
  S  S6  1  0.66667423  0.33332577  0.87117973  1
