# generated using pymatgen
data_Ti(FeSe2)2
_symmetry_space_group_name_H-M   'P 1'
_cell_length_a   3.45652969
_cell_length_b   6.15435183
_cell_length_c   6.73289052
_cell_angle_alpha   115.58870042
_cell_angle_beta   75.12625851
_cell_angle_gamma   90.00000000
_symmetry_Int_Tables_number   1
_chemical_formula_structural   Ti(FeSe2)2
_chemical_formula_sum   'Ti1 Fe2 Se4'
_cell_volume   123.83656641
_cell_formula_units_Z   1
loop_
 _symmetry_equiv_pos_site_id
 _symmetry_equiv_pos_as_xyz
  1  'x, y, z'
loop_
 _atom_site_type_symbol
 _atom_site_label
 _atom_site_symmetry_multiplicity
 _atom_site_fract_x
 _atom_site_fract_y
 _atom_site_fract_z
 _atom_site_occupancy
  Ti  Ti0  1  0.74632819  0.30881395  0.50734361  1
  Fe  Fe1  1  0.99869757  0.00291886  0.00260486  1
  Fe  Fe2  1  0.25602418  0.69263743  0.48795163  1
  Se  Se3  1  0.36113815  0.96332914  0.27772370  1
  Se  Se4  1  0.63940581  0.01329872  0.72118837  1
  Se  Se5  1  0.10739411  0.56069944  0.78521177  1
  Se  Se6  1  0.89101197  0.45830245  0.21797606  1
