# generated using pymatgen
data_SiNi3W2
_symmetry_space_group_name_H-M   'P 1'
_cell_length_a   4.72085497
_cell_length_b   4.76809199
_cell_length_c   7.59211137
_cell_angle_alpha   90.00000000
_cell_angle_beta   90.00000000
_cell_angle_gamma   120.33968290
_symmetry_Int_Tables_number   1
_chemical_formula_structural   SiNi3W2
_chemical_formula_sum   'Si2 Ni6 W4'
_cell_volume   147.48972053
_cell_formula_units_Z   2
loop_
 _symmetry_equiv_pos_site_id
 _symmetry_equiv_pos_as_xyz
  1  'x, y, z'
loop_
 _atom_site_type_symbol
 _atom_site_label
 _atom_site_symmetry_multiplicity
 _atom_site_fract_x
 _atom_site_fract_y
 _atom_site_fract_z
 _atom_site_occupancy
  Si  Si0  1  0.83452467  0.66383735  0.75000000  1
  Si  Si1  1  0.83455157  0.17071061  0.75000000  1
  Ni  Ni2  1  0.36244701  0.18123496  0.75000000  1
  Ni  Ni3  1  0.16985316  0.33898345  0.25000000  1
  Ni  Ni4  1  0.16985117  0.83088450  0.25000000  1
  Ni  Ni5  1  0.66122186  0.83061084  0.25000000  1
  Ni  Ni6  1  0.98733778  0.99365721  0.50906771  1
  Ni  Ni7  1  0.98733778  0.99365721  0.99093229  1
  W  W8  1  0.66855525  0.33427691  0.06660512  1
  W  W9  1  0.32788226  0.66393503  0.94108390  1
  W  W10  1  0.32788226  0.66393503  0.55891610  1
  W  W11  1  0.66855525  0.33427691  0.43339488  1
