# generated using pymatgen
data_ThNb4O12
_symmetry_space_group_name_H-M   'P 1'
_cell_length_a   5.60465804
_cell_length_b   5.57615449
_cell_length_c   7.90657818
_cell_angle_alpha   90.00000000
_cell_angle_beta   90.00000000
_cell_angle_gamma   90.00000000
_symmetry_Int_Tables_number   1
_chemical_formula_structural   ThNb4O12
_chemical_formula_sum   'Th1 Nb4 O12'
_cell_volume   247.09985302
_cell_formula_units_Z   1
loop_
 _symmetry_equiv_pos_site_id
 _symmetry_equiv_pos_as_xyz
  1  'x, y, z'
loop_
 _atom_site_type_symbol
 _atom_site_label
 _atom_site_symmetry_multiplicity
 _atom_site_fract_x
 _atom_site_fract_y
 _atom_site_fract_z
 _atom_site_occupancy
  Th  Th0  1  0.25000000  0.24329261  0.00000000  1
  Nb  Nb1  1  0.25000000  0.74459192  0.74099396  1
  Nb  Nb2  1  0.75000000  0.24511891  0.74116241  1
  Nb  Nb3  1  0.75000000  0.24511891  0.25883759  1
  Nb  Nb4  1  0.25000000  0.74459192  0.25900604  1
  O  O5  1  0.48294327  0.48677374  0.80240155  1
  O  O6  1  0.01705673  0.48677374  0.80240155  1
  O  O7  1  0.48294327  0.48677374  0.19759845  1
  O  O8  1  0.01705673  0.48677374  0.19759845  1
  O  O9  1  0.49251632  0.00843720  0.73623424  1
  O  O10  1  0.00748368  0.00843720  0.73623424  1
  O  O11  1  0.49251632  0.00843720  0.26376576  1
  O  O12  1  0.00748368  0.00843720  0.26376576  1
  O  O13  1  0.25000000  0.83229651  0.00000000  1
  O  O14  1  0.75000000  0.19737425  0.00000000  1
  O  O15  1  0.25000000  0.69004414  0.50000000  1
  O  O16  1  0.75000000  0.32042708  0.50000000  1
