# generated using pymatgen
data_SmGePd
_symmetry_space_group_name_H-M   'P 1'
_cell_length_a   4.45004655
_cell_length_b   5.80668946
_cell_length_c   5.71315853
_cell_angle_alpha   95.01352026
_cell_angle_beta   112.92065341
_cell_angle_gamma   67.46902449
_symmetry_Int_Tables_number   1
_chemical_formula_structural   SmGePd
_chemical_formula_sum   'Sm2 Ge2 Pd2'
_cell_volume   125.26157476
_cell_formula_units_Z   2
loop_
 _symmetry_equiv_pos_site_id
 _symmetry_equiv_pos_as_xyz
  1  'x, y, z'
loop_
 _atom_site_type_symbol
 _atom_site_label
 _atom_site_symmetry_multiplicity
 _atom_site_fract_x
 _atom_site_fract_y
 _atom_site_fract_z
 _atom_site_occupancy
  Sm  Sm0  1  0.76074856  0.69633041  0.21782754  1
  Sm  Sm1  1  0.23925144  0.30366959  0.78217246  1
  Ge  Ge2  1  0.05592705  0.10342849  0.21528259  1
  Ge  Ge3  1  0.94407295  0.89657151  0.78471741  1
  Pd  Pd4  1  0.54766199  0.27254270  0.36786668  1
  Pd  Pd5  1  0.45233801  0.72745730  0.63213332  1
