# generated using pymatgen
data_SmY(Co2Ni3)2
_symmetry_space_group_name_H-M   'P 1'
_cell_length_a   3.97350601
_cell_length_b   4.90313204
_cell_length_c   8.48001692
_cell_angle_alpha   90.00000541
_cell_angle_beta   90.00000000
_cell_angle_gamma   90.00000000
_symmetry_Int_Tables_number   1
_chemical_formula_structural   SmY(Co2Ni3)2
_chemical_formula_sum   'Sm1 Y1 Co4 Ni6'
_cell_volume   165.21298657
_cell_formula_units_Z   1
loop_
 _symmetry_equiv_pos_site_id
 _symmetry_equiv_pos_as_xyz
  1  'x, y, z'
loop_
 _atom_site_type_symbol
 _atom_site_label
 _atom_site_symmetry_multiplicity
 _atom_site_fract_x
 _atom_site_fract_y
 _atom_site_fract_z
 _atom_site_occupancy
  Sm  Sm0  1  -0.00000000  0.99998847  0.00000000  1
  Y  Y1  1  -0.00000000  0.49998632  0.50000000  1
  Co  Co2  1  -0.00000000  0.99996054  0.33410753  1
  Co  Co3  1  0.00000000  0.49996338  0.83323109  1
  Co  Co4  1  -0.00000000  0.49996338  0.16676891  1
  Co  Co5  1  0.00000000  0.99996054  0.66589247  1
  Ni  Ni6  1  0.50000000  0.49999637  -0.00000000  1
  Ni  Ni7  1  0.50000000  0.00000227  0.50000000  1
  Ni  Ni8  1  0.50000000  0.25044220  0.25057492  1
  Ni  Ni9  1  0.50000000  0.74954716  0.74942774  1
  Ni  Ni10  1  0.50000000  0.74954716  0.25057226  1
  Ni  Ni11  1  0.50000000  0.25044220  0.74942508  1
