# generated using pymatgen
data_MnF4
_symmetry_space_group_name_H-M   'P 1'
_cell_length_a   5.08908000
_cell_length_b   7.26927543
_cell_length_c   5.36411663
_cell_angle_alpha   85.48255167
_cell_angle_beta   89.97965844
_cell_angle_gamma   90.85744371
_symmetry_Int_Tables_number   1
_chemical_formula_structural   MnF4
_chemical_formula_sum   'Mn3 F12'
_cell_volume   197.80086423
_cell_formula_units_Z   3
loop_
 _symmetry_equiv_pos_site_id
 _symmetry_equiv_pos_as_xyz
  1  'x, y, z'
loop_
 _atom_site_type_symbol
 _atom_site_label
 _atom_site_symmetry_multiplicity
 _atom_site_fract_x
 _atom_site_fract_y
 _atom_site_fract_z
 _atom_site_occupancy
  Mn  Mn0  1  0.50000000  0.00000000  0.50000000  1
  Mn  Mn1  1  0.00000000  0.00000000  -0.00000000  1
  Mn  Mn2  1  0.50000000  0.50000000  0.50000000  1
  F  F3  1  0.67159876  0.55547675  0.21551558  1
  F  F4  1  0.17907036  0.06260026  0.69512734  1
  F  F5  1  0.11312678  0.76915199  -0.00014272  1
  F  F6  1  0.62367916  0.24638147  0.49941140  1
  F  F7  1  0.21514200  0.44406144  0.33012282  1
  F  F8  1  0.69566702  0.93709386  0.81887511  1
  F  F9  1  0.88687322  0.23084801  0.00014272  1
  F  F10  1  0.37632084  0.75361853  0.50058860  1
  F  F11  1  0.78485800  0.55593856  0.66987718  1
  F  F12  1  0.30433298  0.06290614  0.18112489  1
  F  F13  1  0.32840124  0.44452325  0.78448442  1
  F  F14  1  0.82092964  0.93739974  0.30487266  1
