# generated using pymatgen
data_MoCl4
_symmetry_space_group_name_H-M   'P 1'
_cell_length_a   5.76600312
_cell_length_b   5.76600251
_cell_length_c   12.23468495
_cell_angle_alpha   89.98735968
_cell_angle_beta   90.01264036
_cell_angle_gamma   59.97637134
_symmetry_Int_Tables_number   1
_chemical_formula_structural   MoCl4
_chemical_formula_sum   'Mo3 Cl12'
_cell_volume   352.18400372
_cell_formula_units_Z   3
loop_
 _symmetry_equiv_pos_site_id
 _symmetry_equiv_pos_as_xyz
  1  'x, y, z'
loop_
 _atom_site_type_symbol
 _atom_site_label
 _atom_site_symmetry_multiplicity
 _atom_site_fract_x
 _atom_site_fract_y
 _atom_site_fract_z
 _atom_site_occupancy
  Mo  Mo0  1  0.33332737  0.33332737  0.25000000  1
  Mo  Mo1  1  0.66648480  0.66648480  0.75000000  1
  Mo  Mo2  1  0.00019439  0.00019439  0.75000000  1
  Cl  Cl3  1  0.00794785  0.65876531  0.62888654  1
  Cl  Cl4  1  0.33337386  0.00815092  0.62868819  1
  Cl  Cl5  1  0.65856148  0.33322032  0.62868622  1
  Cl  Cl6  1  0.33316631  0.01204512  0.13702866  1
  Cl  Cl7  1  0.65491981  0.33287378  0.13702810  1
  Cl  Cl8  1  0.01199372  0.65497497  0.13705423  1
  Cl  Cl9  1  0.01204512  0.33316631  0.36297134  1
  Cl  Cl10  1  0.65497497  0.01199372  0.36294577  1
  Cl  Cl11  1  0.33287378  0.65491981  0.36297190  1
  Cl  Cl12  1  0.65876531  0.00794785  0.87111346  1
  Cl  Cl13  1  0.33322031  0.65856148  0.87131378  1
  Cl  Cl14  1  0.00815093  0.33337386  0.87131181  1
