# generated using pymatgen
data_Sc16Ga30Cu59
_symmetry_space_group_name_H-M   'P 1'
_cell_length_a   8.21866368
_cell_length_b   8.49270148
_cell_length_c   21.82670035
_cell_angle_alpha   89.47305070
_cell_angle_beta   90.00000000
_cell_angle_gamma   90.00000000
_symmetry_Int_Tables_number   1
_chemical_formula_structural   Sc16Ga30Cu59
_chemical_formula_sum   'Sc16 Ga30 Cu59'
_cell_volume   1523.40994478
_cell_formula_units_Z   1
loop_
 _symmetry_equiv_pos_site_id
 _symmetry_equiv_pos_as_xyz
  1  'x, y, z'
loop_
 _atom_site_type_symbol
 _atom_site_label
 _atom_site_symmetry_multiplicity
 _atom_site_fract_x
 _atom_site_fract_y
 _atom_site_fract_z
 _atom_site_occupancy
  Sc  Sc0  1  0.50000000  0.30132592  0.99879824  1
  Sc  Sc1  1  0.50000000  0.80134555  0.49990130  1
  Sc  Sc2  1  0.50000000  0.19969801  0.50122674  1
  Sc  Sc3  1  0.50000000  0.69919072  0.00048698  1
  Sc  Sc4  1  0.27772965  0.49741655  0.31298609  1
  Sc  Sc5  1  0.27830856  0.99980824  0.81284514  1
  Sc  Sc6  1  0.27779622  0.00278667  0.18692182  1
  Sc  Sc7  1  0.27380743  0.50389926  0.68772792  1
  Sc  Sc8  1  0.72220378  0.00278667  0.18692182  1
  Sc  Sc9  1  0.72619257  0.50389926  0.68772792  1
  Sc  Sc10  1  0.72227035  0.49741655  0.31298609  1
  Sc  Sc11  1  0.72169144  0.99980824  0.81284514  1
  Sc  Sc12  1  0.00000000  0.49985372  0.11390522  1
  Sc  Sc13  1  0.00000000  0.00493658  0.61382567  1
  Sc  Sc14  1  0.00000000  0.99986307  0.38635847  1
  Sc  Sc15  1  0.00000000  0.49994975  0.88265688  1
  Ga  Ga16  1  0.50000000  0.00121591  0.06417221  1
  Ga  Ga17  1  0.50000000  0.50125608  0.56447095  1
  Ga  Ga18  1  0.50000000  0.49894252  0.43548722  1
  Ga  Ga19  1  0.50000000  0.99997911  0.93563698  1
  Ga  Ga20  1  0.34101331  0.49991794  0.08996859  1
  Ga  Ga21  1  0.34122622  0.00064110  0.59106503  1
  Ga  Ga22  1  0.34151187  0.99977895  0.40980599  1
  Ga  Ga23  1  0.34044442  0.49962390  0.90900983  1
  Ga  Ga24  1  0.65848813  0.99977895  0.40980599  1
  Ga  Ga25  1  0.65955558  0.49962390  0.90900983  1
  Ga  Ga26  1  0.65898669  0.49991794  0.08996859  1
  Ga  Ga27  1  0.65877378  0.00064110  0.59106503  1
  Ga  Ga28  1  0.50000000  0.73190758  0.36885514  1
  Ga  Ga29  1  0.50000000  0.23192694  0.86862454  1
  Ga  Ga30  1  0.50000000  0.76809672  0.13128786  1
  Ga  Ga31  1  0.50000000  0.27033264  0.63169198  1
  Ga  Ga32  1  0.50000000  0.23331390  0.13106760  1
  Ga  Ga33  1  0.50000000  0.73134567  0.63177211  1
  Ga  Ga34  1  0.50000000  0.26649952  0.36921628  1
  Ga  Ga35  1  0.50000000  0.76895968  0.86948438  1
  Ga  Ga36  1  0.50000000  0.74980536  0.25011390  1
  Ga  Ga37  1  0.50000000  0.24969657  0.74987972  1
  Ga  Ga38  1  0.50000000  0.25015954  0.25013231  1
  Ga  Ga39  1  0.50000000  0.74988723  0.74996129  1
  Ga  Ga40  1  0.50000000  0.50073627  0.20082086  1
  Ga  Ga41  1  0.50000000  0.00079823  0.70097298  1
  Ga  Ga42  1  0.50000000  0.99932690  0.29918948  1
  Ga  Ga43  1  0.50000000  0.49756844  0.79856112  1
  Ga  Ga44  1  0.00000000  0.25008313  0.24995172  1
  Ga  Ga45  1  0.00000000  0.69878650  0.75195710  1
  Cu  Cu46  1  0.25368946  0.00054007  0.00019143  1
  Cu  Cu47  1  0.25387742  0.49973170  0.49991224  1
  Cu  Cu48  1  0.74631054  0.00054007  0.00019143  1
  Cu  Cu49  1  0.74612258  0.49973170  0.49991224  1
  Cu  Cu50  1  0.21843854  0.72141966  0.42073380  1
  Cu  Cu51  1  0.21761201  0.22202676  0.92030929  1
  Cu  Cu52  1  0.21876155  0.77920540  0.07926721  1
  Cu  Cu53  1  0.21954343  0.27971245  0.57982684  1
  Cu  Cu54  1  0.77749552  0.22241469  0.07720855  1
  Cu  Cu55  1  0.77513408  0.72211438  0.57703981  1
  Cu  Cu56  1  0.77742376  0.27799619  0.42269567  1
  Cu  Cu57  1  0.77789870  0.77910493  0.92263073  1
  Cu  Cu58  1  0.78123845  0.77920540  0.07926721  1
  Cu  Cu59  1  0.78045657  0.27971245  0.57982684  1
  Cu  Cu60  1  0.78156146  0.72141966  0.42073380  1
  Cu  Cu61  1  0.78238799  0.22202676  0.92030929  1
  Cu  Cu62  1  0.22257624  0.27799619  0.42269567  1
  Cu  Cu63  1  0.22210130  0.77910493  0.92263073  1
  Cu  Cu64  1  0.22250448  0.22241469  0.07720855  1
  Cu  Cu65  1  0.22486592  0.72211438  0.57703981  1
  Cu  Cu66  1  0.00000000  0.67649208  0.34073482  1
  Cu  Cu67  1  0.00000000  0.17097475  0.84054059  1
  Cu  Cu68  1  0.00000000  0.82295485  0.15934702  1
  Cu  Cu69  1  0.00000000  0.32635866  0.66180064  1
  Cu  Cu70  1  0.00000000  0.15912226  0.15041706  1
  Cu  Cu71  1  0.00000000  0.66774857  0.64782329  1
  Cu  Cu72  1  0.00000000  0.34112710  0.34942901  1
  Cu  Cu73  1  0.00000000  0.83993533  0.84534704  1
  Cu  Cu74  1  0.00000000  0.50721465  0.43779432  1
  Cu  Cu75  1  0.00000000  0.00281108  0.93680920  1
  Cu  Cu76  1  0.00000000  0.99277332  0.06234680  1
  Cu  Cu77  1  0.00000000  0.49174152  0.56281006  1
  Cu  Cu78  1  0.00000000  0.75122450  0.50168845  1
  Cu  Cu79  1  0.00000000  0.24996099  0.00099232  1
  Cu  Cu80  1  0.00000000  0.74759092  0.99885999  1
  Cu  Cu81  1  0.00000000  0.24848761  0.49871561  1
  Cu  Cu82  1  0.24128328  0.66335208  0.19147180  1
  Cu  Cu83  1  0.23797402  0.16254938  0.69232928  1
  Cu  Cu84  1  0.24091836  0.83645730  0.30839348  1
  Cu  Cu85  1  0.23175437  0.33924120  0.80633275  1
  Cu  Cu86  1  0.76155590  0.15186267  0.31058794  1
  Cu  Cu87  1  0.75396454  0.65651448  0.81180414  1
  Cu  Cu88  1  0.76143865  0.34806278  0.18935637  1
  Cu  Cu89  1  0.76665111  0.84558954  0.69140512  1
  Cu  Cu90  1  0.75908164  0.83645730  0.30839348  1
  Cu  Cu91  1  0.76824563  0.33924120  0.80633275  1
  Cu  Cu92  1  0.75871672  0.66335208  0.19147180  1
  Cu  Cu93  1  0.76202598  0.16254938  0.69232928  1
  Cu  Cu94  1  0.23856135  0.34806278  0.18935637  1
  Cu  Cu95  1  0.23334889  0.84558954  0.69140512  1
  Cu  Cu96  1  0.23844410  0.15186267  0.31058794  1
  Cu  Cu97  1  0.24603546  0.65651448  0.81180414  1
  Cu  Cu98  1  0.16555314  0.49922752  0.99937424  1
  Cu  Cu99  1  0.16657800  0.00014144  0.50014504  1
  Cu  Cu100  1  0.83444686  0.49922752  0.99937424  1
  Cu  Cu101  1  0.83342200  0.00014144  0.50014504  1
  Cu  Cu102  1  0.00000000  0.54289437  0.24116392  1
  Cu  Cu103  1  0.00000000  0.02362484  0.74225194  1
  Cu  Cu104  1  0.00000000  0.95790037  0.25888842  1
