# generated using pymatgen
data_PrGePd
_symmetry_space_group_name_H-M   'P 1'
_cell_length_a   4.52884064
_cell_length_b   5.93590090
_cell_length_c   5.74899712
_cell_angle_alpha   96.97638380
_cell_angle_beta   113.19620437
_cell_angle_gamma   67.57468138
_symmetry_Int_Tables_number   1
_chemical_formula_structural   PrGePd
_chemical_formula_sum   'Pr2 Ge2 Pd2'
_cell_volume   131.23732560
_cell_formula_units_Z   2
loop_
 _symmetry_equiv_pos_site_id
 _symmetry_equiv_pos_as_xyz
  1  'x, y, z'
loop_
 _atom_site_type_symbol
 _atom_site_label
 _atom_site_symmetry_multiplicity
 _atom_site_fract_x
 _atom_site_fract_y
 _atom_site_fract_z
 _atom_site_occupancy
  Pr  Pr0  1  0.76071061  0.70188642  0.22330765  1
  Pr  Pr1  1  0.23928939  0.29811358  0.77669235  1
  Ge  Ge2  1  0.05181565  0.10857922  0.21221052  1
  Ge  Ge3  1  0.94818435  0.89142078  0.78778948  1
  Pd  Pd4  1  0.54336352  0.27355776  0.36028480  1
  Pd  Pd5  1  0.45663648  0.72644224  0.63971520  1
