# generated using pymatgen
data_MoPdRuRh
_symmetry_space_group_name_H-M   'P 1'
_cell_length_a   2.77935072
_cell_length_b   2.77934990
_cell_length_c   8.91731935
_cell_angle_alpha   90.00000000
_cell_angle_beta   89.99698822
_cell_angle_gamma   60.00002239
_symmetry_Int_Tables_number   1
_chemical_formula_structural   MoPdRuRh
_chemical_formula_sum   'Mo1 Pd1 Ru1 Rh1'
_cell_volume   59.65565622
_cell_formula_units_Z   1
loop_
 _symmetry_equiv_pos_site_id
 _symmetry_equiv_pos_as_xyz
  1  'x, y, z'
loop_
 _atom_site_type_symbol
 _atom_site_label
 _atom_site_symmetry_multiplicity
 _atom_site_fract_x
 _atom_site_fract_y
 _atom_site_fract_z
 _atom_site_occupancy
  Mo  Mo0  1  0.33331506  0.33334247  0.37697111  1
  Pd  Pd1  1  0.33336304  0.33331848  0.87256720  1
  Ru  Ru2  1  0.66666720  0.66666640  0.61610302  1
  Rh  Rh3  1  0.66665470  0.66667265  0.13435867  1
