# generated using pymatgen
data_Nb6BiS8
_symmetry_space_group_name_H-M   'P 1'
_cell_length_a   3.37978162
_cell_length_b   9.70329674
_cell_length_c   9.70070493
_cell_angle_alpha   119.99506223
_cell_angle_beta   90.00128870
_cell_angle_gamma   89.99974577
_symmetry_Int_Tables_number   1
_chemical_formula_structural   Nb6BiS8
_chemical_formula_sum   'Nb6 Bi1 S8'
_cell_volume   275.52656984
_cell_formula_units_Z   1
loop_
 _symmetry_equiv_pos_site_id
 _symmetry_equiv_pos_as_xyz
  1  'x, y, z'
loop_
 _atom_site_type_symbol
 _atom_site_label
 _atom_site_symmetry_multiplicity
 _atom_site_fract_x
 _atom_site_fract_y
 _atom_site_fract_z
 _atom_site_occupancy
  Nb  Nb0  1  0.74936118  0.37212906  0.88440824  1
  Nb  Nb1  1  0.74934081  0.11559724  0.48771802  1
  Nb  Nb2  1  0.74935802  0.51232895  0.62792171  1
  Nb  Nb3  1  0.25063882  0.62787094  0.11559176  1
  Nb  Nb4  1  0.25065919  0.88440276  0.51228198  1
  Nb  Nb5  1  0.25064198  0.48767105  0.37207829  1
  Bi  Bi6  1  0.50000000  0.00000000  -0.00000000  1
  S  S7  1  0.75022376  0.66663029  0.33332871  1
  S  S8  1  0.24977624  0.33336971  0.66667129  1
  S  S9  1  0.75034944  0.05322375  0.71272365  1
  S  S10  1  0.75034733  0.28730196  0.34052100  1
  S  S11  1  0.75033992  0.65947300  0.94674656  1
  S  S12  1  0.24965056  0.94677625  0.28727635  1
  S  S13  1  0.24965267  0.71269804  0.65947900  1
  S  S14  1  0.24966008  0.34052700  0.05325344  1
