# generated using pymatgen
data_MnIn2(SeS)2
_symmetry_space_group_name_H-M   'P 1'
_cell_length_a   4.07349956
_cell_length_b   4.07349956
_cell_length_c   13.00344790
_cell_angle_alpha   80.98856720
_cell_angle_beta   80.98856720
_cell_angle_gamma   60.00000518
_symmetry_Int_Tables_number   1
_chemical_formula_structural   MnIn2(SeS)2
_chemical_formula_sum   'Mn1 In2 Se2 S2'
_cell_volume   183.78183818
_cell_formula_units_Z   1
loop_
 _symmetry_equiv_pos_site_id
 _symmetry_equiv_pos_as_xyz
  1  'x, y, z'
loop_
 _atom_site_type_symbol
 _atom_site_label
 _atom_site_symmetry_multiplicity
 _atom_site_fract_x
 _atom_site_fract_y
 _atom_site_fract_z
 _atom_site_occupancy
  Mn  Mn0  1  0.76808111  0.76808111  0.69575666  1
  In  In1  1  0.00383239  0.00383239  0.98850284  1
  In  In2  1  0.23354871  0.23354871  0.29935386  1
  Se  Se3  1  0.12335181  0.12335181  0.62994458  1
  Se  Se4  1  0.86867149  0.86867149  0.39398553  1
  S  S5  1  0.70371105  0.70371105  0.88886685  1
  S  S6  1  0.29880344  0.29880344  0.10358968  1
