# generated using pymatgen
data_Rb2InGe4As7
_symmetry_space_group_name_H-M   'P 1'
_cell_length_a   4.52488533
_cell_length_b   8.35023334
_cell_length_c   11.34499802
_cell_angle_alpha   89.83944883
_cell_angle_beta   90.00000000
_cell_angle_gamma   74.27957306
_symmetry_Int_Tables_number   1
_chemical_formula_structural   Rb2InGe4As7
_chemical_formula_sum   'Rb2 In1 Ge4 As7'
_cell_volume   412.62208660
_cell_formula_units_Z   1
loop_
 _symmetry_equiv_pos_site_id
 _symmetry_equiv_pos_as_xyz
  1  'x, y, z'
loop_
 _atom_site_type_symbol
 _atom_site_label
 _atom_site_symmetry_multiplicity
 _atom_site_fract_x
 _atom_site_fract_y
 _atom_site_fract_z
 _atom_site_occupancy
  Rb  Rb0  1  0.25496198  0.49007604  0.64159809  1
  Rb  Rb1  1  0.74691291  0.50617418  0.14933699  1
  In  In2  1  0.49190028  0.01619944  0.09415350  1
  Ge  Ge3  1  0.03143791  0.93712417  0.86076853  1
  Ge  Ge4  1  0.96744010  0.06511980  0.36275368  1
  Ge  Ge5  1  0.35413473  0.29173055  0.94008058  1
  Ge  Ge6  1  0.51089213  0.97821575  0.60165656  1
  As  As7  1  0.58399557  0.83200886  0.79319928  1
  As  As8  1  0.41073058  0.17853884  0.30139727  1
  As  As9  1  0.08357547  0.83284906  0.06867342  1
  As  As10  1  0.93753465  0.12493070  0.57691950  1
  As  As11  1  0.87270566  0.25458867  0.85157359  1
  As  As12  1  0.12609895  0.74780209  0.35113170  1
  As  As13  1  0.62767908  0.74464185  0.44601732  1
