# generated using pymatgen
data_LiZn3
_symmetry_space_group_name_H-M   'P 1'
_cell_length_a   2.79815662
_cell_length_b   2.79815662
_cell_length_c   8.82693964
_cell_angle_alpha   90.00000000
_cell_angle_beta   90.00000000
_cell_angle_gamma   120.20697481
_symmetry_Int_Tables_number   1
_chemical_formula_structural   LiZn3
_chemical_formula_sum   'Li1 Zn3'
_cell_volume   59.72762857
_cell_formula_units_Z   1
loop_
 _symmetry_equiv_pos_site_id
 _symmetry_equiv_pos_as_xyz
  1  'x, y, z'
loop_
 _atom_site_type_symbol
 _atom_site_label
 _atom_site_symmetry_multiplicity
 _atom_site_fract_x
 _atom_site_fract_y
 _atom_site_fract_z
 _atom_site_occupancy
  Li  Li0  1  0.16440673  0.83559327  0.37500000  1
  Zn  Zn1  1  0.16477773  0.83522227  0.87500000  1
  Zn  Zn2  1  0.83540777  0.16459223  0.12561642  1
  Zn  Zn3  1  0.83540777  0.16459223  0.62438358  1
