# generated using pymatgen
data_LiCoNiF6
_symmetry_space_group_name_H-M   'P 1'
_cell_length_a   4.70282401
_cell_length_b   4.70282401
_cell_length_c   9.05405814
_cell_angle_alpha   90.00000000
_cell_angle_beta   90.00000000
_cell_angle_gamma   90.00000000
_symmetry_Int_Tables_number   1
_chemical_formula_structural   LiCoNiF6
_chemical_formula_sum   'Li2 Co2 Ni2 F12'
_cell_volume   200.24456278
_cell_formula_units_Z   2
loop_
 _symmetry_equiv_pos_site_id
 _symmetry_equiv_pos_as_xyz
  1  'x, y, z'
loop_
 _atom_site_type_symbol
 _atom_site_label
 _atom_site_symmetry_multiplicity
 _atom_site_fract_x
 _atom_site_fract_y
 _atom_site_fract_z
 _atom_site_occupancy
  Li  Li0  1  0.50000000  0.50000000  0.16581129  1
  Li  Li1  1  -0.00000000  -0.00000000  0.66581129  1
  Co  Co2  1  0.50000000  0.50000000  0.49870013  1
  Co  Co3  1  -0.00000000  -0.00000000  0.99870013  1
  Ni  Ni4  1  0.50000000  0.50000000  0.83643250  1
  Ni  Ni5  1  -0.00000000  -0.00000000  0.33643250  1
  F  F6  1  0.19261899  0.80738101  0.15905346  1
  F  F7  1  0.80738101  0.19261899  0.15905346  1
  F  F8  1  0.30738101  0.30738101  0.65905346  1
  F  F9  1  0.69261899  0.69261899  0.65905346  1
  F  F10  1  0.80506913  0.19493087  0.84131463  1
  F  F11  1  0.19493087  0.80506913  0.84131463  1
  F  F12  1  0.69493087  0.69493087  0.34131463  1
  F  F13  1  0.30506913  0.30506913  0.34131463  1
  F  F14  1  0.20470182  0.79529818  0.49915995  1
  F  F15  1  0.79529818  0.20470182  0.49915995  1
  F  F16  1  0.29529818  0.29529818  0.99915995  1
  F  F17  1  0.70470182  0.70470182  0.99915995  1
