# generated using pymatgen
data_Mn6GaGe
_symmetry_space_group_name_H-M   'P 1'
_cell_length_a   4.17433893
_cell_length_b   5.18037099
_cell_length_c   5.16914619
_cell_angle_alpha   59.92814840
_cell_angle_beta   90.00000000
_cell_angle_gamma   90.00000000
_symmetry_Int_Tables_number   1
_chemical_formula_structural   Mn6GaGe
_chemical_formula_sum   'Mn6 Ga1 Ge1'
_cell_volume   96.73488547
_cell_formula_units_Z   1
loop_
 _symmetry_equiv_pos_site_id
 _symmetry_equiv_pos_as_xyz
  1  'x, y, z'
loop_
 _atom_site_type_symbol
 _atom_site_label
 _atom_site_symmetry_multiplicity
 _atom_site_fract_x
 _atom_site_fract_y
 _atom_site_fract_z
 _atom_site_occupancy
  Mn  Mn0  1  0.75000000  0.16120918  0.16203509  1
  Mn  Mn1  1  0.75000000  0.16110100  0.67779800  1
  Mn  Mn2  1  0.75000000  0.67675573  0.16203509  1
  Mn  Mn3  1  0.25000000  0.84103147  0.83991816  1
  Mn  Mn4  1  0.25000000  0.84083196  0.31833607  1
  Mn  Mn5  1  0.25000000  0.31905037  0.83991816  1
  Ga  Ga6  1  0.25000000  0.33382775  0.33234450  1
  Ge  Ge7  1  0.75000000  0.66619254  0.66761492  1
