# generated using pymatgen
data_MgAg4
_symmetry_space_group_name_H-M   'P 1'
_cell_length_a   3.01522375
_cell_length_b   3.01522375
_cell_length_c   11.77670104
_cell_angle_alpha   97.35498758
_cell_angle_beta   82.64501242
_cell_angle_gamma   120.00000000
_symmetry_Int_Tables_number   1
_chemical_formula_structural   MgAg4
_chemical_formula_sum   'Mg1 Ag4'
_cell_volume   91.70560679
_cell_formula_units_Z   1
loop_
 _symmetry_equiv_pos_site_id
 _symmetry_equiv_pos_as_xyz
  1  'x, y, z'
loop_
 _atom_site_type_symbol
 _atom_site_label
 _atom_site_symmetry_multiplicity
 _atom_site_fract_x
 _atom_site_fract_y
 _atom_site_fract_z
 _atom_site_occupancy
  Mg  Mg0  1  -0.00000000  -0.00000000  0.00000000  1
  Ag  Ag1  1  0.60065439  0.39934561  0.19803683  1
  Ag  Ag2  1  0.19991908  0.80008092  0.40024275  1
  Ag  Ag3  1  0.80008092  0.19991908  0.59975725  1
  Ag  Ag4  1  0.39934561  0.60065439  0.80196317  1
