# generated using pymatgen
data_Mn2Sb2PtAu
_symmetry_space_group_name_H-M   'P 1'
_cell_length_a   4.48516498
_cell_length_b   4.48516497
_cell_length_c   7.78930193
_cell_angle_alpha   73.26739493
_cell_angle_beta   90.00000000
_cell_angle_gamma   120.00000005
_symmetry_Int_Tables_number   1
_chemical_formula_structural   Mn2Sb2PtAu
_chemical_formula_sum   'Mn2 Sb2 Pt1 Au1'
_cell_volume   127.98357516
_cell_formula_units_Z   1
loop_
 _symmetry_equiv_pos_site_id
 _symmetry_equiv_pos_as_xyz
  1  'x, y, z'
loop_
 _atom_site_type_symbol
 _atom_site_label
 _atom_site_symmetry_multiplicity
 _atom_site_fract_x
 _atom_site_fract_y
 _atom_site_fract_z
 _atom_site_occupancy
  Mn  Mn0  1  0.25266077  0.50532154  0.24201769  1
  Mn  Mn1  1  0.74788347  0.49576694  0.75634959  1
  Sb  Sb2  1  0.00298455  0.00596910  0.99104635  1
  Sb  Sb3  1  0.49640958  0.99281916  0.51077126  1
  Pt  Pt4  1  0.37423362  0.74846724  0.87729914  1
  Au  Au5  1  0.87582801  0.75165602  0.37251597  1
