# generated using pymatgen
data_Mn4Ga3Cu2
_symmetry_space_group_name_H-M   'P 1'
_cell_length_a   4.19964964
_cell_length_b   4.20353508
_cell_length_c   15.94312151
_cell_angle_alpha   90.00000000
_cell_angle_beta   90.00000000
_cell_angle_gamma   59.96939767
_symmetry_Int_Tables_number   1
_chemical_formula_structural   Mn4Ga3Cu2
_chemical_formula_sum   'Mn8 Ga6 Cu4'
_cell_volume   243.66756259
_cell_formula_units_Z   2
loop_
 _symmetry_equiv_pos_site_id
 _symmetry_equiv_pos_as_xyz
  1  'x, y, z'
loop_
 _atom_site_type_symbol
 _atom_site_label
 _atom_site_symmetry_multiplicity
 _atom_site_fract_x
 _atom_site_fract_y
 _atom_site_fract_z
 _atom_site_occupancy
  Mn  Mn0  1  0.66712462  0.66643769  0.58308892  1
  Mn  Mn1  1  0.66712462  0.66643769  0.91691108  1
  Mn  Mn2  1  0.99978277  0.00010861  0.16717260  1
  Mn  Mn3  1  0.99987722  0.00006139  0.50221663  1
  Mn  Mn4  1  0.00012176  0.99993912  0.83597526  1
  Mn  Mn5  1  0.99987722  0.00006139  0.99778337  1
  Mn  Mn6  1  0.99978277  0.00010861  0.33282740  1
  Mn  Mn7  1  0.00012176  0.99993912  0.66402474  1
  Ga  Ga8  1  0.33301542  0.33349229  0.25000000  1
  Ga  Ga9  1  0.33328128  0.33335936  0.58300962  1
  Ga  Ga10  1  0.33328128  0.33335936  0.91699038  1
  Ga  Ga11  1  0.66672387  0.66663807  0.08235409  1
  Ga  Ga12  1  0.66672387  0.66663807  0.41764591  1
  Ga  Ga13  1  0.66689028  0.66655486  0.75000000  1
  Cu  Cu14  1  0.33314451  0.33342774  0.08191075  1
  Cu  Cu15  1  0.33314451  0.33342774  0.41808925  1
  Cu  Cu16  1  0.33333300  0.33333350  0.75000000  1
  Cu  Cu17  1  0.66664926  0.66667537  0.25000000  1
