# generated using pymatgen
data_LaTiNO2
_symmetry_space_group_name_H-M   'P 1'
_cell_length_a   5.55477383
_cell_length_b   5.61987464
_cell_length_c   5.61987464
_cell_angle_alpha   89.30502797
_cell_angle_beta   119.61753078
_cell_angle_gamma   60.38246922
_symmetry_Int_Tables_number   1
_chemical_formula_structural   LaTiNO2
_chemical_formula_sum   'La2 Ti2 N2 O4'
_cell_volume   124.72589405
_cell_formula_units_Z   2
loop_
 _symmetry_equiv_pos_site_id
 _symmetry_equiv_pos_as_xyz
  1  'x, y, z'
loop_
 _atom_site_type_symbol
 _atom_site_label
 _atom_site_symmetry_multiplicity
 _atom_site_fract_x
 _atom_site_fract_y
 _atom_site_fract_z
 _atom_site_occupancy
  La  La0  1  0.00035071  0.24964929  0.25035071  1
  La  La1  1  -0.00035071  0.75035071  0.74964929  1
  Ti  Ti2  1  0.50000000  -0.00000000  0.00000000  1
  Ti  Ti3  1  0.50000000  0.50000000  0.50000000  1
  N  N4  1  0.56770983  0.68229017  0.81770983  1
  N  N5  1  0.43229017  0.31770983  0.18229017  1
  O  O6  1  -0.00000000  0.21489988  0.71489988  1
  O  O7  1  0.50000000  0.78510012  0.28510012  1
  O  O8  1  0.50000000  0.21489988  0.71489988  1
  O  O9  1  -0.00000000  0.78510012  0.28510012  1
