# generated using pymatgen
data_LaNdCuO4
_symmetry_space_group_name_H-M   'P 1'
_cell_length_a   3.79051803
_cell_length_b   3.79051803
_cell_length_c   7.05219331
_cell_angle_alpha   74.41024902
_cell_angle_beta   74.41024902
_cell_angle_gamma   90.00000000
_symmetry_Int_Tables_number   1
_chemical_formula_structural   LaNdCuO4
_chemical_formula_sum   'La1 Nd1 Cu1 O4'
_cell_volume   93.72251226
_cell_formula_units_Z   1
loop_
 _symmetry_equiv_pos_site_id
 _symmetry_equiv_pos_as_xyz
  1  'x, y, z'
loop_
 _atom_site_type_symbol
 _atom_site_label
 _atom_site_symmetry_multiplicity
 _atom_site_fract_x
 _atom_site_fract_y
 _atom_site_fract_z
 _atom_site_occupancy
  La  La0  1  0.64037744  0.64037744  0.71924511  1
  Nd  Nd1  1  0.36370685  0.36370685  0.27258630  1
  Cu  Cu2  1  0.99972369  0.99972369  0.00055262  1
  O  O3  1  0.18636061  0.18636061  0.62727879  1
  O  O4  1  0.81621723  0.81621723  0.36756555  1
  O  O5  1  0.49680709  0.99680709  0.00638582  1
  O  O6  1  0.99680709  0.49680709  0.00638582  1
