# generated using pymatgen
data_Li5Co4NiO10
_symmetry_space_group_name_H-M   'P 1'
_cell_length_a   2.99899154
_cell_length_b   5.16700778
_cell_length_c   12.55527208
_cell_angle_alpha   99.04352878
_cell_angle_beta   96.85930055
_cell_angle_gamma   106.87028715
_symmetry_Int_Tables_number   1
_chemical_formula_structural   Li5Co4NiO10
_chemical_formula_sum   'Li5 Co4 Ni1 O10'
_cell_volume   181.04133939
_cell_formula_units_Z   1
loop_
 _symmetry_equiv_pos_site_id
 _symmetry_equiv_pos_as_xyz
  1  'x, y, z'
loop_
 _atom_site_type_symbol
 _atom_site_label
 _atom_site_symmetry_multiplicity
 _atom_site_fract_x
 _atom_site_fract_y
 _atom_site_fract_z
 _atom_site_occupancy
  Li  Li0  1  0.40030912  0.49945178  0.30116646  1
  Li  Li1  1  0.00000000  0.50000000  0.50000000  1
  Li  Li2  1  0.59969088  0.50054822  0.69883354  1
  Li  Li3  1  0.19929709  0.50012311  0.89847108  1
  Li  Li4  1  0.80070291  0.49987689  0.10152892  1
  Co  Co5  1  0.60138725  0.00547413  0.19730036  1
  Co  Co6  1  0.20082178  0.00217544  0.39946811  1
  Co  Co7  1  0.79917822  -0.00217544  0.60053189  1
  Co  Co8  1  0.39861275  0.99452587  0.80269964  1
  Ni  Ni9  1  0.00000000  0.00000000  0.00000000  1
  O  O10  1  0.19671620  0.23821469  0.15521772  1
  O  O11  1  0.78868190  0.23011705  0.34724675  1
  O  O12  1  0.38653706  0.22913447  0.54393965  1
  O  O13  1  0.98317992  0.22383018  0.74252967  1
  O  O14  1  0.58416402  0.22813120  0.94019683  1
  O  O15  1  0.61346294  0.77086553  0.45606035  1
  O  O16  1  0.21131810  0.76988295  0.65275325  1
  O  O17  1  0.80328380  0.76178531  0.84478228  1
  O  O18  1  0.41583598  0.77186880  0.05980317  1
  O  O19  1  0.01682008  0.77616982  0.25747033  1
