# generated using pymatgen
data_KNa5TeO6
_symmetry_space_group_name_H-M   'P 1'
_cell_length_a   6.71316836
_cell_length_b   6.71313386
_cell_length_c   11.28372006
_cell_angle_alpha   89.83422385
_cell_angle_beta   90.16607191
_cell_angle_gamma   58.34746849
_symmetry_Int_Tables_number   1
_chemical_formula_structural   KNa5TeO6
_chemical_formula_sum   'K2 Na10 Te2 O12'
_cell_volume   432.86517957
_cell_formula_units_Z   2
loop_
 _symmetry_equiv_pos_site_id
 _symmetry_equiv_pos_as_xyz
  1  'x, y, z'
loop_
 _atom_site_type_symbol
 _atom_site_label
 _atom_site_symmetry_multiplicity
 _atom_site_fract_x
 _atom_site_fract_y
 _atom_site_fract_z
 _atom_site_occupancy
  K  K0  1  0.32940099  0.32933685  0.25000961  1
  K  K1  1  0.67059901  0.67066315  0.74999039  1
  Na  Na2  1  0.71875922  0.13961672  0.74610985  1
  Na  Na3  1  0.14016774  0.14019144  0.75000020  1
  Na  Na4  1  0.13957910  0.71879566  0.75388833  1
  Na  Na5  1  0.28124078  0.86038328  0.25389015  1
  Na  Na6  1  0.85983226  0.85980856  0.24999980  1
  Na  Na7  1  0.86042090  0.28120434  0.24611167  1
  Na  Na8  1  -0.00000000  0.50000000  0.50000000  1
  Na  Na9  1  0.50000000  0.50000000  0.50000000  1
  Na  Na10  1  0.50000000  0.00000000  0.00000000  1
  Na  Na11  1  0.50000000  0.50000000  0.00000000  1
  Te  Te12  1  -0.00000000  0.00000000  0.50000000  1
  Te  Te13  1  -0.00000000  0.00000000  0.00000000  1
  O  O14  1  0.71117511  0.14584861  0.10280093  1
  O  O15  1  0.14585597  0.13086567  0.10221954  1
  O  O16  1  0.14944966  0.71994789  0.10390068  1
  O  O17  1  0.28882489  0.85415139  0.89719907  1
  O  O18  1  0.85414403  0.86913433  0.89778046  1
  O  O19  1  0.85055034  0.28005211  0.89609932  1
  O  O20  1  0.28004680  0.85055378  0.60390148  1
  O  O21  1  0.86912902  0.85414993  0.60221971  1
  O  O22  1  0.85414633  0.28882900  0.60279890  1
  O  O23  1  0.71995320  0.14944622  0.39609852  1
  O  O24  1  0.13087098  0.14585007  0.39778029  1
  O  O25  1  0.14585367  0.71117100  0.39720110  1
