# generated using pymatgen
data_LaCo2Ni3
_symmetry_space_group_name_H-M   'P 1'
_cell_length_a   4.00784483
_cell_length_b   4.95358661
_cell_length_c   4.95007001
_cell_angle_alpha   120.02350257
_cell_angle_beta   90.00000000
_cell_angle_gamma   90.00000000
_symmetry_Int_Tables_number   1
_chemical_formula_structural   LaCo2Ni3
_chemical_formula_sum   'La1 Co2 Ni3'
_cell_volume   85.08827719
_cell_formula_units_Z   1
loop_
 _symmetry_equiv_pos_site_id
 _symmetry_equiv_pos_as_xyz
  1  'x, y, z'
loop_
 _atom_site_type_symbol
 _atom_site_label
 _atom_site_symmetry_multiplicity
 _atom_site_fract_x
 _atom_site_fract_y
 _atom_site_fract_z
 _atom_site_occupancy
  La  La0  1  0.00000000  0.99998826  0.00000000  1
  Co  Co1  1  0.00000000  0.33332743  0.66671874  1
  Co  Co2  1  0.00000000  0.66660869  0.33328126  1
  Ni  Ni3  1  0.50000000  0.50000139  0.00000000  1
  Ni  Ni4  1  0.50000000  0.49999076  0.50000729  1
  Ni  Ni5  1  0.50000000  0.99998347  0.49999271  1
