# generated using pymatgen
data_HoGePd
_symmetry_space_group_name_H-M   'P 1'
_cell_length_a   4.37208637
_cell_length_b   5.66229210
_cell_length_c   5.66220110
_cell_angle_alpha   93.59179918
_cell_angle_beta   112.71059134
_cell_angle_gamma   67.28979405
_symmetry_Int_Tables_number   1
_chemical_formula_structural   HoGePd
_chemical_formula_sum   'Ho2 Ge2 Pd2'
_cell_volume   118.66385722
_cell_formula_units_Z   2
loop_
 _symmetry_equiv_pos_site_id
 _symmetry_equiv_pos_as_xyz
  1  'x, y, z'
loop_
 _atom_site_type_symbol
 _atom_site_label
 _atom_site_symmetry_multiplicity
 _atom_site_fract_x
 _atom_site_fract_y
 _atom_site_fract_z
 _atom_site_occupancy
  Ho  Ho0  1  0.75978973  0.69614662  0.21572607  1
  Ho  Ho1  1  0.24021027  0.30385338  0.78427393  1
  Ge  Ge2  1  0.05424547  0.10513115  0.21362210  1
  Ge  Ge3  1  0.94575453  0.89486885  0.78637790  1
  Pd  Pd4  1  0.54869689  0.27383577  0.37122955  1
  Pd  Pd5  1  0.45130311  0.72616423  0.62877045  1
