# generated using pymatgen
data_KH8WN2(OF)3
_symmetry_space_group_name_H-M   'P 1'
_cell_length_a   6.43521576
_cell_length_b   6.44000856
_cell_length_c   6.44000856
_cell_angle_alpha   88.27667381
_cell_angle_beta   60.96625856
_cell_angle_gamma   119.03374144
_symmetry_Int_Tables_number   1
_chemical_formula_structural   KH8WN2(OF)3
_chemical_formula_sum   'K1 H8 W1 N2 O3 F3'
_cell_volume   191.31704939
_cell_formula_units_Z   1
loop_
 _symmetry_equiv_pos_site_id
 _symmetry_equiv_pos_as_xyz
  1  'x, y, z'
loop_
 _atom_site_type_symbol
 _atom_site_label
 _atom_site_symmetry_multiplicity
 _atom_site_fract_x
 _atom_site_fract_y
 _atom_site_fract_z
 _atom_site_occupancy
  K  K0  1  0.00000000  0.49965782  0.49965782  1
  H  H1  1  0.36768166  0.17861335  0.44164041  1
  H  H2  1  0.61896929  0.16878784  0.19380086  1
  H  H3  1  0.63231834  0.44164041  0.17861335  1
  H  H4  1  0.38103071  0.19380086  0.16878784  1
  H  H5  1  0.61896929  0.81277015  0.54981855  1
  H  H6  1  0.36768166  0.80932206  0.81093169  1
  H  H7  1  0.38103071  0.54981855  0.81277015  1
  H  H8  1  0.63231834  0.81093169  0.80932206  1
  W  W9  1  0.00000000  0.98731668  0.98731668  1
  N  N10  1  0.50000000  0.24590497  0.24590497  1
  N  N11  1  0.50000000  0.74590497  0.74590497  1
  O  O12  1  0.39785665  0.22235764  0.82450099  1
  O  O13  1  0.00000000  0.79079424  0.79079424  1
  O  O14  1  0.60214335  0.82450099  0.22235764  1
  F  F15  1  0.00000000  0.22151058  0.77699009  1
  F  F16  1  0.00000000  0.21937710  0.21937710  1
  F  F17  1  0.00000000  0.77699009  0.22151058  1
