# generated using pymatgen
data_Ge8H12C2N2O17
_symmetry_space_group_name_H-M   'P 1'
_cell_length_a   7.80531040
_cell_length_b   19.57589611
_cell_length_c   7.73730372
_cell_angle_alpha   90.00000000
_cell_angle_beta   119.96377532
_cell_angle_gamma   90.00000000
_symmetry_Int_Tables_number   1
_chemical_formula_structural   Ge8H12C2N2O17
_chemical_formula_sum   'Ge16 H24 C4 N4 O34'
_cell_volume   1024.21355370
_cell_formula_units_Z   2
loop_
 _symmetry_equiv_pos_site_id
 _symmetry_equiv_pos_as_xyz
  1  'x, y, z'
loop_
 _atom_site_type_symbol
 _atom_site_label
 _atom_site_symmetry_multiplicity
 _atom_site_fract_x
 _atom_site_fract_y
 _atom_site_fract_z
 _atom_site_occupancy
  Ge  Ge0  1  0.73509310  0.17053318  0.62911148  1
  Ge  Ge1  1  0.26490690  0.67053318  0.37088852  1
  Ge  Ge2  1  0.82056254  0.15111376  0.04756447  1
  Ge  Ge3  1  0.17943746  0.65111376  0.95243553  1
  Ge  Ge4  1  0.04082363  0.40750839  0.54923096  1
  Ge  Ge5  1  0.95917637  0.90750839  0.45076904  1
  Ge  Ge6  1  0.38990816  0.15995450  0.71227102  1
  Ge  Ge7  1  0.61009184  0.65995450  0.28772898  1
  Ge  Ge8  1  0.76435183  0.33283409  0.68219623  1
  Ge  Ge9  1  0.23564817  0.83283409  0.31780377  1
  Ge  Ge10  1  0.87066953  0.30858889  0.14785023  1
  Ge  Ge11  1  0.12933047  0.80858889  0.85214977  1
  Ge  Ge12  1  0.03678847  0.57774426  0.54368676  1
  Ge  Ge13  1  0.96321153  0.07774426  0.45631324  1
  Ge  Ge14  1  0.43560438  0.32066184  0.80149754  1
  Ge  Ge15  1  0.56439562  0.82066184  0.19850246  1
  H  H16  1  0.78813682  0.49341239  0.04340544  1
  H  H17  1  0.21186318  0.99341239  0.95659456  1
  H  H18  1  0.63885293  0.60394662  0.73882205  1
  H  H19  1  0.36114707  0.10394662  0.26117795  1
  H  H20  1  0.35980865  0.49216831  0.09871407  1
  H  H21  1  0.64019135  0.99216831  0.90128593  1
  H  H22  1  0.76422557  0.49201289  0.80077789  1
  H  H23  1  0.23577443  0.99201289  0.19922211  1
  H  H24  1  0.82902052  0.60548021  0.97758024  1
  H  H25  1  0.17097948  0.10548021  0.02241976  1
  H  H26  1  0.59098880  0.60285948  0.92797641  1
  H  H27  1  0.40901120  0.10285948  0.07202359  1
  H  H28  1  0.47392347  0.49232303  0.36201850  1
  H  H29  1  0.52607653  0.99232303  0.63798150  1
  H  H30  1  0.24836024  0.37769772  0.09893896  1
  H  H31  1  0.75163976  0.87769772  0.90106104  1
  H  H32  1  0.21140943  0.49177068  0.21391962  1
  H  H33  1  0.78859057  0.99177068  0.78608038  1
  H  H34  1  0.54755817  0.48899653  0.82539946  1
  H  H35  1  0.45244183  0.98899653  0.17460054  1
  H  H36  1  0.82199920  0.25088171  0.88713592  1
  H  H37  1  0.17800080  0.75088171  0.11286408  1
  H  H38  1  0.34920989  0.37813562  0.34174567  1
  H  H39  1  0.65079011  0.87813562  0.65825433  1
  C  C40  1  0.69727263  0.50950106  0.88785294  1
  C  C41  1  0.30272737  0.00950106  0.11214706  1
  C  C42  1  0.34887627  0.47152030  0.22483641  1
  C  C43  1  0.65112373  0.97152030  0.77516359  1
  N  N44  1  0.68829340  0.58565576  0.88192119  1
  N  N45  1  0.31170660  0.08565576  0.11807881  1
  N  N46  1  0.36279781  0.39723617  0.22654215  1
  N  N47  1  0.63720219  0.89723617  0.77345785  1
  O  O48  1  0.56369249  0.12720958  0.95692997  1
  O  O49  1  0.43630751  0.62720958  0.04307003  1
  O  O50  1  0.02874439  0.35877082  0.35233738  1
  O  O51  1  0.97125561  0.85877082  0.64766262  1
  O  O52  1  0.78640877  0.25560732  0.57085177  1
  O  O53  1  0.21359123  0.75560732  0.42914823  1
  O  O54  1  0.30148219  0.24259492  0.72480552  1
  O  O55  1  0.69851781  0.74259492  0.27519448  1
  O  O56  1  0.19178583  0.10434237  0.65769910  1
  O  O57  1  0.80821417  0.60434237  0.34230090  1
  O  O58  1  0.69388731  0.22686385  0.84182592  1
  O  O59  1  0.30611269  0.72686385  0.15817408  1
  O  O60  1  0.52591185  0.35201205  0.64412847  1
  O  O61  1  0.47408815  0.85201205  0.35587153  1
  O  O62  1  0.76263790  0.12242707  0.44722072  1
  O  O63  1  0.23736210  0.62242707  0.55277928  1
  O  O64  1  0.47616295  0.14753361  0.53767550  1
  O  O65  1  0.52383705  0.64753361  0.46232450  1
  O  O66  1  0.90574586  0.12964628  0.86960888  1
  O  O67  1  0.09425414  0.62964628  0.13039112  1
  O  O68  1  0.05928746  0.49207318  0.48598662  1
  O  O69  1  0.94071254  0.99207318  0.51401338  1
  O  O70  1  0.95084344  0.08303789  0.22308106  1
  O  O71  1  0.04915656  0.58303789  0.77691894  1
  O  O72  1  0.25466584  0.38200185  0.77041375  1
  O  O73  1  0.74533416  0.88200185  0.22958625  1
  O  O74  1  0.83661004  0.40200229  0.58853807  1
  O  O75  1  0.16338996  0.90200229  0.41146193  1
  O  O76  1  0.61872356  0.32950713  0.05774673  1
  O  O77  1  0.38127644  0.82950713  0.94225327  1
  O  O78  1  0.93964785  0.22166579  0.22214943  1
  O  O79  1  0.06035215  0.72166579  0.77785057  1
  O  O80  1  0.93279762  0.32870663  0.95320440  1
  O  O81  1  0.06720238  0.82870663  0.04679560  1
