# generated using pymatgen
data_Dy4FeSe7
_symmetry_space_group_name_H-M   'P 1'
_cell_length_a   3.95159125
_cell_length_b   6.80826075
_cell_length_c   11.94160643
_cell_angle_alpha   103.57374276
_cell_angle_beta   90.00000004
_cell_angle_gamma   73.12973623
_symmetry_Int_Tables_number   1
_chemical_formula_structural   Dy4FeSe7
_chemical_formula_sum   'Dy4 Fe1 Se7'
_cell_volume   298.05498991
_cell_formula_units_Z   1
loop_
 _symmetry_equiv_pos_site_id
 _symmetry_equiv_pos_as_xyz
  1  'x, y, z'
loop_
 _atom_site_type_symbol
 _atom_site_label
 _atom_site_symmetry_multiplicity
 _atom_site_fract_x
 _atom_site_fract_y
 _atom_site_fract_z
 _atom_site_occupancy
  Dy  Dy0  1  0.69402398  0.61195205  0.20569866  1
  Dy  Dy1  1  0.30544823  0.38910353  0.80118928  1
  Dy  Dy2  1  -0.00021823  0.00043646  0.00603031  1
  Dy  Dy3  1  0.11283661  0.77432678  0.56449780  1
  Fe  Fe4  1  0.88875373  0.22249255  0.42444527  1
  Se  Se5  1  0.74695487  0.50609026  0.63764694  1
  Se  Se6  1  0.27046557  0.45906886  0.35357884  1
  Se  Se7  1  0.33743979  0.32512042  0.05091840  1
  Se  Se8  1  0.66069483  0.67861033  0.94883190  1
  Se  Se9  1  0.03000911  0.93998178  0.22853563  1
  Se  Se10  1  0.96454925  0.07090151  0.78396339  1
  Se  Se11  1  0.48904227  0.02191547  0.49466358  1
