# generated using pymatgen
data_ErNiGe
_symmetry_space_group_name_H-M   'P 1'
_cell_length_a   4.12834823
_cell_length_b   5.48489042
_cell_length_c   5.51849692
_cell_angle_alpha   92.95039841
_cell_angle_beta   111.96538907
_cell_angle_gamma   67.89295044
_symmetry_Int_Tables_number   1
_chemical_formula_structural   ErNiGe
_chemical_formula_sum   'Er2 Ni2 Ge2'
_cell_volume   106.78638636
_cell_formula_units_Z   2
loop_
 _symmetry_equiv_pos_site_id
 _symmetry_equiv_pos_as_xyz
  1  'x, y, z'
loop_
 _atom_site_type_symbol
 _atom_site_label
 _atom_site_symmetry_multiplicity
 _atom_site_fract_x
 _atom_site_fract_y
 _atom_site_fract_z
 _atom_site_occupancy
  Er  Er0  1  0.74062460  0.71136551  0.19261472  1
  Er  Er1  1  0.25937540  0.28863449  0.80738528  1
  Ni  Ni2  1  0.05124969  0.11728993  0.21978932  1
  Ni  Ni3  1  0.94875031  0.88271007  0.78021068  1
  Ge  Ge4  1  0.56296875  0.26624529  0.39218279  1
  Ge  Ge5  1  0.43703125  0.73375471  0.60781721  1
