# generated using pymatgen
data_SrMg6Ga
_symmetry_space_group_name_H-M   'P 1'
_cell_length_a   6.77000186
_cell_length_b   6.77000124
_cell_length_c   5.06870936
_cell_angle_alpha   90.00000000
_cell_angle_beta   90.00000000
_cell_angle_gamma   119.27928567
_symmetry_Int_Tables_number   1
_chemical_formula_structural   SrMg6Ga
_chemical_formula_sum   'Sr1 Mg6 Ga1'
_cell_volume   202.63477728
_cell_formula_units_Z   1
loop_
 _symmetry_equiv_pos_site_id
 _symmetry_equiv_pos_as_xyz
  1  'x, y, z'
loop_
 _atom_site_type_symbol
 _atom_site_label
 _atom_site_symmetry_multiplicity
 _atom_site_fract_x
 _atom_site_fract_y
 _atom_site_fract_z
 _atom_site_occupancy
  Sr  Sr0  1  0.17320182  0.32679818  0.25000000  1
  Mg  Mg1  1  0.18190859  0.84117946  0.25000000  1
  Mg  Mg2  1  0.65882054  0.31809141  0.25000000  1
  Mg  Mg3  1  0.66305366  0.83694634  0.25000000  1
  Mg  Mg4  1  0.34684104  0.70068663  0.75000000  1
  Mg  Mg5  1  0.79931337  0.15315896  0.75000000  1
  Mg  Mg6  1  0.83311484  0.66688516  0.75000000  1
  Ga  Ga7  1  0.34374615  0.15625385  0.75000000  1
