# generated using pymatgen
data_Cd3Si2Pb3O10
_symmetry_space_group_name_H-M   'P 1'
_cell_length_a   5.79376041
_cell_length_b   7.40547234
_cell_length_c   7.40545140
_cell_angle_alpha   119.99990793
_cell_angle_beta   89.99999994
_cell_angle_gamma   90.00061638
_symmetry_Int_Tables_number   1
_chemical_formula_structural   Cd3Si2Pb3O10
_chemical_formula_sum   'Cd3 Si2 Pb3 O10'
_cell_volume   275.16669475
_cell_formula_units_Z   1
loop_
 _symmetry_equiv_pos_site_id
 _symmetry_equiv_pos_as_xyz
  1  'x, y, z'
loop_
 _atom_site_type_symbol
 _atom_site_label
 _atom_site_symmetry_multiplicity
 _atom_site_fract_x
 _atom_site_fract_y
 _atom_site_fract_z
 _atom_site_occupancy
  Cd  Cd0  1  0.00380406  0.03024999  0.51512500  1
  Cd  Cd1  1  0.00381724  0.48488544  0.51511702  1
  Cd  Cd2  1  0.00381724  0.48488544  0.96976843  1
  Si  Si3  1  0.50297872  0.66664517  0.33332259  1
  Si  Si4  1  0.97818266  -0.00000878  -0.00000439  1
  Pb  Pb5  1  0.50581639  0.64618518  0.82309259  1
  Pb  Pb6  1  0.50580796  0.17690488  0.82309707  1
  Pb  Pb7  1  0.50580796  0.17690488  0.35380782  1
  O  O8  1  0.60937988  0.90646306  0.45323153  1
  O  O9  1  0.60936951  0.54677046  0.45322369  1
  O  O10  1  0.60936951  0.54677046  0.09354677  1
  O  O11  1  0.25297456  0.33333279  0.66666640  1
  O  O12  1  0.21052191  0.66665515  0.33332757  1
  O  O13  1  0.76864389  0.33333161  0.66666580  1
  O  O14  1  0.69670841  0.00000232  0.00000116  1
  O  O15  1  0.06765772  0.75317727  0.87658864  1
  O  O16  1  0.06767120  0.12342234  0.87658930  1
  O  O17  1  0.06767120  0.12342234  0.24683304  1
