# generated using pymatgen
data_La2TiCrO6
_symmetry_space_group_name_H-M   'P 1'
_cell_length_a   5.54024134
_cell_length_b   5.54024134
_cell_length_c   5.54024171
_cell_angle_alpha   61.30147291
_cell_angle_beta   61.30147291
_cell_angle_gamma   61.30147445
_symmetry_Int_Tables_number   1
_chemical_formula_structural   La2TiCrO6
_chemical_formula_sum   'La2 Ti1 Cr1 O6'
_cell_volume   123.76393934
_cell_formula_units_Z   1
loop_
 _symmetry_equiv_pos_site_id
 _symmetry_equiv_pos_as_xyz
  1  'x, y, z'
loop_
 _atom_site_type_symbol
 _atom_site_label
 _atom_site_symmetry_multiplicity
 _atom_site_fract_x
 _atom_site_fract_y
 _atom_site_fract_z
 _atom_site_occupancy
  La  La0  1  0.24948983  0.24948983  0.24948983  1
  La  La1  1  0.75051017  0.75051017  0.75051017  1
  Ti  Ti2  1  -0.00000000  0.00000000  0.00000000  1
  Cr  Cr3  1  0.50000000  0.50000000  0.50000000  1
  O  O4  1  0.68022116  0.81854991  0.25155696  1
  O  O5  1  0.81854991  0.25155696  0.68022116  1
  O  O6  1  0.25155696  0.68022116  0.81854991  1
  O  O7  1  0.18145009  0.74844304  0.31977884  1
  O  O8  1  0.74844304  0.31977884  0.18145009  1
  O  O9  1  0.31977884  0.18145009  0.74844304  1
