# generated using pymatgen
data_Be3ZnO4
_symmetry_space_group_name_H-M   'P 1'
_cell_length_a   4.06132470
_cell_length_b   4.06132470
_cell_length_c   4.89703541
_cell_angle_alpha   65.50135693
_cell_angle_beta   65.50135693
_cell_angle_gamma   90.00000000
_symmetry_Int_Tables_number   1
_chemical_formula_structural   Be3ZnO4
_chemical_formula_sum   'Be3 Zn1 O4'
_cell_volume   65.42623949
_cell_formula_units_Z   1
loop_
 _symmetry_equiv_pos_site_id
 _symmetry_equiv_pos_as_xyz
  1  'x, y, z'
loop_
 _atom_site_type_symbol
 _atom_site_label
 _atom_site_symmetry_multiplicity
 _atom_site_fract_x
 _atom_site_fract_y
 _atom_site_fract_z
 _atom_site_occupancy
  Be  Be0  1  0.75000000  0.25000000  0.50000000  1
  Be  Be1  1  -0.00000000  -0.00000000  -0.00000000  1
  Be  Be2  1  0.50000000  0.50000000  -0.00000000  1
  Zn  Zn3  1  0.25000000  0.75000000  0.50000000  1
  O  O4  1  0.66787266  0.60706117  0.22506617  1
  O  O5  1  0.10706117  0.16787266  0.22506617  1
  O  O6  1  0.39293883  0.89293883  0.77493383  1
  O  O7  1  0.83212734  0.33212734  0.77493383  1
