# generated using pymatgen
data_BaThF6
_symmetry_space_group_name_H-M   'P 1'
_cell_length_a   4.28591170
_cell_length_b   4.28591170
_cell_length_c   7.89466880
_cell_angle_alpha   90.00000000
_cell_angle_beta   90.00000000
_cell_angle_gamma   120.00645979
_symmetry_Int_Tables_number   1
_chemical_formula_structural   BaThF6
_chemical_formula_sum   'Ba1 Th1 F6'
_cell_volume   125.58064592
_cell_formula_units_Z   1
loop_
 _symmetry_equiv_pos_site_id
 _symmetry_equiv_pos_as_xyz
  1  'x, y, z'
loop_
 _atom_site_type_symbol
 _atom_site_label
 _atom_site_symmetry_multiplicity
 _atom_site_fract_x
 _atom_site_fract_y
 _atom_site_fract_z
 _atom_site_occupancy
  Ba  Ba0  1  0.66667383  0.33332617  0.25000000  1
  Th  Th1  1  0.33326311  0.66673689  0.75000000  1
  F  F2  1  0.99998882  0.00001118  0.25000000  1
  F  F3  1  0.99999472  0.00000528  0.75000000  1
  F  F4  1  0.66669974  0.33330026  0.89692627  1
  F  F5  1  0.33334002  0.66665998  0.02957658  1
  F  F6  1  0.33334002  0.66665998  0.47042342  1
  F  F7  1  0.66669974  0.33330026  0.60307373  1
