# generated using pymatgen
data_CuH18PdC4N4O11
_symmetry_space_group_name_H-M   'P 1'
_cell_length_a   7.15494410
_cell_length_b   7.38309608
_cell_length_c   9.09821544
_cell_angle_alpha   66.60514853
_cell_angle_beta   66.84587010
_cell_angle_gamma   90.00000000
_symmetry_Int_Tables_number   1
_chemical_formula_structural   CuH18PdC4N4O11
_chemical_formula_sum   'Cu1 H18 Pd1 C4 N4 O11'
_cell_volume   398.57438056
_cell_formula_units_Z   1
loop_
 _symmetry_equiv_pos_site_id
 _symmetry_equiv_pos_as_xyz
  1  'x, y, z'
loop_
 _atom_site_type_symbol
 _atom_site_label
 _atom_site_symmetry_multiplicity
 _atom_site_fract_x
 _atom_site_fract_y
 _atom_site_fract_z
 _atom_site_occupancy
  Cu  Cu0  1  0.52137945  0.50000000  0.00000000  1
  H  H1  1  0.78364167  0.19014222  0.83140202  1
  H  H2  1  0.38761130  0.98050981  0.82869012  1
  H  H3  1  0.61504369  0.80985778  0.16859798  1
  H  H4  1  0.21630143  0.01949019  0.17130988  1
  H  H5  1  0.01070945  0.18893950  0.68449669  1
  H  H6  1  0.30431827  0.12524673  0.68411063  1
  H  H7  1  0.69520615  0.81106050  0.31550331  1
  H  H8  1  0.98842891  0.87475327  0.31588937  1
  H  H9  1  0.82654234  0.98471532  0.79849782  1
  H  H10  1  0.37587000  0.21714309  0.79789400  1
  H  H11  1  0.62504016  0.01528468  0.20150218  1
  H  H12  1  0.17376400  0.78285691  0.20210600  1
  H  H13  1  0.78868476  0.19012409  0.40299049  1
  H  H14  1  0.81308826  0.40572951  0.39534035  1
  H  H15  1  0.19167524  0.80987591  0.59700951  1
  H  H16  1  0.20842860  0.59427049  0.60465965  1
  H  H17  1  0.96281399  0.55232107  0.89100597  1
  H  H18  1  0.85381997  0.44767893  0.10899403  1
  Pd  Pd19  1  0.00062324  1.00000000  0.00000000  1
  C  C20  1  0.32402443  0.43158294  0.34842441  1
  C  C21  1  0.32118499  0.22255283  0.34643796  1
  C  C22  1  0.67244884  0.56841706  0.65157559  1
  C  C23  1  0.66762296  0.77744717  0.65356204  1
  N  N24  1  0.89213967  0.10194522  0.80671782  1
  N  N25  1  0.30206895  0.09184617  0.80597101  1
  N  N26  1  0.69885749  0.89805478  0.19328218  1
  N  N27  1  0.10803996  0.90815383  0.19402899  1
  O  O28  1  0.25541544  0.43800677  0.49446104  1
  O  O29  1  0.24606593  0.07118165  0.49105996  1
  O  O30  1  0.74987648  0.56199323  0.50553896  1
  O  O31  1  0.73712590  0.92881835  0.50894004  1
  O  O32  1  0.84758919  0.33294838  0.32056835  1
  O  O33  1  0.16815754  0.66705162  0.67943165  1
  O  O34  1  0.39810660  0.58484146  0.19495302  1
  O  O35  1  0.39994130  0.22278962  0.19173423  1
  O  O36  1  0.59305962  0.41515854  0.80504698  1
  O  O37  1  0.59167553  0.77721038  0.80826577  1
  O  O38  1  0.83040831  0.50000000  1.00000000  1
