# generated using pymatgen
data_Be5(Al2Fe)2
_symmetry_space_group_name_H-M   'P 1'
_cell_length_a   4.38174315
_cell_length_b   8.07628698
_cell_length_c   4.36501937
_cell_angle_alpha   93.28275986
_cell_angle_beta   59.82048267
_cell_angle_gamma   74.26198980
_symmetry_Int_Tables_number   1
_chemical_formula_structural   Be5(Al2Fe)2
_chemical_formula_sum   'Be5 Al4 Fe2'
_cell_volume   124.99837035
_cell_formula_units_Z   1
loop_
 _symmetry_equiv_pos_site_id
 _symmetry_equiv_pos_as_xyz
  1  'x, y, z'
loop_
 _atom_site_type_symbol
 _atom_site_label
 _atom_site_symmetry_multiplicity
 _atom_site_fract_x
 _atom_site_fract_y
 _atom_site_fract_z
 _atom_site_occupancy
  Be  Be0  1  -0.00000000  0.25000000  0.25000000  1
  Be  Be1  1  -0.00000000  0.75000000  0.75000000  1
  Be  Be2  1  -0.00000000  0.25000000  0.75000000  1
  Be  Be3  1  0.50000000  0.25000000  0.25000000  1
  Be  Be4  1  0.50000000  0.75000000  0.75000000  1
  Al  Al5  1  0.35432020  0.44728228  0.84381458  1
  Al  Al6  1  0.38784240  0.94491918  0.27992596  1
  Al  Al7  1  0.64567980  0.05271772  0.65618542  1
  Al  Al8  1  0.61215760  0.55508082  0.22007404  1
  Fe  Fe9  1  0.01838352  0.00270844  0.96084730  1
  Fe  Fe10  1  0.98161648  0.49729156  0.53915270  1
