# generated using pymatgen
data_LaSiP3
_symmetry_space_group_name_H-M   'P 1'
_cell_length_a   5.72223536
_cell_length_b   5.80105017
_cell_length_c   25.79379193
_cell_angle_alpha   89.99982605
_cell_angle_beta   89.99845247
_cell_angle_gamma   89.99742092
_symmetry_Int_Tables_number   1
_chemical_formula_structural   LaSiP3
_chemical_formula_sum   'La8 Si8 P24'
_cell_volume   856.22426241
_cell_formula_units_Z   8
loop_
 _symmetry_equiv_pos_site_id
 _symmetry_equiv_pos_as_xyz
  1  'x, y, z'
loop_
 _atom_site_type_symbol
 _atom_site_label
 _atom_site_symmetry_multiplicity
 _atom_site_fract_x
 _atom_site_fract_y
 _atom_site_fract_z
 _atom_site_occupancy
  La  La0  1  0.50211713  0.99986472  0.40847084  1
  La  La1  1  0.50214309  0.49986262  0.09150254  1
  La  La2  1  0.49786538  0.50013573  0.90850462  1
  La  La3  1  0.99786372  0.49986877  0.59148076  1
  La  La4  1  0.49786957  0.00012250  0.59150037  1
  La  La5  1  0.00215107  0.50013182  0.40848937  1
  La  La6  1  0.00217387  0.00015376  0.09151806  1
  La  La7  1  0.99784380  0.99986817  0.90848864  1
  Si  Si8  1  0.41905005  0.41493653  0.29277016  1
  Si  Si9  1  0.08097221  0.41493772  0.79277468  1
  Si  Si10  1  0.41904180  0.91493875  0.20723248  1
  Si  Si11  1  0.58098935  0.08505447  0.79277061  1
  Si  Si12  1  0.91905288  0.58506953  0.20723487  1
  Si  Si13  1  0.58099946  0.58505362  0.70722979  1
  Si  Si14  1  0.91904360  0.08506147  0.29277578  1
  Si  Si15  1  0.08096313  0.91492069  0.70722939  1
  P  P16  1  0.75173520  0.74850506  0.99984639  1
  P  P17  1  0.52613463  0.54427667  0.21321136  1
  P  P18  1  0.02613829  0.45572473  0.28680160  1
  P  P19  1  0.52613771  0.04428212  0.28680141  1
  P  P20  1  0.99573372  0.00360558  0.62628472  1
  P  P21  1  0.99573818  0.50360827  0.87372402  1
  P  P22  1  0.74826021  0.74852298  0.49983710  1
  P  P23  1  0.24847478  0.75187317  0.49984162  1
  P  P24  1  0.97382034  0.54429126  0.71320550  1
  P  P25  1  0.00424921  0.49638283  0.12628240  1
  P  P26  1  0.24826620  0.25147966  0.00015574  1
  P  P27  1  0.49572986  0.49638979  0.62628489  1
  P  P28  1  0.50424659  0.00360872  0.12628616  1
  P  P29  1  0.02616584  0.95571690  0.21320853  1
  P  P30  1  0.47382291  0.45572132  0.78680580  1
  P  P31  1  0.25173695  0.25146992  0.50014254  1
  P  P32  1  0.00426755  0.99639298  0.37371612  1
  P  P33  1  0.50425449  0.50359511  0.37371408  1
  P  P34  1  0.97383239  0.04428029  0.78680190  1
  P  P35  1  0.47383875  0.95573211  0.71320951  1
  P  P36  1  0.49575294  0.99640916  0.87372175  1
  P  P37  1  0.74847474  0.24814241  0.00014940  1
  P  P38  1  0.75152470  0.24813830  0.50015007  1
  P  P39  1  0.25152371  0.75186979  0.99984444  1
