# generated using pymatgen
data_NaAlTe2
_symmetry_space_group_name_H-M   'P 1'
_cell_length_a   8.32439888
_cell_length_b   8.32439839
_cell_length_c   15.57729639
_cell_angle_alpha   105.49751262
_cell_angle_beta   105.49751140
_cell_angle_gamma   89.99999801
_symmetry_Int_Tables_number   1
_chemical_formula_structural   NaAlTe2
_chemical_formula_sum   'Na8 Al8 Te16'
_cell_volume   999.40599679
_cell_formula_units_Z   8
loop_
 _symmetry_equiv_pos_site_id
 _symmetry_equiv_pos_as_xyz
  1  'x, y, z'
loop_
 _atom_site_type_symbol
 _atom_site_label
 _atom_site_symmetry_multiplicity
 _atom_site_fract_x
 _atom_site_fract_y
 _atom_site_fract_z
 _atom_site_occupancy
  Na  Na0  1  0.00000000  0.00000000  -0.00000000  1
  Na  Na1  1  0.00000000  0.00000000  0.50000000  1
  Na  Na2  1  0.00000000  0.50000000  -0.00000000  1
  Na  Na3  1  0.00000000  0.50000000  0.50000000  1
  Na  Na4  1  0.50000000  0.00000000  -0.00000000  1
  Na  Na5  1  0.50000000  0.00000000  0.50000000  1
  Na  Na6  1  0.50000000  0.50000000  -0.00000000  1
  Na  Na7  1  0.50000000  0.50000000  0.50000000  1
  Al  Al8  1  0.37500000  0.12500000  0.25000000  1
  Al  Al9  1  0.37500000  0.12500000  0.75000000  1
  Al  Al10  1  0.37500000  0.62500000  0.25000000  1
  Al  Al11  1  0.37500000  0.62500000  0.75000000  1
  Al  Al12  1  0.87500000  0.12500000  0.25000000  1
  Al  Al13  1  0.87500000  0.12500000  0.75000000  1
  Al  Al14  1  0.87500000  0.62500000  0.25000000  1
  Al  Al15  1  0.87500000  0.62500000  0.75000000  1
  Te  Te16  1  0.18221898  0.18221998  0.36443995  1
  Te  Te17  1  0.18221898  0.18221998  0.86443995  1
  Te  Te18  1  0.18221998  0.68221998  0.36443995  1
  Te  Te19  1  0.18221998  0.68221998  0.86443895  1
  Te  Te20  1  0.68221898  0.18221998  0.36443995  1
  Te  Te21  1  0.68221898  0.18221998  0.86443995  1
  Te  Te22  1  0.68221998  0.68221998  0.36443995  1
  Te  Te23  1  0.68221998  0.68221998  0.86443895  1
  Te  Te24  1  0.31778102  0.31778102  0.13556105  1
  Te  Te25  1  0.31778102  0.31778102  0.63556105  1
  Te  Te26  1  0.31778002  0.81778102  0.13556105  1
  Te  Te27  1  0.31778002  0.81778102  0.63556005  1
  Te  Te28  1  0.81778002  0.31778102  0.13556005  1
  Te  Te29  1  0.81778002  0.31778102  0.63556005  1
  Te  Te30  1  0.81778002  0.81778102  0.13556005  1
  Te  Te31  1  0.81778002  0.81778102  0.63556005  1
