# generated using pymatgen
data_B2MoRu
_symmetry_space_group_name_H-M   'P 1'
_cell_length_a   2.97299694
_cell_length_b   4.57019290
_cell_length_c   6.01362946
_cell_angle_alpha   90.00000000
_cell_angle_beta   90.00000000
_cell_angle_gamma   90.00000000
_symmetry_Int_Tables_number   1
_chemical_formula_structural   B2MoRu
_chemical_formula_sum   'B4 Mo2 Ru2'
_cell_volume   81.70820282
_cell_formula_units_Z   2
loop_
 _symmetry_equiv_pos_site_id
 _symmetry_equiv_pos_as_xyz
  1  'x, y, z'
loop_
 _atom_site_type_symbol
 _atom_site_label
 _atom_site_symmetry_multiplicity
 _atom_site_fract_x
 _atom_site_fract_y
 _atom_site_fract_z
 _atom_site_occupancy
  B  B0  1  0.25000000  0.88420950  0.52995874  1
  B  B1  1  0.25000000  0.61579050  0.02995874  1
  B  B2  1  0.75000000  0.08447967  0.47247218  1
  B  B3  1  0.75000000  0.41552033  0.97247218  1
  Mo  Mo4  1  0.25000000  0.37060673  0.67977504  1
  Mo  Mo5  1  0.25000000  0.12939327  0.17977504  1
  Ru  Ru6  1  0.75000000  0.62334346  0.31779404  1
  Ru  Ru7  1  0.75000000  0.87665654  0.81779404  1
