# generated using pymatgen
data_Ba2ScTi2BiO9
_symmetry_space_group_name_H-M   'P 1'
_cell_length_a   4.04344184
_cell_length_b   5.77681798
_cell_length_c   9.00693113
_cell_angle_alpha   71.29549657
_cell_angle_beta   90.00000000
_cell_angle_gamma   90.00000000
_symmetry_Int_Tables_number   1
_chemical_formula_structural   Ba2ScTi2BiO9
_chemical_formula_sum   'Ba2 Sc1 Ti2 Bi1 O9'
_cell_volume   199.27442854
_cell_formula_units_Z   1
loop_
 _symmetry_equiv_pos_site_id
 _symmetry_equiv_pos_as_xyz
  1  'x, y, z'
loop_
 _atom_site_type_symbol
 _atom_site_label
 _atom_site_symmetry_multiplicity
 _atom_site_fract_x
 _atom_site_fract_y
 _atom_site_fract_z
 _atom_site_occupancy
  Ba  Ba0  1  0.00000000  0.00008139  0.99983721  1
  Ba  Ba1  1  0.00000000  0.33325161  0.33349579  1
  Sc  Sc2  1  0.50000000  0.16666700  0.66666700  1
  Ti  Ti3  1  0.50000000  0.50075552  0.99848895  1
  Ti  Ti4  1  0.50000000  0.83257748  0.33484405  1
  Bi  Bi5  1  0.00000000  0.66666700  0.66666700  1
  O  O6  1  0.00000000  0.50310394  0.99379213  1
  O  O7  1  -0.00000000  0.83022906  0.33954087  1
  O  O8  1  0.00000000  0.16666700  0.66666700  1
  O  O9  1  0.50000000  0.35519926  0.83223678  1
  O  O10  1  0.50000000  0.66666700  0.16666700  1
  O  O11  1  0.50000000  0.97813374  0.50109622  1
  O  O12  1  0.50000000  0.16666700  0.16666700  1
  O  O13  1  0.50000000  0.52077004  0.50109622  1
  O  O14  1  0.50000000  0.81256296  0.83223678  1
