# generated using pymatgen
data_Mg6GaSi
_symmetry_space_group_name_H-M   'P 1'
_cell_length_a   6.21758714
_cell_length_b   6.46809345
_cell_length_c   4.78829516
_cell_angle_alpha   90.00000000
_cell_angle_beta   90.00000000
_cell_angle_gamma   121.34198212
_symmetry_Int_Tables_number   1
_chemical_formula_structural   Mg6GaSi
_chemical_formula_sum   'Mg6 Ga1 Si1'
_cell_volume   164.46617123
_cell_formula_units_Z   1
loop_
 _symmetry_equiv_pos_site_id
 _symmetry_equiv_pos_as_xyz
  1  'x, y, z'
loop_
 _atom_site_type_symbol
 _atom_site_label
 _atom_site_symmetry_multiplicity
 _atom_site_fract_x
 _atom_site_fract_y
 _atom_site_fract_z
 _atom_site_occupancy
  Mg  Mg0  1  0.66880363  0.33438556  0.25000000  1
  Mg  Mg1  1  0.66880363  0.83441707  0.25000000  1
  Mg  Mg2  1  0.32502440  0.16329393  0.75000000  1
  Mg  Mg3  1  0.32502440  0.66173147  0.75000000  1
  Mg  Mg4  1  0.84076235  0.17038167  0.75000000  1
  Mg  Mg5  1  0.83790259  0.66895179  0.75000000  1
  Ga  Ga6  1  0.16640623  0.83320262  0.25000000  1
  Si  Si7  1  0.16727277  0.33363589  0.25000000  1
