# generated using pymatgen
data_AlCr3SiMo3
_symmetry_space_group_name_H-M   'P 1'
_cell_length_a   4.77425088
_cell_length_b   4.77425088
_cell_length_c   4.77425088
_cell_angle_alpha   89.97654525
_cell_angle_beta   90.02345475
_cell_angle_gamma   90.02345475
_symmetry_Int_Tables_number   1
_chemical_formula_structural   AlCr3SiMo3
_chemical_formula_sum   'Al1 Cr3 Si1 Mo3'
_cell_volume   108.82172385
_cell_formula_units_Z   1
loop_
 _symmetry_equiv_pos_site_id
 _symmetry_equiv_pos_as_xyz
  1  'x, y, z'
loop_
 _atom_site_type_symbol
 _atom_site_label
 _atom_site_symmetry_multiplicity
 _atom_site_fract_x
 _atom_site_fract_y
 _atom_site_fract_z
 _atom_site_occupancy
  Al  Al0  1  0.49237020  0.50762980  0.50762980  1
  Cr  Cr1  1  0.50084101  0.75167295  0.00185084  1
  Cr  Cr2  1  0.24832705  0.00185084  0.49915899  1
  Cr  Cr3  1  0.99814916  0.49915899  0.75167295  1
  Si  Si4  1  0.00749440  0.99250560  0.99250560  1
  Mo  Mo5  1  0.49974649  0.24622280  0.00070550  1
  Mo  Mo6  1  0.75377720  0.00070550  0.50025351  1
  Mo  Mo7  1  0.99929450  0.50025351  0.24622280  1
