# generated using pymatgen
data_Tb11O20
_symmetry_space_group_name_H-M   'P 1'
_cell_length_a   6.64951871
_cell_length_b   6.59599577
_cell_length_c   10.29961373
_cell_angle_alpha   92.87323263
_cell_angle_beta   94.66635533
_cell_angle_gamma   98.87923016
_symmetry_Int_Tables_number   1
_chemical_formula_structural   Tb11O20
_chemical_formula_sum   'Tb11 O20'
_cell_volume   443.94775019
_cell_formula_units_Z   1
loop_
 _symmetry_equiv_pos_site_id
 _symmetry_equiv_pos_as_xyz
  1  'x, y, z'
loop_
 _atom_site_type_symbol
 _atom_site_label
 _atom_site_symmetry_multiplicity
 _atom_site_fract_x
 _atom_site_fract_y
 _atom_site_fract_z
 _atom_site_occupancy
  O  O0  1  0.06241685  0.33965783  0.95321160  1
  O  O1  1  0.93758315  0.66034217  0.04678840  1
  O  O2  1  0.77455879  0.32144078  0.34930227  1
  O  O3  1  0.22544121  0.67855922  0.65069773  1
  O  O4  1  0.94035171  0.16201557  0.57417930  1
  O  O5  1  0.05964829  0.83798443  0.42582070  1
  O  O6  1  0.56258236  0.40632318  0.11362662  1
  O  O7  1  0.43741764  0.59367682  0.88637338  1
  O  O8  1  0.68384119  0.07287324  0.96013217  1
  O  O9  1  0.31615881  0.92712676  0.03986783  1
  O  O10  1  0.31029734  0.40978296  0.53471835  1
  O  O11  1  0.68970266  0.59021704  0.46528165  1
  O  O12  1  0.47442883  0.24321398  0.75383520  1
  O  O13  1  0.52557117  0.75678602  0.24616480  1
  O  O14  1  0.90390729  0.00993940  0.20571012  1
  O  O15  1  0.09609271  0.99006060  0.79428988  1
  O  O16  1  0.15088961  0.49519467  0.27600793  1
  O  O17  1  0.84911039  0.50480533  0.72399207  1
  O  O18  1  0.58714203  0.90666339  0.62143418  1
  O  O19  1  0.41285797  0.09333661  0.37856582  1
  Tb  Tb20  1  0.00000000  0.00000000  0.00000000  1
  Tb  Tb21  1  0.71168582  0.41437818  0.91541088  1
  Tb  Tb22  1  0.28831418  0.58562182  0.08458912  1
  Tb  Tb23  1  0.41894136  0.91215245  0.81636662  1
  Tb  Tb24  1  0.58105864  0.08784755  0.18363338  1
  Tb  Tb25  1  0.91125127  0.81274538  0.61628343  1
  Tb  Tb26  1  0.08874873  0.18725462  0.38371657  1
  Tb  Tb27  1  0.15934851  0.35270843  0.73740711  1
  Tb  Tb28  1  0.84065149  0.64729157  0.26259289  1
  Tb  Tb29  1  0.63147746  0.27509245  0.56147017  1
  Tb  Tb30  1  0.36852254  0.72490755  0.43852983  1
