# generated using pymatgen
data_EuH9C5(NO4)2
_symmetry_space_group_name_H-M   'P 1'
_cell_length_a   6.85825055
_cell_length_b   6.94964868
_cell_length_c   6.94964868
_cell_angle_alpha   65.13384480
_cell_angle_beta   74.44117602
_cell_angle_gamma   74.44117602
_symmetry_Int_Tables_number   1
_chemical_formula_structural   EuH9C5(NO4)2
_chemical_formula_sum   'Eu1 H9 C5 N2 O8'
_cell_volume   284.90137880
_cell_formula_units_Z   1
loop_
 _symmetry_equiv_pos_site_id
 _symmetry_equiv_pos_as_xyz
  1  'x, y, z'
loop_
 _atom_site_type_symbol
 _atom_site_label
 _atom_site_symmetry_multiplicity
 _atom_site_fract_x
 _atom_site_fract_y
 _atom_site_fract_z
 _atom_site_occupancy
  Eu  Eu0  1  -0.00000000  0.67389794  0.32610206  1
  H  H1  1  0.42178450  0.31846566  0.12310917  1
  H  H2  1  0.57821550  0.87689083  0.68153434  1
  H  H3  1  0.53729773  0.41226042  0.84670935  1
  H  H4  1  0.46270227  0.15329065  0.58773958  1
  H  H5  1  0.81260998  0.14724642  0.88662016  1
  H  H6  1  0.18739002  0.11337984  0.85275358  1
  H  H7  1  0.50000000  0.75346311  0.24653689  1
  H  H8  1  0.88006270  0.14336921  0.47647357  1
  H  H9  1  0.11993730  0.52352643  0.85663079  1
  C  C10  1  0.70199218  0.14583610  0.03553986  1
  C  C11  1  0.29800782  0.96446014  0.85416390  1
  C  C12  1  0.50000000  0.60528598  0.39471402  1
  C  C13  1  0.03649741  0.14797080  0.37634179  1
  C  C14  1  0.96350259  0.62365821  0.85202920  1
  N  N15  1  0.54127189  0.30495513  0.00129658  1
  N  N16  1  0.45872811  0.99870342  0.69504487  1
  O  O17  1  0.73169940  0.00433141  0.21643094  1
  O  O18  1  0.26830060  0.78356906  0.99566859  1
  O  O19  1  0.33929882  0.52007723  0.46537227  1
  O  O20  1  0.66070118  0.53462773  0.47992277  1
  O  O21  1  0.11821698  0.30901289  0.33522524  1
  O  O22  1  0.88178302  0.66477476  0.69098711  1
  O  O23  1  0.12079056  0.99479734  0.31225068  1
  O  O24  1  0.87920944  0.68774932  0.00520266  1
