# generated using pymatgen
data_CrH8C4(S2N3)2
_symmetry_space_group_name_H-M   'P 1'
_cell_length_a   4.11164353
_cell_length_b   7.64496168
_cell_length_c   10.30421566
_cell_angle_alpha   92.82334527
_cell_angle_beta   100.52205947
_cell_angle_gamma   99.65239843
_symmetry_Int_Tables_number   1
_chemical_formula_structural   CrH8C4(S2N3)2
_chemical_formula_sum   'Cr1 H8 C4 S4 N6'
_cell_volume   312.87358716
_cell_formula_units_Z   1
loop_
 _symmetry_equiv_pos_site_id
 _symmetry_equiv_pos_as_xyz
  1  'x, y, z'
loop_
 _atom_site_type_symbol
 _atom_site_label
 _atom_site_symmetry_multiplicity
 _atom_site_fract_x
 _atom_site_fract_y
 _atom_site_fract_z
 _atom_site_occupancy
  H  H0  1  0.33049066  0.91654086  0.28341777  1
  H  H1  1  0.66950934  0.08345914  0.71658223  1
  H  H2  1  0.49629312  0.76769200  0.39124942  1
  H  H3  1  0.50370688  0.23230800  0.60875058  1
  H  H4  1  0.56685237  0.46646238  0.12611201  1
  H  H5  1  0.43314763  0.53353762  0.87388799  1
  H  H6  1  0.62049410  0.50125456  0.29732225  1
  H  H7  1  0.37950590  0.49874544  0.70267775  1
  C  C8  1  0.43914401  0.69917772  0.19138874  1
  C  C9  1  0.56085599  0.30082228  0.80861126  1
  C  C10  1  0.95054658  0.82350362  0.71151139  1
  C  C11  1  0.04945342  0.17649638  0.28848861  1
  N  N12  1  0.41169366  0.79878168  0.29720470  1
  N  N13  1  0.58830634  0.20121832  0.70279530  1
  N  N14  1  0.55309091  0.54642476  0.20656591  1
  N  N15  1  0.44690909  0.45357524  0.79343409  1
  N  N16  1  0.93290141  0.90442636  0.81130997  1
  N  N17  1  0.06709859  0.09557364  0.18869003  1
  S  S18  1  0.33630408  0.76279087  0.03237545  1
  S  S19  1  0.66369592  0.23720913  0.96762455  1
  S  S20  1  0.97708680  0.71432985  0.57709679  1
  S  S21  1  0.02291320  0.28567015  0.42290321  1
  Cr  Cr22  1  0.00000000  0.00000000  0.00000000  1
