# generated using pymatgen
data_TiPO4
_symmetry_space_group_name_H-M   'P 1'
_cell_length_a   4.97029158
_cell_length_b   6.02749480
_cell_length_c   10.00506238
_cell_angle_alpha   90.00000000
_cell_angle_beta   90.00000000
_cell_angle_gamma   90.00000000
_symmetry_Int_Tables_number   1
_chemical_formula_structural   TiPO4
_chemical_formula_sum   'Ti4 P4 O16'
_cell_volume   299.73572737
_cell_formula_units_Z   4
loop_
 _symmetry_equiv_pos_site_id
 _symmetry_equiv_pos_as_xyz
  1  'x, y, z'
loop_
 _atom_site_type_symbol
 _atom_site_label
 _atom_site_symmetry_multiplicity
 _atom_site_fract_x
 _atom_site_fract_y
 _atom_site_fract_z
 _atom_site_occupancy
  O  O0  1  0.72040445  0.25000000  0.12345794  1
  O  O1  1  0.22651139  0.45028266  0.67183837  1
  O  O2  1  0.72651239  0.54971734  0.82816163  1
  O  O3  1  0.77348761  0.95028166  0.32816163  1
  O  O4  1  0.27348961  0.04971834  0.17183837  1
  O  O5  1  0.77348761  0.54971734  0.32816163  1
  O  O6  1  0.27348961  0.45028266  0.17183837  1
  O  O7  1  0.22651139  0.04971834  0.67183837  1
  O  O8  1  0.27959555  0.75000000  0.87654306  1
  O  O9  1  0.77959555  0.25000000  0.62345694  1
  O  O10  1  0.72651239  0.95028166  0.82816163  1
  O  O11  1  0.22040545  0.75000000  0.37654306  1
  O  O12  1  0.64440739  0.75000000  0.05075280  1
  O  O13  1  0.35559161  0.25000000  0.94924720  1
  O  O14  1  0.14440639  0.25000000  0.44924720  1
  O  O15  1  0.85559261  0.75000000  0.55075280  1
  P  P16  1  0.58332548  0.75000000  0.90085685  1
  P  P17  1  0.91667452  0.75000000  0.40085685  1
  P  P18  1  0.41667652  0.25000000  0.09914215  1
  P  P19  1  0.08332448  0.25000000  0.59914315  1
  Ti  Ti20  1  0.01814611  0.75000000  0.73054154  1
  Ti  Ti21  1  0.48185189  0.75000000  0.23054154  1
  Ti  Ti22  1  0.98185289  0.25000000  0.26945746  1
  Ti  Ti23  1  0.51814711  0.25000000  0.76945846  1
