# generated using pymatgen
data_Zr6Ni(SnH5)2
_symmetry_space_group_name_H-M   'P 1'
_cell_length_a   8.16474681
_cell_length_b   8.16474682
_cell_length_c   7.36734552
_cell_angle_alpha   90.00000000
_cell_angle_beta   90.00000000
_cell_angle_gamma   120.00000001
_symmetry_Int_Tables_number   1
_chemical_formula_structural   Zr6Ni(SnH5)2
_chemical_formula_sum   'Zr12 Ni2 Sn4 H20'
_cell_volume   425.33107512
_cell_formula_units_Z   2
loop_
 _symmetry_equiv_pos_site_id
 _symmetry_equiv_pos_as_xyz
  1  'x, y, z'
loop_
 _atom_site_type_symbol
 _atom_site_label
 _atom_site_symmetry_multiplicity
 _atom_site_fract_x
 _atom_site_fract_y
 _atom_site_fract_z
 _atom_site_occupancy
  H  H0  1  0.00000000  0.00000000  0.50000000  1
  H  H1  1  0.00000000  0.00000000  0.00000000  1
  H  H2  1  0.27327880  0.00000000  0.50000000  1
  H  H3  1  0.72672120  0.72672120  0.00000000  1
  H  H4  1  0.00000000  0.27327880  0.00000000  1
  H  H5  1  0.00000000  0.27327880  0.50000000  1
  H  H6  1  0.72672120  0.72672120  0.50000000  1
  H  H7  1  0.27327880  0.00000000  0.00000000  1
  H  H8  1  0.29711543  0.40147953  0.75000000  1
  H  H9  1  0.59852047  0.89563590  0.75000000  1
  H  H10  1  0.10436410  0.70288457  0.75000000  1
  H  H11  1  0.70288457  0.10436410  0.25000000  1
  H  H12  1  0.89563590  0.59852047  0.25000000  1
  H  H13  1  0.40147953  0.29711543  0.25000000  1
  H  H14  1  0.23925791  0.12155804  0.75000000  1
  H  H15  1  0.87844196  0.11769987  0.75000000  1
  H  H16  1  0.88230013  0.76074209  0.75000000  1
  H  H17  1  0.76074209  0.88230013  0.25000000  1
  H  H18  1  0.12155804  0.23925791  0.25000000  1
  H  H19  1  0.11769987  0.87844196  0.25000000  1
  Ni  Ni20  1  0.00000000  0.00000000  0.75000000  1
  Ni  Ni21  1  0.00000000  0.00000000  0.25000000  1
  Zr  Zr22  1  0.95252782  0.36815188  0.25000000  1
  Zr  Zr23  1  0.36815188  0.95252782  0.75000000  1
  Zr  Zr24  1  0.41562406  0.04747218  0.25000000  1
  Zr  Zr25  1  0.63184812  0.58437594  0.25000000  1
  Zr  Zr26  1  0.74144184  0.00000000  0.50000000  1
  Zr  Zr27  1  0.25855816  0.25855816  0.00000000  1
  Zr  Zr28  1  0.00000000  0.74144184  0.00000000  1
  Zr  Zr29  1  0.00000000  0.74144184  0.50000000  1
  Zr  Zr30  1  0.25855816  0.25855816  0.50000000  1
  Zr  Zr31  1  0.74144184  0.00000000  0.00000000  1
  Zr  Zr32  1  0.04747218  0.41562406  0.75000000  1
  Zr  Zr33  1  0.58437594  0.63184812  0.75000000  1
  Sn  Sn34  1  0.33333333  0.66666667  0.04043627  1
  Sn  Sn35  1  0.33333333  0.66666667  0.45956373  1
  Sn  Sn36  1  0.66666667  0.33333333  0.95956373  1
  Sn  Sn37  1  0.66666667  0.33333333  0.54043627  1
