# generated using pymatgen
data_Sn4(PO4)3
_symmetry_space_group_name_H-M   'P 1'
_cell_length_a   9.82718392
_cell_length_b   10.20676293
_cell_length_c   9.82718392
_cell_angle_alpha   90.06192310
_cell_angle_beta   59.93847844
_cell_angle_gamma   118.78937991
_symmetry_Int_Tables_number   1
_chemical_formula_structural   Sn4(PO4)3
_chemical_formula_sum   'Sn8 P6 O24'
_cell_volume   709.19941728
_cell_formula_units_Z   2
loop_
 _symmetry_equiv_pos_site_id
 _symmetry_equiv_pos_as_xyz
  1  'x, y, z'
loop_
 _atom_site_type_symbol
 _atom_site_label
 _atom_site_symmetry_multiplicity
 _atom_site_fract_x
 _atom_site_fract_y
 _atom_site_fract_z
 _atom_site_occupancy
  O  O0  1  0.80802642  0.01772534  0.90419512  1
  O  O1  1  0.92287070  0.09875973  0.60646924  1
  O  O2  1  0.92316642  0.59894389  0.97023722  1
  O  O3  1  0.92166419  0.01762874  0.28812471  1
  O  O4  1  0.80808226  0.51763602  0.78756101  1
  O  O5  1  0.56918111  0.09894389  0.82422252  1
  O  O6  1  0.70501098  0.09894165  0.47070528  1
  O  O7  1  0.83644282  0.16328269  0.16475991  1
  O  O8  1  0.92192047  0.51772534  0.29030108  1
  O  O9  1  0.32758516  0.16321544  0.99931389  1
  O  O10  1  0.55437623  0.30906212  0.69608406  1
  O  O11  1  0.83568337  0.66309544  0.49928539  1
  O  O12  1  0.30519703  0.01763602  0.79044624  1
  O  O13  1  0.70522897  0.59875973  0.32411096  1
  O  O14  1  0.16238082  0.16309544  0.67258792  1
  O  O15  1  0.56964695  0.59894165  0.10606932  1
  O  O16  1  0.55492369  0.80909422  0.24941760  1
  O  O17  1  0.30575345  0.51762874  0.40403545  1
  O  O18  1  0.00523224  0.30911902  0.74933546  1
  O  O19  1  0.16252934  0.66321544  0.66436971  1
  O  O20  1  0.32804261  0.66328269  0.17316011  1
  O  O21  1  0.05851182  0.30909422  0.24582948  1
  O  O22  1  0.00514617  0.80906212  0.74531413  1
  O  O23  1  0.05845448  0.80911902  0.19611322  1
  P  P24  1  0.97365869  0.14674780  0.73223752  1
  P  P25  1  0.97377379  0.64675684  0.79373268  1
  P  P26  1  0.87907281  0.14678093  0.29419088  1
  P  P27  1  0.44048950  0.14675684  0.82701695  1
  P  P28  1  0.87898532  0.64674780  0.32691088  1
  P  P29  1  0.44097181  0.64678093  0.23229187  1
  Sn  Sn30  1  0.62080336  0.52289919  0.74811268  1
  Sn  Sn31  1  0.62107115  0.02285644  0.13150208  1
  Sn  Sn32  1  0.27101187  0.02289919  0.59790417  1
  Sn  Sn33  1  0.63489260  0.45233107  0.18228619  1
  Sn  Sn34  1  0.63461726  0.95233107  0.68256153  1
  Sn  Sn35  1  0.27116617  0.52306113  0.63099485  1
  Sn  Sn36  1  0.15405598  0.02306113  0.24810504  1
  Sn  Sn37  1  0.15435853  0.52285644  0.09821471  1
