# generated using pymatgen
data_H5BrNO
_symmetry_space_group_name_H-M   'P 1'
_cell_length_a   6.72730457
_cell_length_b   7.33065096
_cell_length_c   8.22563656
_cell_angle_alpha   90.00000000
_cell_angle_beta   117.79249525
_cell_angle_gamma   90.00000000
_symmetry_Int_Tables_number   1
_chemical_formula_structural   H5BrNO
_chemical_formula_sum   'H20 Br4 N4 O4'
_cell_volume   358.85642864
_cell_formula_units_Z   4
loop_
 _symmetry_equiv_pos_site_id
 _symmetry_equiv_pos_as_xyz
  1  'x, y, z'
loop_
 _atom_site_type_symbol
 _atom_site_label
 _atom_site_symmetry_multiplicity
 _atom_site_fract_x
 _atom_site_fract_y
 _atom_site_fract_z
 _atom_site_occupancy
  H  H0  1  0.00475620  0.19527155  0.13430744  1
  H  H1  1  0.49524380  0.69527155  0.36569256  1
  H  H2  1  0.99524380  0.80472845  0.86569256  1
  H  H3  1  0.50475620  0.30472845  0.63430744  1
  H  H4  1  0.77576711  0.09297842  0.01409906  1
  H  H5  1  0.72423289  0.59297842  0.48590094  1
  H  H6  1  0.22423289  0.90702158  0.98590094  1
  H  H7  1  0.27576711  0.40702158  0.51409906  1
  H  H8  1  0.89723355  0.04269596  0.30067880  1
  H  H9  1  0.60276645  0.54269596  0.19932120  1
  H  H10  1  0.10276645  0.95730404  0.69932120  1
  H  H11  1  0.39723355  0.45730404  0.80067880  1
  H  H12  1  0.31006637  0.62821706  0.90483046  1
  H  H13  1  0.18993363  0.12821706  0.59516954  1
  H  H14  1  0.68993363  0.37178294  0.09516954  1
  H  H15  1  0.81006637  0.87178294  0.40483046  1
  H  H16  1  0.44035206  0.35294091  0.09552678  1
  H  H17  1  0.05964794  0.85294091  0.40447322  1
  H  H18  1  0.55964794  0.64705909  0.90447322  1
  H  H19  1  0.94035206  0.14705909  0.59552678  1
  N  N20  1  0.44789990  0.54957014  0.91449234  1
  N  N21  1  0.05210010  0.04957014  0.58550766  1
  N  N22  1  0.94789990  0.95042986  0.41449234  1
  N  N23  1  0.55210010  0.45042986  0.08550766  1
  O  O24  1  0.85180889  0.17726724  0.12244989  1
  O  O25  1  0.14819111  0.82273276  0.87755011  1
  O  O26  1  0.64819111  0.67726724  0.37755011  1
  O  O27  1  0.35180889  0.32273276  0.62244989  1
  Br  Br28  1  0.86976444  0.39288501  0.70945383  1
  Br  Br29  1  0.63023556  0.89288501  0.79054617  1
  Br  Br30  1  0.13023556  0.60711499  0.29054617  1
  Br  Br31  1  0.36976444  0.10711499  0.20945383  1
