# generated using pymatgen
data_Sn(PO3)3
_symmetry_space_group_name_H-M   'P 1'
_cell_length_a   7.07458776
_cell_length_b   7.84682414
_cell_length_c   6.64490275
_cell_angle_alpha   99.55661038
_cell_angle_beta   97.18053473
_cell_angle_gamma   83.52090435
_symmetry_Int_Tables_number   1
_chemical_formula_structural   Sn(PO3)3
_chemical_formula_sum   'Sn2 P6 O18'
_cell_volume   359.30441571
_cell_formula_units_Z   2
loop_
 _symmetry_equiv_pos_site_id
 _symmetry_equiv_pos_as_xyz
  1  'x, y, z'
loop_
 _atom_site_type_symbol
 _atom_site_label
 _atom_site_symmetry_multiplicity
 _atom_site_fract_x
 _atom_site_fract_y
 _atom_site_fract_z
 _atom_site_occupancy
  Sn  Sn0  1  0.78282442  0.84502239  0.00542808  1
  Sn  Sn1  1  0.21717558  0.15497761  0.99457192  1
  P  P2  1  0.62385867  0.21367575  0.35700759  1
  P  P3  1  0.83730761  0.44867633  0.17639872  1
  P  P4  1  0.16269239  0.55132367  0.82360128  1
  P  P5  1  0.30687062  0.79015377  0.17441525  1
  P  P6  1  0.69312938  0.20984623  0.82558475  1
  P  P7  1  0.37614133  0.78632425  0.64299241  1
  O  O8  1  0.34542990  0.74349107  0.39744864  1
  O  O9  1  0.58846897  0.78843873  0.70215729  1
  O  O10  1  0.97004971  0.65266961  0.79527866  1
  O  O11  1  0.02995029  0.34733039  0.20472134  1
  O  O12  1  0.41153103  0.21156127  0.29784271  1
  O  O13  1  0.52067009  0.15648701  0.89854314  1
  O  O14  1  0.73798169  0.39912106  0.94363125  1
  O  O15  1  0.12932314  0.91897721  0.14423206  1
  O  O16  1  0.26201831  0.60087894  0.05636875  1
  O  O17  1  0.23685346  0.93647418  0.71523887  1
  O  O18  1  0.83262687  0.64379110  0.21322546  1
  O  O19  1  0.87067686  0.08102279  0.85576794  1
  O  O20  1  0.68751678  0.39528068  0.31205462  1
  O  O21  1  0.76314654  0.06352582  0.28476113  1
  O  O22  1  0.47932991  0.84351299  0.10145686  1
  O  O23  1  0.65457110  0.25650893  0.60255136  1
  O  O24  1  0.31248322  0.60471932  0.68794538  1
  O  O25  1  0.16737313  0.35620890  0.78677454  1
