# generated using pymatgen
data_Mg6CdSi
_symmetry_space_group_name_H-M   'P 1'
_cell_length_a   6.23564568
_cell_length_b   6.23564520
_cell_length_c   5.08357184
_cell_angle_alpha   90.00000000
_cell_angle_beta   90.00000000
_cell_angle_gamma   121.01901368
_symmetry_Int_Tables_number   1
_chemical_formula_structural   Mg6CdSi
_chemical_formula_sum   'Mg6 Cd1 Si1'
_cell_volume   169.39896691
_cell_formula_units_Z   1
loop_
 _symmetry_equiv_pos_site_id
 _symmetry_equiv_pos_as_xyz
  1  'x, y, z'
loop_
 _atom_site_type_symbol
 _atom_site_label
 _atom_site_symmetry_multiplicity
 _atom_site_fract_x
 _atom_site_fract_y
 _atom_site_fract_z
 _atom_site_occupancy
  Mg  Mg0  1  0.16478176  0.83711376  0.25000000  1
  Mg  Mg1  1  0.66288624  0.33521824  0.25000000  1
  Mg  Mg2  1  0.66600737  0.83399263  0.25000000  1
  Mg  Mg3  1  0.33296692  0.65443345  0.75000000  1
  Mg  Mg4  1  0.84556655  0.16703308  0.75000000  1
  Mg  Mg5  1  0.83287427  0.66712573  0.75000000  1
  Cd  Cd6  1  0.34351575  0.15648425  0.75000000  1
  Si  Si7  1  0.15140112  0.34859888  0.25000000  1
