# generated using pymatgen
data_UO3
_symmetry_space_group_name_H-M   'P 1'
_cell_length_a   6.97865760
_cell_length_b   6.97865761
_cell_length_c   11.24380402
_cell_angle_alpha   108.07932850
_cell_angle_beta   108.07932856
_cell_angle_gamma   90.00000004
_symmetry_Int_Tables_number   1
_chemical_formula_structural   UO3
_chemical_formula_sum   'U8 O24'
_cell_volume   492.03696175
_cell_formula_units_Z   8
loop_
 _symmetry_equiv_pos_site_id
 _symmetry_equiv_pos_as_xyz
  1  'x, y, z'
loop_
 _atom_site_type_symbol
 _atom_site_label
 _atom_site_symmetry_multiplicity
 _atom_site_fract_x
 _atom_site_fract_y
 _atom_site_fract_z
 _atom_site_occupancy
  O  O0  1  0.07621882  0.06637361  0.13274722  1
  O  O1  1  0.43362639  0.94347160  0.36725278  1
  O  O2  1  0.43362639  0.42378118  0.36725278  1
  O  O3  1  0.44347160  0.93362639  0.86725278  1
  O  O4  1  0.92378118  0.93362639  0.86725278  1
  O  O5  1  0.56637361  0.57621882  0.63274722  1
  O  O6  1  0.56637361  0.05652840  0.63274722  1
  O  O7  1  0.55652840  0.06637361  0.13274722  1
  O  O8  1  0.45801182  0.40734883  0.81469765  1
  O  O9  1  0.90734883  0.95801182  0.31469765  1
  O  O10  1  0.90734883  0.35668584  0.31469765  1
  O  O11  1  0.14331416  0.59265117  0.18530235  1
  O  O12  1  0.54198818  0.59265117  0.18530235  1
  O  O13  1  0.09265117  0.64331416  0.68530235  1
  O  O14  1  0.09265117  0.04198818  0.68530235  1
  O  O15  1  0.85668584  0.40734883  0.81469765  1
  O  O16  1  0.20847983  0.26578265  0.53156529  1
  O  O17  1  0.76578265  0.70847983  0.03156529  1
  O  O18  1  0.76578265  0.32308546  0.03156529  1
  O  O19  1  0.17691454  0.73421735  0.46843471  1
  O  O20  1  0.79152017  0.73421735  0.46843471  1
  O  O21  1  0.23421735  0.67691454  0.96843471  1
  O  O22  1  0.23421735  0.29152017  0.96843471  1
  O  O23  1  0.82308546  0.26578265  0.53156529  1
  U  U24  1  0.00000000  0.50000000  0.00000000  1
  U  U25  1  0.00000000  0.50000000  0.50000000  1
  U  U26  1  0.00000000  0.00000000  0.50000000  1
  U  U27  1  0.50000000  0.50000000  0.00000000  1
  U  U28  1  0.43600549  0.68600549  0.37201099  1
  U  U29  1  0.18600549  0.93600549  0.87201099  1
  U  U30  1  0.56399451  0.31399451  0.62798901  1
  U  U31  1  0.81399451  0.06399451  0.12798901  1
