# generated using pymatgen
data_Cr9(PO4)8
_symmetry_space_group_name_H-M   'P 1'
_cell_length_a   9.22215121
_cell_length_b   8.68626375
_cell_length_c   8.86101999
_cell_angle_alpha   99.81826983
_cell_angle_beta   103.46029478
_cell_angle_gamma   109.67476564
_symmetry_Int_Tables_number   1
_chemical_formula_structural   Cr9(PO4)8
_chemical_formula_sum   'Cr9 P8 O32'
_cell_volume   625.55247653
_cell_formula_units_Z   1
loop_
 _symmetry_equiv_pos_site_id
 _symmetry_equiv_pos_as_xyz
  1  'x, y, z'
loop_
 _atom_site_type_symbol
 _atom_site_label
 _atom_site_symmetry_multiplicity
 _atom_site_fract_x
 _atom_site_fract_y
 _atom_site_fract_z
 _atom_site_occupancy
  O  O0  1  0.44472489  0.26418090  0.86436509  1
  O  O1  1  0.96677437  0.49973535  0.72401256  1
  O  O2  1  0.67738036  0.04991867  0.14919096  1
  O  O3  1  0.71143365  0.09764165  0.47098524  1
  O  O4  1  0.90079473  0.66881962  0.42711777  1
  O  O5  1  0.74605293  0.36826675  0.38230794  1
  O  O6  1  0.92591217  0.78367403  0.79905616  1
  O  O7  1  0.82972052  0.85479527  0.10016812  1
  O  O8  1  0.87395822  0.07848778  0.72560325  1
  O  O9  1  0.12611225  0.92166857  0.27452719  1
  O  O10  1  0.00531890  0.65236634  0.01323101  1
  O  O11  1  0.03318421  0.50016941  0.27591483  1
  O  O12  1  0.32266631  0.95015765  0.85072607  1
  O  O13  1  0.28865874  0.90248230  0.52911257  1
  O  O14  1  0.09925908  0.33118006  0.57287092  1
  O  O15  1  0.25423891  0.63171293  0.61763455  1
  O  O16  1  0.07380414  0.21608060  0.20082914  1
  O  O17  1  0.17042347  0.14529586  0.89971991  1
  O  O18  1  0.28602450  0.48382913  0.84465810  1
  O  O19  1  0.71396381  0.51622006  0.15539112  1
  O  O20  1  0.27610804  0.49915389  0.18778364  1
  O  O21  1  0.58220601  0.82516313  0.88295798  1
  O  O22  1  0.41461270  0.44608951  0.61987220  1
  O  O23  1  0.58598631  0.84162269  0.57101266  1
  O  O24  1  0.99420882  0.34725934  0.98661565  1
  O  O25  1  0.55535149  0.73592800  0.13539549  1
  O  O26  1  0.41422195  0.15867719  0.42953869  1
  O  O27  1  0.58541361  0.55354324  0.38040367  1
  O  O28  1  0.41811925  0.17514377  0.11688840  1
  O  O29  1  0.72355761  0.50044702  0.81160385  1
  O  O30  1  0.60911835  0.11106775  0.72067628  1
  O  O31  1  0.39097995  0.88936976  0.27936093  1
  P  P32  1  0.29753357  0.96550052  0.38044363  1
  P  P33  1  0.09834310  0.38666678  0.16492282  1
  P  P34  1  0.27578407  0.47299902  0.66353246  1
  P  P35  1  0.33891641  0.12733004  0.93296936  1
  P  P36  1  0.66113592  0.87267955  0.06693647  1
  P  P37  1  0.72419841  0.52695687  0.33654203  1
  P  P38  1  0.90152304  0.61310927  0.83488938  1
  P  P39  1  0.70256958  0.03465856  0.61964232  1
  Cr  Cr40  1  0.94295191  0.69490092  0.20042730  1
  Cr  Cr41  1  0.56240610  0.12207027  0.28806702  1
  Cr  Cr42  1  0.49994551  0.50006957  1.00015351  1
  Cr  Cr43  1  0.53256031  0.29705854  0.67005527  1
  Cr  Cr44  1  0.46709908  0.70272156  0.33047341  1
  Cr  Cr45  1  0.43777691  0.87795927  0.71193162  1
  Cr  Cr46  1  -0.00005290  -0.00000177  -0.00003780  1
  Cr  Cr47  1  0.05700668  0.30521285  0.79965847  1
  Cr  Cr48  1  0.00000962  0.49995736  0.49986085  1
