# generated using pymatgen
data_Cr(PO3)3
_symmetry_space_group_name_H-M   'P 1'
_cell_length_a   9.66542302
_cell_length_b   9.37453265
_cell_length_c   9.50923225
_cell_angle_alpha   109.00783310
_cell_angle_beta   104.88009725
_cell_angle_gamma   109.49305799
_symmetry_Int_Tables_number   1
_chemical_formula_structural   Cr(PO3)3
_chemical_formula_sum   'Cr4 P12 O36'
_cell_volume   700.41138574
_cell_formula_units_Z   4
loop_
 _symmetry_equiv_pos_site_id
 _symmetry_equiv_pos_as_xyz
  1  'x, y, z'
loop_
 _atom_site_type_symbol
 _atom_site_label
 _atom_site_symmetry_multiplicity
 _atom_site_fract_x
 _atom_site_fract_y
 _atom_site_fract_z
 _atom_site_occupancy
  O  O0  1  0.64225936  0.62900147  0.34155682  1
  O  O1  1  0.96392524  0.19878426  0.36734484  1
  O  O2  1  0.00296060  0.73473750  0.05231200  1
  O  O3  1  0.82514221  0.16241658  0.09162317  1
  O  O4  1  0.03607441  0.80121533  0.63265472  1
  O  O5  1  0.99703905  0.26526209  0.94768756  1
  O  O6  1  0.17485907  0.83758428  0.90837722  1
  O  O7  1  0.14592528  0.69398362  0.43598392  1
  O  O8  1  0.05044504  0.19997502  0.64185376  1
  O  O9  1  0.17372437  0.09513876  0.87644522  1
  O  O10  1  0.30889260  0.42768432  0.96744167  1
  O  O11  1  0.33568748  0.62385132  0.83118928  1
  O  O12  1  0.30524810  0.95583664  0.22256814  1
  O  O13  1  0.30392035  0.56939624  0.55492552  1
  O  O14  1  0.08776104  0.13982383  0.16583839  1
  O  O15  1  0.20936639  0.64352294  0.02370655  1
  O  O16  1  0.21341878  0.49600984  0.25979009  1
  O  O17  1  0.35774029  0.37099812  0.65844274  1
  O  O18  1  0.44513472  0.79860288  0.47100230  1
  O  O19  1  0.23309535  0.01408547  0.58064392  1
  O  O20  1  0.58490665  0.67010341  0.76872525  1
  O  O21  1  0.48552895  0.25512380  0.87092471  1
  O  O22  1  0.51447071  0.74487578  0.12907486  1
  O  O23  1  0.94955517  0.80002584  0.35814635  1
  O  O24  1  0.76690431  0.98591412  0.41935564  1
  O  O25  1  0.55486550  0.20139799  0.52899887  1
  O  O26  1  0.85407438  0.30601597  0.56401565  1
  O  O27  1  0.78658087  0.50398975  0.74020948  1
  O  O28  1  0.79063327  0.35647665  0.97629408  1
  O  O29  1  0.91223918  0.86017703  0.83416172  1
  O  O30  1  0.69607931  0.43060334  0.44507404  1
  O  O31  1  0.69475156  0.04416295  0.77743248  1
  O  O32  1  0.66431218  0.37614826  0.16881029  1
  O  O33  1  0.69110706  0.57231526  0.03255789  1
  O  O34  1  0.82627529  0.90486082  0.12355435  1
  O  O35  1  0.41509300  0.32989618  0.23127431  1
  P  P36  1  0.59259832  0.44410662  0.29877695  1
  P  P37  1  0.70289330  0.34865185  0.57482986  1
  P  P38  1  0.82353863  0.18938443  0.92671550  1
  P  P39  1  0.90469116  0.16233296  0.50397270  1
  P  P40  1  0.06991571  0.90334240  0.81681962  1
  P  P41  1  0.09530849  0.83766662  0.49602687  1
  P  P42  1  0.17646158  0.81061643  0.07328462  1
  P  P43  1  0.29710636  0.65134773  0.42516970  1
  P  P44  1  0.40740133  0.55589297  0.70122261  1
  P  P45  1  0.35246497  0.61388247  -0.00182248  1
  P  P46  1  0.64753576  0.38611711  1.00182231  1
  P  P47  1  0.93008450  0.09665846  0.18318050  1
  Cr  Cr48  1  0.73266555  0.77544449  0.24734717  1
  Cr  Cr49  1  0.79759587  0.69947129  0.90810739  1
  Cr  Cr50  1  0.20240379  0.30052829  0.09189324  1
  Cr  Cr51  1  0.26733411  0.22455509  0.75265239  1
