# generated using pymatgen
data_Ba3CrS5
_symmetry_space_group_name_H-M   'P 1'
_cell_length_a   9.29419474
_cell_length_b   9.29419474
_cell_length_c   6.16636839
_cell_angle_alpha   90.00000000
_cell_angle_beta   90.00000000
_cell_angle_gamma   120.00000001
_symmetry_Int_Tables_number   1
_chemical_formula_structural   Ba3CrS5
_chemical_formula_sum   'Ba6 Cr2 S10'
_cell_volume   461.30019072
_cell_formula_units_Z   2
loop_
 _symmetry_equiv_pos_site_id
 _symmetry_equiv_pos_as_xyz
  1  'x, y, z'
loop_
 _atom_site_type_symbol
 _atom_site_label
 _atom_site_symmetry_multiplicity
 _atom_site_fract_x
 _atom_site_fract_y
 _atom_site_fract_z
 _atom_site_occupancy
  S  S0  1  0.00000000  0.20787497  0.34506956  1
  S  S1  1  0.79212503  0.00000000  0.84506956  1
  S  S2  1  0.20787497  0.20787497  0.84506956  1
  S  S3  1  0.79212503  0.79212503  0.34506956  1
  S  S4  1  0.20787497  0.00000000  0.34506956  1
  S  S5  1  0.00000000  0.79212503  0.84506956  1
  S  S6  1  0.33333333  0.66666667  0.08016137  1
  S  S7  1  0.66666667  0.33333333  0.58016137  1
  S  S8  1  0.66666667  0.33333333  0.08016137  1
  S  S9  1  0.33333333  0.66666667  0.58016137  1
  Cr  Cr10  1  0.00000000  0.00000000  0.59529920  1
  Cr  Cr11  1  0.00000000  0.00000000  0.09529920  1
  Ba  Ba12  1  0.62105277  0.00000000  0.33005647  1
  Ba  Ba13  1  0.62105277  0.62105277  0.83005647  1
  Ba  Ba14  1  0.00000000  0.37894723  0.83005647  1
  Ba  Ba15  1  0.00000000  0.62105277  0.33005647  1
  Ba  Ba16  1  0.37894723  0.37894723  0.33005647  1
  Ba  Ba17  1  0.37894723  0.00000000  0.83005647  1
