# generated using pymatgen
data_BaMnSb2
_symmetry_space_group_name_H-M   'P 1'
_cell_length_a   4.48683541
_cell_length_b   4.48683540
_cell_length_c   12.75611394
_cell_angle_alpha   100.12929042
_cell_angle_beta   100.12929042
_cell_angle_gamma   89.99999998
_symmetry_Int_Tables_number   1
_chemical_formula_structural   BaMnSb2
_chemical_formula_sum   'Ba2 Mn2 Sb4'
_cell_volume   248.73240826
_cell_formula_units_Z   2
loop_
 _symmetry_equiv_pos_site_id
 _symmetry_equiv_pos_as_xyz
  1  'x, y, z'
loop_
 _atom_site_type_symbol
 _atom_site_label
 _atom_site_symmetry_multiplicity
 _atom_site_fract_x
 _atom_site_fract_y
 _atom_site_fract_z
 _atom_site_occupancy
  Mn  Mn0  1  0.75000000  0.25000000  0.50000000  1
  Mn  Mn1  1  0.25000000  0.75000000  0.50000000  1
  Sb  Sb2  1  0.68532762  0.68532762  0.37065524  1
  Sb  Sb3  1  0.31467238  0.31467238  0.62934476  1
  Sb  Sb4  1  0.50000000  0.00000000  0.00000000  1
  Sb  Sb5  1  0.00000000  0.50000000  0.00000000  1
  Ba  Ba6  1  0.88525761  0.88525761  0.77051523  1
  Ba  Ba7  1  0.11474239  0.11474239  0.22948477  1
