# generated using pymatgen
data_LiCr2(PO4)3
_symmetry_space_group_name_H-M   'P 1'
_cell_length_a   10.13320930
_cell_length_b   10.13320930
_cell_length_c   10.13320930
_cell_angle_alpha   109.83518086
_cell_angle_beta   109.28954762
_cell_angle_gamma   109.28954763
_symmetry_Int_Tables_number   1
_chemical_formula_structural   LiCr2(PO4)3
_chemical_formula_sum   'Li4 Cr8 P12 O48'
_cell_volume   800.95108702
_cell_formula_units_Z   4
loop_
 _symmetry_equiv_pos_site_id
 _symmetry_equiv_pos_as_xyz
  1  'x, y, z'
loop_
 _atom_site_type_symbol
 _atom_site_label
 _atom_site_symmetry_multiplicity
 _atom_site_fract_x
 _atom_site_fract_y
 _atom_site_fract_z
 _atom_site_occupancy
  Li  Li0  1  0.24999968  0.87499996  0.62499982  1
  Li  Li1  1  0.74999976  0.12500049  0.37499992  1
  Li  Li2  1  0.75000011  0.62500054  0.87499982  1
  Li  Li3  1  0.25000039  0.37499991  0.12500027  1
  O  O4  1  0.20119533  0.58509000  0.19804652  1
  O  O5  1  0.90615827  0.11045314  0.60706619  1
  O  O6  1  0.79949806  0.50187595  0.39193600  1
  O  O7  1  0.59384147  0.20090777  0.20429476  1
  O  O8  1  0.88704440  0.38389447  0.58509036  1
  O  O9  1  0.99661329  0.70090817  0.10706663  1
  O  O10  1  0.89006043  0.39193646  0.09243868  1
  O  O11  1  0.88704422  0.00314933  0.30195443  1
  O  O12  1  0.11295628  0.99685112  0.69804665  1
  O  O13  1  0.10994007  0.60806399  0.90756241  1
  O  O14  1  0.00338722  0.29909228  0.89293446  1
  O  O15  1  0.09384184  0.70429472  0.70090802  1
  O  O16  1  0.09384223  0.88954732  0.39293390  1
  O  O17  1  0.11295550  0.61610476  0.41490912  1
  O  O18  1  0.20050244  0.49812450  0.60806409  1
  O  O19  1  0.40615903  0.79909268  0.79570533  1
  O  O20  1  0.29880476  0.30195350  0.91490956  1
  O  O21  1  0.39005966  0.59243787  0.89193603  1
  O  O22  1  0.29949777  0.90756141  0.29762226  1
  O  O23  1  0.00338639  0.20429467  0.11045259  1
  O  O24  1  0.20050235  0.20237854  0.59243871  1
  O  O25  1  0.90615866  0.29570573  0.29909207  1
  O  O26  1  0.38704388  0.80195390  0.50314899  1
  O  O27  1  0.29949818  0.89193651  0.00187573  1
  O  O28  1  0.29880438  0.49685107  0.38389520  1
  O  O29  1  0.10993966  0.00187555  0.20237754  1
  O  O30  1  0.38704484  0.08509082  0.88389568  1
  O  O31  1  0.50338741  0.61045319  0.70429448  1
  O  O32  1  0.50338741  0.39293416  0.79909211  1
  O  O33  1  0.39005954  0.29762152  0.49812369  1
  O  O34  1  0.20119471  0.11610471  0.00314874  1
  O  O35  1  0.59384145  0.89293334  0.38954692  1
  O  O36  1  0.40615845  0.10706589  0.61045255  1
  O  O37  1  0.79880412  0.88389452  0.99685038  1
  O  O38  1  0.60993930  0.70237771  0.50187543  1
  O  O39  1  0.49661309  0.60706629  0.20090798  1
  O  O40  1  0.49661310  0.38954726  0.29570561  1
  O  O41  1  0.61295566  0.91490963  0.11610440  1
  O  O42  1  0.89006023  0.99812368  0.79762193  1
  O  O43  1  0.70119507  0.50314938  0.61610453  1
  O  O44  1  0.70050232  0.10806394  0.99812436  1
  O  O45  1  0.61295557  0.19804656  0.49685075  1
  O  O46  1  0.70119513  0.69804573  0.08508992  1
  O  O47  1  0.79949815  0.79762192  0.40756237  1
  O  O48  1  0.99661306  0.79570578  0.88954715  1
  O  O49  1  0.70050212  0.09243782  0.70237821  1
  O  O50  1  0.60993917  0.40756136  0.10806409  1
  O  O51  1  0.79880456  0.41490923  0.80195395  1
  P  P52  1  0.37417992  0.62417943  0.75000038  1
  P  P53  1  0.37417933  0.24999941  0.62417917  1
  P  P54  1  0.24999981  0.62500054  0.37500017  1
  P  P55  1  0.62582057  0.74999982  0.37582030  1
  P  P56  1  0.62581997  0.37581980  0.25000009  1
  P  P57  1  0.74999963  0.37499991  0.62499956  1
  P  P58  1  0.75000024  0.87500031  0.12499981  1
  P  P59  1  0.87417987  0.12417938  0.75000012  1
  P  P60  1  0.12582001  0.74999947  0.87582031  1
  P  P61  1  0.12582002  0.87581985  0.24999935  1
  P  P62  1  0.25000026  0.12500014  0.87500027  1
  P  P63  1  0.87417988  0.24999976  0.12417917  1
  Cr  Cr64  1  0.50000043  0.00000017  0.00000032  1
  Cr  Cr65  1  0.49999985  0.50000040  0.00000054  1
  Cr  Cr66  1  0.50000030  0.00000000  0.49999964  1
  Cr  Cr67  1  0.49999972  0.50000023  0.49999987  1
  Cr  Cr68  1  0.00000000  0.00000000  0.00000000  1
  Cr  Cr69  1  0.00000048  0.50000023  0.00000058  1
  Cr  Cr70  1  0.99999987  0.99999983  0.50000032  1
  Cr  Cr71  1  0.00000035  0.50000005  0.49999990  1
