# generated using pymatgen
data_Pr5Cl12
_symmetry_space_group_name_H-M   'P 1'
_cell_length_a   8.18542343
_cell_length_b   8.18542298
_cell_length_c   23.35209325
_cell_angle_alpha   90.00000000
_cell_angle_beta   90.00000000
_cell_angle_gamma   120.00000176
_symmetry_Int_Tables_number   1
_chemical_formula_structural   Pr5Cl12
_chemical_formula_sum   'Pr15 Cl36'
_cell_volume   1354.99819647
_cell_formula_units_Z   3
loop_
 _symmetry_equiv_pos_site_id
 _symmetry_equiv_pos_as_xyz
  1  'x, y, z'
loop_
 _atom_site_type_symbol
 _atom_site_label
 _atom_site_symmetry_multiplicity
 _atom_site_fract_x
 _atom_site_fract_y
 _atom_site_fract_z
 _atom_site_occupancy
  Cl  Cl0  1  0.30274236  0.90201198  0.12172222  1
  Cl  Cl1  1  0.30307576  0.89850416  0.29245302  1
  Cl  Cl2  1  0.31362019  0.91117256  0.46327702  1
  Cl  Cl3  1  0.30651242  0.92056735  0.62766545  1
  Cl  Cl4  1  0.30378490  0.92528755  0.79051685  1
  Cl  Cl5  1  0.28685652  0.91710659  0.95239546  1
  Cl  Cl6  1  0.09798802  0.40073038  0.12172222  1
  Cl  Cl7  1  0.10149584  0.40457160  0.29245302  1
  Cl  Cl8  1  0.08882744  0.40244763  0.46327702  1
  Cl  Cl9  1  0.07943265  0.38594507  0.62766545  1
  Cl  Cl10  1  0.07471245  0.37849735  0.79051685  1
  Cl  Cl11  1  0.08289341  0.36974993  0.95239546  1
  Cl  Cl12  1  0.40244763  0.31362019  0.03672298  1
  Cl  Cl13  1  0.40457160  0.30307576  0.20754698  1
  Cl  Cl14  1  0.40073038  0.30274236  0.37827778  1
  Cl  Cl15  1  0.36974993  0.28685652  0.54760454  1
  Cl  Cl16  1  0.37849735  0.30378490  0.70948315  1
  Cl  Cl17  1  0.38594507  0.30651242  0.87233455  1
  Cl  Cl18  1  0.59926962  0.69725764  0.12172222  1
  Cl  Cl19  1  0.59542840  0.69692424  0.29245302  1
  Cl  Cl20  1  0.59755237  0.68637981  0.46327702  1
  Cl  Cl21  1  0.61405493  0.69348758  0.62766545  1
  Cl  Cl22  1  0.62150265  0.69621510  0.79051685  1
  Cl  Cl23  1  0.63025007  0.71314348  0.95239546  1
  Cl  Cl24  1  0.91117256  0.59755237  0.03672298  1
  Cl  Cl25  1  0.89850416  0.59542840  0.20754698  1
  Cl  Cl26  1  0.90201198  0.59926962  0.37827778  1
  Cl  Cl27  1  0.91710659  0.63025007  0.54760454  1
  Cl  Cl28  1  0.92528755  0.62150265  0.70948315  1
  Cl  Cl29  1  0.92056735  0.61405493  0.87233455  1
  Cl  Cl30  1  0.68637981  0.08882744  0.03672298  1
  Cl  Cl31  1  0.69692424  0.10149584  0.20754698  1
  Cl  Cl32  1  0.69725764  0.09798802  0.37827778  1
  Cl  Cl33  1  0.71314348  0.08289341  0.54760454  1
  Cl  Cl34  1  0.69621510  0.07471245  0.70948315  1
  Cl  Cl35  1  0.69348758  0.07943265  0.87233455  1
  Pr  Pr36  1  0.33333300  0.66666700  0.03737611  1
  Pr  Pr37  1  0.33333300  0.66666700  0.20629611  1
  Pr  Pr38  1  0.33333300  0.66666700  0.37723722  1
  Pr  Pr39  1  0.33333300  0.66666700  0.54495750  1
  Pr  Pr40  1  0.33333300  0.66666700  0.71196366  1
  Pr  Pr41  1  0.00000000  0.00000000  0.60150959  1
  Pr  Pr42  1  0.33333300  0.66666700  0.87289533  1
  Pr  Pr43  1  0.00000000  0.00000000  0.75000000  1
  Pr  Pr44  1  0.00000000  0.00000000  0.89849041  1
  Pr  Pr45  1  0.66666700  0.33333300  0.12276278  1
  Pr  Pr46  1  0.66666700  0.33333300  0.29370389  1
  Pr  Pr47  1  0.66666700  0.33333300  0.46262389  1
  Pr  Pr48  1  0.66666700  0.33333300  0.62710467  1
  Pr  Pr49  1  0.66666700  0.33333300  0.78803634  1
  Pr  Pr50  1  0.66666700  0.33333300  0.95504250  1
