# generated using pymatgen
data_Np(SiRu)2
_symmetry_space_group_name_H-M   'P 1'
_cell_length_a   4.12000277
_cell_length_b   4.12000276
_cell_length_c   5.59501353
_cell_angle_alpha   111.60373959
_cell_angle_beta   111.60373956
_cell_angle_gamma   90.00000001
_symmetry_Int_Tables_number   1
_chemical_formula_structural   Np(SiRu)2
_chemical_formula_sum   'Np1 Si2 Ru2'
_cell_volume   81.08190666
_cell_formula_units_Z   1
loop_
 _symmetry_equiv_pos_site_id
 _symmetry_equiv_pos_as_xyz
  1  'x, y, z'
loop_
 _atom_site_type_symbol
 _atom_site_label
 _atom_site_symmetry_multiplicity
 _atom_site_fract_x
 _atom_site_fract_y
 _atom_site_fract_z
 _atom_site_occupancy
  Si  Si0  1  0.62448558  0.62448558  0.24897116  1
  Si  Si1  1  0.37551442  0.37551442  0.75102884  1
  Ru  Ru2  1  0.75000000  0.25000000  0.50000000  1
  Ru  Ru3  1  0.25000000  0.75000000  0.50000000  1
  Np  Np4  1  0.00000000  0.00000000  0.00000000  1
