# generated using pymatgen
data_Gd2Zr2O7
_symmetry_space_group_name_H-M   'P 1'
_cell_length_a   7.58168041
_cell_length_b   15.06154930
_cell_length_c   13.02694947
_cell_angle_alpha   30.13000669
_cell_angle_beta   54.40868733
_cell_angle_gamma   59.77613794
_symmetry_Int_Tables_number   1
_chemical_formula_structural   Gd2Zr2O7
_chemical_formula_sum   'Gd8 Zr8 O28'
_cell_volume   607.21391831
_cell_formula_units_Z   4
loop_
 _symmetry_equiv_pos_site_id
 _symmetry_equiv_pos_as_xyz
  1  'x, y, z'
loop_
 _atom_site_type_symbol
 _atom_site_label
 _atom_site_symmetry_multiplicity
 _atom_site_fract_x
 _atom_site_fract_y
 _atom_site_fract_z
 _atom_site_occupancy
  Gd  Gd0  1  0.12500000  0.25000000  0.12500000  1
  Gd  Gd1  1  0.12500000  0.25000000  0.62500000  1
  Gd  Gd2  1  0.12499165  0.48933702  0.63566473  1
  Gd  Gd3  1  0.62500000  0.75000000  0.12500000  1
  Gd  Gd4  1  0.62500485  0.48933702  0.63566473  1
  Gd  Gd5  1  0.12500835  0.01066298  0.61433527  1
  Gd  Gd6  1  0.62500000  0.75000000  0.62500000  1
  Gd  Gd7  1  0.62499515  0.01066298  0.61433527  1
  O  O8  1  0.99685845  0.22674227  0.02553423  1
  O  O9  1  0.25314155  0.27325773  0.22446577  1
  O  O10  1  0.49858855  0.22674227  0.02553423  1
  O  O11  1  0.03325948  0.69885183  0.05520869  1
  O  O12  1  0.99687034  0.27326012  0.47901136  1
  O  O13  1  0.23202525  0.99138098  0.77659377  1
  O  O14  1  0.45703156  0.50295074  0.04001770  1
  O  O15  1  0.01797475  0.50861902  0.47340623  1
  O  O16  1  0.51428656  0.00909590  0.47661755  1
  O  O17  1  0.49858669  0.27326012  0.47901136  1
  O  O18  1  0.25312966  0.22673988  0.77098864  1
  O  O19  1  0.45861950  0.69885183  0.05520869  1
  O  O20  1  0.21674052  0.80114817  0.19479131  1
  O  O21  1  0.75141145  0.27325773  0.22446577  1
  O  O22  1  0.03325691  0.80112945  0.45292757  1
  O  O23  1  0.79298685  0.50295649  0.20405667  1
  O  O24  1  0.45701315  0.99704351  0.04594333  1
  O  O25  1  0.23200830  0.50862066  0.75937105  1
  O  O26  1  0.01799170  0.99137934  0.49062895  1
  O  O27  1  0.51428652  0.49090122  0.49481227  1
  O  O28  1  0.45862905  0.80112945  0.45292757  1
  O  O29  1  0.21674309  0.69887055  0.79707243  1
  O  O30  1  0.75141331  0.22673988  0.77098864  1
  O  O31  1  0.79138050  0.80114817  0.19479131  1
  O  O32  1  0.79296844  0.99704926  0.20998230  1
  O  O33  1  0.73571344  0.49090410  0.77338245  1
  O  O34  1  0.79137095  0.69887055  0.79707243  1
  O  O35  1  0.73571348  0.00909878  0.75518773  1
  Zr  Zr36  1  0.12501140  0.00381283  0.12117728  1
  Zr  Zr37  1  0.12498860  0.49618717  0.12882272  1
  Zr  Zr38  1  0.62500838  0.00381283  0.12117728  1
  Zr  Zr39  1  0.62500000  0.25000000  0.12500000  1
  Zr  Zr40  1  0.12500000  0.75000000  0.12500000  1
  Zr  Zr41  1  0.62499162  0.49618717  0.12882272  1
  Zr  Zr42  1  0.62500000  0.25000000  0.62500000  1
  Zr  Zr43  1  0.12500000  0.75000000  0.62500000  1
