# generated using pymatgen
data_VCl3O
_symmetry_space_group_name_H-M   'P 1'
_cell_length_a   5.39051195
_cell_length_b   9.82371285
_cell_length_c   11.98541379
_cell_angle_alpha   90.00000000
_cell_angle_beta   90.00000000
_cell_angle_gamma   90.00000000
_symmetry_Int_Tables_number   1
_chemical_formula_structural   VCl3O
_chemical_formula_sum   'V4 Cl12 O4'
_cell_volume   634.68568770
_cell_formula_units_Z   4
loop_
 _symmetry_equiv_pos_site_id
 _symmetry_equiv_pos_as_xyz
  1  'x, y, z'
loop_
 _atom_site_type_symbol
 _atom_site_label
 _atom_site_symmetry_multiplicity
 _atom_site_fract_x
 _atom_site_fract_y
 _atom_site_fract_z
 _atom_site_occupancy
  O  O0  1  0.65705163  0.75000000  0.55003355  1
  O  O1  1  0.15705163  0.75000000  0.94996645  1
  O  O2  1  0.34294837  0.25000000  0.44996645  1
  O  O3  1  0.84294837  0.25000000  0.05003355  1
  Cl  Cl4  1  0.25172217  0.25000000  0.87246871  1
  Cl  Cl5  1  0.75172217  0.25000000  0.62753129  1
  Cl  Cl6  1  0.74827783  0.75000000  0.12753129  1
  Cl  Cl7  1  0.24827783  0.75000000  0.37246871  1
  Cl  Cl8  1  0.26918953  0.06855124  0.12939394  1
  Cl  Cl9  1  0.76918953  0.43144876  0.37060606  1
  Cl  Cl10  1  0.73081047  0.56855124  0.87060606  1
  Cl  Cl11  1  0.23081047  0.93144876  0.62939394  1
  Cl  Cl12  1  0.73081047  0.93144876  0.87060606  1
  Cl  Cl13  1  0.23081047  0.56855124  0.62939394  1
  Cl  Cl14  1  0.26918953  0.43144876  0.12939394  1
  Cl  Cl15  1  0.76918953  0.06855124  0.37060606  1
  V  V16  1  0.35991074  0.75000000  0.54569651  1
  V  V17  1  0.85991074  0.75000000  0.95430349  1
  V  V18  1  0.64008926  0.25000000  0.45430349  1
  V  V19  1  0.14008926  0.25000000  0.04569651  1
