# generated using pymatgen
data_Ti3Zn2O8
_symmetry_space_group_name_H-M   'P 1'
_cell_length_a   5.92000854
_cell_length_b   6.01333208
_cell_length_c   6.01333207
_cell_angle_alpha   60.00000298
_cell_angle_beta   59.47714831
_cell_angle_gamma   59.47714831
_symmetry_Int_Tables_number   1
_chemical_formula_structural   Ti3Zn2O8
_chemical_formula_sum   'Ti3 Zn2 O8'
_cell_volume   150.16196440
_cell_formula_units_Z   1
loop_
 _symmetry_equiv_pos_site_id
 _symmetry_equiv_pos_as_xyz
  1  'x, y, z'
loop_
 _atom_site_type_symbol
 _atom_site_label
 _atom_site_symmetry_multiplicity
 _atom_site_fract_x
 _atom_site_fract_y
 _atom_site_fract_z
 _atom_site_occupancy
  O  O0  1  0.41736994  0.37251300  0.37251300  1
  O  O1  1  0.41736994  0.37251300  0.83760405  1
  O  O2  1  0.41736994  0.83760405  0.37251300  1
  O  O3  1  0.85464566  0.38178478  0.38178478  1
  O  O4  1  0.39535434  0.86821522  0.86821522  1
  O  O5  1  0.83263006  0.87748700  0.41239595  1
  O  O6  1  0.83263006  0.41239595  0.87748700  1
  O  O7  1  0.83263006  0.87748700  0.87748700  1
  Ti  Ti8  1  0.62500000  0.12500000  0.62500000  1
  Ti  Ti9  1  0.62500000  0.62500000  0.12500000  1
  Ti  Ti10  1  0.62500000  0.62500000  0.62500000  1
  Zn  Zn11  1  0.97168619  0.00943794  0.00943794  1
  Zn  Zn12  1  0.27831381  0.24056206  0.24056206  1
