# generated using pymatgen
data_La(SiPt)2
_symmetry_space_group_name_H-M   'P 1'
_cell_length_a   4.31211706
_cell_length_b   4.31211705
_cell_length_c   5.84657248
_cell_angle_alpha   111.63996967
_cell_angle_beta   111.63996963
_cell_angle_gamma   89.99999996
_symmetry_Int_Tables_number   1
_chemical_formula_structural   La(SiPt)2
_chemical_formula_sum   'La1 Si2 Pt2'
_cell_volume   92.75812026
_cell_formula_units_Z   1
loop_
 _symmetry_equiv_pos_site_id
 _symmetry_equiv_pos_as_xyz
  1  'x, y, z'
loop_
 _atom_site_type_symbol
 _atom_site_label
 _atom_site_symmetry_multiplicity
 _atom_site_fract_x
 _atom_site_fract_y
 _atom_site_fract_z
 _atom_site_occupancy
  Si  Si0  1  0.62297097  0.62297097  0.24594193  1
  Si  Si1  1  0.37702903  0.37702903  0.75405807  1
  La  La2  1  0.00000000  0.00000000  0.00000000  1
  Pt  Pt3  1  0.25000000  0.75000000  0.50000000  1
  Pt  Pt4  1  0.75000000  0.25000000  0.50000000  1
