# generated using pymatgen
data_Ag2S
_symmetry_space_group_name_H-M   'P 1'
_cell_length_a   4.31567222
_cell_length_b   4.31567273
_cell_length_c   8.34702036
_cell_angle_alpha   109.22646600
_cell_angle_beta   109.22646091
_cell_angle_gamma   111.29005411
_symmetry_Int_Tables_number   1
_chemical_formula_structural   Ag2S
_chemical_formula_sum   'Ag4 S2'
_cell_volume   117.63341045
_cell_formula_units_Z   2
loop_
 _symmetry_equiv_pos_site_id
 _symmetry_equiv_pos_as_xyz
  1  'x, y, z'
loop_
 _atom_site_type_symbol
 _atom_site_label
 _atom_site_symmetry_multiplicity
 _atom_site_fract_x
 _atom_site_fract_y
 _atom_site_fract_z
 _atom_site_occupancy
  Ag  Ag0  1  0.20581031  0.52128836  0.36354933  1
  Ag  Ag1  1  0.52128836  0.20581031  0.86354933  1
  Ag  Ag2  1  0.47871164  0.79418969  0.13645067  1
  Ag  Ag3  1  0.79418969  0.47871164  0.63645067  1
  S  S4  1  0.00000000  0.00000000  0.50000000  1
  S  S5  1  0.00000000  0.00000000  0.00000000  1
