# generated using pymatgen
data_Fe2CuO4
_symmetry_space_group_name_H-M   'P 1'
_cell_length_a   6.05186439
_cell_length_b   6.05186307
_cell_length_c   17.72887614
_cell_angle_alpha   60.88530926
_cell_angle_beta   60.88531112
_cell_angle_gamma   59.09715057
_symmetry_Int_Tables_number   1
_chemical_formula_structural   Fe2CuO4
_chemical_formula_sum   'Fe12 Cu6 O24'
_cell_volume   461.85090383
_cell_formula_units_Z   6
loop_
 _symmetry_equiv_pos_site_id
 _symmetry_equiv_pos_as_xyz
  1  'x, y, z'
loop_
 _atom_site_type_symbol
 _atom_site_label
 _atom_site_symmetry_multiplicity
 _atom_site_fract_x
 _atom_site_fract_y
 _atom_site_fract_z
 _atom_site_occupancy
  Cu  Cu0  1  0.24770710  0.24770782  0.08430427  1
  Cu  Cu1  1  0.62571262  0.62571197  0.20955606  1
  Cu  Cu2  1  0.62822492  0.62822512  0.37414415  1
  Cu  Cu3  1  0.62538990  0.62539037  0.54126411  1
  Cu  Cu4  1  0.62260353  0.62260345  0.70775556  1
  Cu  Cu5  1  0.62159183  0.62159143  0.87411394  1
  Fe  Fe6  1  0.00249945  0.00249939  0.00002885  1
  Fe  Fe7  1  0.13022725  0.63137298  0.20854749  1
  Fe  Fe8  1  0.63137298  0.13022707  0.20854737  1
  Fe  Fe9  1  0.62166811  0.62166824  0.04537758  1
  Fe  Fe10  1  0.23621491  0.23621465  0.42116292  1
  Fe  Fe11  1  0.12522730  0.62597131  0.54088703  1
  Fe  Fe12  1  0.62597142  0.12522781  0.54088686  1
  Fe  Fe13  1  0.23497981  0.23498014  0.75209861  1
  Fe  Fe14  1  0.01744861  0.01744844  0.32777890  1
  Fe  Fe15  1  0.12548675  0.61614092  0.87480573  1
  Fe  Fe16  1  0.61614109  0.12548660  0.87480571  1
  Fe  Fe17  1  0.01120110  0.01120101  0.66387002  1
  O  O18  1  0.38889370  0.38889361  0.12849314  1
  O  O19  1  0.38359026  0.84359067  0.12964464  1
  O  O20  1  0.37280403  0.37280399  0.29042223  1
  O  O21  1  0.84359030  0.38359021  0.12964465  1
  O  O22  1  0.40890564  0.87640433  0.28814560  1
  O  O23  1  0.35993273  0.35993277  0.46927942  1
  O  O24  1  0.87640459  0.40890543  0.28814569  1
  O  O25  1  0.87720806  0.87720799  0.12974381  1
  O  O26  1  0.38396145  0.84213319  0.46168064  1
  O  O27  1  0.36564881  0.36564900  0.62169850  1
  O  O28  1  0.84213347  0.38396122  0.46168057  1
  O  O29  1  0.89008362  0.89008370  0.28248438  1
  O  O30  1  0.40590932  0.86692698  0.62159622  1
  O  O31  1  0.35622080  0.35622088  0.80173129  1
  O  O32  1  0.86692662  0.40590951  0.62159628  1
  O  O33  1  0.88685829  0.88685861  0.45989762  1
  O  O34  1  0.37210439  0.84397373  0.79334172  1
  O  O35  1  0.38247172  0.38247148  0.94791098  1
  O  O36  1  0.84397359  0.37210421  0.79334179  1
  O  O37  1  0.89067163  0.89067152  0.61374348  1
  O  O38  1  0.39650529  0.86907816  0.95660846  1
  O  O39  1  0.87079049  0.87079054  0.79649461  1
  O  O40  1  0.86907813  0.39650536  0.95660845  1
  O  O41  1  0.86566438  0.86566422  0.95613066  1
