# generated using pymatgen
data_Li(PrGe3)2
_symmetry_space_group_name_H-M   'P 1'
_cell_length_a   4.14830904
_cell_length_b   4.29788135
_cell_length_c   11.01981509
_cell_angle_alpha   90.00000000
_cell_angle_beta   100.84894967
_cell_angle_gamma   90.00000000
_symmetry_Int_Tables_number   1
_chemical_formula_structural   Li(PrGe3)2
_chemical_formula_sum   'Li1 Pr2 Ge6'
_cell_volume   192.96004716
_cell_formula_units_Z   1
loop_
 _symmetry_equiv_pos_site_id
 _symmetry_equiv_pos_as_xyz
  1  'x, y, z'
loop_
 _atom_site_type_symbol
 _atom_site_label
 _atom_site_symmetry_multiplicity
 _atom_site_fract_x
 _atom_site_fract_y
 _atom_site_fract_z
 _atom_site_occupancy
  Li  Li0  1  0.00000000  0.00000000  0.00000000  1
  Ge  Ge1  1  0.28718487  0.50000000  0.57436974  1
  Ge  Ge2  1  0.71281513  0.50000000  0.42563026  1
  Ge  Ge3  1  0.43881593  0.00000000  0.87763186  1
  Ge  Ge4  1  0.93870363  0.50000000  0.87740726  1
  Ge  Ge5  1  0.06129637  0.50000000  0.12259274  1
  Ge  Ge6  1  0.56118407  0.00000000  0.12236814  1
  Pr  Pr7  1  0.83364360  0.00000000  0.66728721  1
  Pr  Pr8  1  0.16635640  0.00000000  0.33271279  1
