# generated using pymatgen
data_Ni(PO3)4
_symmetry_space_group_name_H-M   'P 1'
_cell_length_a   12.91461849
_cell_length_b   8.37914061
_cell_length_c   8.98781242
_cell_angle_alpha   90.00000000
_cell_angle_beta   90.00000000
_cell_angle_gamma   90.00000000
_symmetry_Int_Tables_number   1
_chemical_formula_structural   Ni(PO3)4
_chemical_formula_sum   'Ni4 P16 O48'
_cell_volume   972.60177875
_cell_formula_units_Z   4
loop_
 _symmetry_equiv_pos_site_id
 _symmetry_equiv_pos_as_xyz
  1  'x, y, z'
loop_
 _atom_site_type_symbol
 _atom_site_label
 _atom_site_symmetry_multiplicity
 _atom_site_fract_x
 _atom_site_fract_y
 _atom_site_fract_z
 _atom_site_occupancy
  Ni  Ni0  1  0.00000000  0.36487301  0.75000000  1
  Ni  Ni1  1  0.00000000  0.63512699  0.25000000  1
  Ni  Ni2  1  0.50000000  0.13512699  0.25000000  1
  Ni  Ni3  1  0.50000000  0.86487301  0.75000000  1
  O  O4  1  0.05853254  0.19567327  0.61571737  1
  O  O5  1  0.05853254  0.80432673  0.11571737  1
  O  O6  1  0.06519982  0.46049014  0.12799114  1
  O  O7  1  0.06519982  0.53950986  0.62799114  1
  O  O8  1  0.11845970  0.10017237  0.36834898  1
  O  O9  1  0.11845970  0.89982763  0.86834898  1
  O  O10  1  0.12886443  0.35922644  0.87184731  1
  O  O11  1  0.12886443  0.64077356  0.37184731  1
  O  O12  1  0.18658624  0.36882871  0.46700131  1
  O  O13  1  0.18658624  0.63117129  0.96700131  1
  O  O14  1  0.24835174  0.11907575  0.58579866  1
  O  O15  1  0.24835174  0.88092425  0.08579866  1
  O  O16  1  0.25164826  0.38092425  0.08579866  1
  O  O17  1  0.25164826  0.61907575  0.58579866  1
  O  O18  1  0.31341376  0.13117129  0.96700131  1
  O  O19  1  0.31341376  0.86882871  0.46700131  1
  O  O20  1  0.37113557  0.14077356  0.37184731  1
  O  O21  1  0.37113557  0.85922644  0.87184731  1
  O  O22  1  0.38154030  0.39982763  0.86834898  1
  O  O23  1  0.38154030  0.60017237  0.36834898  1
  O  O24  1  0.43480018  0.03950986  0.62799114  1
  O  O25  1  0.43480018  0.96049014  0.12799114  1
  O  O26  1  0.44146746  0.30432673  0.11571737  1
  O  O27  1  0.44146746  0.69567327  0.61571737  1
  O  O28  1  0.55853254  0.30432673  0.38428263  1
  O  O29  1  0.55853254  0.69567327  0.88428263  1
  O  O30  1  0.56519982  0.03950986  0.87200886  1
  O  O31  1  0.56519982  0.96049014  0.37200886  1
  O  O32  1  0.61845970  0.39982763  0.63165102  1
  O  O33  1  0.61845970  0.60017237  0.13165102  1
  O  O34  1  0.62886443  0.14077356  0.12815269  1
  O  O35  1  0.62886443  0.85922644  0.62815269  1
  O  O36  1  0.68658624  0.13117129  0.53299869  1
  O  O37  1  0.68658624  0.86882871  0.03299869  1
  O  O38  1  0.74835174  0.38092425  0.41420134  1
  O  O39  1  0.74835174  0.61907575  0.91420134  1
  O  O40  1  0.75164826  0.11907575  0.91420134  1
  O  O41  1  0.75164826  0.88092425  0.41420134  1
  O  O42  1  0.81341376  0.36882871  0.03299869  1
  O  O43  1  0.81341376  0.63117129  0.53299869  1
  O  O44  1  0.87113557  0.35922644  0.62815269  1
  O  O45  1  0.87113557  0.64077356  0.12815269  1
  O  O46  1  0.88154030  0.10017237  0.13165102  1
  O  O47  1  0.88154030  0.89982763  0.63165102  1
  O  O48  1  0.93480018  0.46049014  0.37200886  1
  O  O49  1  0.93480018  0.53950986  0.87200886  1
  O  O50  1  0.94146746  0.19567327  0.88428263  1
  O  O51  1  0.94146746  0.80432673  0.38428263  1
  P  P52  1  0.14730607  0.19254019  0.50578920  1
  P  P53  1  0.14730607  0.80745981  0.00578920  1
  P  P54  1  0.14842515  0.45422219  0.01188919  1
  P  P55  1  0.14842515  0.54577781  0.51188919  1
  P  P56  1  0.35157485  0.04577781  0.51188919  1
  P  P57  1  0.35157485  0.95422219  0.01188919  1
  P  P58  1  0.35269393  0.30745981  0.00578920  1
  P  P59  1  0.35269393  0.69254019  0.50578920  1
  P  P60  1  0.64730607  0.30745981  0.49421080  1
  P  P61  1  0.64730607  0.69254019  0.99421080  1
  P  P62  1  0.64842515  0.04577781  0.98811081  1
  P  P63  1  0.64842515  0.95422219  0.48811081  1
  P  P64  1  0.85157485  0.45422219  0.48811081  1
  P  P65  1  0.85157485  0.54577781  0.98811081  1
  P  P66  1  0.85269393  0.19254019  0.99421080  1
  P  P67  1  0.85269393  0.80745981  0.49421080  1
