# generated using pymatgen
data_MoCl4O
_symmetry_space_group_name_H-M   'P 1'
_cell_length_a   6.68335803
_cell_length_b   7.59662306
_cell_length_c   7.95420362
_cell_angle_alpha   103.27532204
_cell_angle_beta   94.72449076
_cell_angle_gamma   107.71859951
_symmetry_Int_Tables_number   1
_chemical_formula_structural   MoCl4O
_chemical_formula_sum   'Mo2 Cl8 O2'
_cell_volume   369.32259072
_cell_formula_units_Z   2
loop_
 _symmetry_equiv_pos_site_id
 _symmetry_equiv_pos_as_xyz
  1  'x, y, z'
loop_
 _atom_site_type_symbol
 _atom_site_label
 _atom_site_symmetry_multiplicity
 _atom_site_fract_x
 _atom_site_fract_y
 _atom_site_fract_z
 _atom_site_occupancy
  O  O0  1  0.98882973  0.73758325  0.52778068  1
  O  O1  1  0.01117027  0.26241675  0.47221932  1
  Cl  Cl2  1  0.84311671  0.31942496  0.11640283  1
  Cl  Cl3  1  0.15688329  0.68057504  0.88359717  1
  Cl  Cl4  1  0.65762652  0.51358025  0.73061500  1
  Cl  Cl5  1  0.34237348  0.48641975  0.26938500  1
  Cl  Cl6  1  0.67597356  0.93092919  0.69840670  1
  Cl  Cl7  1  0.32402644  0.06907081  0.30159330  1
  Cl  Cl8  1  0.17189759  0.09803239  0.85835873  1
  Cl  Cl9  1  0.82810241  0.90196761  0.14164127  1
  Mo  Mo10  1  0.07044530  0.21306006  0.26816579  1
  Mo  Mo11  1  0.92955470  0.78693994  0.73183421  1
