# generated using pymatgen
data_Li3Cr2P5O18
_symmetry_space_group_name_H-M   'P 1'
_cell_length_a   9.44628840
_cell_length_b   10.51350306
_cell_length_c   6.46733939
_cell_angle_alpha   92.64365359
_cell_angle_beta   91.48763535
_cell_angle_gamma   95.97491814
_symmetry_Int_Tables_number   1
_chemical_formula_structural   Li3Cr2P5O18
_chemical_formula_sum   'Li6 Cr4 P10 O36'
_cell_volume   637.81957427
_cell_formula_units_Z   2
loop_
 _symmetry_equiv_pos_site_id
 _symmetry_equiv_pos_as_xyz
  1  'x, y, z'
loop_
 _atom_site_type_symbol
 _atom_site_label
 _atom_site_symmetry_multiplicity
 _atom_site_fract_x
 _atom_site_fract_y
 _atom_site_fract_z
 _atom_site_occupancy
  Li  Li0  1  0.05842463  0.86839365  0.00593999  1
  Li  Li1  1  0.94160595  0.13166719  0.99374461  1
  Li  Li2  1  0.78053727  0.33585483  0.86785680  1
  Li  Li3  1  0.72573036  0.39905054  0.45426959  1
  Li  Li4  1  0.27442015  0.60107777  0.54546629  1
  Li  Li5  1  0.21947042  0.66409163  0.13217712  1
  O  O6  1  0.23783820  0.03777278  0.36868445  1
  O  O7  1  0.94341326  0.68707047  0.57548232  1
  O  O8  1  0.92150611  0.10224432  0.33603746  1
  O  O9  1  0.97800039  0.31700408  0.03778400  1
  O  O10  1  0.02209453  0.68294416  0.96219120  1
  O  O11  1  0.07843348  0.89771317  0.66393876  1
  O  O12  1  0.05659260  0.31286238  0.42447990  1
  O  O13  1  0.04993445  0.15007734  0.68966204  1
  O  O14  1  0.10239892  0.52835780  0.71280800  1
  O  O15  1  0.17306502  0.74161732  0.39633267  1
  O  O16  1  0.16866774  0.48201173  0.21885675  1
  O  O17  1  0.18035082  0.03761887  0.98662283  1
  O  O18  1  0.25137765  0.24481084  0.18919782  1
  O  O19  1  0.32176946  0.80317497  0.99602902  1
  O  O20  1  0.56878071  0.90561732  0.90099777  1
  O  O21  1  0.36463199  0.91930582  0.66729684  1
  O  O22  1  0.36005754  0.41928583  0.93066934  1
  O  O23  1  0.34522784  0.42047551  0.53854277  1
  O  O24  1  0.42736329  0.60108364  0.27188475  1
  O  O25  1  0.89771761  0.47166819  0.28742399  1
  O  O26  1  0.45999368  0.69673679  0.71993731  1
  O  O27  1  0.43123302  0.09432937  0.09910355  1
  O  O28  1  0.94995332  0.84987796  0.31033656  1
  O  O29  1  0.54003198  0.30326882  0.28007435  1
  O  O30  1  0.63282443  0.78990637  0.28978677  1
  O  O31  1  0.57260966  0.39896263  0.72820958  1
  O  O32  1  0.65476308  0.57954861  0.46152277  1
  O  O33  1  0.63993959  0.58078897  0.06940871  1
  O  O34  1  0.63532549  0.08066254  0.33279554  1
  O  O35  1  0.76210324  0.96225761  0.63129607  1
  O  O36  1  0.67827384  0.19674981  0.00404047  1
  O  O37  1  0.74869023  0.75520537  0.81076814  1
  O  O38  1  0.81967296  0.96238907  0.01334426  1
  O  O39  1  0.83132348  0.51795850  0.78121015  1
  O  O40  1  0.82687960  0.25839004  0.60355656  1
  O  O41  1  0.36713999  0.21012655  0.71029890  1
  P  P42  1  0.59141448  0.64530587  0.27262364  1
  P  P43  1  0.58017535  0.17388822  0.18169540  1
  P  P44  1  0.72764964  0.89730475  0.83002630  1
  P  P45  1  0.97572764  0.60070703  0.76632748  1
  P  P46  1  0.04517807  0.79946158  0.47864243  1
  P  P47  1  0.02426271  0.39925580  0.23363695  1
  P  P48  1  0.27234784  0.10270507  0.16996381  1
  P  P49  1  0.41983308  0.82609966  0.81836235  1
  P  P50  1  0.40855998  0.35472511  0.72745896  1
  P  P51  1  0.95477860  0.20052712  0.52129012  1
  Cr  Cr52  1  0.77711950  0.95074628  0.32425618  1
  Cr  Cr53  1  0.64048096  0.59363842  0.76755273  1
  Cr  Cr54  1  0.35950660  0.40638677  0.23248853  1
  Cr  Cr55  1  0.22280260  0.04923114  0.67560933  1
