# generated using pymatgen
data_Cu(BiO2)2
_symmetry_space_group_name_H-M   'P 1'
_cell_length_a   5.62728465
_cell_length_b   6.88666200
_cell_length_c   6.88666240
_cell_angle_alpha   80.39095024
_cell_angle_beta   65.88533884
_cell_angle_gamma   65.88534134
_symmetry_Int_Tables_number   1
_chemical_formula_structural   Cu(BiO2)2
_chemical_formula_sum   'Cu2 Bi4 O8'
_cell_volume   222.33138943
_cell_formula_units_Z   2
loop_
 _symmetry_equiv_pos_site_id
 _symmetry_equiv_pos_as_xyz
  1  'x, y, z'
loop_
 _atom_site_type_symbol
 _atom_site_label
 _atom_site_symmetry_multiplicity
 _atom_site_fract_x
 _atom_site_fract_y
 _atom_site_fract_z
 _atom_site_occupancy
  Cu  Cu0  1  0.68028249  0.00000000  1.00000000  1
  Cu  Cu1  1  0.17979581  0.00000000  1.00000000  1
  Bi  Bi2  1  0.65471078  0.50044146  0.15883414  1
  Bi  Bi3  1  0.81354492  0.84116586  0.50044146  1
  Bi  Bi4  1  0.15515224  0.15883414  0.49955854  1
  Bi  Bi5  1  0.31398638  0.49955854  0.84116586  1
  O  O6  1  0.76760815  0.08855147  0.70370201  1
  O  O7  1  0.35602691  0.91198344  0.70340666  1
  O  O8  1  0.55986163  0.91144853  0.29629799  1
  O  O9  1  0.47131016  0.29629799  0.08855147  1
  O  O10  1  0.05943356  0.29659334  0.91198344  1
  O  O11  1  0.97141700  0.08801656  0.29659334  1
  O  O12  1  0.85615962  0.70370201  0.91144853  1
  O  O13  1  0.26801035  0.70340666  0.08801656  1
