# generated using pymatgen
data_PtCI2O
_symmetry_space_group_name_H-M   'P 1'
_cell_length_a   7.36521658
_cell_length_b   7.36521723
_cell_length_c   13.50663081
_cell_angle_alpha   102.75110502
_cell_angle_beta   103.96735304
_cell_angle_gamma   98.77819466
_symmetry_Int_Tables_number   1
_chemical_formula_structural   PtCI2O
_chemical_formula_sum   'Pt4 C4 I8 O4'
_cell_volume   676.88299038
_cell_formula_units_Z   4
loop_
 _symmetry_equiv_pos_site_id
 _symmetry_equiv_pos_as_xyz
  1  'x, y, z'
loop_
 _atom_site_type_symbol
 _atom_site_label
 _atom_site_symmetry_multiplicity
 _atom_site_fract_x
 _atom_site_fract_y
 _atom_site_fract_z
 _atom_site_occupancy
  Pt  Pt0  1  0.82462989  0.09295800  0.07920393  1
  Pt  Pt1  1  0.17537011  0.90704200  0.92079607  1
  Pt  Pt2  1  0.51375407  0.74542596  0.42079607  1
  Pt  Pt3  1  0.48624593  0.25457404  0.57920393  1
  C  C4  1  0.69449308  0.59595432  0.41244599  1
  C  C5  1  0.68350834  0.28204710  0.08755401  1
  C  C6  1  0.31649166  0.71795290  0.91244599  1
  C  C7  1  0.30550692  0.40404568  0.58755401  1
  I  I8  1  0.24746042  0.46539499  0.27895895  1
  I  I9  1  0.25134049  0.95609160  0.42909126  1
  I  I10  1  0.68643604  0.96850148  0.22104105  1
  I  I11  1  0.02700034  0.82224924  0.07090874  1
  I  I12  1  0.75253958  0.53460501  0.72104105  1
  I  I13  1  0.31356396  0.03149852  0.77895895  1
  I  I14  1  0.97299966  0.17775076  0.92909126  1
  I  I15  1  0.74865951  0.04390840  0.57090874  1
  O  O16  1  0.40313866  0.59995773  0.90609180  1
  O  O17  1  0.19386593  0.49704685  0.59390820  1
  O  O18  1  0.59686134  0.40004227  0.09390820  1
  O  O19  1  0.80613407  0.50295315  0.40609180  1
