# generated using pymatgen
data_CuH14C3NCl3O2
_symmetry_space_group_name_H-M   'P 1'
_cell_length_a   7.67800979
_cell_length_b   7.92857775
_cell_length_c   16.96909871
_cell_angle_alpha   90.00000000
_cell_angle_beta   92.68371912
_cell_angle_gamma   90.00000000
_symmetry_Int_Tables_number   1
_chemical_formula_structural   CuH14C3NCl3O2
_chemical_formula_sum   'Cu4 H56 C12 N4 Cl12 O8'
_cell_volume   1031.87274090
_cell_formula_units_Z   4
loop_
 _symmetry_equiv_pos_site_id
 _symmetry_equiv_pos_as_xyz
  1  'x, y, z'
loop_
 _atom_site_type_symbol
 _atom_site_label
 _atom_site_symmetry_multiplicity
 _atom_site_fract_x
 _atom_site_fract_y
 _atom_site_fract_z
 _atom_site_occupancy
  Cu  Cu0  1  0.00000000  0.00000000  0.00000000  1
  Cu  Cu1  1  0.50000000  0.50000000  0.50000000  1
  Cu  Cu2  1  0.50000000  0.00000000  0.00000000  1
  Cu  Cu3  1  0.00000000  0.50000000  0.50000000  1
  H  H4  1  0.46864201  0.20243443  0.69455324  1
  H  H5  1  0.10170266  0.60517437  0.26794775  1
  H  H6  1  0.58421641  0.11894023  0.23559099  1
  H  H7  1  0.41578359  0.61894023  0.26440901  1
  H  H8  1  0.62660597  0.98149263  0.63148799  1
  H  H9  1  0.59686465  0.18781680  0.48552437  1
  H  H10  1  0.40270823  0.68155254  0.71406631  1
  H  H11  1  0.75882541  0.94686557  0.72011399  1
  H  H12  1  0.09973653  0.68898487  0.01883694  1
  H  H13  1  0.98333983  0.77428887  0.31050631  1
  H  H14  1  0.01666017  0.27428887  0.18949369  1
  H  H15  1  0.59686465  0.31218320  0.98552437  1
  H  H16  1  0.91592176  0.19587643  0.78293238  1
  H  H17  1  0.24117459  0.05313443  0.27988601  1
  H  H18  1  0.75882541  0.55313443  0.22011399  1
  H  H19  1  0.59729177  0.31844746  0.28593369  1
  H  H20  1  0.56681733  0.69020125  0.96114863  1
  H  H21  1  0.40270823  0.81844746  0.21406631  1
  H  H22  1  0.46864201  0.29756557  0.19455324  1
  H  H23  1  0.43318267  0.19020125  0.53885137  1
  H  H24  1  0.40313535  0.68781680  0.01447563  1
  H  H25  1  0.90026347  0.31101513  0.98116306  1
  H  H26  1  0.72881414  0.23408874  0.12977758  1
  H  H27  1  0.09973653  0.81101513  0.51883694  1
  H  H28  1  0.58421641  0.38105977  0.73559099  1
  H  H29  1  0.89829734  0.10517437  0.23205225  1
  H  H30  1  0.07073462  0.19151645  0.53858430  1
  H  H31  1  0.90026347  0.18898487  0.48116306  1
  H  H32  1  0.62660597  0.51850737  0.13148799  1
  H  H33  1  0.07073462  0.30848355  0.03858430  1
  H  H34  1  0.37339403  0.01850737  0.36851201  1
  H  H35  1  0.10170266  0.89482563  0.76794775  1
  H  H36  1  0.56681733  0.80979875  0.46114863  1
  H  H37  1  0.43318267  0.30979875  0.03885137  1
  H  H38  1  0.53135799  0.70243443  0.80544676  1
  H  H39  1  0.27118586  0.73408874  0.37022242  1
  H  H40  1  0.98333983  0.72571113  0.81050631  1
  H  H41  1  0.14029328  0.00868119  0.37122601  1
  H  H42  1  0.27118586  0.76591126  0.87022242  1
  H  H43  1  0.08407824  0.80412357  0.21706762  1
  H  H44  1  0.24117459  0.44686557  0.77988601  1
  H  H45  1  0.89829734  0.39482563  0.73205225  1
  H  H46  1  0.92926538  0.80848355  0.46141570  1
  H  H47  1  0.41578359  0.88105977  0.76440901  1
  H  H48  1  0.01666017  0.22571113  0.68949369  1
  H  H49  1  0.08407824  0.69587643  0.71706762  1
  H  H50  1  0.59729177  0.18155254  0.78593369  1
  H  H51  1  0.85970672  0.99131881  0.62877399  1
  H  H52  1  0.37339403  0.48149263  0.86851201  1
  H  H53  1  0.85970672  0.50868119  0.12877399  1
  H  H54  1  0.92926538  0.69151645  0.96141570  1
  H  H55  1  0.14029328  0.49131881  0.87122601  1
  H  H56  1  0.72881414  0.26591126  0.62977758  1
  H  H57  1  0.91592176  0.30412357  0.28293238  1
  H  H58  1  0.40313535  0.81218320  0.51447563  1
  H  H59  1  0.53135799  0.79756557  0.30544676  1
  C  C60  1  0.41402020  0.74403745  0.77166814  1
  C  C61  1  0.74725507  0.48360696  0.16433199  1
  C  C62  1  0.74725507  0.01639304  0.66433199  1
  C  C63  1  0.25274493  0.51639304  0.83566801  1
  C  C64  1  0.25274493  0.98360696  0.33566801  1
  C  C65  1  0.58597980  0.24403745  0.72833186  1
  C  C66  1  0.41402020  0.75596255  0.27166814  1
  C  C67  1  0.90614579  0.24207131  0.22513423  1
  C  C68  1  0.09385421  0.74207131  0.27486577  1
  C  C69  1  0.09385421  0.75792869  0.77486577  1
  C  C70  1  0.58597980  0.25596255  0.22833186  1
  C  C71  1  0.90614579  0.25792869  0.72513423  1
  N  N72  1  0.25811379  0.79965117  0.31717190  1
  N  N73  1  0.74188621  0.29965117  0.18282810  1
  N  N74  1  0.74188621  0.20034883  0.68282810  1
  N  N75  1  0.25811379  0.70034883  0.81717190  1
  Cl  Cl76  1  0.74451669  0.99524471  0.42190014  1
  Cl  Cl77  1  0.20977918  0.99284191  0.09920873  1
  Cl  Cl78  1  0.79022082  0.00715809  0.90079127  1
  Cl  Cl79  1  0.79022082  0.49284191  0.40079127  1
  Cl  Cl80  1  0.20977918  0.50715809  0.59920873  1
  Cl  Cl81  1  0.30627178  0.42050865  0.39972810  1
  Cl  Cl82  1  0.25548331  0.49524471  0.07809986  1
  Cl  Cl83  1  0.30627178  0.07949135  0.89972810  1
  Cl  Cl84  1  0.69372822  0.92050865  0.10027190  1
  Cl  Cl85  1  0.74451669  0.50475529  0.92190014  1
  Cl  Cl86  1  0.25548331  0.00475529  0.57809986  1
  Cl  Cl87  1  0.69372822  0.57949135  0.60027190  1
  O  O88  1  0.45710927  0.75225173  0.97165332  1
  O  O89  1  0.03766852  0.74454913  0.47646947  1
  O  O90  1  0.54289073  0.25225173  0.52834668  1
  O  O91  1  0.54289073  0.24774827  0.02834668  1
  O  O92  1  0.03766852  0.75545087  0.97646947  1
  O  O93  1  0.96233148  0.25545087  0.52353053  1
  O  O94  1  0.45710927  0.74774827  0.47165332  1
  O  O95  1  0.96233148  0.24454913  0.02353053  1
