# generated using pymatgen
data_Sb2TeSeF10
_symmetry_space_group_name_H-M   'P 1'
_cell_length_a   8.66148236
_cell_length_b   16.00609649
_cell_length_c   16.42173736
_cell_angle_alpha   90.00000000
_cell_angle_beta   90.00000000
_cell_angle_gamma   90.00000000
_symmetry_Int_Tables_number   1
_chemical_formula_structural   Sb2TeSeF10
_chemical_formula_sum   'Sb16 Te8 Se8 F80'
_cell_volume   2276.65255937
_cell_formula_units_Z   8
loop_
 _symmetry_equiv_pos_site_id
 _symmetry_equiv_pos_as_xyz
  1  'x, y, z'
loop_
 _atom_site_type_symbol
 _atom_site_label
 _atom_site_symmetry_multiplicity
 _atom_site_fract_x
 _atom_site_fract_y
 _atom_site_fract_z
 _atom_site_occupancy
  Sb  Sb0  1  0.35860679  0.25000000  0.81860953  1
  Sb  Sb1  1  0.39602906  0.75000000  0.97097587  1
  Sb  Sb2  1  0.09610775  0.25000000  0.23258517  1
  Sb  Sb3  1  0.60397094  0.75000000  0.47097587  1
  Sb  Sb4  1  0.60397094  0.25000000  0.02902413  1
  Sb  Sb5  1  0.39602906  0.25000000  0.52902413  1
  Sb  Sb6  1  0.35860679  0.75000000  0.68139047  1
  Sb  Sb7  1  0.64139321  0.75000000  0.18139047  1
  Sb  Sb8  1  0.64139321  0.25000000  0.31860953  1
  Sb  Sb9  1  0.51517866  0.50000000  0.75000000  1
  Sb  Sb10  1  0.51517866  0.00000000  0.75000000  1
  Sb  Sb11  1  0.90389225  0.75000000  0.76741483  1
  Sb  Sb12  1  0.48482134  0.00000000  0.25000000  1
  Sb  Sb13  1  0.90389225  0.25000000  0.73258517  1
  Sb  Sb14  1  0.09610775  0.75000000  0.26741483  1
  Sb  Sb15  1  0.48482134  0.50000000  0.25000000  1
  Te  Te16  1  0.16630753  0.43432103  0.01540159  1
  Te  Te17  1  0.16630753  0.56567897  0.48459841  1
  Te  Te18  1  0.83369247  0.43432103  0.51540159  1
  Te  Te19  1  0.83369247  0.93432103  0.98459841  1
  Te  Te20  1  0.16630753  0.93432103  0.48459841  1
  Te  Te21  1  0.83369247  0.56567897  0.98459841  1
  Te  Te22  1  0.83369247  0.06567897  0.51540159  1
  Te  Te23  1  0.16630753  0.06567897  0.01540159  1
  Se  Se24  1  1.00388022  0.52942955  0.10300957  1
  Se  Se25  1  -0.00388022  0.52942955  0.60300957  1
  Se  Se26  1  -0.00388022  0.02942955  0.89699043  1
  Se  Se27  1  1.00388022  0.02942955  0.39699043  1
  Se  Se28  1  1.00388022  0.97057045  0.10300957  1
  Se  Se29  1  -0.00388022  0.97057045  0.60300957  1
  Se  Se30  1  1.00388022  0.47057045  0.39699043  1
  Se  Se31  1  -0.00388022  0.47057045  0.89699043  1
  F  F32  1  0.25706443  0.33557399  0.88706489  1
  F  F33  1  0.86801685  0.75000000  0.24716720  1
  F  F34  1  0.08034088  0.36941134  0.23206920  1
  F  F35  1  0.75152657  0.33493201  0.00638316  1
  F  F36  1  0.88103904  0.25000000  0.84778957  1
  F  F37  1  0.35490166  0.25000000  0.64296982  1
  F  F38  1  0.05476646  0.75000000  0.38195424  1
  F  F39  1  0.94523354  0.25000000  0.61804576  1
  F  F40  1  0.74293557  0.33557399  0.38706489  1
  F  F41  1  0.74293557  0.16442601  0.38706489  1
  F  F42  1  0.67319897  0.47650568  0.67066713  1
  F  F43  1  0.25706443  0.16442601  0.88706489  1
  F  F44  1  0.51618786  0.11501587  0.78629841  1
  F  F45  1  0.75152657  0.66506799  0.49361684  1
  F  F46  1  0.91965912  0.13058866  0.73206920  1
  F  F47  1  0.31267380  0.25000000  0.21404115  1
  F  F48  1  0.08034088  0.13058866  0.23206920  1
  F  F49  1  0.67319897  0.97650568  0.82933287  1
  F  F50  1  0.67319897  0.52349432  0.82933287  1
  F  F51  1  0.32680103  0.47650568  0.17066713  1
  F  F52  1  0.55167235  0.83433819  0.95903753  1
  F  F53  1  0.24847343  0.33493201  0.50638316  1
  F  F54  1  0.25706443  0.83557399  0.61293511  1
  F  F55  1  0.64000536  0.02630605  0.17145503  1
  F  F56  1  0.55167235  0.66566181  0.95903753  1
  F  F57  1  0.64000536  0.97369395  0.32854497  1
  F  F58  1  0.64509834  0.75000000  0.35703018  1
  F  F59  1  0.32680103  0.52349432  0.32933287  1
  F  F60  1  0.48381214  0.61501587  0.21370159  1
  F  F61  1  0.94523354  0.75000000  0.88195424  1
  F  F62  1  0.51618786  0.88498413  0.71370159  1
  F  F63  1  0.91965912  0.36941134  0.73206920  1
  F  F64  1  0.35490166  0.75000000  0.85703018  1
  F  F65  1  0.88103904  0.75000000  0.65221043  1
  F  F66  1  0.64509834  0.25000000  0.14296982  1
  F  F67  1  0.55167235  0.16566181  0.54096247  1
  F  F68  1  0.44832765  0.66566181  0.45903753  1
  F  F69  1  0.64000536  0.47369395  0.17145503  1
  F  F70  1  0.44832765  0.83433819  0.45903753  1
  F  F71  1  0.25706443  0.66442601  0.61293511  1
  F  F72  1  0.13198315  0.75000000  0.74716720  1
  F  F73  1  0.48381214  0.11501587  0.28629841  1
  F  F74  1  0.91965912  0.86941134  0.76793080  1
  F  F75  1  0.91965912  0.63058866  0.76793080  1
  F  F76  1  0.75152657  0.83493201  0.49361684  1
  F  F77  1  0.44832765  0.33433819  0.04096247  1
  F  F78  1  0.32680103  0.02349432  0.17066713  1
  F  F79  1  0.45271739  0.75000000  0.09004574  1
  F  F80  1  0.67319897  0.02349432  0.67066713  1
  F  F81  1  0.54728261  0.25000000  0.90995426  1
  F  F82  1  0.48381214  0.38498413  0.28629841  1
  F  F83  1  0.31267380  0.75000000  0.28595885  1
  F  F84  1  0.45271739  0.25000000  0.40995426  1
  F  F85  1  0.32680103  0.97650568  0.32933287  1
  F  F86  1  0.68732620  0.75000000  0.78595885  1
  F  F87  1  0.68732620  0.25000000  0.71404115  1
  F  F88  1  0.35999464  0.52630605  0.82854497  1
  F  F89  1  0.24847343  0.83493201  0.99361684  1
  F  F90  1  0.54728261  0.75000000  0.59004574  1
  F  F91  1  0.86801685  0.25000000  0.25283280  1
  F  F92  1  0.35999464  0.02630605  0.67145503  1
  F  F93  1  0.74293557  0.66442601  0.11293511  1
  F  F94  1  0.74293557  0.83557399  0.11293511  1
  F  F95  1  0.08034088  0.86941134  0.26793080  1
  F  F96  1  0.51618786  0.38498413  0.78629841  1
  F  F97  1  0.24847343  0.66506799  0.99361684  1
  F  F98  1  0.75152657  0.16506799  0.00638316  1
  F  F99  1  0.35999464  0.47369395  0.67145503  1
  F  F100  1  0.05476646  0.25000000  0.11804576  1
  F  F101  1  0.64000536  0.52630605  0.32854497  1
  F  F102  1  0.55167235  0.33433819  0.54096247  1
  F  F103  1  0.13198315  0.25000000  0.75283280  1
  F  F104  1  0.24847343  0.16506799  0.50638316  1
  F  F105  1  0.11896096  0.25000000  0.34778957  1
  F  F106  1  0.08034088  0.63058866  0.26793080  1
  F  F107  1  0.11896096  0.75000000  0.15221043  1
  F  F108  1  0.44832765  0.16566181  0.04096247  1
  F  F109  1  0.51618786  0.61501587  0.71370159  1
  F  F110  1  0.35999464  0.97369395  0.82854497  1
  F  F111  1  0.48381214  0.88498413  0.21370159  1
