# generated using pymatgen
data_Sn2SbS2I3
_symmetry_space_group_name_H-M   'P 1'
_cell_length_a   4.34871343
_cell_length_b   7.55232867
_cell_length_c   16.04789591
_cell_angle_alpha   90.00000000
_cell_angle_beta   90.00000000
_cell_angle_gamma   106.73260091
_symmetry_Int_Tables_number   1
_chemical_formula_structural   Sn2SbS2I3
_chemical_formula_sum   'Sn4 Sb2 S4 I6'
_cell_volume   504.74333101
_cell_formula_units_Z   2
loop_
 _symmetry_equiv_pos_site_id
 _symmetry_equiv_pos_as_xyz
  1  'x, y, z'
loop_
 _atom_site_type_symbol
 _atom_site_label
 _atom_site_symmetry_multiplicity
 _atom_site_fract_x
 _atom_site_fract_y
 _atom_site_fract_z
 _atom_site_occupancy
  Sn  Sn0  1  0.13323798  0.26647595  0.97929916  1
  Sn  Sn1  1  0.86676202  0.73352405  0.47929916  1
  Sn  Sn2  1  0.86676202  0.73352405  0.02070084  1
  Sn  Sn3  1  0.13323798  0.26647595  0.52070084  1
  Sb  Sb4  1  0.20412829  0.40825659  0.25000000  1
  Sb  Sb5  1  0.79587171  0.59174341  0.75000000  1
  S  S6  1  0.72875423  0.45750845  0.58538756  1
  S  S7  1  0.72875423  0.45750845  0.91461244  1
  S  S8  1  0.27124577  0.54249155  0.08538756  1
  S  S9  1  0.27124577  0.54249155  0.41461244  1
  I  I10  1  0.43268541  0.86537082  0.63241918  1
  I  I11  1  0.56731459  0.13462918  0.13241918  1
  I  I12  1  0.14982183  0.29964365  0.75000000  1
  I  I13  1  0.56731459  0.13462918  0.36758082  1
  I  I14  1  0.43268541  0.86537082  0.86758082  1
  I  I15  1  0.85017817  0.70035635  0.25000000  1
