# generated using pymatgen
data_As3Pb5ClO9
_symmetry_space_group_name_H-M   'P 1'
_cell_length_a   10.79276140
_cell_length_b   10.79276125
_cell_length_c   7.36859228
_cell_angle_alpha   90.00000000
_cell_angle_beta   90.00000000
_cell_angle_gamma   120.00000048
_symmetry_Int_Tables_number   1
_chemical_formula_structural   As3Pb5ClO9
_chemical_formula_sum   'As6 Pb10 Cl2 O18'
_cell_volume   743.32767500
_cell_formula_units_Z   2
loop_
 _symmetry_equiv_pos_site_id
 _symmetry_equiv_pos_as_xyz
  1  'x, y, z'
loop_
 _atom_site_type_symbol
 _atom_site_label
 _atom_site_symmetry_multiplicity
 _atom_site_fract_x
 _atom_site_fract_y
 _atom_site_fract_z
 _atom_site_occupancy
  As  As0  1  0.69611008  0.64977584  0.26463573  1
  As  As1  1  0.35022416  0.04633424  0.26463573  1
  As  As2  1  0.95366576  0.30388992  0.26463573  1
  As  As3  1  0.30388992  0.35022416  0.76463573  1
  As  As4  1  0.04633424  0.69611008  0.76463573  1
  As  As5  1  0.64977584  0.95366576  0.76463573  1
  Pb  Pb6  1  0.31234546  0.37469438  0.25049175  1
  Pb  Pb7  1  0.93765109  0.31234546  0.75049175  1
  Pb  Pb8  1  0.37469438  0.06234891  0.75049175  1
  Pb  Pb9  1  0.62530562  0.93765109  0.25049175  1
  Pb  Pb10  1  0.33333300  0.66666700  0.64019688  1
  Pb  Pb11  1  0.06234891  0.68765454  0.25049175  1
  Pb  Pb12  1  0.66666700  0.33333300  0.14019688  1
  Pb  Pb13  1  0.68765454  0.62530562  0.75049175  1
  Pb  Pb14  1  0.00000000  0.00000000  0.02007575  1
  Pb  Pb15  1  0.00000000  0.00000000  0.52007575  1
  Cl  Cl16  1  0.66666700  0.33333300  0.74442594  1
  Cl  Cl17  1  0.33333300  0.66666700  0.24442594  1
  O  O18  1  0.80747317  0.84240596  0.22237591  1
  O  O19  1  0.84240596  0.03493279  0.72237591  1
  O  O20  1  0.56176359  0.93137495  0.54990041  1
  O  O21  1  0.63038864  0.56176359  0.04990041  1
  O  O22  1  0.93137495  0.36961136  0.04990041  1
  O  O23  1  0.17916720  0.41163944  0.79769668  1
  O  O24  1  0.36961136  0.43823641  0.54990041  1
  O  O25  1  0.76752776  0.17916720  0.29769668  1
  O  O26  1  0.58836056  0.76752776  0.79769668  1
  O  O27  1  0.03493279  0.19252683  0.22237591  1
  O  O28  1  0.15759404  0.96506721  0.22237591  1
  O  O29  1  0.23247224  0.82083280  0.79769668  1
  O  O30  1  0.41163944  0.23247224  0.29769668  1
  O  O31  1  0.43823641  0.06862505  0.04990041  1
  O  O32  1  0.19252683  0.15759404  0.72237591  1
  O  O33  1  0.06862505  0.63038864  0.54990041  1
  O  O34  1  0.82083280  0.58836056  0.29769668  1
  O  O35  1  0.96506721  0.80747317  0.72237591  1
