# generated using pymatgen
data_Mg7TiH16
_symmetry_space_group_name_H-M   'P 1'
_cell_length_a   6.65935932
_cell_length_b   6.65946913
_cell_length_c   6.65940356
_cell_angle_alpha   59.99769411
_cell_angle_beta   59.99784386
_cell_angle_gamma   59.99770980
_symmetry_Int_Tables_number   1
_chemical_formula_structural   Mg7TiH16
_chemical_formula_sum   'Mg7 Ti1 H16'
_cell_volume   208.81910593
_cell_formula_units_Z   1
loop_
 _symmetry_equiv_pos_site_id
 _symmetry_equiv_pos_as_xyz
  1  'x, y, z'
loop_
 _atom_site_type_symbol
 _atom_site_label
 _atom_site_symmetry_multiplicity
 _atom_site_fract_x
 _atom_site_fract_y
 _atom_site_fract_z
 _atom_site_occupancy
  Mg  Mg0  1  0.49998889  0.50002946  0.49999474  1
  Mg  Mg1  1  0.49999619  0.00000850  0.00001202  1
  Mg  Mg2  1  0.50000325  0.49998438  -0.00000505  1
  Mg  Mg3  1  0.49998274  -0.00000845  0.50000051  1
  Mg  Mg4  1  0.00001803  0.50001132  0.50000005  1
  Mg  Mg5  1  0.00000099  -0.00002271  0.50000247  1
  Mg  Mg6  1  0.00000863  0.49999475  0.99999633  1
  Ti  Ti7  1  0.99999207  0.00000452  0.99999963  1
  H  H8  1  0.35832547  0.88056134  0.88055648  1
  H  H9  1  0.88055964  0.88055951  0.35832508  1
  H  H10  1  0.88055910  0.35832156  0.88056081  1
  H  H11  1  0.88055954  0.88056184  0.88055879  1
  H  H12  1  0.64167655  0.11944043  0.11943905  1
  H  H13  1  0.11944326  0.11944149  0.64167578  1
  H  H14  1  0.11944009  0.64167533  0.11944174  1
  H  H15  1  0.11943902  0.11943916  0.11943893  1
  H  H16  1  0.11652350  0.62782352  0.62782272  1
  H  H17  1  0.62782552  0.62782247  0.11652719  1
  H  H18  1  0.62782751  0.11652675  0.62782290  1
  H  H19  1  0.62782254  0.62782329  0.62782625  1
  H  H20  1  0.88347132  0.37217747  0.37217411  1
  H  H21  1  0.37217900  0.37217581  0.88347506  1
  H  H22  1  0.37218109  0.88347242  0.37217681  1
  H  H23  1  0.37217607  0.37217584  0.37217761  1
