# generated using pymatgen
data_Mo(HO2)2
_symmetry_space_group_name_H-M   'P 1'
_cell_length_a   7.74330788
_cell_length_b   6.51591236
_cell_length_c   3.76835077
_cell_angle_alpha   106.53786510
_cell_angle_beta   88.09468826
_cell_angle_gamma   114.57769977
_symmetry_Int_Tables_number   1
_chemical_formula_structural   Mo(HO2)2
_chemical_formula_sum   'Mo2 H4 O8'
_cell_volume   164.95960548
_cell_formula_units_Z   2
loop_
 _symmetry_equiv_pos_site_id
 _symmetry_equiv_pos_as_xyz
  1  'x, y, z'
loop_
 _atom_site_type_symbol
 _atom_site_label
 _atom_site_symmetry_multiplicity
 _atom_site_fract_x
 _atom_site_fract_y
 _atom_site_fract_z
 _atom_site_occupancy
  Mo  Mo0  1  0.79591139  0.94831183  0.73772871  1
  Mo  Mo1  1  0.20829633  0.07927041  0.27430381  1
  H  H2  1  0.12073367  0.59119294  0.04326613  1
  H  H3  1  0.89396186  0.52834475  0.53551499  1
  H  H4  1  0.67088591  0.43914733  0.47476944  1
  H  H5  1  0.31377526  0.52468957  0.49400569  1
  O  O6  1  0.55082540  0.78892132  0.67008437  1
  O  O7  1  0.45274870  0.21218444  0.33247157  1
  O  O8  1  0.12696790  0.04408574  0.76058730  1
  O  O9  1  0.87623267  0.94323749  0.22985719  1
  O  O10  1  0.82651418  0.23925469  0.88057382  1
  O  O11  1  0.18113914  0.76377917  0.11560144  1
  O  O12  1  0.79290910  0.58145389  0.56270407  1
  O  O13  1  0.19099649  0.38253544  0.41700747  1
