# generated using pymatgen
data_LiSn2P5O16
_symmetry_space_group_name_H-M   'P 1'
_cell_length_a   19.04490567
_cell_length_b   7.19029750
_cell_length_c   5.20140333
_cell_angle_alpha   90.00000000
_cell_angle_beta   92.46533376
_cell_angle_gamma   90.00000000
_symmetry_Int_Tables_number   1
_chemical_formula_structural   LiSn2P5O16
_chemical_formula_sum   'Li2 Sn4 P10 O32'
_cell_volume   711.61330744
_cell_formula_units_Z   2
loop_
 _symmetry_equiv_pos_site_id
 _symmetry_equiv_pos_as_xyz
  1  'x, y, z'
loop_
 _atom_site_type_symbol
 _atom_site_label
 _atom_site_symmetry_multiplicity
 _atom_site_fract_x
 _atom_site_fract_y
 _atom_site_fract_z
 _atom_site_occupancy
  Li  Li0  1  0.96572825  0.63143044  0.79091562  1
  Li  Li1  1  0.46572825  0.36856956  0.79091562  1
  Sn  Sn2  1  0.41063348  0.83927852  0.74416568  1
  Sn  Sn3  1  0.09085085  0.84097433  0.25618260  1
  Sn  Sn4  1  0.91063348  0.16072148  0.74416568  1
  Sn  Sn5  1  0.59085085  0.15902567  0.25618260  1
  P  P6  1  0.86802602  0.47442012  0.26183245  1
  P  P7  1  0.41302709  0.14871643  0.26819476  1
  P  P8  1  0.36802602  0.52557988  0.26183245  1
  P  P9  1  0.74894876  0.25978724  0.00509241  1
  P  P10  1  0.58596283  0.85973178  0.74586036  1
  P  P11  1  0.08596283  0.14026822  0.74586036  1
  P  P12  1  0.63025055  0.46502275  0.72362706  1
  P  P13  1  0.13025055  0.53497725  0.72362706  1
  P  P14  1  0.24894876  0.74021276  0.00509241  1
  P  P15  1  0.91302709  0.85128357  0.26819476  1
  O  O16  1  0.79050958  0.39179980  0.21025623  1
  O  O17  1  0.47577137  0.22391647  0.43365583  1
  O  O18  1  0.97577137  0.77608353  0.43365583  1
  O  O19  1  0.29050958  0.60820020  0.21025623  1
  O  O20  1  0.79790751  0.15397465  0.83985326  1
  O  O21  1  0.70808970  0.41155288  0.83122885  1
  O  O22  1  0.63945068  0.68380522  0.74745764  1
  O  O23  1  0.85088220  0.69239881  0.27359316  1
  O  O24  1  0.19899401  0.85707552  0.15216691  1
  O  O25  1  0.92919475  0.87038922  0.98222934  1
  O  O26  1  0.01749733  0.20553607  0.60717403  1
  O  O27  1  0.91584346  0.43149662  0.04597276  1
  O  O28  1  0.89192259  0.42069985  0.53432669  1
  O  O29  1  0.07798475  0.09589570  0.03058542  1
  O  O30  1  0.88006851  0.02574436  0.38265498  1
  O  O31  1  0.41584346  0.56850338  0.04597276  1
  O  O32  1  0.57399314  0.38535028  0.88827785  1
  O  O33  1  0.13945068  0.31619478  0.74745764  1
  O  O34  1  0.39192259  0.57930015  0.53432669  1
  O  O35  1  0.42919475  0.12961078  0.98222934  1
  O  O36  1  0.62429621  0.41872713  0.43905396  1
  O  O37  1  0.62344738  0.01375409  0.59995017  1
  O  O38  1  0.35088220  0.30760119  0.27359316  1
  O  O39  1  0.57798475  0.90410430  0.03058542  1
  O  O40  1  0.51749733  0.79446393  0.60717403  1
  O  O41  1  0.07399314  0.61464972  0.88827785  1
  O  O42  1  0.12344738  0.98624591  0.59995017  1
  O  O43  1  0.12429621  0.58127287  0.43905396  1
  O  O44  1  0.69899401  0.14292448  0.15216691  1
  O  O45  1  0.38006851  0.97425564  0.38265498  1
  O  O46  1  0.20808970  0.58844712  0.83122885  1
  O  O47  1  0.29790751  0.84602535  0.83985326  1
