# generated using pymatgen
data_SrCrO4
_symmetry_space_group_name_H-M   'P 1'
_cell_length_a   7.07051927
_cell_length_b   7.34275022
_cell_length_c   8.34032331
_cell_angle_alpha   90.00000000
_cell_angle_beta   90.00000000
_cell_angle_gamma   87.88647839
_symmetry_Int_Tables_number   1
_chemical_formula_structural   SrCrO4
_chemical_formula_sum   'Sr4 Cr4 O16'
_cell_volume   432.71047434
_cell_formula_units_Z   4
loop_
 _symmetry_equiv_pos_site_id
 _symmetry_equiv_pos_as_xyz
  1  'x, y, z'
loop_
 _atom_site_type_symbol
 _atom_site_label
 _atom_site_symmetry_multiplicity
 _atom_site_fract_x
 _atom_site_fract_y
 _atom_site_fract_z
 _atom_site_occupancy
  Sr  Sr0  1  0.75754616  0.83035434  0.95387057  1
  Sr  Sr1  1  0.74245384  0.16964566  0.45387057  1
  Sr  Sr2  1  0.24245384  0.16964566  0.04612943  1
  Sr  Sr3  1  0.25754616  0.83035434  0.54612943  1
  Cr  Cr4  1  0.28420123  0.27780326  0.49883932  1
  Cr  Cr5  1  0.71579877  0.72219674  0.50116068  1
  Cr  Cr6  1  0.78420123  0.27780326  0.00116068  1
  Cr  Cr7  1  0.21579877  0.72219674  0.99883932  1
  O  O8  1  0.91713576  0.82937984  0.47495400  1
  O  O9  1  0.08286424  0.17062016  0.52504600  1
  O  O10  1  0.06441765  0.80563616  0.13493843  1
  O  O11  1  0.12170887  0.79023879  0.82224711  1
  O  O12  1  0.58286424  0.17062016  0.97495400  1
  O  O13  1  0.74118766  0.49946820  0.49294280  1
  O  O14  1  0.93558235  0.19436384  0.86506157  1
  O  O15  1  0.37829113  0.20976121  0.32224711  1
  O  O16  1  0.41713576  0.82937984  0.02504600  1
  O  O17  1  0.25881234  0.50053180  0.50705720  1
  O  O18  1  0.24118766  0.49946820  0.00705720  1
  O  O19  1  0.43558235  0.19436384  0.63493843  1
  O  O20  1  0.56441765  0.80563616  0.36506157  1
  O  O21  1  0.62170887  0.79023879  0.67775289  1
  O  O22  1  0.87829113  0.20976121  0.17775289  1
  O  O23  1  0.75881234  0.50053180  0.99294280  1
