# generated using pymatgen
data_K2NaNb(OF2)2
_symmetry_space_group_name_H-M   'P 1'
_cell_length_a   6.07810063
_cell_length_b   12.19818138
_cell_length_c   10.55834764
_cell_angle_alpha   29.91498932
_cell_angle_beta   54.91115390
_cell_angle_gamma   60.17477702
_symmetry_Int_Tables_number   1
_chemical_formula_structural   K2NaNb(OF2)2
_chemical_formula_sum   'K4 Na2 Nb2 O4 F8'
_cell_volume   319.44939536
_cell_formula_units_Z   2
loop_
 _symmetry_equiv_pos_site_id
 _symmetry_equiv_pos_as_xyz
  1  'x, y, z'
loop_
 _atom_site_type_symbol
 _atom_site_label
 _atom_site_symmetry_multiplicity
 _atom_site_fract_x
 _atom_site_fract_y
 _atom_site_fract_z
 _atom_site_occupancy
  K  K0  1  0.24809057  0.50260056  0.24998807  1
  K  K1  1  0.74586824  0.00438664  0.74781454  1
  K  K2  1  0.25106635  0.99873905  0.25492632  1
  K  K3  1  0.75639828  0.49929073  0.74687363  1
  Na  Na4  1  0.50138826  0.49516023  0.50329491  1
  Na  Na5  1  0.49942835  0.99747005  0.50367327  1
  Nb  Nb6  1  0.99873063  0.99636655  0.00472403  1
  Nb  Nb7  1  0.99784081  0.49722545  0.00270355  1
  O  O8  1  0.22451067  0.77650410  0.22136571  1
  O  O9  1  0.77781347  0.27465329  0.22532746  1
  O  O10  1  0.21457316  0.72198182  0.77990790  1
  O  O11  1  0.77679579  0.21720386  0.78295599  1
  F  F12  1  0.23340164  0.26242847  0.24083590  1
  F  F13  1  0.76627055  0.99348940  0.24245574  1
  F  F14  1  0.23363923  0.99830541  0.76651823  1
  F  F15  1  0.23587330  0.23551556  0.76231016  1
  F  F16  1  0.75860206  0.49519575  0.24140107  1
  F  F17  1  0.23160381  0.49832961  0.76653535  1
  F  F18  1  0.76009621  0.75900114  0.24381982  1
  F  F19  1  0.75662864  0.73178031  0.77041036  1
