# generated using pymatgen
data_K6Fe24S26Cl
_symmetry_space_group_name_H-M   'P 1'
_cell_length_a   9.95405078
_cell_length_b   9.95405073
_cell_length_c   12.15326480
_cell_angle_alpha   114.17479281
_cell_angle_beta   114.17479270
_cell_angle_gamma   89.99999790
_symmetry_Int_Tables_number   1
_chemical_formula_structural   K6Fe24S26Cl
_chemical_formula_sum   'K6 Fe24 S26 Cl1'
_cell_volume   981.67467673
_cell_formula_units_Z   1
loop_
 _symmetry_equiv_pos_site_id
 _symmetry_equiv_pos_as_xyz
  1  'x, y, z'
loop_
 _atom_site_type_symbol
 _atom_site_label
 _atom_site_symmetry_multiplicity
 _atom_site_fract_x
 _atom_site_fract_y
 _atom_site_fract_z
 _atom_site_occupancy
  K  K0  1  1.00000000  0.29941255  0.00000000  1
  K  K1  1  0.15366107  0.15366107  0.30732214  1
  K  K2  1  0.29941255  1.00000000  0.00000000  1
  K  K3  1  0.00000000  0.70058745  1.00000000  1
  K  K4  1  0.84633893  0.84633893  0.69267786  1
  K  K5  1  0.70058745  0.00000000  1.00000000  1
  Fe  Fe6  1  0.43491843  0.69722396  0.13214239  1
  Fe  Fe7  1  0.81555346  0.05311590  0.36733250  1
  Fe  Fe8  1  0.05311590  0.55177904  0.36733250  1
  Fe  Fe9  1  0.56508157  0.30277604  0.86785761  1
  Fe  Fe10  1  0.55177904  0.31421660  0.36733250  1
  Fe  Fe11  1  0.68578340  0.18444654  0.63266750  1
  Fe  Fe12  1  0.44822096  0.94688410  0.63266750  1
  Fe  Fe13  1  0.68578340  0.44822096  0.63266750  1
  Fe  Fe14  1  0.31421660  0.55177904  0.36733250  1
  Fe  Fe15  1  0.81555346  0.31421660  0.36733250  1
  Fe  Fe16  1  0.55177904  0.05311590  0.36733250  1
  Fe  Fe17  1  0.18444654  0.68578340  0.63266750  1
  Fe  Fe18  1  0.05311590  0.81555346  0.36733250  1
  Fe  Fe19  1  0.43491843  0.43491843  0.13214239  1
  Fe  Fe20  1  0.31421660  0.81555346  0.36733250  1
  Fe  Fe21  1  0.56508157  0.56508157  0.86785761  1
  Fe  Fe22  1  0.69722396  0.43491843  0.13214239  1
  Fe  Fe23  1  0.69722396  0.69722396  0.13214239  1
  Fe  Fe24  1  0.30277604  0.56508157  0.86785761  1
  Fe  Fe25  1  0.18444654  0.94688410  0.63266750  1
  Fe  Fe26  1  0.44822096  0.68578340  0.63266750  1
  Fe  Fe27  1  0.30277604  0.30277604  0.86785761  1
  Fe  Fe28  1  0.94688410  0.18444654  0.63266750  1
  Fe  Fe29  1  0.94688410  0.44822096  0.63266750  1
  S  S30  1  0.25092735  0.50493637  0.50185470  1
  S  S31  1  0.12452285  0.62452285  0.24904570  1
  S  S32  1  0.11744220  0.11744220  0.76797118  1
  S  S33  1  0.74907265  0.00308167  0.49814530  1
  S  S34  1  0.34947103  0.34947103  0.23202882  1
  S  S35  1  0.25092735  0.99691833  0.50185470  1
  S  S36  1  0.00308167  0.74907265  0.49814530  1
  S  S37  1  0.99691833  0.25092735  0.50185470  1
  S  S38  1  0.74907265  0.49506363  0.49814530  1
  S  S39  1  0.11744220  0.65052897  0.76797118  1
  S  S40  1  0.87547715  0.37547715  0.75095430  1
  S  S41  1  0.37630094  0.37630094  0.75260188  1
  S  S42  1  0.37547715  0.87547715  0.75095430  1
  S  S43  1  0.62452285  0.12452285  0.24904570  1
  S  S44  1  0.65052897  0.65052897  0.76797118  1
  S  S45  1  0.74829525  0.50000000  0.00000000  1
  S  S46  1  0.50000000  0.25170475  1.00000000  1
  S  S47  1  0.62369906  0.62369906  0.24739812  1
  S  S48  1  0.34947103  0.88255780  0.23202882  1
  S  S49  1  0.65052897  0.11744220  0.76797118  1
  S  S50  1  0.49506363  0.74907265  0.49814530  1
  S  S51  1  0.50493637  0.25092735  0.50185470  1
  S  S52  1  0.50000000  0.74829525  0.00000000  1
  S  S53  1  0.88255780  0.88255780  0.23202882  1
  S  S54  1  0.25170475  0.50000000  1.00000000  1
  S  S55  1  0.88255780  0.34947103  0.23202882  1
  Cl  Cl56  1  0.00000000  0.00000000  0.00000000  1
