# generated using pymatgen
data_IF7
_symmetry_space_group_name_H-M   'P 1'
_cell_length_a   7.53771406
_cell_length_b   7.59647146
_cell_length_c   7.80272067
_cell_angle_alpha   89.80120146
_cell_angle_beta   89.98775972
_cell_angle_gamma   90.06332945
_symmetry_Int_Tables_number   1
_chemical_formula_structural   IF7
_chemical_formula_sum   'I4 F28'
_cell_volume   446.78104421
_cell_formula_units_Z   4
loop_
 _symmetry_equiv_pos_site_id
 _symmetry_equiv_pos_as_xyz
  1  'x, y, z'
loop_
 _atom_site_type_symbol
 _atom_site_label
 _atom_site_symmetry_multiplicity
 _atom_site_fract_x
 _atom_site_fract_y
 _atom_site_fract_z
 _atom_site_occupancy
  I  I0  1  0.26665342  0.00015463  0.24977229  1
  I  I1  1  0.26552158  0.50020410  0.75037469  1
  I  I2  1  0.73400817  -0.00007720  0.75021404  1
  I  I3  1  0.73291067  0.50066795  0.25033602  1
  F  F4  1  0.98335422  0.00345684  0.75081613  1
  F  F5  1  0.98205410  0.49719144  0.25137536  1
  F  F6  1  0.24687891  0.26065114  0.70592795  1
  F  F7  1  0.24274849  0.73906293  0.79045045  1
  F  F8  1  0.24302220  0.24142120  0.22241790  1
  F  F9  1  0.23978461  0.75901270  0.27462035  1
  F  F10  1  0.20543628  0.00107029  0.01655952  1
  F  F11  1  0.20315441  0.48676629  -0.01639726  1
  F  F12  1  0.20673776  0.99508237  0.48404747  1
  F  F13  1  0.20126246  0.51746002  0.51788805  1
  F  F14  1  0.53081629  0.41525093  0.36856118  1
  F  F15  1  0.53118952  0.58497228  0.13220554  1
  F  F16  1  0.53192099  0.08733285  0.86573277  1
  F  F17  1  0.53205483  0.91237698  0.63480858  1
  F  F18  1  0.46925637  0.08456393  0.36773092  1
  F  F19  1  0.46921498  0.91510751  0.13308790  1
  F  F20  1  0.46815345  0.41236292  0.86606196  1
  F  F21  1  0.46799635  0.58747630  0.63480899  1
  F  F22  1  0.79304477  0.50399855  0.48440782  1
  F  F23  1  0.79511444  0.49943621  0.01661998  1
  F  F24  1  0.79704452  0.01333837  -0.01703164  1
  F  F25  1  0.79860382  0.98351420  0.51787345  1
  F  F26  1  0.75653109  0.25810157  0.22336489  1
  F  F27  1  0.75360601  0.23964615  0.70527309  1
  F  F28  1  0.75718416  0.76069434  0.79163206  1
  F  F29  1  0.76023491  0.74167419  0.27396655  1
  F  F30  1  0.01789795  0.00228045  0.25113240  1
  F  F31  1  0.01660826  0.49574758  0.75136059  1
