# generated using pymatgen
data_Nd4Ag2Se7
_symmetry_space_group_name_H-M   'P 1'
_cell_length_a   7.51813031
_cell_length_b   7.85592794
_cell_length_c   15.28255415
_cell_angle_alpha   110.78102667
_cell_angle_beta   108.99820942
_cell_angle_gamma   108.88764013
_symmetry_Int_Tables_number   1
_chemical_formula_structural   Nd4Ag2Se7
_chemical_formula_sum   'Nd8 Ag4 Se14'
_cell_volume   692.47525400
_cell_formula_units_Z   2
loop_
 _symmetry_equiv_pos_site_id
 _symmetry_equiv_pos_as_xyz
  1  'x, y, z'
loop_
 _atom_site_type_symbol
 _atom_site_label
 _atom_site_symmetry_multiplicity
 _atom_site_fract_x
 _atom_site_fract_y
 _atom_site_fract_z
 _atom_site_occupancy
  Nd  Nd0  1  0.13183047  0.75294496  0.95602126  1
  Nd  Nd1  1  0.24486144  0.63676334  0.68942907  1
  Nd  Nd2  1  0.36600330  0.25790520  0.81057093  1
  Nd  Nd3  1  0.71978794  0.84090243  0.54397874  1
  Nd  Nd4  1  0.58729456  0.34152067  0.60229791  1
  Nd  Nd5  1  0.88269874  0.13692486  0.89770209  1
  Nd  Nd6  1  0.60315622  0.36878401  0.12084187  1
  Nd  Nd7  1  0.86147247  0.12710026  0.37915813  1
  Ag  Ag8  1  0.12528776  0.74907367  0.43472593  1
  Ag  Ag9  1  0.29049429  0.64235878  0.19412079  1
  Ag  Ag10  1  0.40225270  0.25411719  0.30587921  1
  Ag  Ag11  1  0.75583589  0.87962180  0.06527407  1
  Se  Se12  1  0.99252020  0.37195106  0.75521736  1
  Se  Se13  1  0.48189887  0.00274551  0.91948665  1
  Se  Se14  1  0.14292556  0.16377220  0.58051335  1
  Se  Se15  1  0.30992538  0.45536033  0.45938058  1
  Se  Se16  1  0.64619250  0.63626354  0.81781704  1
  Se  Se17  1  0.44955972  0.95408593  0.40438971  1
  Se  Se18  1  0.14078030  0.14530651  0.09561029  1
  Se  Se19  1  0.51055843  0.00062947  0.68218296  1
  Se  Se20  1  0.57120502  0.03811311  0.17388883  1
  Se  Se21  1  0.34443582  0.49469734  0.00104526  1
  Se  Se22  1  0.72342737  0.69033546  0.32611117  1
  Se  Se23  1  0.98208548  0.86151635  0.74478264  1
  Se  Se24  1  0.84234530  0.49260682  0.49895474  1
  Se  Se25  1  0.89116423  0.53659918  0.04061942  1
