# generated using pymatgen
data_La4Ag2Se7
_symmetry_space_group_name_H-M   'P 1'
_cell_length_a   7.62605994
_cell_length_b   7.99324956
_cell_length_c   15.44128143
_cell_angle_alpha   110.86782655
_cell_angle_beta   108.94499961
_cell_angle_gamma   109.07992918
_symmetry_Int_Tables_number   1
_chemical_formula_structural   La4Ag2Se7
_chemical_formula_sum   'La8 Ag4 Se14'
_cell_volume   720.07164839
_cell_formula_units_Z   2
loop_
 _symmetry_equiv_pos_site_id
 _symmetry_equiv_pos_as_xyz
  1  'x, y, z'
loop_
 _atom_site_type_symbol
 _atom_site_label
 _atom_site_symmetry_multiplicity
 _atom_site_fract_x
 _atom_site_fract_y
 _atom_site_fract_z
 _atom_site_occupancy
  La  La0  1  0.13093262  0.75382588  0.95439839  1
  La  La1  1  0.24932708  0.63468867  0.68643502  1
  La  La2  1  0.37645704  0.26181863  0.81356498  1
  La  La3  1  0.59448003  0.34631210  0.60306835  1
  La  La4  1  0.72213583  0.84502910  0.54560161  1
  La  La5  1  0.88834332  0.14017540  0.89693165  1
  La  La6  1  0.60424703  0.36797361  0.12356050  1
  La  La7  1  0.85712603  0.12085262  0.37643950  1
  Ag  Ag8  1  0.12429794  0.75855579  0.43964590  1
  Ag  Ag9  1  0.27402602  0.63464934  0.18779146  1
  Ag  Ag10  1  0.39844310  0.25906643  0.31220854  1
  Ag  Ag11  1  0.74500614  0.87926398  0.06035410  1
  Se  Se12  1  0.14794663  0.15802127  0.57933030  1
  Se  Se13  1  0.31129815  0.46100013  0.46384329  1
  Se  Se14  1  0.65092974  0.63989409  0.81833000  1
  Se  Se15  1  0.48928604  0.99936068  0.92066970  1
  Se  Se16  1  0.51426974  0.00323409  0.68167000  1
  Se  Se17  1  0.13638848  0.14715460  0.09825959  1
  Se  Se18  1  0.35108278  0.49974060  0.00358360  1
  Se  Se19  1  0.99186823  0.85916410  0.74667998  1
  Se  Se20  1  0.71491294  0.68675748  0.32681128  1
  Se  Se21  1  0.43986930  0.95063542  0.40174041  1
  Se  Se22  1  0.84391557  0.49257339  0.49641640  1
  Se  Se23  1  0.99850827  0.36580414  0.75332002  1
  Se  Se24  1  0.56129038  0.03313492  0.17318872  1
  Se  Se25  1  0.88361157  0.53331355  0.03615671  1
