# generated using pymatgen
data_Dy14Ti10O41
_symmetry_space_group_name_H-M   'P 1'
_cell_length_a   7.28367206
_cell_length_b   7.30802389
_cell_length_c   21.79765664
_cell_angle_alpha   59.80796396
_cell_angle_beta   59.24057652
_cell_angle_gamma   59.88933902
_symmetry_Int_Tables_number   1
_chemical_formula_structural   Dy14Ti10O41
_chemical_formula_sum   'Dy14 Ti10 O41'
_cell_volume   813.77434743
_cell_formula_units_Z   1
loop_
 _symmetry_equiv_pos_site_id
 _symmetry_equiv_pos_as_xyz
  1  'x, y, z'
loop_
 _atom_site_type_symbol
 _atom_site_label
 _atom_site_symmetry_multiplicity
 _atom_site_fract_x
 _atom_site_fract_y
 _atom_site_fract_z
 _atom_site_occupancy
  Dy  Dy0  1  0.00207241  0.96920674  0.18650504  1
  Dy  Dy1  1  0.53316167  0.98546816  0.99863400  1
  Dy  Dy2  1  0.99701528  0.51227468  0.15947878  1
  Dy  Dy3  1  0.51205447  0.98780600  0.16731865  1
  Dy  Dy4  1  0.46740897  0.52988036  0.99094343  1
  Dy  Dy5  1  0.51205447  0.49818459  0.16731865  1
  Dy  Dy6  1  0.99684580  0.49428315  0.50486263  1
  Dy  Dy7  1  0.50246633  0.99726164  0.50062514  1
  Dy  Dy8  1  0.50100972  0.49645685  0.33535853  1
  Dy  Dy9  1  0.50246633  0.49839662  0.50062514  1
  Dy  Dy10  1  0.99644854  0.49933231  0.83496195  1
  Dy  Dy11  1  0.53047115  0.00569556  0.82440584  1
  Dy  Dy12  1  0.48762888  0.50811444  0.66538108  1
  Dy  Dy13  1  0.53047115  0.49061476  0.82440584  1
  Ti  Ti14  1  0.00487527  0.00771903  0.00303356  1
  Ti  Ti15  1  0.00487527  0.47830503  0.00303356  1
  Ti  Ti16  1  0.00634044  0.00301569  0.33592182  1
  Ti  Ti17  1  0.00634044  0.48287740  0.33592182  1
  Ti  Ti18  1  0.49520872  0.00159548  0.33386644  1
  Ti  Ti19  1  0.00643083  0.99874102  0.66536273  1
  Ti  Ti20  1  0.99229149  0.00017911  0.83578310  1
  Ti  Ti21  1  0.00643083  0.49874097  0.66536273  1
  Ti  Ti22  1  0.50208270  0.99838573  0.66704894  1
  Ti  Ti23  1  0.00336291  0.99633661  0.50132129  1
  O  O24  1  0.06518142  0.67414721  0.02884105  1
  O  O25  1  0.12859228  0.13778167  0.21723318  1
  O  O26  1  0.62827615  0.15163650  0.04076333  1
  O  O27  1  0.12859228  0.58192750  0.21723318  1
  O  O28  1  0.36838336  0.87996328  0.12389702  1
  O  O29  1  0.32693849  0.32115366  0.32210965  1
  O  O30  1  0.07711330  0.70033347  0.34074025  1
  O  O31  1  0.07953994  0.07894012  0.55594687  1
  O  O32  1  0.61078796  0.11531010  0.21953095  1
  O  O33  1  0.62827615  0.59779635  0.04076333  1
  O  O34  1  0.93194739  0.33200916  0.10980375  1
  O  O35  1  0.37441918  0.37190413  0.46059052  1
  O  O36  1  0.69708275  0.06883513  0.34737105  1
  O  O37  1  0.64002894  0.61409344  0.21059440  1
  O  O38  1  0.32693849  0.88557890  0.32210965  1
  O  O39  1  0.07953994  0.67367932  0.55594687  1
  O  O40  1  0.33917600  0.91186556  0.44569763  1
  O  O41  1  0.33104831  0.33133285  0.63696875  1
  O  O42  1  0.08930148  0.67807799  0.68484752  1
  O  O43  1  0.99725227  0.08097019  0.90340457  1
  O  O44  1  0.93194739  0.90663319  0.10980375  1
  O  O45  1  0.69708275  0.69196995  0.34737105  1
  O  O46  1  0.88375838  0.31325682  0.32990933  1
  O  O47  1  0.67452804  0.07658442  0.55743437  1
  O  O48  1  0.91425543  0.33880574  0.44700795  1
  O  O49  1  0.33104831  0.92671158  0.63696875  1
  O  O50  1  0.66717747  0.08481056  0.69154663  1
  O  O51  1  0.62371308  0.62649463  0.54109956  1
  O  O52  1  0.36548536  0.38257406  0.78978918  1
  O  O53  1  0.99725227  0.71156285  0.90340457  1
  O  O54  1  0.32811983  0.36163084  0.96312843  1
  O  O55  1  0.31625660  0.92708035  0.77652723  1
  O  O56  1  0.65825036  0.11631490  0.86970628  1
  O  O57  1  0.91425543  0.90591499  0.44700795  1
  O  O58  1  0.66717747  0.67337207  0.69154663  1
  O  O59  1  0.92222174  0.33158170  0.63820462  1
  O  O60  1  0.92697196  0.34810669  0.77389218  1
  O  O61  1  0.32811983  0.92086504  0.96312843  1
  O  O62  1  0.62398413  0.63246095  0.87036466  1
  O  O63  1  0.97819206  0.31881643  0.96139203  1
  O  O64  1  0.92697196  0.90324381  0.77389218  1
