# generated using pymatgen
data_RbAg4I5
_symmetry_space_group_name_H-M   'P 1'
_cell_length_a   11.78668524
_cell_length_b   12.24502340
_cell_length_c   12.04973100
_cell_angle_alpha   89.83325301
_cell_angle_beta   93.36005494
_cell_angle_gamma   86.59893937
_symmetry_Int_Tables_number   1
_chemical_formula_structural   RbAg4I5
_chemical_formula_sum   'Rb4 Ag16 I20'
_cell_volume   1733.03337834
_cell_formula_units_Z   4
loop_
 _symmetry_equiv_pos_site_id
 _symmetry_equiv_pos_as_xyz
  1  'x, y, z'
loop_
 _atom_site_type_symbol
 _atom_site_label
 _atom_site_symmetry_multiplicity
 _atom_site_fract_x
 _atom_site_fract_y
 _atom_site_fract_z
 _atom_site_occupancy
  Rb  Rb0  1  0.17241035  0.10672227  0.11418469  1
  Rb  Rb1  1  0.42136425  0.73326765  0.52008546  1
  Rb  Rb2  1  0.51545444  0.36250107  0.86681133  1
  Rb  Rb3  1  0.90257228  0.60718185  0.33616055  1
  Ag  Ag4  1  0.43116956  0.91079472  0.23272475  1
  Ag  Ag5  1  0.40300363  0.30308918  0.32189783  1
  Ag  Ag6  1  0.79793817  0.58226632  0.90536048  1
  Ag  Ag7  1  0.71342297  0.04000052  0.78444250  1
  Ag  Ag8  1  0.73235175  0.19912180  0.56878886  1
  Ag  Ag9  1  0.67864982  0.74080004  0.07723291  1
  Ag  Ag10  1  0.84902545  0.32373402  0.17332831  1
  Ag  Ag11  1  0.86927096  0.81419752  0.58158532  1
  Ag  Ag12  1  0.89147623  0.29898712  0.43121764  1
  Ag  Ag13  1  0.82339462  0.00355063  0.00869908  1
  Ag  Ag14  1  0.01722057  0.95570854  0.73734575  1
  Ag  Ag15  1  0.77576606  0.99621308  0.26347466  1
  Ag  Ag16  1  0.04149894  0.59429905  0.75283870  1
  Ag  Ag17  1  0.06448642  0.22261261  0.61783077  1
  Ag  Ag18  1  0.17919862  0.76446043  0.02421428  1
  Ag  Ag19  1  0.97121247  0.37567556  0.80989913  1
  I  I20  1  0.03072497  0.56828741  0.97680848  1
  I  I21  1  0.06153600  0.34500533  0.29288307  1
  I  I22  1  0.08509770  0.70140966  0.56532048  1
  I  I23  1  0.21475923  0.92140503  0.86506339  1
  I  I24  1  0.19900850  0.34720513  0.74177368  1
  I  I25  1  0.33216781  0.71261064  0.20122500  1
  I  I26  1  0.35574914  0.07083543  0.37206637  1
  I  I27  1  0.34869120  0.33017997  0.09608472  1
  I  I28  1  0.59495324  0.62487916  0.78474134  1
  I  I29  1  0.45221829  0.44116915  0.49365630  1
  I  I30  1  0.58902431  0.94978325  0.05952075  1
  I  I31  1  0.53903419  0.14066736  0.66747722  1
  I  I32  1  0.69678536  0.83226311  0.41546817  1
  I  I33  1  0.69579970  0.52274736  0.12391408  1
  I  I34  1  0.69184674  0.21060088  0.30783354  1
  I  I35  1  0.83077389  0.84291312  0.81659858  1
  I  I36  1  0.81712843  0.41827825  0.61868459  1
  I  I37  1  0.86198365  0.22511917  0.95418830  1
  I  I38  1  0.96538673  0.88207654  0.16976363  1
  I  I39  1  0.94744336  0.05638007  0.53180532  1
