# generated using pymatgen
data_Li26(B24O)3
_symmetry_space_group_name_H-M   'P 1'
_cell_length_a   8.21988851
_cell_length_b   8.21843258
_cell_length_c   16.47349103
_cell_angle_alpha   90.04991219
_cell_angle_beta   89.95404198
_cell_angle_gamma   119.99834990
_symmetry_Int_Tables_number   1
_chemical_formula_structural   Li26(B24O)3
_chemical_formula_sum   'Li26 B72 O3'
_cell_volume   963.78068094
_cell_formula_units_Z   1
loop_
 _symmetry_equiv_pos_site_id
 _symmetry_equiv_pos_as_xyz
  1  'x, y, z'
loop_
 _atom_site_type_symbol
 _atom_site_label
 _atom_site_symmetry_multiplicity
 _atom_site_fract_x
 _atom_site_fract_y
 _atom_site_fract_z
 _atom_site_occupancy
  Li  Li0  1  0.20452864  0.96509572  0.25620316  1
  Li  Li1  1  0.28874792  0.64900254  0.99986796  1
  Li  Li2  1  0.31550649  0.65794153  0.24870332  1
  Li  Li3  1  0.32631015  0.67320439  0.49903994  1
  Li  Li4  1  0.32735264  0.67394245  0.75188564  1
  Li  Li5  1  0.19773458  0.23797180  0.23012768  1
  Li  Li6  1  0.26291700  0.11184646  0.50087495  1
  Li  Li7  1  0.26386956  0.11028615  0.75164870  1
  Li  Li8  1  0.62412632  0.81123867  0.99699471  1
  Li  Li9  1  0.74930723  0.76459591  0.49798616  1
  Li  Li10  1  0.70727161  0.85434929  0.25012779  1
  Li  Li11  1  0.74920009  0.76631580  0.74991906  1
  Li  Li12  1  0.79292648  0.06470609  0.50188741  1
  Li  Li13  1  0.79392379  0.06673254  0.74646749  1
  Li  Li14  1  0.60211917  0.30286596  0.00002557  1
  Li  Li15  1  0.64640100  0.32424596  0.24747166  1
  Li  Li16  1  0.65889967  0.33563732  0.49830363  1
  Li  Li17  1  0.89434036  0.68832755  0.00214513  1
  Li  Li18  1  0.65884444  0.33576823  0.75262022  1
  Li  Li19  1  0.04407981  0.79678378  0.49686160  1
  Li  Li20  1  0.89685586  0.72516591  0.24306531  1
  Li  Li21  1  0.04332591  0.79581526  0.75456894  1
  Li  Li22  1  0.88439770  0.20439880  0.99843859  1
  Li  Li23  1  0.89573677  0.17272794  0.25680752  1
  Li  Li24  1  0.10690685  0.27564462  0.49688947  1
  Li  Li25  1  0.10881891  0.27629618  0.75335698  1
  B  B26  1  0.98993950  0.49451353  0.20041255  1
  B  B27  1  0.98966404  0.49452693  0.45033144  1
  B  B28  1  0.99119126  0.49514706  0.05148559  1
  B  B29  1  0.11727000  0.66939446  0.12647211  1
  B  B30  1  0.11043321  0.66658461  0.37482474  1
  B  B31  1  0.10410567  0.66390321  0.62560841  1
  B  B32  1  0.11075787  0.66659425  0.87502516  1
  B  B33  1  0.32281208  0.87513182  0.12617504  1
  B  B34  1  0.31635220  0.87186925  0.37536728  1
  B  B35  1  0.30764643  0.87049931  0.62565738  1
  B  B36  1  0.31509114  0.87348491  0.87490355  1
  B  B37  1  0.11801098  0.44848618  0.12623340  1
  B  B38  1  0.11010902  0.44577483  0.37400637  1
  B  B39  1  0.10339489  0.44172850  0.62539893  1
  B  B40  1  0.11081024  0.44612889  0.87588721  1
  B  B41  1  0.48297448  0.99723952  0.45069980  1
  B  B42  1  0.48066374  0.99614768  0.69974734  1
  B  B43  1  0.49184835  0.99502893  0.05077098  1
  B  B44  1  0.47855644  0.99593764  0.55084138  1
  B  B45  1  0.49485824  0.99405449  0.30146668  1
  B  B46  1  0.32512489  0.45106478  0.12478021  1
  B  B47  1  0.31503170  0.44538508  0.37315785  1
  B  B48  1  0.30888897  0.44337116  0.62538322  1
  B  B49  1  0.31564888  0.44536713  0.87606667  1
  B  B50  1  0.54455869  0.87521851  0.12524534  1
  B  B51  1  0.53692539  0.87228606  0.37883214  1
  B  B52  1  0.52950568  0.87168127  0.62481404  1
  B  B53  1  0.53644377  0.87305669  0.87216943  1
  B  B54  1  0.54573355  0.67133013  0.12492699  1
  B  B55  1  0.53572535  0.66610006  0.37742550  1
  B  B56  1  0.52980906  0.66527660  0.62464020  1
  B  B57  1  0.53623527  0.66694690  0.87276804  1
  B  B58  1  0.50014650  0.50486548  0.19972094  1
  B  B59  1  0.47912736  0.48833403  0.44978531  1
  B  B60  1  0.48843127  0.49783136  0.94919375  1
  B  B61  1  0.47920941  0.49158334  0.69949092  1
  B  B62  1  0.49285178  0.50056675  0.30065908  1
  B  B63  1  0.49360334  0.49940378  0.05026521  1
  B  B64  1  0.47709479  0.48915922  0.55049530  1
  B  B65  1  0.48305788  0.49212363  0.80020965  1
  B  B66  1  0.44674346  0.32781145  0.12518363  1
  B  B67  1  0.43757336  0.32267659  0.37305226  1
  B  B68  1  0.43134771  0.32141654  0.62556620  1
  B  B69  1  0.43878200  0.32416231  0.87619380  1
  B  B70  1  0.44619058  0.12025212  0.12605073  1
  B  B71  1  0.43895563  0.11792608  0.37354343  1
  B  B72  1  0.43092662  0.11700431  0.62572663  1
  B  B73  1  0.43867621  0.11821994  0.87666860  1
  B  B74  1  0.66805254  0.54813388  0.12451319  1
  B  B75  1  0.65861729  0.54359747  0.37704858  1
  B  B76  1  0.65282629  0.54232725  0.62479828  1
  B  B77  1  0.66011973  0.54586844  0.87379768  1
  B  B78  1  0.49876147  0.99626436  0.20051011  1
  B  B79  1  0.48742424  0.99273549  0.94944630  1
  B  B80  1  0.48553300  0.99755479  0.80009296  1
  B  B81  1  0.87129564  0.54466522  0.12566434  1
  B  B82  1  0.86471192  0.54436220  0.37698596  1
  B  B83  1  0.85894289  0.54180300  0.62528889  1
  B  B84  1  0.86562042  0.54461779  0.87365784  1
  B  B85  1  0.66764403  0.11964579  0.12508552  1
  B  B86  1  0.65932943  0.11849250  0.37737258  1
  B  B87  1  0.65089312  0.11731583  0.62491137  1
  B  B88  1  0.65926677  0.11770621  0.87436478  1
  B  B89  1  0.86464584  0.32317646  0.37718844  1
  B  B90  1  0.87215949  0.32439228  0.12578253  1
  B  B91  1  0.85794671  0.32013518  0.62509439  1
  B  B92  1  0.86513379  0.32316256  0.87374382  1
  B  B93  1  0.98357718  0.49119875  0.69973042  1
  B  B94  1  0.98613529  0.49428350  0.94914813  1
  B  B95  1  0.98490580  0.49377428  0.30121548  1
  B  B96  1  0.98506678  0.49240928  0.55082050  1
  B  B97  1  0.98824214  0.49291341  0.80041902  1
  O  O98  1  0.98303649  0.99208927  0.24600035  1
  O  O99  1  0.98892272  0.00046108  0.49868333  1
  O  O100  1  0.98970115  0.00130959  0.75301623  1
