# generated using pymatgen
data_SbH3C2(O2F3)2
_symmetry_space_group_name_H-M   'P 1'
_cell_length_a   7.97636124
_cell_length_b   7.97636124
_cell_length_c   8.60192260
_cell_angle_alpha   57.12467402
_cell_angle_beta   122.87532598
_cell_angle_gamma   110.03521022
_symmetry_Int_Tables_number   1
_chemical_formula_structural   SbH3C2(O2F3)2
_chemical_formula_sum   'Sb2 H6 C4 O8 F12'
_cell_volume   385.12928144
_cell_formula_units_Z   2
loop_
 _symmetry_equiv_pos_site_id
 _symmetry_equiv_pos_as_xyz
  1  'x, y, z'
loop_
 _atom_site_type_symbol
 _atom_site_label
 _atom_site_symmetry_multiplicity
 _atom_site_fract_x
 _atom_site_fract_y
 _atom_site_fract_z
 _atom_site_occupancy
  Sb  Sb0  1  0.14516506  0.14363623  0.50181236  1
  Sb  Sb1  1  0.85636377  0.85483494  0.00181236  1
  H  H2  1  0.43431548  0.07136424  0.97580313  1
  H  H3  1  0.92863576  0.56568452  0.47580313  1
  H  H4  1  0.62468065  0.09871059  0.48159570  1
  H  H5  1  0.90128941  0.37531935  0.98159570  1
  H  H6  1  0.38532315  0.60589586  0.31140430  1
  H  H7  1  0.39410414  0.61467685  0.81140430  1
  C  C8  1  0.52487045  0.06817778  0.23758121  1
  C  C9  1  0.93182222  0.47512955  0.73758121  1
  C  C10  1  0.48977237  0.83897009  0.35662716  1
  C  C11  1  0.16102991  0.51022763  0.85662716  1
  O  O12  1  0.48719137  0.15933874  0.04636215  1
  O  O13  1  0.84066126  0.51280863  0.54636215  1
  O  O14  1  0.59395980  0.17688306  0.32958856  1
  O  O15  1  0.82311694  0.40604020  0.82958856  1
  O  O16  1  0.41420463  0.75290769  0.23476510  1
  O  O17  1  0.24709231  0.58579537  0.73476510  1
  O  O18  1  0.53134868  0.76324018  0.53917106  1
  O  O19  1  0.23675982  0.46865132  0.03917106  1
  F  F20  1  0.04396635  0.24225846  0.59116779  1
  F  F21  1  0.75774154  0.95603365  0.09116779  1
  F  F22  1  0.25055391  0.04043978  0.42084224  1
  F  F23  1  0.95956022  0.74944609  0.92084224  1
  F  F24  1  0.33057221  0.99661597  0.79111850  1
  F  F25  1  0.00338403  0.66942779  0.29111850  1
  F  F26  1  0.95446928  0.29629333  0.21696183  1
  F  F27  1  0.70370667  0.04553072  0.71696183  1
  F  F28  1  0.94743297  0.92431443  0.51884326  1
  F  F29  1  0.07568557  0.05256703  0.01884326  1
  F  F30  1  0.34072797  0.36710791  0.47995565  1
  F  F31  1  0.63289209  0.65927203  0.97995565  1
