# generated using pymatgen
data_Cr(PO3)5
_symmetry_space_group_name_H-M   'P 1'
_cell_length_a   5.09087598
_cell_length_b   13.70808065
_cell_length_c   8.94591307
_cell_angle_alpha   90.00000000
_cell_angle_beta   101.43439009
_cell_angle_gamma   90.00000000
_symmetry_Int_Tables_number   1
_chemical_formula_structural   Cr(PO3)5
_chemical_formula_sum   'Cr2 P10 O30'
_cell_volume   611.90983191
_cell_formula_units_Z   2
loop_
 _symmetry_equiv_pos_site_id
 _symmetry_equiv_pos_as_xyz
  1  'x, y, z'
loop_
 _atom_site_type_symbol
 _atom_site_label
 _atom_site_symmetry_multiplicity
 _atom_site_fract_x
 _atom_site_fract_y
 _atom_site_fract_z
 _atom_site_occupancy
  Cr  Cr0  1  0.50000000  0.00000000  0.50000000  1
  Cr  Cr1  1  0.50000000  0.50000000  0.50000000  1
  P  P2  1  0.34548360  0.07846628  0.81198328  1
  P  P3  1  0.99654013  0.85843500  0.48024654  1
  P  P4  1  0.00345987  0.14156500  0.51975346  1
  P  P5  1  0.00345987  0.35843500  0.51975346  1
  P  P6  1  0.54543607  0.25000000  0.99924234  1
  P  P7  1  0.99654013  0.64156500  0.48024654  1
  P  P8  1  0.34548360  0.42153372  0.81198328  1
  P  P9  1  0.65451740  0.57846628  0.18801672  1
  P  P10  1  0.65451740  0.92153372  0.18801672  1
  P  P11  1  0.45456393  0.75000000  0.00075766  1
  O  O12  1  0.70203886  0.75000000  0.93088365  1
  O  O13  1  0.15892862  0.07359620  0.43675044  1
  O  O14  1  0.13291859  0.35260787  0.69644766  1
  O  O15  1  0.29502003  0.87693867  0.50014290  1
  O  O16  1  0.13291859  0.14739213  0.69644766  1
  O  O17  1  0.44011609  0.66052503  0.11465081  1
  O  O18  1  0.95827528  0.75000000  0.53777503  1
  O  O19  1  0.78715735  0.97405721  0.08009780  1
  O  O20  1  0.21284265  0.47405721  0.91990220  1
  O  O21  1  0.50280321  0.51814262  0.28912560  1
  O  O22  1  0.70497997  0.37693867  0.49985710  1
  O  O23  1  0.15892862  0.42640380  0.43675044  1
  O  O24  1  0.49719679  0.48185738  0.71087440  1
  O  O25  1  0.44011609  0.83947497  0.11465081  1
  O  O26  1  0.86708141  0.85260787  0.30355234  1
  O  O27  1  0.49719679  0.01814262  0.71087440  1
  O  O28  1  0.86708141  0.64739213  0.30355234  1
  O  O29  1  0.04172472  0.25000000  0.46222497  1
  O  O30  1  0.21807337  0.75000000  0.86801376  1
  O  O31  1  0.70497997  0.12306133  0.49985710  1
  O  O32  1  0.84107138  0.57359620  0.56324956  1
  O  O33  1  0.84107138  0.92640380  0.56324956  1
  O  O34  1  0.29502003  0.62306133  0.50014290  1
  O  O35  1  0.21284265  0.02594279  0.91990220  1
  O  O36  1  0.29796114  0.25000000  0.06911635  1
  O  O37  1  0.55988391  0.16052503  0.88534919  1
  O  O38  1  0.50280321  0.98185738  0.28912560  1
  O  O39  1  0.78715735  0.52594279  0.08009780  1
  O  O40  1  0.55988391  0.33947497  0.88534919  1
  O  O41  1  0.78192663  0.25000000  0.13198624  1
