# generated using pymatgen
data_KSn2H36C12(Se2N)3
_symmetry_space_group_name_H-M   'P 1'
_cell_length_a   9.78492340
_cell_length_b   10.21831878
_cell_length_c   16.29654973
_cell_angle_alpha   95.16547861
_cell_angle_beta   92.65954236
_cell_angle_gamma   107.02632847
_symmetry_Int_Tables_number   1
_chemical_formula_structural   KSn2H36C12(Se2N)3
_chemical_formula_sum   'K2 Sn4 H72 C24 Se12 N6'
_cell_volume   1547.13764453
_cell_formula_units_Z   2
loop_
 _symmetry_equiv_pos_site_id
 _symmetry_equiv_pos_as_xyz
  1  'x, y, z'
loop_
 _atom_site_type_symbol
 _atom_site_label
 _atom_site_symmetry_multiplicity
 _atom_site_fract_x
 _atom_site_fract_y
 _atom_site_fract_z
 _atom_site_occupancy
  K  K0  1  0.69621171  0.18964683  0.68678623  1
  K  K1  1  0.30378829  0.81035317  0.31321377  1
  Sn  Sn2  1  0.90334090  0.40231543  0.90551299  1
  Sn  Sn3  1  0.09665910  0.59768457  0.09448701  1
  Sn  Sn4  1  0.60370160  0.13188195  0.43852715  1
  Sn  Sn5  1  0.39629840  0.86811805  0.56147285  1
  H  H6  1  0.81312542  0.75328906  0.91508304  1
  H  H7  1  0.18687458  0.24671094  0.08491696  1
  H  H8  1  0.84742938  0.93821271  0.93525594  1
  H  H9  1  0.15257062  0.06178729  0.06474406  1
  H  H10  1  0.90547294  0.84149016  0.01140909  1
  H  H11  1  0.09452706  0.15850984  0.98859091  1
  H  H12  1  0.64985461  0.59901359  0.98493773  1
  H  H13  1  0.35014539  0.40098641  0.01506227  1
  H  H14  1  0.73828921  0.68623360  0.08210419  1
  H  H15  1  0.26171079  0.31376640  0.91789581  1
  H  H16  1  0.54656929  0.65614375  0.06274606  1
  H  H17  1  0.45343071  0.34385625  0.93725394  1
  H  H18  1  0.57038865  0.72046281  0.88538865  1
  H  H19  1  0.42961135  0.27953719  0.11461135  1
  H  H20  1  0.46296111  0.78049550  0.95726196  1
  H  H21  1  0.53703889  0.21950450  0.04273804  1
  H  H22  1  0.59367497  0.90143476  0.90430348  1
  H  H23  1  0.40632503  0.09856524  0.09569652  1
  H  H24  1  0.76829420  0.93144701  0.11372934  1
  H  H25  1  0.23170580  0.06855299  0.88627066  1
  H  H26  1  0.71005857  0.02526274  0.03851283  1
  H  H27  1  0.28994143  0.97473726  0.96148717  1
  H  H28  1  0.58062519  0.90492642  0.09168493  1
  H  H29  1  0.41937481  0.09507358  0.90831507  1
  H  H30  1  0.67816184  0.81152149  0.33264651  1
  H  H31  1  0.32183816  0.18847851  0.66735349  1
  H  H32  1  0.77430288  0.76998240  0.24668222  1
  H  H33  1  0.22569712  0.23001760  0.75331778  1
  H  H34  1  0.58169874  0.70045387  0.24333690  1
  H  H35  1  0.41830126  0.29954613  0.75666310  1
  H  H36  1  0.57073159  0.63523741  0.42055990  1
  H  H37  1  0.42926841  0.36476259  0.57944010  1
  H  H38  1  0.47517420  0.52565404  0.33127381  1
  H  H39  1  0.52482580  0.47434596  0.66872619  1
  H  H40  1  0.58725140  0.46405466  0.40012712  1
  H  H41  1  0.41274860  0.53594534  0.59987288  1
  H  H42  1  0.71265561  0.40831832  0.28359659  1
  H  H43  1  0.28734439  0.59168168  0.71640341  1
  H  H44  1  0.60305845  0.47142829  0.21603027  1
  H  H45  1  0.39694155  0.52857171  0.78396973  1
  H  H46  1  0.79450202  0.54055954  0.21860305  1
  H  H47  1  0.20549798  0.45944046  0.78139695  1
  H  H48  1  0.83232392  0.73247434  0.42400332  1
  H  H49  1  0.16767608  0.26752566  0.57599668  1
  H  H50  1  0.85193446  0.56308531  0.40418566  1
  H  H51  1  0.14806554  0.43691469  0.59581434  1
  H  H52  1  0.92568496  0.69358489  0.33708091  1
  H  H53  1  0.07431504  0.30641511  0.66291909  1
  H  H54  1  0.02767595  0.89427605  0.80370950  1
  H  H55  1  0.97232405  0.10572395  0.19629050  1
  H  H56  1  0.95444829  0.70966467  0.79667885  1
  H  H57  1  0.04555171  0.29033533  0.20332115  1
  H  H58  1  0.11940710  0.78747553  0.74953528  1
  H  H59  1  0.88059290  0.21252447  0.25046472  1
  H  H60  1  0.84291515  0.66927576  0.57643840  1
  H  H61  1  0.15708485  0.33072424  0.42356160  1
  H  H62  1  0.00920390  0.65645418  0.61901866  1
  H  H63  1  0.99079610  0.34354582  0.38098134  1
  H  H64  1  0.84530819  0.58218463  0.66744280  1
  H  H65  1  0.15469181  0.41781537  0.33255720  1
  H  H66  1  0.80411160  0.90728157  0.75363653  1
  H  H67  1  0.19588840  0.09271843  0.24636347  1
  H  H68  1  0.71312826  0.80831571  0.65950962  1
  H  H69  1  0.28687174  0.19168429  0.34049038  1
  H  H70  1  0.73862510  0.72243222  0.74877835  1
  H  H71  1  0.26137490  0.27756778  0.25122165  1
  H  H72  1  0.01451819  0.01359298  0.68376078  1
  H  H73  1  0.98548181  0.98640702  0.31623922  1
  H  H74  1  0.10423832  0.90799496  0.62693912  1
  H  H75  1  0.89576168  0.09200504  0.37306088  1
  H  H76  1  0.93210665  0.91763359  0.58722543  1
  H  H77  1  0.06789335  0.08236641  0.41277457  1
  C  C78  1  0.82372326  0.84013460  0.96239360  1
  C  C79  1  0.17627674  0.15986540  0.03760640  1
  C  C80  1  0.65052669  0.67816192  0.03551411  1
  C  C81  1  0.34947331  0.32183808  0.96448589  1
  C  C82  1  0.56829635  0.80410048  0.93196640  1
  C  C83  1  0.43170365  0.19589952  0.06803360  1
  C  C84  1  0.68501903  0.92718929  0.06534065  1
  C  C85  1  0.31498097  0.07281071  0.93465935  1
  C  C86  1  0.68204048  0.73236616  0.28329938  1
  C  C87  1  0.31795952  0.26763384  0.71670062  1
  C  C88  1  0.57371129  0.55392169  0.37246582  1
  C  C89  1  0.42628871  0.44607831  0.62753418  1
  C  C90  1  0.70358925  0.49923007  0.25532556  1
  C  C91  1  0.29641075  0.50076993  0.74467444  1
  C  C92  1  0.83783200  0.65227474  0.37588662  1
  C  C93  1  0.16216800  0.34772526  0.62411338  1
  C  C94  1  0.01447107  0.79672001  0.76535383  1
  C  C95  1  0.98552893  0.20327999  0.23464617  1
  C  C96  1  0.90458805  0.66664308  0.63388075  1
  C  C97  1  0.09541195  0.33335692  0.36611925  1
  C  C98  1  0.78406634  0.80979645  0.71386132  1
  C  C99  1  0.21593366  0.19020355  0.28613868  1
  C  C100  1  0.99996913  0.91850679  0.64301061  1
  C  C101  1  0.00003087  0.08149321  0.35698939  1
  Se  Se102  1  0.13353733  0.61940799  0.93752158  1
  Se  Se103  1  0.86646267  0.38059201  0.06247842  1
  Se  Se104  1  0.70163795  0.45996952  0.83031127  1
  Se  Se105  1  0.29836205  0.54003048  0.16968873  1
  Se  Se106  1  0.95549855  0.19451185  0.83473209  1
  Se  Se107  1  0.04450145  0.80548815  0.16526791  1
  Se  Se108  1  0.34499500  0.07875103  0.49435011  1
  Se  Se109  1  0.65500500  0.92124897  0.50564989  1
  Se  Se110  1  0.77487837  0.34373757  0.51136178  1
  Se  Se111  1  0.22512163  0.65626243  0.48863822  1
  Se  Se112  1  0.42225232  0.90865916  0.71511500  1
  Se  Se113  1  0.57774768  0.09134084  0.28488500  1
  N  N114  1  0.68142084  0.81351480  0.99942016  1
  N  N115  1  0.31857916  0.18648520  0.00057984  1
  N  N116  1  0.69904991  0.60912921  0.32200252  1
  N  N117  1  0.30095009  0.39087079  0.67799748  1
  N  N118  1  0.92615216  0.79882951  0.68803108  1
  N  N119  1  0.07384784  0.20117049  0.31196892  1
