# generated using pymatgen
data_Cu4H10SO12
_symmetry_space_group_name_H-M   'P 1'
_cell_length_a   7.63050134
_cell_length_b   6.02120942
_cell_length_c   11.58719267
_cell_angle_alpha   90.00000000
_cell_angle_beta   90.82868699
_cell_angle_gamma   90.00000000
_symmetry_Int_Tables_number   1
_chemical_formula_structural   Cu4H10SO12
_chemical_formula_sum   'Cu8 H20 S2 O24'
_cell_volume   532.31610710
_cell_formula_units_Z   2
loop_
 _symmetry_equiv_pos_site_id
 _symmetry_equiv_pos_as_xyz
  1  'x, y, z'
loop_
 _atom_site_type_symbol
 _atom_site_label
 _atom_site_symmetry_multiplicity
 _atom_site_fract_x
 _atom_site_fract_y
 _atom_site_fract_z
 _atom_site_occupancy
  Cu  Cu0  1  0.98783064  0.00067206  0.00480617  1
  Cu  Cu1  1  0.98783064  0.99932794  0.50480617  1
  Cu  Cu2  1  0.98922937  0.50202330  0.00594629  1
  Cu  Cu3  1  0.98922937  0.49797670  0.50594629  1
  Cu  Cu4  1  0.98548407  0.75173678  0.75639082  1
  Cu  Cu5  1  0.98548407  0.24826322  0.25639082  1
  Cu  Cu6  1  0.98886007  0.26534376  0.75160616  1
  Cu  Cu7  1  0.98886007  0.73465624  0.25160616  1
  H  H8  1  0.25062339  0.24400663  0.52837534  1
  H  H9  1  0.25062339  0.75599337  0.02837534  1
  H  H10  1  0.23118835  0.62303353  0.62706525  1
  H  H11  1  0.23118835  0.37696647  0.12706525  1
  H  H12  1  0.73383675  0.73067910  0.46590572  1
  H  H13  1  0.73383675  0.26932090  0.96590572  1
  H  H14  1  0.22226567  0.99511699  0.85416823  1
  H  H15  1  0.22226567  0.00488301  0.35416823  1
  H  H16  1  0.75431982  0.99744863  0.66707896  1
  H  H17  1  0.75431982  0.00255137  0.16707896  1
  H  H18  1  0.23510575  0.49554414  0.84125943  1
  H  H19  1  0.23510575  0.50445586  0.34125943  1
  H  H20  1  0.65233890  0.60849000  0.87268914  1
  H  H21  1  0.65233890  0.39151000  0.37268914  1
  H  H22  1  0.64212832  0.84719372  0.92284359  1
  H  H23  1  0.64212832  0.15280628  0.42284359  1
  H  H24  1  0.48140146  0.26504066  0.78146957  1
  H  H25  1  0.48140146  0.73495934  0.28146957  1
  H  H26  1  0.51523270  0.48355273  0.71445096  1
  H  H27  1  0.51523270  0.51644727  0.21445096  1
  S  S28  1  0.45155402  0.83526712  0.58157585  1
  S  S29  1  0.45155402  0.16473288  0.08157585  1
  O  O30  1  0.50405447  0.96802600  0.68181647  1
  O  O31  1  0.50405447  0.03197400  0.18181647  1
  O  O32  1  0.24383835  0.77678879  0.59867498  1
  O  O33  1  0.24383835  0.22321121  0.09867498  1
  O  O34  1  0.53717657  0.61775904  0.57505935  1
  O  O35  1  0.53717657  0.38224096  0.07505935  1
  O  O36  1  0.45169213  0.03928618  0.97274957  1
  O  O37  1  0.45169213  0.96071382  0.47274957  1
  O  O38  1  0.13383137  0.25113118  0.56154734  1
  O  O39  1  0.13383137  0.74886882  0.06154734  1
  O  O40  1  0.90923368  0.48523866  0.16137302  1
  O  O41  1  0.90923368  0.51476134  0.66137302  1
  O  O42  1  0.85546010  0.74638720  0.44169736  1
  O  O43  1  0.85546010  0.25361280  0.94169736  1
  O  O44  1  0.09426992  0.00211541  0.84566675  1
  O  O45  1  0.09426992  0.99788459  0.34566675  1
  O  O46  1  0.88368761  0.99409260  0.16406896  1
  O  O47  1  0.88368761  0.00590740  0.66406896  1
  O  O48  1  0.10558929  0.49385451  0.34815855  1
  O  O49  1  0.10558929  0.50614549  0.84815855  1
  O  O50  1  0.72641192  0.73464391  0.89737217  1
  O  O51  1  0.72641192  0.26535609  0.39737217  1
  O  O52  1  0.47515531  0.42673152  0.78988399  1
  O  O53  1  0.47515531  0.57326848  0.28988399  1
