# generated using pymatgen
data_CeGaO3
_symmetry_space_group_name_H-M   'P 1'
_cell_length_a   5.49188311
_cell_length_b   5.58874082
_cell_length_c   7.86941229
_cell_angle_alpha   90.00000000
_cell_angle_beta   90.00000000
_cell_angle_gamma   90.00000000
_symmetry_Int_Tables_number   1
_chemical_formula_structural   CeGaO3
_chemical_formula_sum   'Ce4 Ga4 O12'
_cell_volume   241.53359964
_cell_formula_units_Z   4
loop_
 _symmetry_equiv_pos_site_id
 _symmetry_equiv_pos_as_xyz
  1  'x, y, z'
loop_
 _atom_site_type_symbol
 _atom_site_label
 _atom_site_symmetry_multiplicity
 _atom_site_fract_x
 _atom_site_fract_y
 _atom_site_fract_z
 _atom_site_occupancy
  Ce  Ce0  1  0.51019205  0.53905137  0.25000000  1
  Ce  Ce1  1  0.98980795  0.03905137  0.25000000  1
  Ce  Ce2  1  0.48980795  0.46094863  0.75000000  1
  Ce  Ce3  1  0.01019205  0.96094863  0.75000000  1
  Ga  Ga4  1  0.50000000  0.00000000  -0.00000000  1
  Ga  Ga5  1  0.00000000  0.50000000  0.50000000  1
  Ga  Ga6  1  0.50000000  0.00000000  0.50000000  1
  Ga  Ga7  1  0.00000000  0.50000000  0.00000000  1
  O  O8  1  0.41832034  0.98183825  0.25000000  1
  O  O9  1  0.08167966  0.48183825  0.25000000  1
  O  O10  1  0.58167966  0.01816175  0.75000000  1
  O  O11  1  0.91832034  0.51816175  0.75000000  1
  O  O12  1  0.79022023  0.79024997  0.04333253  1
  O  O13  1  0.70977977  0.29024997  0.45666747  1
  O  O14  1  0.20977977  0.20975003  0.54333253  1
  O  O15  1  0.29022023  0.70975003  0.95666747  1
  O  O16  1  0.20977977  0.20975003  0.95666747  1
  O  O17  1  0.29022023  0.70975003  0.54333253  1
  O  O18  1  0.79022023  0.79024997  0.45666747  1
  O  O19  1  0.70977977  0.29024997  0.04333253  1
