# generated using pymatgen
data_LiV(PO4)2
_symmetry_space_group_name_H-M   'P 1'
_cell_length_a   8.42845705
_cell_length_b   8.44226843
_cell_length_c   7.24060793
_cell_angle_alpha   90.25393390
_cell_angle_beta   89.60959592
_cell_angle_gamma   60.12953672
_symmetry_Int_Tables_number   1
_chemical_formula_structural   LiV(PO4)2
_chemical_formula_sum   'Li3 V3 P6 O24'
_cell_volume   446.73557242
_cell_formula_units_Z   3
loop_
 _symmetry_equiv_pos_site_id
 _symmetry_equiv_pos_as_xyz
  1  'x, y, z'
loop_
 _atom_site_type_symbol
 _atom_site_label
 _atom_site_symmetry_multiplicity
 _atom_site_fract_x
 _atom_site_fract_y
 _atom_site_fract_z
 _atom_site_occupancy
  Li  Li0  1  0.32799008  0.33895325  0.50303490  1
  Li  Li1  1  0.00107933  0.00455465  0.49263077  1
  Li  Li2  1  0.67220848  0.66112628  0.49711060  1
  V  V3  1  0.33340148  0.33347746  0.92703200  1
  V  V4  1  0.99984718  0.99973344  0.99967145  1
  V  V5  1  0.66653208  0.66638589  0.07335529  1
  P  P6  1  0.03508805  0.64705165  0.22913483  1
  P  P7  1  0.35775934  0.67918666  0.77115380  1
  P  P8  1  0.68343953  0.96095253  0.77000123  1
  P  P9  1  0.31634243  0.03869182  0.23004821  1
  P  P10  1  0.96492677  0.35258174  0.77119746  1
  P  P11  1  0.64226534  0.32064083  0.22924840  1
  O  O12  1  0.13686584  0.37607636  0.76082938  1
  O  O13  1  0.14019402  0.60376091  0.40481361  1
  O  O14  1  0.69172544  0.83169131  0.92964938  1
  O  O15  1  0.15593166  0.80679852  0.84017581  1
  O  O16  1  0.47686522  0.68388208  0.93490332  1
  O  O17  1  0.84437160  0.19263955  0.16158580  1
  O  O18  1  0.25620760  0.14054906  0.40954444  1
  O  O19  1  0.96007626  0.84821096  0.16200825  1
  O  O20  1  0.74347847  0.85915715  0.59077761  1
  O  O21  1  0.16157165  0.52709988  0.06508865  1
  O  O22  1  0.86051542  0.39463344  0.59519635  1
  O  O23  1  0.40517461  0.73941250  0.59579513  1
  O  O24  1  0.04001312  0.15146889  0.83894134  1
  O  O25  1  0.51174378  0.86775361  0.23414575  1
  O  O26  1  0.52311939  0.31581891  0.06546238  1
  O  O27  1  0.59434543  0.26094756  0.40480803  1
  O  O28  1  0.80967832  0.03623831  0.83918581  1
  O  O29  1  0.37834631  0.48527907  0.75975147  1
  O  O30  1  0.48815325  0.13215567  0.76596506  1
  O  O31  1  0.62159465  0.51457718  0.24044927  1
  O  O32  1  0.86315989  0.62355353  0.23936844  1
  O  O33  1  0.83829384  0.47261838  0.93484783  1
  O  O34  1  0.18972085  0.96351567  0.16243022  1
  O  O35  1  0.30816531  0.16791631  0.07039673  1
