# generated using pymatgen
data_Ca6Ga6Si3(HO12)2
_symmetry_space_group_name_H-M   'P 1'
_cell_length_a   7.97358595
_cell_length_b   7.79294827
_cell_length_c   23.37728872
_cell_angle_alpha   109.16352916
_cell_angle_beta   109.83801986
_cell_angle_gamma   109.65262438
_symmetry_Int_Tables_number   1
_chemical_formula_structural   Ca6Ga6Si3(HO12)2
_chemical_formula_sum   'Ca12 Ga12 Si6 H4 O48'
_cell_volume   1114.85884911
_cell_formula_units_Z   2
loop_
 _symmetry_equiv_pos_site_id
 _symmetry_equiv_pos_as_xyz
  1  'x, y, z'
loop_
 _atom_site_type_symbol
 _atom_site_label
 _atom_site_symmetry_multiplicity
 _atom_site_fract_x
 _atom_site_fract_y
 _atom_site_fract_z
 _atom_site_occupancy
  Ca  Ca0  1  0.00201518  0.00254789  0.90387650  1
  Ca  Ca1  1  0.28702029  0.28007306  0.76108958  1
  Ca  Ca2  1  0.68858209  0.99236949  0.66632752  1
  Ca  Ca3  1  0.29410663  0.28136513  0.42672281  1
  Ca  Ca4  1  0.68780145  0.99489316  0.33148629  1
  Ca  Ca5  1  0.01600730  0.71399946  0.66836821  1
  Ca  Ca6  1  0.01053546  0.99722955  0.57095201  1
  Ca  Ca7  1  0.29612330  0.29742757  0.09792442  1
  Ca  Ca8  1  0.00954246  0.70912869  0.33179493  1
  Ca  Ca9  1  0.00900821  0.00043558  0.23653614  1
  Ca  Ca10  1  0.71570396  0.00346025  0.00016129  1
  Ca  Ca11  1  0.99877635  0.71458327  0.00052524  1
  Ga  Ga12  1  0.24631437  0.50191471  0.91813729  1
  Ga  Ga13  1  0.49755791  0.74575103  0.75312790  1
  Ga  Ga14  1  0.49278728  0.24597742  0.91345136  1
  Ga  Ga15  1  0.25039390  0.75764973  0.50115963  1
  Ga  Ga16  1  0.25410099  0.75536208  0.16540181  1
  Ga  Ga17  1  0.75103162  0.49843292  0.74982361  1
  Ga  Ga18  1  0.25069756  0.49677733  0.25053105  1
  Ga  Ga19  1  0.75069719  0.25189442  0.83428102  1
  Ga  Ga20  1  0.74281722  0.50220159  0.41399585  1
  Ga  Ga21  1  0.74960019  0.24092482  0.49990805  1
  Ga  Ga22  1  0.74903103  0.50327365  0.08203447  1
  Ga  Ga23  1  0.74370526  0.24246167  0.16700199  1
  Si  Si24  1  0.24689231  0.74562343  0.83264774  1
  Si  Si25  1  0.25480379  0.49825817  0.58285874  1
  Si  Si26  1  0.49894762  0.74797576  0.41838812  1
  Si  Si27  1  0.50708889  0.26559580  0.58432277  1
  Si  Si28  1  0.50290671  0.75075742  0.08367701  1
  Si  Si29  1  0.50108871  0.25377655  0.25004191  1
  H  H30  1  0.36477320  0.01350006  0.67101339  1
  H  H31  1  0.65468297  0.65277325  0.88513207  1
  H  H32  1  0.36137461  0.00731212  0.33536815  1
  H  H33  1  0.35359097  0.01995948  0.00672454  1
  O  O34  1  0.97473963  0.98892210  0.72422289  1
  O  O35  1  0.00136868  0.46734305  0.91200275  1
  O  O36  1  0.01906424  0.72604139  0.81415084  1
  O  O37  1  0.42961547  0.97540947  0.90245655  1
  O  O38  1  0.22874936  0.98825391  0.66290672  1
  O  O39  1  0.27559425  0.56279470  0.84831673  1
  O  O40  1  0.26464444  0.71840360  0.76148479  1
  O  O41  1  0.26080137  0.26316329  0.90390651  1
  O  O42  1  0.99897886  0.73615123  0.48015706  1
  O  O43  1  0.42209653  0.70525470  0.66072333  1
  O  O44  1  0.44363966  0.03247766  0.57744803  1
  O  O45  1  0.23443914  0.99689090  0.33350824  1
  O  O46  1  0.27805517  0.55348386  0.52270055  1
  O  O47  1  0.77915257  0.77847968  0.92538428  1
  O  O48  1  0.53515783  0.27344226  0.84337016  1
  O  O49  1  0.29357347  0.72305445  0.42575228  1
  O  O50  1  0.30054769  0.29722491  0.57355971  1
  O  O51  1  0.54136009  0.53391022  0.75791500  1
  O  O52  1  0.71508032  0.25769752  0.75174022  1
  O  O53  1  0.45175961  0.73202333  0.34227064  1
  O  O54  1  0.45755729  0.02570658  0.24479715  1
  O  O55  1  0.71264715  0.45192852  0.65993668  1
  O  O56  1  0.73341601  0.99484621  0.81701012  1
  O  O57  1  0.29967455  0.56359693  0.18783297  1
  O  O58  1  0.79863058  0.81240179  0.60379147  1
  O  O59  1  0.55464797  0.28149891  0.52231861  1
  O  O60  1  0.29712045  0.27289829  0.24510030  1
  O  O61  1  0.29803077  0.73171822  0.09032500  1
  O  O62  1  0.54169348  0.56105063  0.42534446  1
  O  O63  1  0.70012382  0.26511369  0.42167850  1
  O  O64  1  0.46145832  0.73632871  0.00760224  1
  O  O65  1  0.21839916  0.99896993  0.99895863  1
  O  O66  1  0.71093409  0.44514608  0.32612876  1
  O  O67  1  0.70799354  0.97509252  0.48223446  1
  O  O68  1  0.71171175  0.97764701  0.14850340  1
  O  O69  1  0.97091976  0.17362837  0.66235257  1
  O  O70  1  0.98350578  0.00344536  0.39524631  1
  O  O71  1  0.80640821  0.82158448  0.27459167  1
  O  O72  1  0.02348883  0.42338773  0.57443488  1
  O  O73  1  0.54466402  0.27644684  0.18834208  1
  O  O74  1  0.54656535  0.56520187  0.09175721  1
  O  O75  1  0.69515290  0.25865966  0.08706723  1
  O  O76  1  0.73480162  0.44500972  0.99734235  1
  O  O77  1  0.98341076  0.18470615  0.33564631  1
  O  O78  1  0.00723862  0.01302150  0.07578260  1
  O  O79  1  0.00142853  0.43563921  0.24652808  1
  O  O80  1  0.00632845  0.73788743  0.15165649  1
  O  O81  1  0.00485683  0.22068195  0.00202978  1
