# generated using pymatgen
data_La14Mn16O45
_symmetry_space_group_name_H-M   'P 1'
_cell_length_a   5.62377206
_cell_length_b   5.60114960
_cell_length_c   31.34142642
_cell_angle_alpha   89.41039429
_cell_angle_beta   90.29322702
_cell_angle_gamma   90.33333642
_symmetry_Int_Tables_number   1
_chemical_formula_structural   La14Mn16O45
_chemical_formula_sum   'La14 Mn16 O45'
_cell_volume   987.16043173
_cell_formula_units_Z   1
loop_
 _symmetry_equiv_pos_site_id
 _symmetry_equiv_pos_as_xyz
  1  'x, y, z'
loop_
 _atom_site_type_symbol
 _atom_site_label
 _atom_site_symmetry_multiplicity
 _atom_site_fract_x
 _atom_site_fract_y
 _atom_site_fract_z
 _atom_site_occupancy
  La  La0  1  0.99226758  0.97767393  0.17632058  1
  La  La1  1  0.00278433  0.98782287  0.42764526  1
  La  La2  1  0.00772041  0.97002525  0.68736220  1
  La  La3  1  0.00933862  0.97567895  0.94648466  1
  La  La4  1  0.49441221  0.48694866  0.43331860  1
  La  La5  1  0.51646545  0.48422855  0.18498540  1
  La  La6  1  0.49068268  0.46936534  0.68752779  1
  La  La7  1  0.49727816  0.47583722  0.94172631  1
  La  La8  1  0.52037978  0.52844373  0.06183873  1
  La  La9  1  0.51417865  0.53522477  0.31374641  1
  La  La10  1  0.50764321  0.53158347  0.81489898  1
  La  La11  1  0.50617017  0.53309806  0.55981667  1
  La  La12  1  0.99131059  0.03097488  0.81607757  1
  La  La13  1  0.98993694  0.03265212  0.55876383  1
  Mn  Mn14  1  0.00332459  0.48602838  0.12587114  1
  Mn  Mn15  1  0.99499250  0.50349361  0.37344517  1
  Mn  Mn16  1  0.99847625  0.50111945  0.62377408  1
  Mn  Mn17  1  0.00120443  0.50066639  0.87755426  1
  Mn  Mn18  1  -0.00017467  0.49029481  0.00147509  1
  Mn  Mn19  1  0.98520962  0.50751286  0.25020854  1
  Mn  Mn20  1  0.99860298  0.50546850  0.49722650  1
  Mn  Mn21  1  0.99848983  0.50113349  0.75130250  1
  Mn  Mn22  1  0.50102389  0.01163198  0.36907333  1
  Mn  Mn23  1  0.49718339  -0.00025599  0.12301267  1
  Mn  Mn24  1  0.50973407  0.99783602  0.00524848  1
  Mn  Mn25  1  0.49875945  0.00143719  0.62357806  1
  Mn  Mn26  1  0.52789705  0.99505781  0.25297684  1
  Mn  Mn27  1  0.49692634  0.00034686  0.87832126  1
  Mn  Mn28  1  0.49957129  0.00059174  0.75133473  1
  Mn  Mn29  1  0.49396231  0.00467883  0.49630235  1
  O  O30  1  0.07867870  0.48517314  0.55908663  1
  O  O31  1  0.08024105  0.48410141  0.81562938  1
  O  O32  1  0.21301574  0.22112840  0.48559191  1
  O  O33  1  0.22180018  0.21828402  0.73986622  1
  O  O34  1  0.23796564  0.24080148  0.99316375  1
  O  O35  1  0.24012558  0.23541536  0.13253242  1
  O  O36  1  0.23873962  0.25892158  0.38158635  1
  O  O37  1  0.21771391  0.21906301  0.63488487  1
  O  O38  1  0.21413211  0.21596783  0.88896906  1
  O  O39  1  0.29331903  0.66878892  0.24520263  1
  O  O40  1  0.26380968  0.71820406  0.13420204  1
  O  O41  1  0.26292747  0.73156450  0.37994761  1
  O  O42  1  0.27630453  0.72306364  0.48697336  1
  O  O43  1  0.28140830  0.71806902  0.63482879  1
  O  O44  1  0.27935366  0.71791711  0.88789178  1
  O  O45  1  0.27937288  0.71804859  0.73998990  1
  O  O46  1  0.27302706  0.71292748  0.99443712  1
  O  O47  1  0.44589157  0.95618059  0.06389480  1
  O  O48  1  0.42045936  0.01156025  0.30919659  1
  O  O49  1  0.42056813  0.98709415  0.81493311  1
  O  O50  1  0.41931325  0.98886886  0.56035002  1
  O  O51  1  0.57021006  0.01346774  0.43298167  1
  O  O52  1  0.58023228  0.01675494  0.68729834  1
  O  O53  1  0.54320318  0.02173003  0.18987637  1
  O  O54  1  0.57696932  0.00998647  0.94123255  1
  O  O55  1  0.72517425  0.28496953  0.01047356  1
  O  O56  1  0.72751958  0.27865477  0.11842015  1
  O  O57  1  0.69481785  0.30992234  0.25735663  1
  O  O58  1  0.72010460  0.28351094  0.76221024  1
  O  O59  1  0.71866987  0.28272519  0.86652846  1
  O  O60  1  0.73146052  0.28537113  0.36545848  1
  O  O61  1  0.71646639  0.28570166  0.50813749  1
  O  O62  1  0.71703962  0.28471646  0.61295423  1
  O  O63  1  0.76138345  0.74631901  0.12689598  1
  O  O64  1  0.77725958  0.77859444  0.86616313  1
  O  O65  1  0.77174678  0.74295004  0.01085756  1
  O  O66  1  0.78876677  0.77580267  0.25856267  1
  O  O67  1  0.75562915  0.75085971  0.36438737  1
  O  O68  1  0.78186674  0.78456628  0.61285908  1
  O  O69  1  0.77850129  0.78394541  0.76230261  1
  O  O70  1  0.77243754  0.78218413  0.50875364  1
  O  O71  1  0.96419616  0.44109842  0.18975076  1
  O  O72  1  0.92151827  0.51572553  0.68770574  1
  O  O73  1  0.92681043  0.51352063  0.93714885  1
  O  O74  1  0.92319676  0.52237939  0.43763312  1
