# generated using pymatgen
data_Fe35O36
_symmetry_space_group_name_H-M   'P 1'
_cell_length_a   9.26692386
_cell_length_b   16.38421682
_cell_length_c   11.13090642
_cell_angle_alpha   42.83572569
_cell_angle_beta   56.43183620
_cell_angle_gamma   40.82027203
_symmetry_Int_Tables_number   1
_chemical_formula_structural   Fe35O36
_chemical_formula_sum   'Fe35 O36'
_cell_volume   751.10791739
_cell_formula_units_Z   1
loop_
 _symmetry_equiv_pos_site_id
 _symmetry_equiv_pos_as_xyz
  1  'x, y, z'
loop_
 _atom_site_type_symbol
 _atom_site_label
 _atom_site_symmetry_multiplicity
 _atom_site_fract_x
 _atom_site_fract_y
 _atom_site_fract_z
 _atom_site_occupancy
  Fe  Fe0  1  0.17003166  0.24929832  0.99661245  1
  Fe  Fe1  1  0.99613836  0.50185322  0.99643662  1
  Fe  Fe2  1  0.22649387  0.16326813  0.33666226  1
  Fe  Fe3  1  0.05866361  0.41518360  0.33525046  1
  Fe  Fe4  1  0.51537500  0.24314973  0.99391893  1
  Fe  Fe5  1  0.27007678  0.07792427  0.67664687  1
  Fe  Fe6  1  0.33510457  0.50215216  0.99766858  1
  Fe  Fe7  1  0.11465770  0.33457258  0.66451236  1
  Fe  Fe8  1  0.55158824  0.16649612  0.33658112  1
  Fe  Fe9  1  0.83842202  0.23715316  0.00606221  1
  Fe  Fe10  1  0.60910729  0.08496306  0.66573515  1
  Fe  Fe11  1  0.38917249  0.41639600  0.33163068  1
  Fe  Fe12  1  0.16702376  0.76012892  0.99435488  1
  Fe  Fe13  1  0.89035173  0.16676254  0.33111711  1
  Fe  Fe14  1  0.66415582  0.49899003  0.00319640  1
  Fe  Fe15  1  0.20871254  0.67766254  0.32259423  1
  Fe  Fe16  1  0.43790374  0.33794076  0.65978541  1
  Fe  Fe17  1  0.93783190  0.08394440  0.67503625  1
  Fe  Fe18  1  0.72242067  0.41815573  0.33376854  1
  Fe  Fe19  1  0.48270706  0.75830251  0.00529959  1
  Fe  Fe20  1  0.27949707  0.58142878  0.66804282  1
  Fe  Fe21  1  0.06018228  0.91700299  0.32103197  1
  Fe  Fe22  1  0.78994272  0.32258211  0.67581739  1
  Fe  Fe23  1  0.56319691  0.66269547  0.33752286  1
  Fe  Fe24  1  0.32543907  0.00335696  0.99618326  1
  Fe  Fe25  1  0.11110469  0.83175332  0.66916093  1
  Fe  Fe26  1  0.83021041  0.74782047  0.00385634  1
  Fe  Fe27  1  0.61436182  0.58065856  0.66851831  1
  Fe  Fe28  1  0.38717089  0.91816786  0.32908183  1
  Fe  Fe29  1  0.88398176  0.66811819  0.33388946  1
  Fe  Fe30  1  0.67952967  0.99568123  0.00442325  1
  Fe  Fe31  1  0.45136464  0.83017849  0.66426521  1
  Fe  Fe32  1  0.94669675  0.58220990  0.66677571  1
  Fe  Fe33  1  0.72743989  0.92419155  0.32337958  1
  Fe  Fe34  1  0.77361195  0.83612968  0.66820146  1
  O  O35  1  0.09886120  0.08837161  0.17583037  1
  O  O36  1  0.14884475  0.00772817  0.49764975  1
  O  O37  1  0.43609409  0.08349809  0.17346614  1
  O  O38  1  0.27700649  0.33958179  0.16123808  1
  O  O39  1  0.50380545  0.99781915  0.50042136  1
  O  O40  1  0.06158333  0.18059909  0.82210570  1
  O  O41  1  0.76488403  0.08816960  0.17294251  1
  O  O42  1  0.11356947  0.58564211  0.16958363  1
  O  O43  1  0.33495610  0.24262906  0.51019872  1
  O  O44  1  0.63059108  0.32236137  0.17379153  1
  O  O45  1  0.38784199  0.16764188  0.83747435  1
  O  O46  1  0.16903377  0.49232563  0.50645210  1
  O  O47  1  0.67538348  0.24866662  0.48459999  1
  O  O48  1  0.45726690  0.57695192  0.16986381  1
  O  O49  1  0.01112109  0.73795330  0.51861511  1
  O  O50  1  0.22578581  0.42689245  0.82495564  1
  O  O51  1  0.94803559  0.32022356  0.17376913  1
  O  O52  1  0.70437580  0.18202696  0.81481544  1
  O  O53  1  0.47959295  0.50824845  0.50795708  1
  O  O54  1  0.29755018  0.82135345  0.18058135  1
  O  O55  1  0.07198719  0.66006493  0.82108715  1
  O  O56  1  0.78465855  0.58502554  0.16096471  1
  O  O57  1  0.99771428  0.25310022  0.49006976  1
  O  O58  1  0.33173079  0.74309078  0.51265550  1
  O  O59  1  0.53985946  0.42662692  0.82151235  1
  O  O60  1  0.83766915  0.49574795  0.49748622  1
  O  O61  1  0.60044099  0.84232969  0.15810790  1
  O  O62  1  0.38813513  0.66107540  0.84016618  1
  O  O63  1  0.66995812  0.75138682  0.49330777  1
  O  O64  1  0.88491991  0.42045270  0.83062848  1
  O  O65  1  0.23170855  0.91331884  0.82344802  1
  O  O66  1  0.94108162  0.82781570  0.17361294  1
  O  O67  1  0.71744729  0.66677795  0.83875970  1
  O  O68  1  0.56074793  0.91511379  0.82848477  1
  O  O69  1  0.84154196  0.01036447  0.48099612  1
  O  O70  1  0.88585721  0.91338771  0.83091314  1
