# generated using pymatgen
data_Fe43O64
_symmetry_space_group_name_H-M   'P 1'
_cell_length_a   8.53030100
_cell_length_b   8.53030100
_cell_length_c   17.05978024
_cell_angle_alpha   89.75408612
_cell_angle_beta   90.24591388
_cell_angle_gamma   89.60134827
_symmetry_Int_Tables_number   1
_chemical_formula_structural   Fe43O64
_chemical_formula_sum   'Fe43 O64'
_cell_volume   1241.31949269
_cell_formula_units_Z   1
loop_
 _symmetry_equiv_pos_site_id
 _symmetry_equiv_pos_as_xyz
  1  'x, y, z'
loop_
 _atom_site_type_symbol
 _atom_site_label
 _atom_site_symmetry_multiplicity
 _atom_site_fract_x
 _atom_site_fract_y
 _atom_site_fract_z
 _atom_site_occupancy
  Fe  Fe0  1  0.00705675  0.49752345  0.25189944  1
  Fe  Fe1  1  0.00310766  0.48921763  0.75193489  1
  Fe  Fe2  1  0.12047107  0.61759211  0.06588488  1
  Fe  Fe3  1  0.11655506  0.63604384  0.56640035  1
  Fe  Fe4  1  0.13489991  0.36810711  0.43988832  1
  Fe  Fe5  1  0.12692708  0.35964924  0.94432293  1
  Fe  Fe6  1  0.12555589  0.87555589  0.18750000  1
  Fe  Fe7  1  0.13425452  0.11954200  0.31552163  1
  Fe  Fe8  1  0.13891049  0.10971813  0.81396048  1
  Fe  Fe9  1  0.24427999  0.74232920  0.37728567  1
  Fe  Fe10  1  0.24964722  0.74105158  0.87930831  1
  Fe  Fe11  1  0.26074816  0.25291704  0.12895877  1
  Fe  Fe12  1  0.24912294  0.25438475  0.62990580  1
  Fe  Fe13  1  0.36954200  0.88425452  0.05947837  1
  Fe  Fe14  1  0.35971813  0.88891049  0.56103952  1
  Fe  Fe15  1  0.38444911  0.63141583  0.19300308  1
  Fe  Fe16  1  0.36398388  0.63431845  0.68990303  1
  Fe  Fe17  1  0.38908036  0.37443455  0.31733008  1
  Fe  Fe18  1  0.37927119  0.36416275  0.81845478  1
  Fe  Fe19  1  0.49249384  0.50520598  0.00275611  1
  Fe  Fe20  1  0.49561325  0.51230709  0.49997385  1
  Fe  Fe21  1  0.50291704  0.01074816  0.24604123  1
  Fe  Fe22  1  0.50438475  -0.00087706  0.74509420  1
  Fe  Fe23  1  0.60964924  0.87692708  0.43067707  1
  Fe  Fe24  1  0.61810711  0.88489991  0.93511168  1
  Fe  Fe25  1  0.62443455  0.13908036  0.05766992  1
  Fe  Fe26  1  0.61416275  0.12927119  0.55654522  1
  Fe  Fe27  1  0.62562965  0.62437196  0.81339208  1
  Fe  Fe28  1  0.63791969  0.38791969  0.18750000  1
  Fe  Fe29  1  0.62403662  0.37403662  0.68750000  1
  Fe  Fe30  1  0.74752345  0.75705675  0.12310056  1
  Fe  Fe31  1  0.73921763  0.75310766  0.62306511  1
  Fe  Fe32  1  0.75520598  0.24249384  0.37224389  1
  Fe  Fe33  1  0.76230709  0.24561325  0.87502615  1
  Fe  Fe34  1  0.87176731  0.61576951  0.94340277  1
  Fe  Fe35  1  0.86576951  0.62176731  0.43159723  1
  Fe  Fe36  1  0.87437196  0.37562965  0.56160792  1
  Fe  Fe37  1  0.86759211  0.87047107  0.30911512  1
  Fe  Fe38  1  0.88604384  0.86655506  0.80859965  1
  Fe  Fe39  1  0.88141583  0.13444911  0.18199692  1
  Fe  Fe40  1  0.88431845  0.11398388  0.68509697  1
  Fe  Fe41  1  0.99105158  -0.00035278  0.49569169  1
  Fe  Fe42  1  0.99232920  -0.00572001  -0.00228567  1
  O  O43  1  0.10916945  0.61155083  0.44630616  1
  O  O44  1  0.11167369  0.61161641  0.94279625  1
  O  O45  1  0.11612767  0.88465716  0.31501474  1
  O  O46  1  0.11739521  0.87736859  0.81921089  1
  O  O47  1  0.10759395  0.13800756  0.43338123  1
  O  O48  1  0.10619737  0.13182322  0.93033067  1
  O  O49  1  0.13465716  0.86612767  0.05998526  1
  O  O50  1  0.12736859  0.86739521  0.55578911  1
  O  O51  1  0.11720935  0.12631893  0.19167995  1
  O  O52  1  0.11177458  0.14161320  0.69496272  1
  O  O53  1  0.14512126  0.38424598  0.05856047  1
  O  O54  1  0.11374205  0.38270492  0.55977057  1
  O  O55  1  0.13365897  0.62560892  0.18263155  1
  O  O56  1  0.13200251  0.60584797  0.68399193  1
  O  O57  1  0.13533233  0.36257351  0.32061873  1
  O  O58  1  0.13995269  0.36248674  0.81798950  1
  O  O59  1  0.36273662  0.63952294  0.06893462  1
  O  O60  1  0.35914374  0.63518630  0.57037286  1
  O  O61  1  0.36590790  0.39144600  0.43502253  1
  O  O62  1  0.36410853  0.39291952  0.93089804  1
  O  O63  1  0.35646826  0.61201053  0.30761295  1
  O  O64  1  0.38562497  0.61635040  0.80790478  1
  O  O65  1  0.38800756  0.85759395  0.94161877  1
  O  O66  1  0.38182322  0.85619737  0.44466933  1
  O  O67  1  0.36291533  0.13851875  0.30375049  1
  O  O68  1  0.37047753  0.13266760  0.80347614  1
  O  O69  1  0.37631893  0.86720935  0.18332005  1
  O  O70  1  0.39161320  0.86177458  0.68003728  1
  O  O71  1  0.38851875  0.11291533  0.07124951  1
  O  O72  1  0.38266760  0.12047753  0.57152386  1
  O  O73  1  0.38953641  0.39053703  0.19492673  1
  O  O74  1  0.38814280  0.38808074  0.69301151  1
  O  O75  1  0.61257351  0.88533233  0.05438127  1
  O  O76  1  0.61248674  0.88995269  0.55701050  1
  O  O77  1  0.61712024  0.61881159  0.17977190  1
  O  O78  1  0.61682662  0.61379431  0.69162005  1
  O  O79  1  0.60893128  0.36830421  0.06722291  1
  O  O80  1  0.63146824  0.37114111  0.56670246  1
  O  O81  1  0.63789927  0.64004819  0.44672839  1
  O  O82  1  0.63388706  0.62986493  0.93220803  1
  O  O83  1  0.61830421  0.35893128  0.30777709  1
  O  O84  1  0.62114111  0.38146824  0.80829754  1
  O  O85  1  0.64291952  0.11410853  0.44410196  1
  O  O86  1  0.64144600  0.11590790  0.93997747  1
  O  O87  1  0.63424598  0.89512126  0.31643953  1
  O  O88  1  0.63270492  0.86374205  0.81522943  1
  O  O89  1  0.64053703  0.13953641  0.18007327  1
  O  O90  1  0.63808074  0.13814280  0.68198849  1
  O  O91  1  0.86161641  0.86167369  0.43220375  1
  O  O92  1  0.86155083  0.85916945  0.92869384  1
  O  O93  1  0.86201053  0.10646826  0.06738705  1
  O  O94  1  0.86635040  0.13562497  0.56709522  1
  O  O95  1  0.87560892  0.88365897  0.19236845  1
  O  O96  1  0.85584797  0.88200251  0.69100807  1
  O  O97  1  0.88668341  0.64285115  0.05719567  1
  O  O98  1  0.87929330  0.61655425  0.56183691  1
  O  O99  1  0.86881159  0.36712024  0.19522810  1
  O  O100  1  0.86379431  0.36682662  0.68337995  1
  O  O101  1  0.89285115  0.63668341  0.31780433  1
  O  O102  1  0.86655425  0.62929330  0.81316309  1
  O  O103  1  0.89004819  0.38789927  0.92827161  1
  O  O104  1  0.87986493  0.38388706  0.44279197  1
  O  O105  1  0.88952294  0.11273662  0.30606538  1
  O  O106  1  0.88518630  0.10914374  0.80462714  1
