# generated using pymatgen
data_DyTmO3
_symmetry_space_group_name_H-M   'P 1'
_cell_length_a   5.90736300
_cell_length_b   8.32893800
_cell_length_c   5.63790569
_cell_angle_alpha   90.00000000
_cell_angle_beta   90.00000000
_cell_angle_gamma   90.00000000
_symmetry_Int_Tables_number   1
_chemical_formula_structural   DyTmO3
_chemical_formula_sum   'Dy4 Tm4 O12'
_cell_volume   277.39657499
_cell_formula_units_Z   4
loop_
 _symmetry_equiv_pos_site_id
 _symmetry_equiv_pos_as_xyz
  1  'x, y, z'
loop_
 _atom_site_type_symbol
 _atom_site_label
 _atom_site_symmetry_multiplicity
 _atom_site_fract_x
 _atom_site_fract_y
 _atom_site_fract_z
 _atom_site_occupancy
  Dy  Dy0  1  0.05351167  0.25000000  0.98374766  1
  Dy  Dy1  1  0.44648833  0.75000000  0.48374766  1
  Dy  Dy2  1  0.55351167  0.25000000  0.51625234  1
  Dy  Dy3  1  0.94648833  0.75000000  0.01625234  1
  Tm  Tm4  1  0.00000000  0.00000000  0.50000000  1
  Tm  Tm5  1  0.00000000  0.50000000  0.50000000  1
  Tm  Tm6  1  0.50000000  0.00000000  0.00000000  1
  Tm  Tm7  1  0.50000000  0.50000000  0.00000000  1
  O  O8  1  0.07623709  0.75000000  0.64562257  1
  O  O9  1  0.18504743  0.57611317  0.18136358  1
  O  O10  1  0.18504743  0.92388683  0.18136358  1
  O  O11  1  0.31495257  0.07611317  0.68136358  1
  O  O12  1  0.31495257  0.42388683  0.68136358  1
  O  O13  1  0.42376291  0.25000000  0.14562257  1
  O  O14  1  0.57623709  0.75000000  0.85437743  1
  O  O15  1  0.68504743  0.92388683  0.31863742  1
  O  O16  1  0.68504743  0.57611317  0.31863742  1
  O  O17  1  0.81495257  0.07611317  0.81863642  1
  O  O18  1  0.81495257  0.42388683  0.81863642  1
  O  O19  1  0.92376291  0.25000000  0.35437743  1
