# generated using pymatgen
data_ZrH27C8N2Cl5O2
_symmetry_space_group_name_H-M   'P 1'
_cell_length_a   7.31682690
_cell_length_b   14.71384097
_cell_length_c   19.74957399
_cell_angle_alpha   90.00000000
_cell_angle_beta   90.00000000
_cell_angle_gamma   90.00000000
_symmetry_Int_Tables_number   1
_chemical_formula_structural   ZrH27C8N2Cl5O2
_chemical_formula_sum   'Zr4 H108 C32 N8 Cl20 O8'
_cell_volume   2126.21202773
_cell_formula_units_Z   4
loop_
 _symmetry_equiv_pos_site_id
 _symmetry_equiv_pos_as_xyz
  1  'x, y, z'
loop_
 _atom_site_type_symbol
 _atom_site_label
 _atom_site_symmetry_multiplicity
 _atom_site_fract_x
 _atom_site_fract_y
 _atom_site_fract_z
 _atom_site_occupancy
  Zr  Zr0  1  0.72435414  0.02576287  0.35178196  1
  Zr  Zr1  1  0.77564586  0.97423713  0.85178196  1
  Zr  Zr2  1  0.22435414  0.47423713  0.64821804  1
  Zr  Zr3  1  0.27564586  0.52576287  0.14821804  1
  H  H4  1  0.94256893  0.96980273  0.46897459  1
  H  H5  1  0.55743107  0.03019727  0.96897459  1
  H  H6  1  0.44256893  0.53019727  0.53102541  1
  H  H7  1  0.05743107  0.46980273  0.03102541  1
  H  H8  1  0.79140202  0.13493029  0.10182154  1
  H  H9  1  0.70859798  0.86506971  0.60182154  1
  H  H10  1  0.29140202  0.36506971  0.89817846  1
  H  H11  1  0.20859798  0.63493029  0.39817846  1
  H  H12  1  0.44243913  0.43468706  0.40461839  1
  H  H13  1  0.05756087  0.56531294  0.90461839  1
  H  H14  1  0.94243913  0.06531294  0.59538161  1
  H  H15  1  0.55756087  0.93468706  0.09538161  1
  H  H16  1  0.06680678  0.07089045  0.13867956  1
  H  H17  1  0.43319322  0.92910955  0.63867956  1
  H  H18  1  0.56680678  0.42910955  0.86132044  1
  H  H19  1  0.93319322  0.57089045  0.36132044  1
  H  H20  1  0.19296187  0.16734152  0.10769259  1
  H  H21  1  0.30703813  0.83265848  0.60769259  1
  H  H22  1  0.69296187  0.33265848  0.89230741  1
  H  H23  1  0.80703813  0.66734152  0.39230741  1
  H  H24  1  0.07806222  0.09252505  0.04958517  1
  H  H25  1  0.42193778  0.90747495  0.54958517  1
  H  H26  1  0.57806222  0.40747495  0.95041483  1
  H  H27  1  0.92193778  0.59252505  0.45041483  1
  H  H28  1  0.94717239  0.18612010  0.21137199  1
  H  H29  1  0.55282761  0.81387990  0.71137199  1
  H  H30  1  0.44717239  0.31387990  0.78862801  1
  H  H31  1  0.05282761  0.68612010  0.28862801  1
  H  H32  1  0.75162792  0.24767024  0.18062643  1
  H  H33  1  0.74837208  0.75232976  0.68062643  1
  H  H34  1  0.25162792  0.25232976  0.81937357  1
  H  H35  1  0.24837208  0.74767024  0.31937357  1
  H  H36  1  0.97902932  0.29166111  0.16725271  1
  H  H37  1  0.52097068  0.70833889  0.66725271  1
  H  H38  1  0.47902932  0.20833889  0.83274729  1
  H  H39  1  0.02097068  0.79166111  0.33274729  1
  H  H40  1  0.75442762  0.28061751  0.05242720  1
  H  H41  1  0.74557238  0.71938249  0.55242720  1
  H  H42  1  0.25442762  0.21938249  0.94757280  1
  H  H43  1  0.24557238  0.78061751  0.44757280  1
  H  H44  1  0.88277530  0.20411645  0.99918774  1
  H  H45  1  0.61722470  0.79588355  0.49918774  1
  H  H46  1  0.38277530  0.29588355  0.00081226  1
  H  H47  1  0.11722470  0.70411645  0.50081226  1
  H  H48  1  0.99809930  0.29146836  0.04659522  1
  H  H49  1  0.50190070  0.70853164  0.54659522  1
  H  H50  1  0.49809930  0.20853164  0.95340478  1
  H  H51  1  0.00190070  0.79146836  0.45340478  1
  H  H52  1  0.18872253  0.94477318  0.36158258  1
  H  H53  1  0.31127747  0.05522682  0.86158258  1
  H  H54  1  0.68872253  0.55522682  0.63841742  1
  H  H55  1  0.81127747  0.44477318  0.13841742  1
  H  H56  1  0.23296963  0.96017159  0.45025314  1
  H  H57  1  0.26703037  0.03982841  0.95025314  1
  H  H58  1  0.73296963  0.53982841  0.54974686  1
  H  H59  1  0.76703037  0.46017159  0.04974686  1
  H  H60  1  0.19771887  0.05657788  0.39672583  1
  H  H61  1  0.30228113  0.94342212  0.89672583  1
  H  H62  1  0.69771887  0.44342212  0.60327417  1
  H  H63  1  0.80228113  0.55657788  0.10327417  1
  H  H64  1  0.25219859  0.07641017  0.27236942  1
  H  H65  1  0.24780141  0.92358983  0.77236942  1
  H  H66  1  0.75219859  0.42358983  0.72763058  1
  H  H67  1  0.74780141  0.57641017  0.22763058  1
  H  H68  1  0.41325151  0.09639696  0.20494168  1
  H  H69  1  0.08674849  0.90360304  0.70494168  1
  H  H70  1  0.91325151  0.40360304  0.79505832  1
  H  H71  1  0.58674849  0.59639696  0.29505832  1
  H  H72  1  0.37282131  0.18202911  0.26745263  1
  H  H73  1  0.12717869  0.81797089  0.76745263  1
  H  H74  1  0.87282131  0.31797089  0.73254737  1
  H  H75  1  0.62717869  0.68202911  0.23254737  1
  H  H76  1  0.22423654  0.33997543  0.34447634  1
  H  H77  1  0.27576346  0.66002457  0.84447634  1
  H  H78  1  0.72423654  0.16002457  0.65552366  1
  H  H79  1  0.77576346  0.83997543  0.15552366  1
  H  H80  1  0.22686449  0.31922638  0.43402848  1
  H  H81  1  0.27313551  0.68077362  0.93402848  1
  H  H82  1  0.72686449  0.18077362  0.56597152  1
  H  H83  1  0.77313551  0.81922638  0.06597152  1
  H  H84  1  0.33974924  0.24160905  0.37761825  1
  H  H85  1  0.16025076  0.75839095  0.87761825  1
  H  H86  1  0.83974924  0.25839095  0.62238175  1
  H  H87  1  0.66025076  0.74160905  0.12238175  1
  H  H88  1  0.69283243  0.41855196  0.33422218  1
  H  H89  1  0.80716757  0.58144804  0.83422218  1
  H  H90  1  0.19283243  0.08144804  0.66577782  1
  H  H91  1  0.30716757  0.91855196  0.16577782  1
  H  H92  1  0.48958281  0.39007457  0.28778242  1
  H  H93  1  0.01041719  0.60992543  0.78778242  1
  H  H94  1  0.98958281  0.10992543  0.71221758  1
  H  H95  1  0.51041719  0.89007457  0.21221758  1
  H  H96  1  0.63924932  0.30137507  0.31881209  1
  H  H97  1  0.86075068  0.69862493  0.81881209  1
  H  H98  1  0.13924932  0.19862493  0.68118791  1
  H  H99  1  0.36075068  0.80137507  0.18118791  1
  H  H100  1  0.72214443  0.36766995  0.45029120  1
  H  H101  1  0.77785557  0.63233005  0.95029120  1
  H  H102  1  0.22214443  0.13233005  0.54970880  1
  H  H103  1  0.27785557  0.86766995  0.04970880  1
  H  H104  1  0.60913947  0.25920716  0.44556181  1
  H  H105  1  0.89086053  0.74079284  0.94556181  1
  H  H106  1  0.10913947  0.24079284  0.55443819  1
  H  H107  1  0.39086053  0.75920716  0.05443819  1
  H  H108  1  0.51693822  0.34782417  0.49840266  1
  H  H109  1  0.98306178  0.65217583  0.99840266  1
  H  H110  1  0.01693822  0.15217583  0.50159734  1
  H  H111  1  0.48306178  0.84782417  0.00159734  1
  C  C112  1  0.07305312  0.12390468  0.09977173  1
  C  C113  1  0.42694688  0.87609532  0.59977173  1
  C  C114  1  0.57305312  0.37609532  0.90022827  1
  C  C115  1  0.92694688  0.62390468  0.40022827  1
  C  C116  1  0.89484858  0.23002818  0.17093273  1
  C  C117  1  0.60515142  0.76997182  0.67093273  1
  C  C118  1  0.39484858  0.26997182  0.82906727  1
  C  C119  1  0.10515142  0.73002818  0.32906727  1
  C  C120  1  0.88347927  0.24359912  0.04638118  1
  C  C121  1  0.61652073  0.75640088  0.54638118  1
  C  C122  1  0.38347927  0.25640088  0.95361882  1
  C  C123  1  0.11652073  0.74359912  0.45361882  1
  C  C124  1  0.15771230  0.98587964  0.40635899  1
  C  C125  1  0.34228770  0.01412036  0.90635899  1
  C  C126  1  0.65771230  0.51412036  0.59364101  1
  C  C127  1  0.84228770  0.48587964  0.09364101  1
  C  C128  1  0.38373046  0.10809361  0.25891455  1
  C  C129  1  0.11626954  0.89190639  0.75891455  1
  C  C130  1  0.88373046  0.39190639  0.74108545  1
  C  C131  1  0.61626954  0.60809361  0.24108545  1
  C  C132  1  0.30422746  0.31296237  0.38680799  1
  C  C133  1  0.19577254  0.68703763  0.88680799  1
  C  C134  1  0.80422746  0.18703763  0.61319201  1
  C  C135  1  0.69577254  0.81296237  0.11319201  1
  C  C136  1  0.58178249  0.36906586  0.32863977  1
  C  C137  1  0.91821751  0.63093414  0.82863977  1
  C  C138  1  0.08178249  0.13093414  0.67136023  1
  C  C139  1  0.41821751  0.86906586  0.17136023  1
  C  C140  1  0.58961531  0.33290715  0.45114567  1
  C  C141  1  0.91038469  0.66709285  0.95114567  1
  C  C142  1  0.08961531  0.16709285  0.54885433  1
  C  C143  1  0.41038469  0.83290715  0.04885433  1
  N  N144  1  0.90395347  0.18006317  0.10491790  1
  N  N145  1  0.59604653  0.81993683  0.60491790  1
  N  N146  1  0.40395347  0.31993683  0.89508210  1
  N  N147  1  0.09604653  0.68006317  0.39508210  1
  N  N148  1  0.47666572  0.36620153  0.39328549  1
  N  N149  1  0.02333428  0.63379847  0.89328549  1
  N  N150  1  0.97666572  0.13379847  0.60671451  1
  N  N151  1  0.52333428  0.86620153  0.10671451  1
  Cl  Cl152  1  0.89996762  0.17347388  0.35168130  1
  Cl  Cl153  1  0.60003238  0.82652612  0.85168130  1
  Cl  Cl154  1  0.39996762  0.32652612  0.64831870  1
  Cl  Cl155  1  0.10003238  0.67347388  0.14831870  1
  Cl  Cl156  1  0.60056057  0.86610291  0.36705821  1
  Cl  Cl157  1  0.89943943  0.13389709  0.86705821  1
  Cl  Cl158  1  0.10056057  0.63389709  0.63294179  1
  Cl  Cl159  1  0.39943943  0.36610291  0.13294179  1
  Cl  Cl160  1  0.91105999  0.96761622  0.25389462  1
  Cl  Cl161  1  0.58894001  0.03238378  0.75389462  1
  Cl  Cl162  1  0.41105999  0.53238378  0.74610538  1
  Cl  Cl163  1  0.08894001  0.46761622  0.24610538  1
  Cl  Cl164  1  0.59357471  0.06658500  0.46565041  1
  Cl  Cl165  1  0.90642529  0.93341500  0.96565041  1
  Cl  Cl166  1  0.09357471  0.43341500  0.53434959  1
  Cl  Cl167  1  0.40642529  0.56658500  0.03434959  1
  Cl  Cl168  1  0.94857457  0.93226217  0.57234718  1
  Cl  Cl169  1  0.55142543  0.06773783  0.07234718  1
  Cl  Cl170  1  0.44857457  0.56773783  0.42765282  1
  Cl  Cl171  1  0.05142543  0.43226217  0.92765282  1
  O  O172  1  0.52515298  0.07137730  0.29824680  1
  O  O173  1  0.97484702  0.92862270  0.79824680  1
  O  O174  1  0.02515298  0.42862270  0.70175320  1
  O  O175  1  0.47484702  0.57137730  0.20175320  1
  O  O176  1  0.96390524  0.98055207  0.41975642  1
  O  O177  1  0.53609476  0.01944793  0.91975642  1
  O  O178  1  0.46390524  0.51944793  0.58024358  1
  O  O179  1  0.03609476  0.48055207  0.08024358  1
