# generated using pymatgen
data_VH8C2N2O6F
_symmetry_space_group_name_H-M   'P 1'
_cell_length_a   11.44350965
_cell_length_b   9.58382410
_cell_length_c   7.29852291
_cell_angle_alpha   90.00000000
_cell_angle_beta   95.02434682
_cell_angle_gamma   90.00000000
_symmetry_Int_Tables_number   1
_chemical_formula_structural   VH8C2N2O6F
_chemical_formula_sum   'V4 H32 C8 N8 O24 F4'
_cell_volume   797.37220171
_cell_formula_units_Z   4
loop_
 _symmetry_equiv_pos_site_id
 _symmetry_equiv_pos_as_xyz
  1  'x, y, z'
loop_
 _atom_site_type_symbol
 _atom_site_label
 _atom_site_symmetry_multiplicity
 _atom_site_fract_x
 _atom_site_fract_y
 _atom_site_fract_z
 _atom_site_occupancy
  V  V0  1  0.26336989  0.46821809  0.84708265  1
  V  V1  1  0.73663011  0.96821809  0.65291735  1
  V  V2  1  0.73663011  0.53178191  0.15291735  1
  V  V3  1  0.26336989  0.03178191  0.34708265  1
  H  H4  1  0.16522199  0.03920982  0.86218973  1
  H  H5  1  0.83477801  0.53920982  0.63781027  1
  H  H6  1  0.83477801  0.96079018  0.13781027  1
  H  H7  1  0.16522199  0.46079018  0.36218973  1
  H  H8  1  0.13599054  0.19580873  0.75261577  1
  H  H9  1  0.86400946  0.69580873  0.74738423  1
  H  H10  1  0.86400946  0.80419127  0.24738423  1
  H  H11  1  0.13599054  0.30419127  0.25261577  1
  H  H12  1  0.09140743  0.04249139  0.65556301  1
  H  H13  1  0.90859257  0.54249139  0.84443699  1
  H  H14  1  0.90859257  0.95750861  0.34443699  1
  H  H15  1  0.09140743  0.45750861  0.15556301  1
  H  H16  1  0.02799620  0.10428214  0.84176890  1
  H  H17  1  0.97200380  0.60428214  0.65823110  1
  H  H18  1  0.97200380  0.89571786  0.15823110  1
  H  H19  1  0.02799620  0.39571786  0.34176890  1
  H  H20  1  0.38664120  0.12009327  0.75784248  1
  H  H21  1  0.61335880  0.62009327  0.74215752  1
  H  H22  1  0.61335880  0.87990673  0.24215752  1
  H  H23  1  0.38664120  0.37990673  0.25784248  1
  H  H24  1  0.45485370  0.26050385  0.84927039  1
  H  H25  1  0.54514630  0.76050385  0.65072961  1
  H  H26  1  0.54514630  0.73949615  0.15072961  1
  H  H27  1  0.45485370  0.23949615  0.34927039  1
  H  H28  1  0.41781744  0.13085772  0.99186839  1
  H  H29  1  0.58218256  0.63085772  0.50813161  1
  H  H30  1  0.58218256  0.86914228  0.00813161  1
  H  H31  1  0.41781744  0.36914228  0.49186839  1
  H  H32  1  0.52578158  0.10579297  0.84994345  1
  H  H33  1  0.47421842  0.60579297  0.65005655  1
  H  H34  1  0.47421842  0.89420703  0.15005655  1
  H  H35  1  0.52578158  0.39420703  0.34994345  1
  C  C36  1  0.84439339  0.22572466  0.54981732  1
  C  C37  1  0.15560661  0.72572466  0.95018268  1
  C  C38  1  0.15560661  0.77427534  0.45018268  1
  C  C39  1  0.84439339  0.27427534  0.04981732  1
  C  C40  1  0.72652624  0.26942311  0.62376076  1
  C  C41  1  0.27347376  0.76942311  0.87623924  1
  C  C42  1  0.27347376  0.73057689  0.37623924  1
  C  C43  1  0.72652624  0.23057689  0.12376076  1
  N  N44  1  0.10483434  0.09562315  0.77840417  1
  N  N45  1  0.89516566  0.59562315  0.72159583  1
  N  N46  1  0.89516566  0.90437685  0.22159583  1
  N  N47  1  0.10483434  0.40437685  0.27840417  1
  N  N48  1  0.44658405  0.15394953  0.86454347  1
  N  N49  1  0.55341595  0.65394953  0.63545653  1
  N  N50  1  0.55341595  0.84605047  0.13545653  1
  N  N51  1  0.44658405  0.34605047  0.36454347  1
  O  O52  1  0.16753802  0.38278066  0.70532031  1
  O  O53  1  0.83246198  0.88278066  0.79467969  1
  O  O54  1  0.83246198  0.61721934  0.29467969  1
  O  O55  1  0.16753802  0.11721934  0.20532031  1
  O  O56  1  0.29218988  0.12641177  0.53604715  1
  O  O57  1  0.70781012  0.62641177  0.96395285  1
  O  O58  1  0.70781012  0.87358823  0.46395285  1
  O  O59  1  0.29218988  0.37358823  0.03604715  1
  O  O60  1  0.85981858  0.09083299  0.55147970  1
  O  O61  1  0.14018142  0.59083299  0.94852030  1
  O  O62  1  0.14018142  0.90916701  0.44852030  1
  O  O63  1  0.85981858  0.40916701  0.05147970  1
  O  O64  1  0.66590194  0.16260941  0.67244242  1
  O  O65  1  0.33409806  0.66260941  0.82755758  1
  O  O66  1  0.33409806  0.83739059  0.32755758  1
  O  O67  1  0.66590194  0.33739059  0.17244242  1
  O  O68  1  0.91289647  0.18693125  0.99482932  1
  O  O69  1  0.08710353  0.68693125  0.50517068  1
  O  O70  1  0.08710353  0.81306875  0.00517068  1
  O  O71  1  0.91289647  0.31306875  0.49482932  1
  O  O72  1  0.69641948  0.39295941  0.63129826  1
  O  O73  1  0.30358052  0.89295941  0.86870174  1
  O  O74  1  0.30358052  0.60704059  0.36870174  1
  O  O75  1  0.69641948  0.10704059  0.13129826  1
  F  F76  1  0.40319305  0.42577820  0.72922775  1
  F  F77  1  0.59680695  0.92577820  0.77077225  1
  F  F78  1  0.59680695  0.57422180  0.27077225  1
  F  F79  1  0.40319305  0.07422180  0.22922775  1
