# generated using pymatgen
data_CrH12Pd(NO)4
_symmetry_space_group_name_H-M   'P 1'
_cell_length_a   9.27029002
_cell_length_b   9.27029002
_cell_length_c   9.27029002
_cell_angle_alpha   133.03217733
_cell_angle_beta   133.03217733
_cell_angle_gamma   68.60361979
_symmetry_Int_Tables_number   1
_chemical_formula_structural   CrH12Pd(NO)4
_chemical_formula_sum   'Cr2 H24 Pd2 N8 O8'
_cell_volume   418.02334765
_cell_formula_units_Z   2
loop_
 _symmetry_equiv_pos_site_id
 _symmetry_equiv_pos_as_xyz
  1  'x, y, z'
loop_
 _atom_site_type_symbol
 _atom_site_label
 _atom_site_symmetry_multiplicity
 _atom_site_fract_x
 _atom_site_fract_y
 _atom_site_fract_z
 _atom_site_occupancy
  Cr  Cr0  1  0.87500000  0.12500000  0.75000000  1
  Cr  Cr1  1  0.12500000  0.87500000  0.25000000  1
  H  H2  1  0.30846451  0.24273399  0.43426948  1
  H  H3  1  0.24273399  0.30846451  0.93426948  1
  H  H4  1  0.87419503  0.30846451  0.56573052  1
  H  H5  1  0.30846451  0.87419503  0.06573052  1
  H  H6  1  0.69153549  0.75726601  0.56573052  1
  H  H7  1  0.75726601  0.69153549  0.06573052  1
  H  H8  1  0.12580497  0.69153549  0.43426948  1
  H  H9  1  0.69153549  0.12580497  0.93426948  1
  H  H10  1  0.51586760  0.31756182  0.52744279  1
  H  H11  1  0.29011904  0.31756182  0.30169422  1
  H  H12  1  0.31756182  0.51586760  0.02744279  1
  H  H13  1  0.98842481  0.51586760  0.69830578  1
  H  H14  1  0.51586760  0.98842481  0.19830578  1
  H  H15  1  0.29011904  0.98842481  0.97255721  1
  H  H16  1  0.31756182  0.29011904  0.80169422  1
  H  H17  1  0.98842481  0.29011904  0.47255721  1
  H  H18  1  0.48413240  0.68243818  0.47255721  1
  H  H19  1  0.70988096  0.68243818  0.69830578  1
  H  H20  1  0.68243818  0.48413240  0.97255721  1
  H  H21  1  0.01157519  0.48413240  0.30169422  1
  H  H22  1  0.48413240  0.01157519  0.80169422  1
  H  H23  1  0.70988096  0.01157519  0.02744279  1
  H  H24  1  0.68243818  0.70988096  0.19830578  1
  H  H25  1  0.01157519  0.70988096  0.52744279  1
  Pd  Pd26  1  0.62500000  0.37500000  0.25000000  1
  Pd  Pd27  1  0.37500000  0.62500000  0.75000000  1
  N  N28  1  0.37387172  0.34492843  0.47105671  1
  N  N29  1  0.34492843  0.37387172  0.97105671  1
  N  N30  1  0.90281500  0.37387172  0.52894329  1
  N  N31  1  0.37387172  0.90281500  0.02894329  1
  N  N32  1  0.62612828  0.65507157  0.52894329  1
  N  N33  1  0.65507157  0.62612828  0.02894329  1
  N  N34  1  0.09718500  0.62612828  0.47105671  1
  N  N35  1  0.62612828  0.09718500  0.97105671  1
  O  O36  1  0.18735947  0.12286227  0.43550280  1
  O  O37  1  0.12286227  0.18735947  0.93550280  1
  O  O38  1  0.75185667  0.18735947  0.56449720  1
  O  O39  1  0.18735947  0.75185667  0.06449720  1
  O  O40  1  0.81264053  0.87713773  0.56449720  1
  O  O41  1  0.87713773  0.81264053  0.06449720  1
  O  O42  1  0.24814333  0.81264053  0.43550280  1
  O  O43  1  0.81264053  0.24814333  0.93550280  1
