# generated using pymatgen
data_Mg2SiO4
_symmetry_space_group_name_H-M   'P 1'
_cell_length_a   5.10955523
_cell_length_b   10.03567954
_cell_length_c   5.78561166
_cell_angle_alpha   92.06207892
_cell_angle_beta   107.74676741
_cell_angle_gamma   99.16555513
_symmetry_Int_Tables_number   1
_chemical_formula_structural   Mg2SiO4
_chemical_formula_sum   'Mg8 Si4 O16'
_cell_volume   277.81866286
_cell_formula_units_Z   4
loop_
 _symmetry_equiv_pos_site_id
 _symmetry_equiv_pos_as_xyz
  1  'x, y, z'
loop_
 _atom_site_type_symbol
 _atom_site_label
 _atom_site_symmetry_multiplicity
 _atom_site_fract_x
 _atom_site_fract_y
 _atom_site_fract_z
 _atom_site_occupancy
  Mg  Mg0  1  0.98476357  0.10738867  0.67442142  1
  Mg  Mg1  1  0.02831350  0.92461526  0.02332570  1
  Mg  Mg2  1  0.00702318  0.66016715  0.73357571  1
  Mg  Mg3  1  0.50653457  0.51601218  0.84886671  1
  Mg  Mg4  1  0.55120858  0.79353212  0.14847570  1
  Mg  Mg5  1  0.00608479  0.37183834  0.96422490  1
  Mg  Mg6  1  0.46190381  0.23850549  0.54934642  1
  Mg  Mg7  1  0.50661136  0.51606267  0.34890596  1
  Si  Si8  1  -0.00166527  0.38721600  0.45318735  1
  Si  Si9  1  0.01478070  0.64480882  0.24459869  1
  Si  Si10  1  0.62287801  0.12227605  0.09585646  1
  Si  Si11  1  0.39017418  0.90975232  0.60191309  1
  O  O12  1  0.27671853  0.83156645  0.81082711  1
  O  O13  1  0.80140235  0.69485471  0.97275471  1
  O  O14  1  0.75823842  0.22470601  0.37224913  1
  O  O15  1  0.26643801  0.04813054  0.53160563  1
  O  O16  1  0.73634196  0.20044344  0.88693933  1
  O  O17  1  0.21170429  0.33717741  0.72503913  1
  O  O18  1  0.25480597  0.80734413  0.32548812  1
  O  O19  1  0.79409773  0.68844270  0.39783868  1
  O  O20  1  0.79686827  0.46592157  0.17774334  1
  O  O21  1  0.74664719  0.98390324  0.16616388  1
  O  O22  1  0.21628866  0.56608931  0.52004951  1
  O  O23  1  0.77290490  0.44555684  0.63579551  1
  O  O24  1  0.28340606  0.09710927  0.01753423  1
  O  O25  1  0.24027633  0.58648808  0.06203630  1
  O  O26  1  0.21903009  0.34357229  0.29995105  1
  O  O27  1  0.72962027  0.93491895  0.68018621  1
