# generated using pymatgen
data_H8Se2N2O5
_symmetry_space_group_name_H-M   'P 1'
_cell_length_a   7.55196120
_cell_length_b   13.53868571
_cell_length_c   7.06424251
_cell_angle_alpha   90.00000000
_cell_angle_beta   90.00000000
_cell_angle_gamma   90.00000000
_symmetry_Int_Tables_number   1
_chemical_formula_structural   H8Se2N2O5
_chemical_formula_sum   'H32 Se8 N8 O20'
_cell_volume   722.27379164
_cell_formula_units_Z   4
loop_
 _symmetry_equiv_pos_site_id
 _symmetry_equiv_pos_as_xyz
  1  'x, y, z'
loop_
 _atom_site_type_symbol
 _atom_site_label
 _atom_site_symmetry_multiplicity
 _atom_site_fract_x
 _atom_site_fract_y
 _atom_site_fract_z
 _atom_site_occupancy
  H  H0  1  0.62997360  0.95351803  0.21072626  1
  H  H1  1  0.87002640  0.04648197  0.71072626  1
  H  H2  1  0.12997360  0.54648197  0.78927374  1
  H  H3  1  0.37002640  0.45351803  0.28927374  1
  H  H4  1  0.63208202  0.07606901  0.13515255  1
  H  H5  1  0.86791798  0.92393099  0.63515255  1
  H  H6  1  0.13208202  0.42393099  0.86484745  1
  H  H7  1  0.36791798  0.57606901  0.36484745  1
  H  H8  1  0.79398379  0.99305481  0.07057602  1
  H  H9  1  0.70601621  0.00694519  0.57057602  1
  H  H10  1  0.29398379  0.50694519  0.92942398  1
  H  H11  1  0.20601621  0.49305481  0.42942398  1
  H  H12  1  0.58256197  0.98007918  0.98415556  1
  H  H13  1  0.91743803  0.01992082  0.48415556  1
  H  H14  1  0.08256197  0.51992082  0.01584444  1
  H  H15  1  0.41743803  0.48007918  0.51584444  1
  H  H16  1  0.24730257  0.25369742  0.63272235  1
  H  H17  1  0.25269743  0.74630258  0.13272235  1
  H  H18  1  0.74730257  0.24630258  0.36727765  1
  H  H19  1  0.75269743  0.75369742  0.86727765  1
  H  H20  1  0.45656340  0.29086032  0.60042821  1
  H  H21  1  0.04343660  0.70913968  0.10042821  1
  H  H22  1  0.95656340  0.20913968  0.39957179  1
  H  H23  1  0.54343660  0.79086032  0.89957179  1
  H  H24  1  0.40105254  0.17028467  0.54559468  1
  H  H25  1  0.09894746  0.82971533  0.04559468  1
  H  H26  1  0.90105254  0.32971533  0.45440532  1
  H  H27  1  0.59894746  0.67028467  0.95440532  1
  H  H28  1  0.33440552  0.26693543  0.40750854  1
  H  H29  1  0.16559448  0.73306457  0.90750854  1
  H  H30  1  0.83440552  0.23306457  0.59249146  1
  H  H31  1  0.66559448  0.76693543  0.09249146  1
  Se  Se32  1  0.17478057  0.03445933  0.14795961  1
  Se  Se33  1  0.32521943  0.96554067  0.64795961  1
  Se  Se34  1  0.67478057  0.46554067  0.85204039  1
  Se  Se35  1  0.82521943  0.53445933  0.35204039  1
  Se  Se36  1  0.99251178  0.22577702  0.95790281  1
  Se  Se37  1  0.50748822  0.77422298  0.45790281  1
  Se  Se38  1  0.49251178  0.27422298  0.04209719  1
  Se  Se39  1  0.00748822  0.72577702  0.54209719  1
  N  N40  1  0.65863115  0.00203872  0.09979135  1
  N  N41  1  0.84136885  0.99796128  0.59979135  1
  N  N42  1  0.15863115  0.49796128  0.90020865  1
  N  N43  1  0.34136885  0.50203872  0.40020865  1
  N  N44  1  0.35917068  0.24437123  0.54641216  1
  N  N45  1  0.14082932  0.75562877  0.04641216  1
  N  N46  1  0.85917068  0.25562877  0.45358784  1
  N  N47  1  0.64082932  0.74437123  0.95358784  1
  O  O48  1  0.06773746  0.09412983  0.32648442  1
  O  O49  1  0.43226254  0.90587017  0.82648442  1
  O  O50  1  0.56773746  0.40587017  0.67351558  1
  O  O51  1  0.93226254  0.59412983  0.17351558  1
  O  O52  1  0.02367944  0.95456007  0.05888317  1
  O  O53  1  0.47632056  0.04543993  0.55888317  1
  O  O54  1  0.52367944  0.54543993  0.94111683  1
  O  O55  1  0.97632056  0.45456007  0.44111683  1
  O  O56  1  0.17918241  0.13103281  0.95952362  1
  O  O57  1  0.32081759  0.86896719  0.45952362  1
  O  O58  1  0.67918241  0.36896719  0.04047638  1
  O  O59  1  0.82081759  0.63103281  0.54047638  1
  O  O60  1  0.08848625  0.30083916  0.79570233  1
  O  O61  1  0.41151375  0.69916084  0.29570233  1
  O  O62  1  0.58848625  0.19916084  0.20429767  1
  O  O63  1  0.91151375  0.80083916  0.70429767  1
  O  O64  1  0.83724262  0.16378592  0.83368389  1
  O  O65  1  0.66275738  0.83621408  0.33368389  1
  O  O66  1  0.33724262  0.33621408  0.16631611  1
  O  O67  1  0.16275738  0.66378592  0.66631611  1
