# generated using pymatgen
data_CsKNaLi13(SiO4)4
_symmetry_space_group_name_H-M   'P 1'
_cell_length_a   6.46719098
_cell_length_b   8.62323515
_cell_length_c   17.22053564
_cell_angle_alpha   82.39699986
_cell_angle_beta   68.12955128
_cell_angle_gamma   68.08085345
_symmetry_Int_Tables_number   1
_chemical_formula_structural   CsKNaLi13(SiO4)4
_chemical_formula_sum   'Cs2 K2 Na2 Li26 Si8 O32'
_cell_volume   826.78676054
_cell_formula_units_Z   2
loop_
 _symmetry_equiv_pos_site_id
 _symmetry_equiv_pos_as_xyz
  1  'x, y, z'
loop_
 _atom_site_type_symbol
 _atom_site_label
 _atom_site_symmetry_multiplicity
 _atom_site_fract_x
 _atom_site_fract_y
 _atom_site_fract_z
 _atom_site_occupancy
  Cs  Cs0  1  0.00035749  0.99906993  0.99941234  1
  Cs  Cs1  1  -0.00035749  0.00093007  0.50058766  1
  K  K2  1  0.49992809  0.99938547  -0.00050584  1
  K  K3  1  0.50007191  0.00061453  0.50050584  1
  Na  Na4  1  0.24747446  0.49801495  0.75119112  1
  Na  Na5  1  0.75252554  0.50198505  0.74880888  1
  Li  Li6  1  0.00882317  0.34152583  0.06903024  1
  Li  Li7  1  0.07691110  0.65159719  0.09637603  1
  Li  Li8  1  0.01886281  0.33883983  0.56345839  1
  Li  Li9  1  0.14882201  0.86458241  0.17160601  1
  Li  Li10  1  0.35845274  0.13139856  0.32763957  1
  Li  Li11  1  0.50583904  0.34203801  0.06929820  1
  Li  Li12  1  0.08052980  0.65066746  0.59514730  1
  Li  Li13  1  0.26873985  0.81338589  0.32571983  1
  Li  Li14  1  0.50000000  0.50000000  0.25000000  1
  Li  Li15  1  0.73126015  0.18661411  0.17428017  1
  Li  Li16  1  0.15277293  0.86812423  0.66787377  1
  Li  Li17  1  0.35664359  0.12744959  0.83098249  1
  Li  Li18  1  0.51166396  0.34057633  0.56448416  1
  Li  Li19  1  0.49416096  0.65796199  0.43070180  1
  Li  Li20  1  0.64154726  0.86860144  0.17236043  1
  Li  Li21  1  0.85117799  0.13541759  0.32839399  1
  Li  Li22  1  0.27369958  0.80505259  0.82405026  1
  Li  Li23  1  0.72630042  0.19494741  0.67594974  1
  Li  Li24  1  0.92308890  0.34840281  0.40362397  1
  Li  Li25  1  0.00000000  0.50000000  0.25000000  1
  Li  Li26  1  0.48833604  0.65942367  0.93551584  1
  Li  Li27  1  0.64335641  0.87255041  0.66901751  1
  Li  Li28  1  0.84722707  0.13187577  0.83212623  1
  Li  Li29  1  0.99117683  0.65847417  0.43096976  1
  Li  Li30  1  0.91947020  0.34933254  0.90485270  1
  Li  Li31  1  0.98113719  0.66116017  0.93654161  1
  Si  Si32  1  0.24426871  0.12705723  0.18962428  1
  Si  Si33  1  0.24139762  0.12840678  0.69198352  1
  Si  Si34  1  0.37369310  0.37983554  0.43558771  1
  Si  Si35  1  0.62630690  0.62016446  0.06441229  1
  Si  Si36  1  0.36715729  0.38121001  0.93937659  1
  Si  Si37  1  0.63284271  0.61878999  0.56062341  1
  Si  Si38  1  0.75573129  0.87294277  0.31037572  1
  Si  Si39  1  0.75860238  0.87159322  0.80801648  1
  O  O40  1  0.08021193  0.14135636  0.13304013  1
  O  O41  1  0.09519643  0.26354583  0.27042207  1
  O  O42  1  0.23437137  0.44992389  0.03766415  1
  O  O43  1  0.07676145  0.14681496  0.63480153  1
  O  O44  1  0.22785045  0.26469908  0.42637894  1
  O  O45  1  0.50628261  0.14391380  0.13376590  1
  O  O46  1  0.34796417  0.73266558  0.07183839  1
  O  O47  1  0.09153330  0.25918934  0.77467672  1
  O  O48  1  0.23990790  0.45340744  0.53221445  1
  O  O49  1  0.36165572  0.54102625  0.36818184  1
  O  O50  1  0.30492933  0.93497478  0.22737776  1
  O  O51  1  0.69507067  0.06502522  0.27262224  1
  O  O52  1  0.63834428  0.45897375  0.13181816  1
  O  O53  1  0.22442630  0.26567476  0.92799831  1
  O  O54  1  0.49962698  0.15134093  0.63611084  1
  O  O55  1  0.35296703  0.73133626  0.56978283  1
  O  O56  1  0.65203583  0.26733442  0.42816161  1
  O  O57  1  0.49371739  0.85608620  0.36623410  1
  O  O58  1  0.77214955  0.73530092  0.07362106  1
  O  O59  1  0.35198850  0.54475734  0.87409929  1
  O  O60  1  0.30802920  0.93334314  0.72562014  1
  O  O61  1  0.69197080  0.06665686  0.77437986  1
  O  O62  1  0.64801150  0.45524266  0.62590071  1
  O  O63  1  0.76562863  0.55007611  0.46233585  1
  O  O64  1  0.90480357  0.73645417  0.22957793  1
  O  O65  1  0.64703297  0.26866374  0.93021717  1
  O  O66  1  0.50037302  0.84865907  0.86388916  1
  O  O67  1  0.77557370  0.73432524  0.57200169  1
  O  O68  1  0.91978807  0.85864364  0.36695987  1
  O  O69  1  0.76009210  0.54659256  0.96778555  1
  O  O70  1  0.90846670  0.74081066  0.72532328  1
  O  O71  1  0.92323855  0.85318504  0.86519847  1
