# generated using pymatgen
data_KErHSe2O9
_symmetry_space_group_name_H-M   'P 1'
_cell_length_a   5.76168000
_cell_length_b   8.61216764
_cell_length_c   9.40356642
_cell_angle_alpha   109.70823788
_cell_angle_beta   84.25739715
_cell_angle_gamma   105.34710224
_symmetry_Int_Tables_number   1
_chemical_formula_structural   KErHSe2O9
_chemical_formula_sum   'K2 Er2 H2 Se4 O18'
_cell_volume   423.58255733
_cell_formula_units_Z   2
loop_
 _symmetry_equiv_pos_site_id
 _symmetry_equiv_pos_as_xyz
  1  'x, y, z'
loop_
 _atom_site_type_symbol
 _atom_site_label
 _atom_site_symmetry_multiplicity
 _atom_site_fract_x
 _atom_site_fract_y
 _atom_site_fract_z
 _atom_site_occupancy
  K  K0  1  0.76479427  0.77901761  0.01661928  1
  K  K1  1  0.23520573  0.22098239  0.98338072  1
  Er  Er2  1  0.35592231  0.63092251  0.39397196  1
  Er  Er3  1  0.64407769  0.36907749  0.60602804  1
  H  H4  1  0.67493852  0.10221316  0.73907883  1
  H  H5  1  0.32506148  0.89778684  0.26092117  1
  Se  Se6  1  0.88682446  0.82717622  0.63027945  1
  Se  Se7  1  0.11317554  0.17282378  0.36972055  1
  Se  Se8  1  0.21673671  0.55121613  0.78394206  1
  Se  Se9  1  0.78326329  0.44878387  0.21605794  1
  O  O10  1  0.80068371  0.66261847  0.69872995  1
  O  O11  1  0.19931629  0.33738153  0.30127005  1
  O  O12  1  0.90271974  0.00403921  0.77448772  1
  O  O13  1  0.09728026  0.99596079  0.22551228  1
  O  O14  1  0.31361373  0.18109706  0.49078436  1
  O  O15  1  0.68638627  0.81890294  0.50921564  1
  O  O16  1  0.85035722  0.18048434  0.46080704  1
  O  O17  1  0.14964278  0.81951566  0.53919296  1
  O  O18  1  0.25817119  0.74771608  0.89917062  1
  O  O19  1  0.74182881  0.25228392  0.10082938  1
  O  O20  1  0.41027717  0.45494748  0.82322942  1
  O  O21  1  0.58972283  0.54505252  0.17677058  1
  O  O22  1  0.28773488  0.53346800  0.60015052  1
  O  O23  1  0.71226512  0.46653200  0.39984948  1
  O  O24  1  0.93439394  0.43338750  0.79161730  1
  O  O25  1  0.06560606  0.56661250  0.20838270  1
  O  O26  1  0.54573326  0.15717343  0.73198729  1
  O  O27  1  0.45426674  0.84282657  0.26801271  1
