# generated using pymatgen
data_Na2CuH4(C2O5)2
_symmetry_space_group_name_H-M   'P 1'
_cell_length_a   7.59403358
_cell_length_b   9.56351306
_cell_length_c   3.60778656
_cell_angle_alpha   81.75813391
_cell_angle_beta   103.74444370
_cell_angle_gamma   108.08147006
_symmetry_Int_Tables_number   1
_chemical_formula_structural   Na2CuH4(C2O5)2
_chemical_formula_sum   'Na2 Cu1 H4 C4 O10'
_cell_volume   241.25755504
_cell_formula_units_Z   1
loop_
 _symmetry_equiv_pos_site_id
 _symmetry_equiv_pos_as_xyz
  1  'x, y, z'
loop_
 _atom_site_type_symbol
 _atom_site_label
 _atom_site_symmetry_multiplicity
 _atom_site_fract_x
 _atom_site_fract_y
 _atom_site_fract_z
 _atom_site_occupancy
  Na  Na0  1  0.70126459  0.42657697  0.39140079  1
  Na  Na1  1  0.29873541  0.57342303  0.60859921  1
  Cu  Cu2  1  0.00000000  0.00000000  0.00000000  1
  H  H3  1  0.47095915  0.19235186  0.91115935  1
  H  H4  1  0.52904085  0.80764814  0.08884065  1
  H  H5  1  0.67627502  0.17229835  0.00200034  1
  H  H6  1  0.32372498  0.82770165  0.99799966  1
  C  C7  1  0.78029095  0.72427979  0.82063373  1
  C  C8  1  0.21970905  0.27572021  0.17936627  1
  C  C9  1  0.97170249  0.74548994  0.70603648  1
  C  C10  1  0.02829751  0.25451006  0.29396352  1
  O  O11  1  0.76543990  0.83721218  0.95720710  1
  O  O12  1  0.23456010  0.16278782  0.04279290  1
  O  O13  1  0.09332184  0.87482702  0.75667604  1
  O  O14  1  0.90667816  0.12517298  0.24332396  1
  O  O15  1  0.65513252  0.60359017  0.78028807  1
  O  O16  1  0.34486748  0.39640983  0.21971193  1
  O  O17  1  0.99864806  0.64262983  0.57285115  1
  O  O18  1  0.00135194  0.35737017  0.42714885  1
  O  O19  1  0.60340517  0.24257612  0.89399343  1
  O  O20  1  0.39659483  0.75742388  0.10600657  1
