# generated using pymatgen
data_Na7Li4Yb5C12O37
_symmetry_space_group_name_H-M   'P 1'
_cell_length_a   10.34674503
_cell_length_b   10.29251402
_cell_length_c   10.29251402
_cell_angle_alpha   59.34038024
_cell_angle_beta   60.79252664
_cell_angle_gamma   60.79252390
_symmetry_Int_Tables_number   1
_chemical_formula_structural   Na7Li4Yb5C12O37
_chemical_formula_sum   'Na7 Li4 Yb5 C12 O37'
_cell_volume   780.13557513
_cell_formula_units_Z   1
loop_
 _symmetry_equiv_pos_site_id
 _symmetry_equiv_pos_as_xyz
  1  'x, y, z'
loop_
 _atom_site_type_symbol
 _atom_site_label
 _atom_site_symmetry_multiplicity
 _atom_site_fract_x
 _atom_site_fract_y
 _atom_site_fract_z
 _atom_site_occupancy
  Yb  Yb0  1  0.38547022  0.36234771  0.87822416  1
  Yb  Yb1  1  0.38547022  0.87822416  0.36234771  1
  Yb  Yb2  1  0.63206233  0.11777281  0.63372789  1
  Yb  Yb3  1  0.63206233  0.63372789  0.11777281  1
  Yb  Yb4  1  0.87241023  0.37844606  0.37844606  1
  Na  Na5  1  0.11874076  0.11687156  0.63690817  1
  Na  Na6  1  0.11874076  0.63690817  0.11687156  1
  Na  Na7  1  0.10804314  0.63479288  0.63479288  1
  Na  Na8  1  0.63678715  0.11235342  0.11235342  1
  Na  Na9  1  0.37360058  0.88091668  0.88091668  1
  Na  Na10  1  0.87705278  0.87591971  0.37113352  1
  Na  Na11  1  0.87705278  0.37113352  0.87591971  1
  Li  Li12  1  0.00118597  0.00060492  0.00060492  1
  Li  Li13  1  0.00224387  0.99633875  0.50037260  1
  Li  Li14  1  0.00224387  0.50037260  0.99633875  1
  Li  Li15  1  0.64341420  0.62885745  0.62885745  1
  C  C16  1  0.21374826  0.22535229  0.22535229  1
  C  C17  1  0.93536467  0.51728610  0.51728610  1
  C  C18  1  0.22706849  0.23087417  0.82758480  1
  C  C19  1  0.51599592  0.51694505  0.94048538  1
  C  C20  1  0.22706849  0.82758480  0.23087417  1
  C  C21  1  0.13261421  0.78912532  0.78912532  1
  C  C22  1  0.52211756  0.52833263  0.52833263  1
  C  C23  1  0.83745290  0.22718598  0.22718598  1
  C  C24  1  0.78713366  0.13515522  0.78488073  1
  C  C25  1  0.78713366  0.78488073  0.13515522  1
  C  C26  1  0.51599592  0.94048538  0.51694505  1
  C  C27  1  0.78684385  0.79014158  0.79014158  1
  O  O28  1  0.14043924  0.36972346  0.14952463  1
  O  O29  1  0.14043924  0.14952463  0.36972346  1
  O  O30  1  0.35866052  0.15697282  0.15697282  1
  O  O31  1  0.15287131  0.15450579  0.83818442  1
  O  O32  1  0.15287131  0.83818442  0.15450579  1
  O  O33  1  0.15574801  0.36863321  0.84574821  1
  O  O34  1  0.15574801  0.84574821  0.36863321  1
  O  O35  1  0.37759757  0.17388171  0.79952896  1
  O  O36  1  0.37759757  0.79952896  0.17388171  1
  O  O37  1  0.13329721  0.86193403  0.64372046  1
  O  O38  1  0.13329721  0.64372046  0.86193403  1
  O  O39  1  0.53312495  0.36659283  0.36659283  1
  O  O40  1  0.84599136  0.15337050  0.15337050  1
  O  O41  1  0.13173358  0.86108606  0.86108606  1
  O  O42  1  0.38249711  0.59888128  0.59888128  1
  O  O43  1  0.83388210  0.15802608  0.37647505  1
  O  O44  1  0.83388210  0.37647505  0.15802608  1
  O  O45  1  0.59701787  0.60374364  0.38499036  1
  O  O46  1  0.59701787  0.38499036  0.60374364  1
  O  O47  1  0.64425955  0.13582534  0.85480634  1
  O  O48  1  0.64425955  0.85480634  0.13582534  1
  O  O49  1  0.37450666  0.93879658  0.58389960  1
  O  O50  1  0.37450667  0.58389959  0.93879658  1
  O  O51  1  0.85434443  0.63814337  0.13990444  1
  O  O52  1  0.85434443  0.13990444  0.63814337  1
  O  O53  1  0.59288133  0.38064733  0.92207589  1
  O  O54  1  0.59288133  0.92207589  0.38064732  1
  O  O55  1  0.58488888  0.58876342  0.94646689  1
  O  O56  1  0.58488888  0.94646689  0.58876341  1
  O  O57  1  0.86229188  0.85769901  0.12825118  1
  O  O58  1  0.86229188  0.12825118  0.85769901  1
  O  O59  1  0.93908471  0.37087582  0.58677288  1
  O  O60  1  0.93908472  0.58677288  0.37087582  1
  O  O61  1  0.91353743  0.59566247  0.59566247  1
  O  O62  1  0.64510808  0.86024509  0.86024509  1
  O  O63  1  0.85650334  0.86625225  0.64545107  1
  O  O64  1  0.85650334  0.64545107  0.86625225  1
