# generated using pymatgen
data_Bi4O3F7
_symmetry_space_group_name_H-M   'P 1'
_cell_length_a   3.94574677
_cell_length_b   8.45992310
_cell_length_c   5.76370776
_cell_angle_alpha   88.86882053
_cell_angle_beta   90.00000000
_cell_angle_gamma   90.00000000
_symmetry_Int_Tables_number   1
_chemical_formula_structural   Bi4O3F7
_chemical_formula_sum   'Bi4 O3 F7'
_cell_volume   192.35918689
_cell_formula_units_Z   1
loop_
 _symmetry_equiv_pos_site_id
 _symmetry_equiv_pos_as_xyz
  1  'x, y, z'
loop_
 _atom_site_type_symbol
 _atom_site_label
 _atom_site_symmetry_multiplicity
 _atom_site_fract_x
 _atom_site_fract_y
 _atom_site_fract_z
 _atom_site_occupancy
  Bi  Bi0  1  0.25000000  0.11104426  0.22574101  1
  Bi  Bi1  1  0.25000000  0.62641328  0.22871808  1
  Bi  Bi2  1  0.75000000  0.37853076  0.74230341  1
  Bi  Bi3  1  0.75000000  0.87538321  0.79912451  1
  O  O4  1  0.25000000  0.87251906  0.04695994  1
  O  O5  1  0.75000000  0.11426206  0.97145686  1
  O  O6  1  0.75000000  0.63116344  0.96962424  1
  F  F7  1  0.25000000  0.37142591  0.03447922  1
  F  F8  1  0.25000000  0.23384692  0.62563490  1
  F  F9  1  0.25000000  0.53994413  0.63943676  1
  F  F10  1  0.25000000  0.88888683  0.57625064  1
  F  F11  1  0.75000000  0.05864692  0.44586866  1
  F  F12  1  0.75000000  0.40168816  0.35366097  1
  F  F13  1  0.75000000  0.72259507  0.42713880  1
