# generated using pymatgen
data_Li2AgF3
_symmetry_space_group_name_H-M   'P 1'
_cell_length_a   9.21750503
_cell_length_b   5.44858952
_cell_length_c   5.49929210
_cell_angle_alpha   90.00000000
_cell_angle_beta   90.00000000
_cell_angle_gamma   90.00000000
_symmetry_Int_Tables_number   1
_chemical_formula_structural   Li2AgF3
_chemical_formula_sum   'Li8 Ag4 F12'
_cell_volume   276.18765475
_cell_formula_units_Z   4
loop_
 _symmetry_equiv_pos_site_id
 _symmetry_equiv_pos_as_xyz
  1  'x, y, z'
loop_
 _atom_site_type_symbol
 _atom_site_label
 _atom_site_symmetry_multiplicity
 _atom_site_fract_x
 _atom_site_fract_y
 _atom_site_fract_z
 _atom_site_occupancy
  Li  Li0  1  0.16268473  0.96288117  0.00286386  1
  Li  Li1  1  0.16268473  0.96288117  0.49713614  1
  Li  Li2  1  0.33731527  0.46288117  0.50286386  1
  Li  Li3  1  0.33731527  0.46288117  0.99713614  1
  Li  Li4  1  0.66268473  0.53711883  0.00286386  1
  Li  Li5  1  0.66268473  0.53711883  0.49713614  1
  Li  Li6  1  0.83731527  0.03711883  0.50286386  1
  Li  Li7  1  0.83731527  0.03711883  0.99713614  1
  Ag  Ag8  1  0.01054968  0.45854568  0.25000000  1
  Ag  Ag9  1  0.48945032  0.95854568  0.75000000  1
  Ag  Ag10  1  0.51054968  0.04145432  0.25000000  1
  Ag  Ag11  1  0.98945032  0.54145432  0.75000000  1
  F  F12  1  0.00300865  0.99262246  0.75000000  1
  F  F13  1  0.21374994  0.66435424  0.25000000  1
  F  F14  1  0.22159828  0.66437716  0.75000000  1
  F  F15  1  0.27840172  0.16437716  0.25000000  1
  F  F16  1  0.28625006  0.16435424  0.75000000  1
  F  F17  1  0.49699135  0.49262246  0.25000000  1
  F  F18  1  0.50300865  0.50737754  0.75000000  1
  F  F19  1  0.71374994  0.83564576  0.25000000  1
  F  F20  1  0.72159828  0.83562284  0.75000000  1
  F  F21  1  0.77840172  0.33562284  0.25000000  1
  F  F22  1  0.78625006  0.33564576  0.75000000  1
  F  F23  1  0.99699135  0.00737754  0.25000000  1
