# generated using pymatgen
data_Sm4U4O17
_symmetry_space_group_name_H-M   'P 1'
_cell_length_a   3.83532349
_cell_length_b   9.36074554
_cell_length_c   9.36074554
_cell_angle_alpha   108.25612939
_cell_angle_beta   90.00000000
_cell_angle_gamma   90.00000000
_symmetry_Int_Tables_number   1
_chemical_formula_structural   Sm4U4O17
_chemical_formula_sum   'Sm4 U4 O17'
_cell_volume   319.14907913
_cell_formula_units_Z   1
loop_
 _symmetry_equiv_pos_site_id
 _symmetry_equiv_pos_as_xyz
  1  'x, y, z'
loop_
 _atom_site_type_symbol
 _atom_site_label
 _atom_site_symmetry_multiplicity
 _atom_site_fract_x
 _atom_site_fract_y
 _atom_site_fract_z
 _atom_site_occupancy
  Sm  Sm0  1  0.50000000  0.87500000  0.62500000  1
  Sm  Sm1  1  0.00000000  0.74943290  0.25056710  1
  Sm  Sm2  1  0.50000000  0.37500000  0.12500000  1
  Sm  Sm3  1  0.00000000  0.00056710  0.99943290  1
  U  U4  1  0.50000000  0.62477960  0.87477960  1
  U  U5  1  0.00000000  0.49473303  0.50526697  1
  U  U6  1  0.00000000  0.25526697  0.74473303  1
  U  U7  1  0.50000000  0.12522040  0.37522040  1
  O  O8  1  0.50000000  0.85895663  0.87608333  1
  O  O9  1  0.50000000  0.89104337  0.37391667  1
  O  O10  1  0.50000000  0.62739619  0.63375957  1
  O  O11  1  0.00000000  0.72732981  0.50598911  1
  O  O12  1  0.50000000  0.38375957  0.87739619  1
  O  O13  1  0.00000000  0.51598240  0.76598240  1
  O  O14  1  0.50000000  0.37500000  0.62500000  1
  O  O15  1  0.00000000  0.23401760  0.48401760  1
  O  O16  1  0.00000000  0.02267019  0.74401089  1
  O  O17  1  0.50000000  0.62608333  0.10895663  1
  O  O18  1  0.00000000  0.49401089  0.27267019  1
  O  O19  1  0.00000000  0.73983776  0.98983776  1
  O  O20  1  0.50000000  0.12260381  0.61624043  1
  O  O21  1  0.50000000  0.36624043  0.37260381  1
  O  O22  1  0.00000000  0.01016224  0.26016224  1
  O  O23  1  0.50000000  0.12391667  0.14104337  1
  O  O24  1  0.00000000  0.25598911  0.97732981  1
