# generated using pymatgen
data_YTmO3
_symmetry_space_group_name_H-M   'P 1'
_cell_length_a   5.66425099
_cell_length_b   5.92267568
_cell_length_c   8.30527069
_cell_angle_alpha   90.00000000
_cell_angle_beta   90.00000000
_cell_angle_gamma   90.00000000
_symmetry_Int_Tables_number   1
_chemical_formula_structural   YTmO3
_chemical_formula_sum   'Y4 Tm4 O12'
_cell_volume   278.62124773
_cell_formula_units_Z   4
loop_
 _symmetry_equiv_pos_site_id
 _symmetry_equiv_pos_as_xyz
  1  'x, y, z'
loop_
 _atom_site_type_symbol
 _atom_site_label
 _atom_site_symmetry_multiplicity
 _atom_site_fract_x
 _atom_site_fract_y
 _atom_site_fract_z
 _atom_site_occupancy
  Y  Y0  1  0.01537942  0.94700027  0.75000000  1
  Y  Y1  1  0.48462058  0.44700027  0.75000000  1
  Y  Y2  1  0.51537942  0.55299973  0.25000000  1
  Y  Y3  1  0.98462058  0.05299973  0.25000000  1
  Tm  Tm4  1  0.00000000  0.50000000  0.00000000  1
  Tm  Tm5  1  0.00000000  0.50000000  0.50000000  1
  Tm  Tm6  1  0.50000000  0.00000000  0.00000000  1
  Tm  Tm7  1  0.50000000  0.00000000  0.50000000  1
  O  O8  1  0.14490676  0.42234988  0.25000000  1
  O  O9  1  0.18279030  0.18614797  0.57514756  1
  O  O10  1  0.18279030  0.18614797  0.92485244  1
  O  O11  1  0.31720970  0.68614797  0.92485244  1
  O  O12  1  0.31720970  0.68614797  0.57514756  1
  O  O13  1  0.35509324  0.92234988  0.25000000  1
  O  O14  1  0.64490676  0.07765012  0.75000000  1
  O  O15  1  0.68279030  0.31385203  0.42485244  1
  O  O16  1  0.68279030  0.31385203  0.07514756  1
  O  O17  1  0.81720970  0.81385203  0.07514756  1
  O  O18  1  0.81720970  0.81385203  0.42485244  1
  O  O19  1  0.85509324  0.57765012  0.75000000  1
