# generated using pymatgen
data_Li2Cu4S3
_symmetry_space_group_name_H-M   'P 1'
_cell_length_a   7.29860238
_cell_length_b   7.29860238
_cell_length_c   6.04105662
_cell_angle_alpha   111.36850606
_cell_angle_beta   68.63149394
_cell_angle_gamma   100.95901051
_symmetry_Int_Tables_number   1
_chemical_formula_structural   Li2Cu4S3
_chemical_formula_sum   'Li4 Cu8 S6'
_cell_volume   278.47049396
_cell_formula_units_Z   2
loop_
 _symmetry_equiv_pos_site_id
 _symmetry_equiv_pos_as_xyz
  1  'x, y, z'
loop_
 _atom_site_type_symbol
 _atom_site_label
 _atom_site_symmetry_multiplicity
 _atom_site_fract_x
 _atom_site_fract_y
 _atom_site_fract_z
 _atom_site_occupancy
  Li  Li0  1  0.27694118  0.59664014  0.66718552  1
  Li  Li1  1  0.40335986  0.72305882  0.16718552  1
  Li  Li2  1  0.59664014  0.27694118  0.83281448  1
  Li  Li3  1  0.72305882  0.40335986  0.33281448  1
  Cu  Cu4  1  0.12025431  0.41206679  0.11547045  1
  Cu  Cu5  1  0.58793321  0.87974569  0.61547045  1
  Cu  Cu6  1  0.74858998  0.98588739  0.96571462  1
  Cu  Cu7  1  0.01411261  0.25141002  0.46571462  1
  Cu  Cu8  1  0.98588739  0.74858998  0.53428538  1
  Cu  Cu9  1  0.25141002  0.01411261  0.03428538  1
  Cu  Cu10  1  0.41206679  0.12025431  0.38452955  1
  Cu  Cu11  1  0.87974569  0.58793321  0.88452955  1
  S  S12  1  0.91161033  0.26973336  0.88310462  1
  S  S13  1  0.73026664  0.08838967  0.38310462  1
  S  S14  1  0.66002876  0.66002876  0.75000000  1
  S  S15  1  0.33997124  0.33997124  0.25000000  1
  S  S16  1  0.26973336  0.91161033  0.61689538  1
  S  S17  1  0.08838967  0.73026664  0.11689538  1
