# generated using pymatgen
data_SrBi5O9
_symmetry_space_group_name_H-M   'P 1'
_cell_length_a   3.90348913
_cell_length_b   10.70225417
_cell_length_c   7.00828356
_cell_angle_alpha   82.89992672
_cell_angle_beta   90.13271728
_cell_angle_gamma   99.68495458
_symmetry_Int_Tables_number   1
_chemical_formula_structural   SrBi5O9
_chemical_formula_sum   'Sr1 Bi5 O9'
_cell_volume   286.34201051
_cell_formula_units_Z   1
loop_
 _symmetry_equiv_pos_site_id
 _symmetry_equiv_pos_as_xyz
  1  'x, y, z'
loop_
 _atom_site_type_symbol
 _atom_site_label
 _atom_site_symmetry_multiplicity
 _atom_site_fract_x
 _atom_site_fract_y
 _atom_site_fract_z
 _atom_site_occupancy
  Sr  Sr0  1  0.00702028  0.00786639  0.00264836  1
  Bi  Bi1  1  0.65057208  0.31422342  0.10643066  1
  Bi  Bi2  1  0.85743400  0.69603009  0.38680329  1
  Bi  Bi3  1  0.49408275  0.97679156  0.50618201  1
  Bi  Bi4  1  0.36843094  0.69461501  0.87468368  1
  Bi  Bi5  1  0.14464641  0.29808661  0.60702637  1
  O  O6  1  0.83142954  0.61356256  0.84013680  1
  O  O7  1  0.55777940  0.11540906  0.15437391  1
  O  O8  1  0.96111620  0.89945813  0.34756674  1
  O  O9  1  0.64464434  0.29516993  0.77620944  1
  O  O10  1  0.39566834  0.75051232  0.54969337  1
  O  O11  1  0.37395985  0.70089091  0.18388632  1
  O  O12  1  0.05139967  0.09786952  0.63415275  1
  O  O13  1  0.15466645  0.32478097  0.27541545  1
  O  O14  1  0.45617773  0.89943351  0.84292285  1
