# generated using pymatgen
data_Ba2YBr7
_symmetry_space_group_name_H-M   'P 1'
_cell_length_a   9.80623956
_cell_length_b   9.80623956
_cell_length_c   11.36325924
_cell_angle_alpha   55.67535327
_cell_angle_beta   124.32464673
_cell_angle_gamma   127.54723741
_symmetry_Int_Tables_number   1
_chemical_formula_structural   Ba2YBr7
_chemical_formula_sum   'Ba4 Y2 Br14'
_cell_volume   673.80073383
_cell_formula_units_Z   2
loop_
 _symmetry_equiv_pos_site_id
 _symmetry_equiv_pos_as_xyz
  1  'x, y, z'
loop_
 _atom_site_type_symbol
 _atom_site_label
 _atom_site_symmetry_multiplicity
 _atom_site_fract_x
 _atom_site_fract_y
 _atom_site_fract_z
 _atom_site_occupancy
  Ba  Ba0  1  0.29127699  0.68131511  0.70036100  1
  Ba  Ba1  1  0.31868489  0.70872301  0.20036100  1
  Ba  Ba2  1  0.68131511  0.29127699  0.79963900  1
  Ba  Ba3  1  0.70872301  0.31868489  0.29963900  1
  Y  Y4  1  0.94798852  0.94798852  0.75000000  1
  Y  Y5  1  0.05201148  0.05201148  0.25000000  1
  Br  Br6  1  0.06339828  0.68408615  0.83926189  1
  Br  Br7  1  0.31591385  0.93660172  0.33926189  1
  Br  Br8  1  0.06833336  0.24848018  0.94338459  1
  Br  Br9  1  0.10192648  0.34335233  0.56428898  1
  Br  Br10  1  0.60045429  0.60045429  0.75000000  1
  Br  Br11  1  0.75151982  0.93166664  0.44338459  1
  Br  Br12  1  0.34335233  0.10192648  0.93571102  1
  Br  Br13  1  0.65664767  0.89807352  0.06428898  1
  Br  Br14  1  0.24848018  0.06833336  0.55661541  1
  Br  Br15  1  0.39954571  0.39954571  0.25000000  1
  Br  Br16  1  0.89807352  0.65664767  0.43571102  1
  Br  Br17  1  0.93166664  0.75151982  0.05661541  1
  Br  Br18  1  0.68408615  0.06339828  0.66073811  1
  Br  Br19  1  0.93660172  0.31591385  0.16073811  1
