# generated using pymatgen
data_La2(BiO2)7
_symmetry_space_group_name_H-M   'P 1'
_cell_length_a   10.66933958
_cell_length_b   6.93994537
_cell_length_c   7.03486875
_cell_angle_alpha   59.62678037
_cell_angle_beta   77.41377942
_cell_angle_gamma   84.29591667
_symmetry_Int_Tables_number   1
_chemical_formula_structural   La2(BiO2)7
_chemical_formula_sum   'La2 Bi7 O14'
_cell_volume   438.56609331
_cell_formula_units_Z   1
loop_
 _symmetry_equiv_pos_site_id
 _symmetry_equiv_pos_as_xyz
  1  'x, y, z'
loop_
 _atom_site_type_symbol
 _atom_site_label
 _atom_site_symmetry_multiplicity
 _atom_site_fract_x
 _atom_site_fract_y
 _atom_site_fract_z
 _atom_site_occupancy
  La  La0  1  0.98511465  0.99813631  0.00674006  1
  La  La1  1  0.00542036  0.66960259  0.66475698  1
  Bi  Bi2  1  0.30273940  0.97846671  0.24903169  1
  Bi  Bi3  1  0.97811788  0.33106823  0.34530346  1
  Bi  Bi4  1  0.69189745  0.32702938  0.12684493  1
  Bi  Bi5  1  0.29641598  0.35943324  0.56635949  1
  Bi  Bi6  1  0.68892901  0.02244269  0.75356538  1
  Bi  Bi7  1  0.69158995  0.64186883  0.43430228  1
  Bi  Bi8  1  0.30220210  0.67479272  0.87214100  1
  O  O9  1  0.09680158  0.01199758  0.27171149  1
  O  O10  1  0.33135082  0.02391367  0.59541433  1
  O  O11  1  0.90205435  0.34425659  0.01776168  1
  O  O12  1  0.69004114  0.98239935  0.38424056  1
  O  O13  1  0.32636721  0.68693434  0.19460867  1
  O  O14  1  0.09169972  0.30959562  0.64705424  1
  O  O15  1  0.76810016  0.33036569  0.40928323  1
  O  O16  1  0.90154844  0.98719041  0.69994411  1
  O  O17  1  0.69530575  0.73376321  0.09060924  1
  O  O18  1  0.23068034  0.67158626  0.59152015  1
  O  O19  1  0.33114572  0.27878775  0.88798653  1
  O  O20  1  0.90207461  0.66636251  0.38052313  1
  O  O21  1  0.69336394  0.28375336  0.83200607  1
  O  O22  1  0.09704044  0.68625196  0.97829230  1
