# generated using pymatgen
data_SiBi3O7
_symmetry_space_group_name_H-M   'P 1'
_cell_length_a   8.27409818
_cell_length_b   8.27419077
_cell_length_c   5.33672709
_cell_angle_alpha   89.99976555
_cell_angle_beta   90.00495570
_cell_angle_gamma   59.99624499
_symmetry_Int_Tables_number   1
_chemical_formula_structural   SiBi3O7
_chemical_formula_sum   'Si2 Bi6 O14'
_cell_volume   316.39920948
_cell_formula_units_Z   2
loop_
 _symmetry_equiv_pos_site_id
 _symmetry_equiv_pos_as_xyz
  1  'x, y, z'
loop_
 _atom_site_type_symbol
 _atom_site_label
 _atom_site_symmetry_multiplicity
 _atom_site_fract_x
 _atom_site_fract_y
 _atom_site_fract_z
 _atom_site_occupancy
  Si  Si0  1  0.33332281  0.33334420  0.67593026  1
  Si  Si1  1  0.66668082  0.66663843  0.17594504  1
  Bi  Bi2  1  0.24749741  0.09395700  0.20626016  1
  Bi  Bi3  1  0.09397471  0.65848353  0.20623096  1
  Bi  Bi4  1  0.34149935  0.75244205  0.70627175  1
  Bi  Bi5  1  0.65850059  0.24749631  0.20618746  1
  Bi  Bi6  1  0.90599115  0.34157006  0.70622060  1
  Bi  Bi7  1  0.75243615  0.90601332  0.70620323  1
  O  O8  1  0.16216991  0.07959232  0.82445129  1
  O  O9  1  0.12398793  0.40576868  0.54924970  1
  O  O10  1  0.07959896  0.75824282  0.82445780  1
  O  O11  1  0.33340339  0.33334080  0.98473926  1
  O  O12  1  0.47020892  0.12404809  0.54918633  1
  O  O13  1  0.40567519  0.47025155  0.54911506  1
  O  O14  1  0.24177705  0.83781047  0.32447166  1
  O  O15  1  0.75827878  0.16213246  0.82446070  1
  O  O16  1  0.59422528  0.52978032  0.04922840  1
  O  O17  1  0.52974854  0.87595039  0.04923895  1
  O  O18  1  0.66675002  0.66660605  0.48478663  1
  O  O19  1  0.92035650  0.24187336  0.32441150  1
  O  O20  1  0.87595640  0.59424414  0.04915401  1
  O  O21  1  0.83776414  0.92040667  0.32439023  1
