# generated using pymatgen
data_HfMg6Sn
_symmetry_space_group_name_H-M   'P 1'
_cell_length_a   6.41218999
_cell_length_b   6.41218945
_cell_length_c   4.98241551
_cell_angle_alpha   90.00000000
_cell_angle_beta   90.00000000
_cell_angle_gamma   118.97751435
_symmetry_Int_Tables_number   1
_chemical_formula_structural   HfMg6Sn
_chemical_formula_sum   'Hf1 Mg6 Sn1'
_cell_volume   179.21170047
_cell_formula_units_Z   1
loop_
 _symmetry_equiv_pos_site_id
 _symmetry_equiv_pos_as_xyz
  1  'x, y, z'
loop_
 _atom_site_type_symbol
 _atom_site_label
 _atom_site_symmetry_multiplicity
 _atom_site_fract_x
 _atom_site_fract_y
 _atom_site_fract_z
 _atom_site_occupancy
  Hf  Hf0  1  0.33089099  0.16910901  0.75000000  1
  Mg  Mg1  1  0.16625445  0.83260666  0.25000000  1
  Mg  Mg2  1  0.66739334  0.33374555  0.25000000  1
  Mg  Mg3  1  0.66701654  0.83298346  0.25000000  1
  Mg  Mg4  1  0.33609566  0.67339794  0.75000000  1
  Mg  Mg5  1  0.82660206  0.16390434  0.75000000  1
  Mg  Mg6  1  0.83400628  0.66599372  0.75000000  1
  Sn  Sn7  1  0.17174068  0.32825932  0.25000000  1
