# generated using pymatgen
data_GdYO2
_symmetry_space_group_name_H-M   'P 1'
_cell_length_a   3.62952511
_cell_length_b   3.62959102
_cell_length_c   13.12093453
_cell_angle_alpha   90.00158864
_cell_angle_beta   89.99944769
_cell_angle_gamma   119.99965777
_symmetry_Int_Tables_number   1
_chemical_formula_structural   GdYO2
_chemical_formula_sum   'Gd2 Y2 O4'
_cell_volume   149.69400033
_cell_formula_units_Z   2
loop_
 _symmetry_equiv_pos_site_id
 _symmetry_equiv_pos_as_xyz
  1  'x, y, z'
loop_
 _atom_site_type_symbol
 _atom_site_label
 _atom_site_symmetry_multiplicity
 _atom_site_fract_x
 _atom_site_fract_y
 _atom_site_fract_z
 _atom_site_occupancy
  Gd  Gd0  1  0.33331167  0.66669157  0.24999578  1
  Gd  Gd1  1  0.66668917  0.33339010  0.75000450  1
  Y  Y2  1  0.99999980  0.99998841  0.99995919  1
  Y  Y3  1  0.99999876  0.00001829  0.50004110  1
  O  O4  1  0.33332072  0.66670766  0.08000629  1
  O  O5  1  0.33332051  0.66666898  0.41998866  1
  O  O6  1  0.66668010  0.33337111  0.91995119  1
  O  O7  1  0.66667827  0.33336288  0.58005327  1
