# generated using pymatgen
data_Li3Cu3(PO4)2
_symmetry_space_group_name_H-M   'P 1'
_cell_length_a   6.27620056
_cell_length_b   5.38556304
_cell_length_c   5.10969049
_cell_angle_alpha   90.02668412
_cell_angle_beta   89.91727357
_cell_angle_gamma   89.82035477
_symmetry_Int_Tables_number   1
_chemical_formula_structural   Li3Cu3(PO4)2
_chemical_formula_sum   'Li3 Cu3 P2 O8'
_cell_volume   172.71095507
_cell_formula_units_Z   1
loop_
 _symmetry_equiv_pos_site_id
 _symmetry_equiv_pos_as_xyz
  1  'x, y, z'
loop_
 _atom_site_type_symbol
 _atom_site_label
 _atom_site_symmetry_multiplicity
 _atom_site_fract_x
 _atom_site_fract_y
 _atom_site_fract_z
 _atom_site_occupancy
  Li  Li0  1  0.24711794  0.32731541  0.99424407  1
  Li  Li1  1  0.25150580  0.67335653  0.49203149  1
  Li  Li2  1  0.74836831  0.67470742  0.49183557  1
  Cu  Cu3  1  0.99934422  0.17335416  0.49136380  1
  Cu  Cu4  1  0.50055242  0.82716018  0.99818596  1
  Cu  Cu5  1  0.75490575  0.33117469  0.99642064  1
  P  P6  1  0.00484725  0.81991438  -0.00079984  1
  P  P7  1  0.49463397  0.17664047  0.49908007  1
  O  O8  1  0.01475328  0.09615134  0.90795310  1
  O  O9  1  0.00000310  0.80350006  0.30271252  1
  O  O10  1  0.20315760  0.67804209  0.88842136  1
  O  O11  1  0.29675649  0.31579050  0.38443778  1
  O  O12  1  0.48612820  0.18791252  0.80263236  1
  O  O13  1  0.49888530  0.89967253  0.40861872  1
  O  O14  1  0.69964763  0.31678118  0.40487715  1
  O  O15  1  0.79939174  0.69852552  0.88057725  1
