# generated using pymatgen
data_Pb2O3
_symmetry_space_group_name_H-M   'P 1'
_cell_length_a   7.42448879
_cell_length_b   5.77035774
_cell_length_c   3.57387152
_cell_angle_alpha   90.00000000
_cell_angle_beta   89.66888553
_cell_angle_gamma   90.00000000
_symmetry_Int_Tables_number   1
_chemical_formula_structural   Pb2O3
_chemical_formula_sum   'Pb4 O6'
_cell_volume   153.10909105
_cell_formula_units_Z   2
loop_
 _symmetry_equiv_pos_site_id
 _symmetry_equiv_pos_as_xyz
  1  'x, y, z'
loop_
 _atom_site_type_symbol
 _atom_site_label
 _atom_site_symmetry_multiplicity
 _atom_site_fract_x
 _atom_site_fract_y
 _atom_site_fract_z
 _atom_site_occupancy
  Pb  Pb0  1  0.10129615  0.33242357  0.24764548  1
  Pb  Pb1  1  0.38523146  0.85699657  0.25790029  1
  Pb  Pb2  1  0.61476854  0.35699657  0.74209971  1
  Pb  Pb3  1  0.89870385  0.83242357  0.75235452  1
  O  O4  1  0.13955115  0.07935138  0.74860351  1
  O  O5  1  0.14690039  0.57610672  0.74720266  1
  O  O6  1  0.40902635  0.28912176  0.24639508  1
  O  O7  1  0.59097365  0.78912176  0.75360492  1
  O  O8  1  0.85309961  0.07610672  0.25279734  1
  O  O9  1  0.86044885  0.57935138  0.25139649  1
