# generated using pymatgen
data_Sc2O3
_symmetry_space_group_name_H-M   'P 1'
_cell_length_a   5.43133924
_cell_length_b   5.85807740
_cell_length_c   5.43133914
_cell_angle_alpha   117.61816293
_cell_angle_beta   59.99999941
_cell_angle_gamma   117.61816316
_symmetry_Int_Tables_number   1
_chemical_formula_structural   Sc2O3
_chemical_formula_sum   'Sc4 O6'
_cell_volume   126.41103197
_cell_formula_units_Z   2
loop_
 _symmetry_equiv_pos_site_id
 _symmetry_equiv_pos_as_xyz
  1  'x, y, z'
loop_
 _atom_site_type_symbol
 _atom_site_label
 _atom_site_symmetry_multiplicity
 _atom_site_fract_x
 _atom_site_fract_y
 _atom_site_fract_z
 _atom_site_occupancy
  Sc  Sc0  1  0.00000000  0.00000000  0.00000000  1
  Sc  Sc1  1  0.29972065  0.89916094  0.29972065  1
  Sc  Sc2  1  0.50000000  0.50000000  0.50000000  1
  Sc  Sc3  1  0.70027935  0.10083906  0.70027935  1
  O  O4  1  0.28691480  0.78215574  0.61038645  1
  O  O5  1  0.38961355  0.21784426  0.11514551  1
  O  O6  1  0.11514551  0.21784426  0.71308520  1
  O  O7  1  0.88485449  0.78215574  0.28691480  1
  O  O8  1  0.61038645  0.78215574  0.88485449  1
  O  O9  1  0.71308520  0.21784426  0.38961355  1
