# generated using pymatgen
data_SrCa2I6
_symmetry_space_group_name_H-M   'P 1'
_cell_length_a   7.60823213
_cell_length_b   13.11440895
_cell_length_c   8.64487312
_cell_angle_alpha   95.17343905
_cell_angle_beta   90.00000000
_cell_angle_gamma   73.13776660
_symmetry_Int_Tables_number   1
_chemical_formula_structural   SrCa2I6
_chemical_formula_sum   'Sr2 Ca4 I12'
_cell_volume   821.80524840
_cell_formula_units_Z   2
loop_
 _symmetry_equiv_pos_site_id
 _symmetry_equiv_pos_as_xyz
  1  'x, y, z'
loop_
 _atom_site_type_symbol
 _atom_site_label
 _atom_site_symmetry_multiplicity
 _atom_site_fract_x
 _atom_site_fract_y
 _atom_site_fract_z
 _atom_site_occupancy
  Sr  Sr0  1  0.72999186  0.00000000  0.75000000  1
  Sr  Sr1  1  0.27000814  0.00000000  0.25000000  1
  Ca  Ca2  1  0.39767525  0.65690667  0.87074447  1
  Ca  Ca3  1  0.94541808  0.65690667  0.37074447  1
  Ca  Ca4  1  0.05458192  0.34309333  0.62925553  1
  Ca  Ca5  1  0.60232475  0.34309333  0.12925553  1
  I  I6  1  0.51097100  0.86128880  0.92472097  1
  I  I7  1  0.62773920  0.86128880  0.42472097  1
  I  I8  1  0.11656877  0.78978894  0.62912815  1
  I  I9  1  0.09364129  0.78978894  0.12912815  1
  I  I10  1  0.75552911  0.56294835  0.63957169  1
  I  I11  1  0.68152254  0.56294835  0.13957169  1
  I  I12  1  0.31847746  0.43705165  0.86042831  1
  I  I13  1  0.24447089  0.43705165  0.36042831  1
  I  I14  1  0.90635871  0.21021106  0.87087185  1
  I  I15  1  0.88343123  0.21021106  0.37087185  1
  I  I16  1  0.37226080  0.13871120  0.57527903  1
  I  I17  1  0.48902900  0.13871120  0.07527903  1
