# generated using pymatgen
data_NaTaO3
_symmetry_space_group_name_H-M   'P 1'
_cell_length_a   7.42294957
_cell_length_b   7.42290030
_cell_length_c   7.42294957
_cell_angle_alpha   120.00021961
_cell_angle_beta   90.00000000
_cell_angle_gamma   59.99978039
_symmetry_Int_Tables_number   1
_chemical_formula_structural   NaTaO3
_chemical_formula_sum   'Na4 Ta4 O12'
_cell_volume   289.20697752
_cell_formula_units_Z   4
loop_
 _symmetry_equiv_pos_site_id
 _symmetry_equiv_pos_as_xyz
  1  'x, y, z'
loop_
 _atom_site_type_symbol
 _atom_site_label
 _atom_site_symmetry_multiplicity
 _atom_site_fract_x
 _atom_site_fract_y
 _atom_site_fract_z
 _atom_site_occupancy
  Na  Na0  1  0.00000000  0.00000000  0.50000000  1
  Na  Na1  1  0.50000000  0.00000000  0.50000000  1
  Na  Na2  1  0.50000000  0.50000000  0.00000000  1
  Na  Na3  1  0.50000000  0.50000000  0.50000000  1
  Ta  Ta4  1  0.00000000  0.00000000  0.00000000  1
  Ta  Ta5  1  0.50000000  0.00000000  0.00000000  1
  Ta  Ta6  1  0.00000000  0.50000000  0.50000000  1
  Ta  Ta7  1  0.00000000  0.50000000  0.00000000  1
  O  O8  1  0.68010995  0.13977909  0.06989005  1
  O  O9  1  0.31989243  0.25000000  0.31989243  1
  O  O10  1  0.31989243  0.25000000  0.93010757  1
  O  O11  1  0.93010757  0.25000000  0.31989243  1
  O  O12  1  0.93010757  0.25000000  0.93010757  1
  O  O13  1  0.06989005  0.36022091  0.68010995  1
  O  O14  1  0.93010995  0.63977909  0.31989005  1
  O  O15  1  0.06989243  0.75000000  0.06989243  1
  O  O16  1  0.68010757  0.75000000  0.06989243  1
  O  O17  1  0.06989243  0.75000000  0.68010757  1
  O  O18  1  0.68010757  0.75000000  0.68010757  1
  O  O19  1  0.31989005  0.86022091  0.93010995  1
