# generated using pymatgen
data_MgCl2O
_symmetry_space_group_name_H-M   'P 1'
_cell_length_a   8.92451184
_cell_length_b   6.40128346
_cell_length_c   7.70724352
_cell_angle_alpha   90.00000000
_cell_angle_beta   118.93285851
_cell_angle_gamma   90.00000000
_symmetry_Int_Tables_number   1
_chemical_formula_structural   MgCl2O
_chemical_formula_sum   'Mg4 Cl8 O4'
_cell_volume   385.34664314
_cell_formula_units_Z   4
loop_
 _symmetry_equiv_pos_site_id
 _symmetry_equiv_pos_as_xyz
  1  'x, y, z'
loop_
 _atom_site_type_symbol
 _atom_site_label
 _atom_site_symmetry_multiplicity
 _atom_site_fract_x
 _atom_site_fract_y
 _atom_site_fract_z
 _atom_site_occupancy
  Mg  Mg0  1  0.13510041  0.81407343  0.81992605  1
  Mg  Mg1  1  0.13510041  0.68592657  0.31992605  1
  Mg  Mg2  1  0.86489959  0.31407343  0.68007395  1
  Mg  Mg3  1  0.86489959  0.18592657  0.18007395  1
  Cl  Cl4  1  0.24328676  0.25478584  0.87756650  1
  Cl  Cl5  1  0.24328676  0.24521416  0.37756650  1
  Cl  Cl6  1  0.30494200  0.73633178  0.66830433  1
  Cl  Cl7  1  0.30494200  0.76366822  0.16830433  1
  Cl  Cl8  1  0.69505800  0.23633178  0.83169567  1
  Cl  Cl9  1  0.69505800  0.26366822  0.33169567  1
  Cl  Cl10  1  0.75671324  0.75478584  0.62243350  1
  Cl  Cl11  1  0.75671324  0.74521416  0.12243350  1
  O  O12  1  0.94205077  0.61162634  0.73469560  1
  O  O13  1  0.94205077  0.88837366  0.23469560  1
  O  O14  1  0.05794923  0.11162634  0.76530440  1
  O  O15  1  0.05794923  0.38837366  0.26530440  1
