# generated using pymatgen
data_Mg6NiBi
_symmetry_space_group_name_H-M   'P 1'
_cell_length_a   6.43451316
_cell_length_b   6.43451265
_cell_length_c   4.90888032
_cell_angle_alpha   90.00000000
_cell_angle_beta   90.00000000
_cell_angle_gamma   122.04907808
_symmetry_Int_Tables_number   1
_chemical_formula_structural   Mg6NiBi
_chemical_formula_sum   'Mg6 Ni1 Bi1'
_cell_volume   172.26680694
_cell_formula_units_Z   1
loop_
 _symmetry_equiv_pos_site_id
 _symmetry_equiv_pos_as_xyz
  1  'x, y, z'
loop_
 _atom_site_type_symbol
 _atom_site_label
 _atom_site_symmetry_multiplicity
 _atom_site_fract_x
 _atom_site_fract_y
 _atom_site_fract_z
 _atom_site_occupancy
  Mg  Mg0  1  0.16776236  0.80864407  0.25000000  1
  Mg  Mg1  1  0.69135593  0.33223764  0.25000000  1
  Mg  Mg2  1  0.67068682  0.82931318  0.25000000  1
  Mg  Mg3  1  0.32691474  0.64441591  0.75000000  1
  Mg  Mg4  1  0.85558409  0.17308526  0.75000000  1
  Mg  Mg5  1  0.83156867  0.66843133  0.75000000  1
  Ni  Ni6  1  0.12585921  0.37414079  0.25000000  1
  Bi  Bi7  1  0.33026817  0.16973183  0.75000000  1
