# generated using pymatgen
data_Li3Nb6O11
_symmetry_space_group_name_H-M   'P 1'
_cell_length_a   6.04052489
_cell_length_b   6.07557799
_cell_length_c   7.56240624
_cell_angle_alpha   90.08937841
_cell_angle_beta   90.00000000
_cell_angle_gamma   119.80932897
_symmetry_Int_Tables_number   1
_chemical_formula_structural   Li3Nb6O11
_chemical_formula_sum   'Li3 Nb6 O11'
_cell_volume   240.81494235
_cell_formula_units_Z   1
loop_
 _symmetry_equiv_pos_site_id
 _symmetry_equiv_pos_as_xyz
  1  'x, y, z'
loop_
 _atom_site_type_symbol
 _atom_site_label
 _atom_site_symmetry_multiplicity
 _atom_site_fract_x
 _atom_site_fract_y
 _atom_site_fract_z
 _atom_site_occupancy
  Li  Li0  1  0.00003170  0.00000000  0.50000000  1
  Li  Li1  1  0.33317738  0.66633714  0.57836714  1
  Li  Li2  1  0.66684025  0.33366286  0.42163286  1
  Nb  Nb3  1  0.15997270  0.84171120  0.16411912  1
  Nb  Nb4  1  0.15811784  0.31614105  0.16342134  1
  Nb  Nb5  1  0.31826150  0.15828880  0.83588088  1
  Nb  Nb6  1  0.68166023  0.84163829  0.16419218  1
  Nb  Nb7  1  0.84197680  0.68385895  0.83657866  1
  Nb  Nb8  1  0.84002194  0.15836171  0.83580782  1
  O  O9  1  0.15999769  0.84130734  0.68506533  1
  O  O10  1  0.99996839  0.49997844  0.00000941  1
  O  O11  1  0.33202850  0.66405094  0.31637286  1
  O  O12  1  0.15816275  0.31636446  0.68573405  1
  O  O13  1  0.31868935  0.15869266  0.31493467  1
  O  O14  1  0.49998894  0.50002156  0.99999059  1
  O  O15  1  0.68131646  0.84131877  0.68512541  1
  O  O16  1  0.66797856  0.33594906  0.68362714  1
  O  O17  1  0.50001404  0.00000000  0.00000000  1
  O  O18  1  0.84179829  0.68363554  0.31426595  1
  O  O19  1  0.83999768  0.15868123  0.31487459  1
