# generated using pymatgen
data_La2Tb2O7
_symmetry_space_group_name_H-M   'P 1'
_cell_length_a   7.93334332
_cell_length_b   7.93334332
_cell_length_c   7.93334332
_cell_angle_alpha   60.00000000
_cell_angle_beta   90.00000000
_cell_angle_gamma   120.00000000
_symmetry_Int_Tables_number   1
_chemical_formula_structural   La2Tb2O7
_chemical_formula_sum   'Tb4 La4 O14'
_cell_volume   353.06425389
_cell_formula_units_Z   2
loop_
 _symmetry_equiv_pos_site_id
 _symmetry_equiv_pos_as_xyz
  1  'x, y, z'
loop_
 _atom_site_type_symbol
 _atom_site_label
 _atom_site_symmetry_multiplicity
 _atom_site_fract_x
 _atom_site_fract_y
 _atom_site_fract_z
 _atom_site_occupancy
  Tb  Tb0  1  0.62500000  0.25000000  0.12500000  1
  Tb  Tb1  1  0.62500000  0.25000000  0.62500000  1
  Tb  Tb2  1  0.62500000  0.75000000  0.62500000  1
  Tb  Tb3  1  0.12500000  0.75000000  0.62500000  1
  La  La4  1  0.62500000  0.75000000  0.12500000  1
  La  La5  1  0.12500000  0.25000000  0.12500000  1
  La  La6  1  0.12500000  0.75000000  0.12500000  1
  La  La7  1  0.12500000  0.25000000  0.62500000  1
  O  O8  1  0.72285497  0.00000000  0.27714503  1
  O  O9  1  0.72285497  0.44570993  0.27714503  1
  O  O10  1  0.27714503  0.00000000  0.27714503  1
  O  O11  1  0.00000000  0.00000000  0.00000000  1
  O  O12  1  0.72285497  0.00000000  0.72285497  1
  O  O13  1  0.97285497  0.50000000  0.52714503  1
  O  O14  1  0.27714503  0.00000000  0.72285497  1
  O  O15  1  0.52714503  0.50000000  0.52714503  1
  O  O16  1  0.25000000  0.50000000  0.25000000  1
  O  O17  1  0.97285497  0.50000000  0.97285497  1
  O  O18  1  0.52714503  0.05429007  0.97285497  1
  O  O19  1  0.97285497  0.94570993  0.52714503  1
  O  O20  1  0.52714503  0.50000000  0.97285497  1
  O  O21  1  0.27714503  0.55429007  0.72285497  1
