# generated using pymatgen
data_TbErO3
_symmetry_space_group_name_H-M   'P 1'
_cell_length_a   5.68178439
_cell_length_b   5.93756061
_cell_length_c   8.40251358
_cell_angle_alpha   90.00000000
_cell_angle_beta   90.00000000
_cell_angle_gamma   90.00000000
_symmetry_Int_Tables_number   1
_chemical_formula_structural   TbErO3
_chemical_formula_sum   'Tb4 Er4 O12'
_cell_volume   283.46668717
_cell_formula_units_Z   4
loop_
 _symmetry_equiv_pos_site_id
 _symmetry_equiv_pos_as_xyz
  1  'x, y, z'
loop_
 _atom_site_type_symbol
 _atom_site_label
 _atom_site_symmetry_multiplicity
 _atom_site_fract_x
 _atom_site_fract_y
 _atom_site_fract_z
 _atom_site_occupancy
  Tb  Tb0  1  0.01667614  0.94661145  0.75000000  1
  Tb  Tb1  1  0.48332386  0.44661145  0.75000000  1
  Tb  Tb2  1  0.51667614  0.55338855  0.25000000  1
  Tb  Tb3  1  0.98332386  0.05338855  0.25000000  1
  Er  Er4  1  0.00000000  0.50000000  0.00000000  1
  Er  Er5  1  0.00000000  0.50000000  0.50000000  1
  Er  Er6  1  0.50000000  0.00000000  0.00000000  1
  Er  Er7  1  0.50000000  0.00000000  0.50000000  1
  O  O8  1  0.14565492  0.42526835  0.25000000  1
  O  O9  1  0.18177612  0.18536475  0.57675650  1
  O  O10  1  0.18177612  0.18536475  0.92324350  1
  O  O11  1  0.31822388  0.68536475  0.92324350  1
  O  O12  1  0.31822388  0.68536475  0.57675650  1
  O  O13  1  0.35434508  0.92526935  0.25000000  1
  O  O14  1  0.64565492  0.07473165  0.75000000  1
  O  O15  1  0.68177612  0.31463525  0.07675650  1
  O  O16  1  0.68177612  0.31463525  0.42324350  1
  O  O17  1  0.81822388  0.81463525  0.07675650  1
  O  O18  1  0.81822388  0.81463525  0.42324350  1
  O  O19  1  0.85434508  0.57473065  0.75000000  1
