# generated using pymatgen
data_Bi2(BO3)3
_symmetry_space_group_name_H-M   'P 1'
_cell_length_a   6.29797513
_cell_length_b   6.29666581
_cell_length_c   9.26350964
_cell_angle_alpha   90.00308685
_cell_angle_beta   89.99895616
_cell_angle_gamma   120.03512630
_symmetry_Int_Tables_number   1
_chemical_formula_structural   Bi2(BO3)3
_chemical_formula_sum   'Bi4 B6 O18'
_cell_volume   318.02696502
_cell_formula_units_Z   2
loop_
 _symmetry_equiv_pos_site_id
 _symmetry_equiv_pos_as_xyz
  1  'x, y, z'
loop_
 _atom_site_type_symbol
 _atom_site_label
 _atom_site_symmetry_multiplicity
 _atom_site_fract_x
 _atom_site_fract_y
 _atom_site_fract_z
 _atom_site_occupancy
  Bi  Bi0  1  0.33333851  0.66662725  0.00833727  1
  Bi  Bi1  1  0.33335721  0.66662479  0.49149145  1
  Bi  Bi2  1  0.66663706  0.33329847  0.50777303  1
  Bi  Bi3  1  0.66661793  0.33326471  0.99258849  1
  B  B4  1  0.00582751  0.77155987  0.74998921  1
  B  B5  1  0.22891415  0.23422408  0.75002020  1
  B  B6  1  0.76613243  0.99473456  0.74999770  1
  B  B7  1  0.23797848  0.01364825  0.25004395  1
  B  B8  1  0.77548314  0.76182280  0.25000311  1
  B  B9  1  0.98587430  0.22416045  0.25001848  1
  O  O10  1  0.01288810  0.78173352  0.24987882  1
  O  O11  1  0.00615927  0.63600632  0.88528070  1
  O  O12  1  0.00637622  0.63588638  0.61496111  1
  O  O13  1  0.21859202  0.23109907  0.24989773  1
  O  O14  1  0.62966774  0.99370434  0.61497811  1
  O  O15  1  0.62985946  0.99377908  0.88522068  1
  O  O16  1  0.36420107  0.37049701  0.61484156  1
  O  O17  1  0.36419746  0.37034575  0.88534069  1
  O  O18  1  0.22725868  0.00459605  0.75005093  1
  O  O19  1  0.76911529  0.98777398  0.24987107  1
  O  O20  1  0.64035821  0.62523984  0.38496820  1
  O  O21  1  0.64030905  0.62551684  0.11485717  1
  O  O22  1  0.37426373  0.01475866  0.11486156  1
  O  O23  1  0.37466640  0.01510748  0.38495339  1
  O  O24  1  0.77749733  0.77250251  0.75000089  1
  O  O25  1  0.98520937  0.35964091  0.11485192  1
  O  O26  1  0.98485365  0.35978047  0.38485763  1
  O  O27  1  0.99426323  0.22206858  0.75006396  1
