# generated using pymatgen
data_Zr2N2O
_symmetry_space_group_name_H-M   'P 1'
_cell_length_a   8.55525197
_cell_length_b   8.60528798
_cell_length_c   3.15170104
_cell_angle_alpha   90.00000000
_cell_angle_beta   90.00000000
_cell_angle_gamma   90.00000000
_symmetry_Int_Tables_number   1
_chemical_formula_structural   Zr2N2O
_chemical_formula_sum   'Zr8 N8 O4'
_cell_volume   232.02951313
_cell_formula_units_Z   4
loop_
 _symmetry_equiv_pos_site_id
 _symmetry_equiv_pos_as_xyz
  1  'x, y, z'
loop_
 _atom_site_type_symbol
 _atom_site_label
 _atom_site_symmetry_multiplicity
 _atom_site_fract_x
 _atom_site_fract_y
 _atom_site_fract_z
 _atom_site_occupancy
  Zr  Zr0  1  0.00129201  0.18177588  0.25000000  1
  Zr  Zr1  1  0.17875650  0.49469624  0.75000000  1
  Zr  Zr2  1  0.32124350  0.99469624  0.75000000  1
  Zr  Zr3  1  0.49870799  0.68177588  0.25000000  1
  Zr  Zr4  1  0.50129201  0.31822412  0.75000000  1
  Zr  Zr5  1  0.67875650  0.00530376  0.25000000  1
  Zr  Zr6  1  0.82124350  0.50530376  0.25000000  1
  Zr  Zr7  1  0.99870799  0.81822412  0.75000000  1
  N  N8  1  0.05551621  0.62433115  0.25000000  1
  N  N9  1  0.13301670  0.95235494  0.25000000  1
  N  N10  1  0.36698330  0.45235494  0.25000000  1
  N  N11  1  0.44448379  0.12433115  0.25000000  1
  N  N12  1  0.55551621  0.87566885  0.75000000  1
  N  N13  1  0.63301670  0.54764506  0.75000000  1
  N  N14  1  0.86698330  0.04764506  0.75000000  1
  N  N15  1  0.94448379  0.37566885  0.75000000  1
  O  O16  1  0.19006341  0.22627012  0.75000000  1
  O  O17  1  0.30993659  0.72627012  0.75000000  1
  O  O18  1  0.69006341  0.27372988  0.25000000  1
  O  O19  1  0.80993659  0.77372988  0.25000000  1
