# generated using pymatgen
data_BiSbO3
_symmetry_space_group_name_H-M   'P 1'
_cell_length_a   6.39689264
_cell_length_b   6.39363638
_cell_length_c   5.97617171
_cell_angle_alpha   57.71295892
_cell_angle_beta   122.33394546
_cell_angle_gamma   119.87163031
_symmetry_Int_Tables_number   1
_chemical_formula_structural   BiSbO3
_chemical_formula_sum   'Bi2 Sb2 O6'
_cell_volume   166.69682546
_cell_formula_units_Z   2
loop_
 _symmetry_equiv_pos_site_id
 _symmetry_equiv_pos_as_xyz
  1  'x, y, z'
loop_
 _atom_site_type_symbol
 _atom_site_label
 _atom_site_symmetry_multiplicity
 _atom_site_fract_x
 _atom_site_fract_y
 _atom_site_fract_z
 _atom_site_occupancy
  Bi  Bi0  1  0.86683257  0.13313948  0.60057921  1
  Bi  Bi1  1  0.13316071  0.86685592  0.39941772  1
  Sb  Sb2  1  0.64761364  0.35214190  0.94332083  1
  Sb  Sb3  1  0.35239038  0.64785765  0.05668084  1
  O  O4  1  0.02278350  0.76884439  0.76437069  1
  O  O5  1  0.51007294  0.97662727  0.76496761  1
  O  O6  1  0.23172055  0.48930488  0.76499123  1
  O  O7  1  0.76827913  0.51069733  0.23500877  1
  O  O8  1  0.48992654  0.02337339  0.23502958  1
  O  O9  1  0.97721903  0.23115780  0.23563352  1
