# generated using pymatgen
data_Tm4(B2O5)3
_symmetry_space_group_name_H-M   'P 1'
_cell_length_a   8.08349604
_cell_length_b   8.08349604
_cell_length_c   8.08349580
_cell_angle_alpha   112.27806475
_cell_angle_beta   112.27806478
_cell_angle_gamma   112.27805681
_symmetry_Int_Tables_number   1
_chemical_formula_structural   Tm4(B2O5)3
_chemical_formula_sum   'Tm4 B6 O15'
_cell_volume   358.19440635
_cell_formula_units_Z   1
loop_
 _symmetry_equiv_pos_site_id
 _symmetry_equiv_pos_as_xyz
  1  'x, y, z'
loop_
 _atom_site_type_symbol
 _atom_site_label
 _atom_site_symmetry_multiplicity
 _atom_site_fract_x
 _atom_site_fract_y
 _atom_site_fract_z
 _atom_site_occupancy
  Tm  Tm0  1  0.19962824  0.72384363  0.89909497  1
  Tm  Tm1  1  0.72384363  0.89909497  0.19962824  1
  Tm  Tm2  1  0.00593760  0.00593760  0.00593760  1
  Tm  Tm3  1  0.89909497  0.19962824  0.72384363  1
  B  B4  1  0.50097384  0.80928090  0.73152834  1
  B  B5  1  0.14949770  0.40152840  0.49018831  1
  B  B6  1  0.40152840  0.49018831  0.14949770  1
  B  B7  1  0.80928090  0.73152834  0.50097384  1
  B  B8  1  0.73152834  0.50097384  0.80928090  1
  B  B9  1  0.49018831  0.14949770  0.40152840  1
  O  O10  1  0.28194418  0.01375554  0.19474330  1
  O  O11  1  0.49888913  0.88330294  0.91615419  1
  O  O12  1  0.10655935  0.40721896  0.64093069  1
  O  O13  1  0.31525945  0.59183709  0.52995598  1
  O  O14  1  0.68807668  0.94893326  0.75295734  1
  O  O15  1  0.40721896  0.64093069  0.10655935  1
  O  O16  1  0.19474330  0.28194418  0.01375554  1
  O  O17  1  0.88330294  0.91615419  0.49888913  1
  O  O18  1  0.75295734  0.68807668  0.94893326  1
  O  O19  1  0.59183709  0.52995598  0.31525945  1
  O  O20  1  0.52995598  0.31525945  0.59183709  1
  O  O21  1  0.94893326  0.75295734  0.68807668  1
  O  O22  1  0.91615419  0.49888913  0.88330294  1
  O  O23  1  0.64093069  0.10655935  0.40721896  1
  O  O24  1  0.01375554  0.19474330  0.28194418  1
