# generated using pymatgen
data_Mg6ZrSb
_symmetry_space_group_name_H-M   'P 1'
_cell_length_a   6.38091306
_cell_length_b   6.38091252
_cell_length_c   5.04857729
_cell_angle_alpha   90.00000000
_cell_angle_beta   90.00000000
_cell_angle_gamma   118.36057372
_symmetry_Int_Tables_number   1
_chemical_formula_structural   Mg6ZrSb
_chemical_formula_sum   'Mg6 Zr1 Sb1'
_cell_volume   180.88613636
_cell_formula_units_Z   1
loop_
 _symmetry_equiv_pos_site_id
 _symmetry_equiv_pos_as_xyz
  1  'x, y, z'
loop_
 _atom_site_type_symbol
 _atom_site_label
 _atom_site_symmetry_multiplicity
 _atom_site_fract_x
 _atom_site_fract_y
 _atom_site_fract_z
 _atom_site_occupancy
  Mg  Mg0  1  0.16191241  0.82357686  0.25000000  1
  Mg  Mg1  1  0.67642314  0.33808759  0.25000000  1
  Mg  Mg2  1  0.66475590  0.83524410  0.25000000  1
  Mg  Mg3  1  0.33673631  0.67176939  0.75000000  1
  Mg  Mg4  1  0.82823061  0.16326369  0.75000000  1
  Mg  Mg5  1  0.83304842  0.66695158  0.75000000  1
  Zr  Zr6  1  0.16776366  0.33223634  0.25000000  1
  Sb  Sb7  1  0.33112956  0.16887044  0.75000000  1
