# generated using pymatgen
data_Li4Nb(TeO4)3
_symmetry_space_group_name_H-M   'P 1'
_cell_length_a   5.35518389
_cell_length_b   5.05179249
_cell_length_c   8.93469018
_cell_angle_alpha   90.00000000
_cell_angle_beta   90.00000000
_cell_angle_gamma   90.43639586
_symmetry_Int_Tables_number   1
_chemical_formula_structural   Li4Nb(TeO4)3
_chemical_formula_sum   'Li4 Nb1 Te3 O12'
_cell_volume   241.70564391
_cell_formula_units_Z   1
loop_
 _symmetry_equiv_pos_site_id
 _symmetry_equiv_pos_as_xyz
  1  'x, y, z'
loop_
 _atom_site_type_symbol
 _atom_site_label
 _atom_site_symmetry_multiplicity
 _atom_site_fract_x
 _atom_site_fract_y
 _atom_site_fract_z
 _atom_site_occupancy
  Li  Li0  1  0.00000000  0.00000000  0.68925841  1
  Li  Li1  1  0.00000000  0.50000000  0.83067722  1
  Li  Li2  1  0.50000000  0.00000000  0.30711298  1
  Li  Li3  1  0.50000000  0.50000000  0.19894117  1
  Nb  Nb4  1  0.00000000  0.00000000  0.10205764  1
  Te  Te5  1  0.00000000  0.50000000  0.40705071  1
  Te  Te6  1  0.50000000  0.00000000  0.91697588  1
  Te  Te7  1  0.50000000  0.50000000  0.60255091  1
  O  O8  1  0.14663872  0.26338094  0.25831561  1
  O  O9  1  0.15315497  0.28610047  0.56831613  1
  O  O10  1  0.17075044  0.20964334  0.93742284  1
  O  O11  1  0.31520072  0.69949928  0.41558280  1
  O  O12  1  0.32507728  0.80343178  0.09919842  1
  O  O13  1  0.32873736  0.76491854  0.76439174  1
  O  O14  1  0.67126264  0.23508146  0.76439174  1
  O  O15  1  0.67492272  0.19656822  0.09919842  1
  O  O16  1  0.68479928  0.30050072  0.41558280  1
  O  O17  1  0.82924956  0.79035666  0.93742284  1
  O  O18  1  0.84684503  0.71389953  0.56831613  1
  O  O19  1  0.85336128  0.73661906  0.25831561  1
