# generated using pymatgen
data_LiCuPO4
_symmetry_space_group_name_H-M   'P 1'
_cell_length_a   9.92529890
_cell_length_b   5.84281217
_cell_length_c   5.98945896
_cell_angle_alpha   90.00000000
_cell_angle_beta   90.00000000
_cell_angle_gamma   90.00000000
_symmetry_Int_Tables_number   1
_chemical_formula_structural   LiCuPO4
_chemical_formula_sum   'Li4 Cu4 P4 O16'
_cell_volume   347.33865084
_cell_formula_units_Z   4
loop_
 _symmetry_equiv_pos_site_id
 _symmetry_equiv_pos_as_xyz
  1  'x, y, z'
loop_
 _atom_site_type_symbol
 _atom_site_label
 _atom_site_symmetry_multiplicity
 _atom_site_fract_x
 _atom_site_fract_y
 _atom_site_fract_z
 _atom_site_occupancy
  Li  Li0  1  0.05267619  0.36443762  0.92534238  1
  Li  Li1  1  0.44732381  0.86443762  0.42534238  1
  Li  Li2  1  0.55267619  0.13556238  0.92534238  1
  Li  Li3  1  0.94732381  0.63556238  0.42534238  1
  Cu  Cu4  1  0.12104685  0.88059364  0.93002018  1
  Cu  Cu5  1  0.37895315  0.38059364  0.43002018  1
  Cu  Cu6  1  0.62104685  0.61940636  0.93002018  1
  Cu  Cu7  1  0.87895315  0.11940636  0.43002018  1
  P  P8  1  0.12992057  0.14873783  0.54053022  1
  P  P9  1  0.37007943  0.64873783  0.04053022  1
  P  P10  1  0.62992057  0.35126217  0.54053022  1
  P  P11  1  0.87007943  0.85126217  0.04053022  1
  O  O12  1  0.02157472  0.34736728  0.53408182  1
  O  O13  1  0.03960534  0.93084547  0.50724757  1
  O  O14  1  0.26259762  0.66771816  0.85544516  1
  O  O15  1  0.30356336  0.64915405  0.27631167  1
  O  O16  1  0.19643664  0.14915405  0.77631167  1
  O  O17  1  0.23740238  0.16771816  0.35544516  1
  O  O18  1  0.46039466  0.43084547  0.00724757  1
  O  O19  1  0.47842528  0.84736728  0.03408182  1
  O  O20  1  0.52157472  0.15263272  0.53408182  1
  O  O21  1  0.53960534  0.56915453  0.50724757  1
  O  O22  1  0.76259762  0.83228184  0.85544516  1
  O  O23  1  0.80356336  0.85084595  0.27631167  1
  O  O24  1  0.69643664  0.35084595  0.77631167  1
  O  O25  1  0.73740238  0.33228184  0.35544516  1
  O  O26  1  0.96039466  0.06915453  0.00724757  1
  O  O27  1  0.97842528  0.65263272  0.03408182  1
