# generated using pymatgen
data_Cu(TeO3)4
_symmetry_space_group_name_H-M   'P 1'
_cell_length_a   5.43144646
_cell_length_b   10.84944263
_cell_length_c   9.52701803
_cell_angle_alpha   28.74220523
_cell_angle_beta   52.24570089
_cell_angle_gamma   57.53628177
_symmetry_Int_Tables_number   1
_chemical_formula_structural   Cu(TeO3)4
_chemical_formula_sum   'Cu1 Te4 O12'
_cell_volume   213.44594670
_cell_formula_units_Z   1
loop_
 _symmetry_equiv_pos_site_id
 _symmetry_equiv_pos_as_xyz
  1  'x, y, z'
loop_
 _atom_site_type_symbol
 _atom_site_label
 _atom_site_symmetry_multiplicity
 _atom_site_fract_x
 _atom_site_fract_y
 _atom_site_fract_z
 _atom_site_occupancy
  Cu  Cu0  1  0.26641400  0.99877787  0.25651639  1
  Te  Te1  1  0.00132656  0.99822316  0.98374198  1
  Te  Te2  1  0.97867298  0.50123378  0.99719408  1
  Te  Te3  1  0.48191476  0.99588887  0.49792695  1
  Te  Te4  1  0.49154867  0.50321078  0.47810661  1
  O  O5  1  0.34723134  0.30171992  0.12675564  1
  O  O6  1  0.24042390  0.12439512  0.61331826  1
  O  O7  1  0.12415395  0.30582018  0.74252992  1
  O  O8  1  0.87036724  0.18563652  0.23577155  1
  O  O9  1  0.36182785  0.81096711  0.11567090  1
  O  O10  1  0.73599769  0.37347191  0.36584690  1
  O  O11  1  0.23251092  0.62639019  0.61280457  1
  O  O12  1  0.61266741  0.18975814  0.86124082  1
  O  O13  1  0.11488551  0.81358880  0.73163502  1
  O  O14  1  0.85355982  0.69403406  0.23376440  1
  O  O15  1  0.72737967  0.89051065  0.34640917  1
  O  O16  1  0.61841773  0.68637292  0.86006686  1
