# generated using pymatgen
data_LiSn(PO3)3
_symmetry_space_group_name_H-M   'P 1'
_cell_length_a   7.94240427
_cell_length_b   12.96189096
_cell_length_c   9.35169672
_cell_angle_alpha   90.00000000
_cell_angle_beta   90.00000000
_cell_angle_gamma   90.00000000
_symmetry_Int_Tables_number   1
_chemical_formula_structural   LiSn(PO3)3
_chemical_formula_sum   'Li4 Sn4 P12 O36'
_cell_volume   962.74388022
_cell_formula_units_Z   4
loop_
 _symmetry_equiv_pos_site_id
 _symmetry_equiv_pos_as_xyz
  1  'x, y, z'
loop_
 _atom_site_type_symbol
 _atom_site_label
 _atom_site_symmetry_multiplicity
 _atom_site_fract_x
 _atom_site_fract_y
 _atom_site_fract_z
 _atom_site_occupancy
  Li  Li0  1  0.25000000  0.44119532  0.51219732  1
  Li  Li1  1  0.25000000  0.05880468  0.01219732  1
  Li  Li2  1  0.75000000  0.55880468  0.48780268  1
  Li  Li3  1  0.75000000  0.94119532  0.98780268  1
  Sn  Sn4  1  0.25000000  0.71722151  0.47251875  1
  Sn  Sn5  1  0.25000000  0.78277849  0.97251875  1
  Sn  Sn6  1  0.75000000  0.21722151  0.02748125  1
  Sn  Sn7  1  0.75000000  0.28277849  0.52748125  1
  P  P8  1  0.06272356  0.34803406  0.26136740  1
  P  P9  1  0.06272356  0.15196594  0.76136740  1
  P  P10  1  0.25000000  0.97160784  0.70456162  1
  P  P11  1  0.25000000  0.52839216  0.20456162  1
  P  P12  1  0.43727644  0.15196594  0.76136740  1
  P  P13  1  0.43727644  0.34803406  0.26136740  1
  P  P14  1  0.56272356  0.65196594  0.73863260  1
  P  P15  1  0.56272356  0.84803406  0.23863260  1
  P  P16  1  0.75000000  0.02839216  0.29543838  1
  P  P17  1  0.75000000  0.47160784  0.79543838  1
  P  P18  1  0.93727644  0.65196594  0.73863260  1
  P  P19  1  0.93727644  0.84803406  0.23863260  1
  O  O20  1  0.97601058  0.75923146  0.33429816  1
  O  O21  1  0.97601058  0.74076854  0.83429816  1
  O  O22  1  0.05156098  0.87813354  0.11622524  1
  O  O23  1  0.05156098  0.62186646  0.61622524  1
  O  O24  1  0.09357110  0.04784041  0.66671237  1
  O  O25  1  0.09357110  0.45215959  0.16671237  1
  O  O26  1  0.25000000  0.33321643  0.33759122  1
  O  O27  1  0.25000000  0.61920502  0.10920710  1
  O  O28  1  0.25000000  0.88079498  0.60920710  1
  O  O29  1  0.25000000  0.95393451  0.86628799  1
  O  O30  1  0.25000000  0.16678357  0.83759122  1
  O  O31  1  0.25000000  0.54606549  0.36628799  1
  O  O32  1  0.40642890  0.04784041  0.66671237  1
  O  O33  1  0.40642890  0.45215959  0.16671237  1
  O  O34  1  0.44843902  0.87813354  0.11622524  1
  O  O35  1  0.44843902  0.62186646  0.61622524  1
  O  O36  1  0.52398942  0.75923146  0.33429816  1
  O  O37  1  0.52398942  0.74076854  0.83429816  1
  O  O38  1  0.47601058  0.25923146  0.16570184  1
  O  O39  1  0.47601058  0.24076854  0.66570184  1
  O  O40  1  0.55156098  0.37813354  0.38377476  1
  O  O41  1  0.55156098  0.12186646  0.88377476  1
  O  O42  1  0.59357110  0.54784041  0.83328763  1
  O  O43  1  0.59357110  0.95215959  0.33328763  1
  O  O44  1  0.75000000  0.04606549  0.13371201  1
  O  O45  1  0.75000000  0.11920502  0.39079290  1
  O  O46  1  0.75000000  0.45393451  0.63371201  1
  O  O47  1  0.75000000  0.38079498  0.89079290  1
  O  O48  1  0.75000000  0.66678357  0.66240878  1
  O  O49  1  0.75000000  0.83321643  0.16240878  1
  O  O50  1  0.90642890  0.54784041  0.83328763  1
  O  O51  1  0.90642890  0.95215959  0.33328763  1
  O  O52  1  0.94843902  0.37813354  0.38377476  1
  O  O53  1  0.94843902  0.12186646  0.88377476  1
  O  O54  1  0.02398942  0.24076854  0.66570184  1
  O  O55  1  0.02398942  0.25923146  0.16570184  1
