# generated using pymatgen
data_Li4Ti3NbO8
_symmetry_space_group_name_H-M   'P 1'
_cell_length_a   10.74175437
_cell_length_b   10.74184493
_cell_length_c   15.27632873
_cell_angle_alpha   18.28928929
_cell_angle_beta   18.29032986
_cell_angle_gamma   31.46695266
_symmetry_Int_Tables_number   1
_chemical_formula_structural   Li4Ti3NbO8
_chemical_formula_sum   'Li4 Ti3 Nb1 O8'
_cell_volume   151.01507085
_cell_formula_units_Z   1
loop_
 _symmetry_equiv_pos_site_id
 _symmetry_equiv_pos_as_xyz
  1  'x, y, z'
loop_
 _atom_site_type_symbol
 _atom_site_label
 _atom_site_symmetry_multiplicity
 _atom_site_fract_x
 _atom_site_fract_y
 _atom_site_fract_z
 _atom_site_occupancy
  Li  Li0  1  0.00000146  0.00000021  0.49999840  1
  Li  Li1  1  0.00000202  0.49999903  0.49999819  1
  Li  Li2  1  0.49999994  0.00000125  0.49999939  1
  Li  Li3  1  0.50000327  0.50000128  0.49999667  1
  Ti  Ti4  1  0.00000153  0.49999961  -0.00000049  1
  Ti  Ti5  1  0.49999930  0.99999573  0.00000272  1
  Ti  Ti6  1  0.50000815  0.49999247  -0.00000087  1
  Nb  Nb7  1  0.99999235  0.00000534  0.00000353  1
  O  O8  1  0.99834981  0.99835074  0.25908235  1
  O  O9  1  0.99726019  0.48511917  0.26247400  1
  O  O10  1  0.48509270  0.99724623  0.26250839  1
  O  O11  1  0.00165791  0.00165400  0.74090873  1
  O  O12  1  0.51110717  0.51108311  0.23626612  1
  O  O13  1  0.00273586  0.51488936  0.73752705  1
  O  O14  1  0.51489557  0.00275138  0.73749903  1
  O  O15  1  0.48889277  0.48891008  0.76373777  1
