# generated using pymatgen
data_LiSn4P7O24
_symmetry_space_group_name_H-M   'P 1'
_cell_length_a   10.54328775
_cell_length_b   11.03431122
_cell_length_c   11.57376711
_cell_angle_alpha   113.96474930
_cell_angle_beta   107.90170975
_cell_angle_gamma   104.28250865
_symmetry_Int_Tables_number   1
_chemical_formula_structural   LiSn4P7O24
_chemical_formula_sum   'Li2 Sn8 P14 O48'
_cell_volume   1058.55978119
_cell_formula_units_Z   2
loop_
 _symmetry_equiv_pos_site_id
 _symmetry_equiv_pos_as_xyz
  1  'x, y, z'
loop_
 _atom_site_type_symbol
 _atom_site_label
 _atom_site_symmetry_multiplicity
 _atom_site_fract_x
 _atom_site_fract_y
 _atom_site_fract_z
 _atom_site_occupancy
  Li  Li0  1  0.12030752  0.30138182  0.71867425  1
  Li  Li1  1  0.87969248  0.69861818  0.28132575  1
  Sn  Sn2  1  0.25108707  0.84512850  0.75395761  1
  Sn  Sn3  1  0.07039930  0.71132908  0.08152385  1
  Sn  Sn4  1  0.39766862  0.25020308  0.90267922  1
  Sn  Sn5  1  0.41641678  0.59597888  0.39899690  1
  Sn  Sn6  1  0.58358322  0.40402112  0.60100310  1
  Sn  Sn7  1  0.60233138  0.74979692  0.09732078  1
  Sn  Sn8  1  0.92960070  0.28867092  0.91847615  1
  Sn  Sn9  1  0.74891293  0.15487150  0.24604239  1
  P  P10  1  0.99791892  0.96951187  0.78239737  1
  P  P11  1  0.22179551  0.82577638  0.44756062  1
  P  P12  1  0.05734261  0.32994295  0.26368536  1
  P  P13  1  0.50055241  0.71242159  0.75329500  1
  P  P14  1  0.24573958  0.12989427  0.50750703  1
  P  P15  1  0.38593087  0.96564858  0.12491546  1
  P  P16  1  0.28521753  0.52467901  0.04156457  1
  P  P17  1  0.71478247  0.47532099  0.95843543  1
  P  P18  1  0.61406913  0.03435142  0.87508454  1
  P  P19  1  0.75426042  0.87010573  0.49249297  1
  P  P20  1  0.49944759  0.28757841  0.24670500  1
  P  P21  1  0.94265739  0.67005705  0.73631464  1
  P  P22  1  0.77820449  0.17422362  0.55243938  1
  P  P23  1  0.00208108  0.03048813  0.21760263  1
  O  O24  1  0.00338632  0.66865571  0.87205638  1
  O  O25  1  0.05341471  0.67720033  0.67471918  1
  O  O26  1  0.31932571  0.90788489  0.96566750  1
  O  O27  1  0.01029588  0.90460688  0.10745928  1
  O  O28  1  0.17008091  0.82356854  0.55802922  1
  O  O29  1  0.08210644  0.74078287  0.30285109  1
  O  O30  1  0.24170374  0.36450983  0.92724288  1
  O  O31  1  0.15579480  0.99414980  0.80530716  1
  O  O32  1  0.28865866  0.99611190  0.48933572  1
  O  O33  1  0.34192947  0.70045582  0.71054997  1
  O  O34  1  0.08554543  0.05506638  0.37128558  1
  O  O35  1  0.07975775  0.17687715  0.22326055  1
  O  O36  1  0.20663994  0.45426465  0.37672764  1
  O  O37  1  0.21803617  0.19283274  0.63434177  1
  O  O38  1  0.12877888  0.52194287  0.02992601  1
  O  O39  1  0.34738322  0.78144355  0.45070785  1
  O  O40  1  0.29786674  0.87636923  0.16711027  1
  O  O41  1  0.56143660  0.69459708  0.87811284  1
  O  O42  1  0.60601211  0.87238448  0.79283753  1
  O  O43  1  0.35649254  0.22971131  0.49205947  1
  O  O44  1  0.50609030  0.60134277  0.61965884  1
  O  O45  1  0.45042236  0.01375616  0.81714606  1
  O  O46  1  0.64535874  0.37158433  0.00066912  1
  O  O47  1  0.38908498  0.57428382  0.19607599  1
  O  O48  1  0.61091502  0.42571618  0.80392401  1
  O  O49  1  0.35464126  0.62841567  0.99933088  1
  O  O50  1  0.54957764  0.98624384  0.18285394  1
  O  O51  1  0.49390970  0.39865723  0.38034116  1
  O  O52  1  0.64350746  0.77028869  0.50794053  1
  O  O53  1  0.39398789  0.12761552  0.20716247  1
  O  O54  1  0.43856340  0.30540292  0.12188716  1
  O  O55  1  0.70213326  0.12363077  0.83288973  1
  O  O56  1  0.65261678  0.21855645  0.54929215  1
  O  O57  1  0.87122112  0.47805713  0.97007399  1
  O  O58  1  0.78196383  0.80716726  0.36565823  1
  O  O59  1  0.79336006  0.54573535  0.62327236  1
  O  O60  1  0.92024225  0.82312285  0.77673945  1
  O  O61  1  0.91445457  0.94493362  0.62871442  1
  O  O62  1  0.65807053  0.29954418  0.28945003  1
  O  O63  1  0.71134134  0.00388810  0.51066428  1
  O  O64  1  0.84420520  0.00585020  0.19469284  1
  O  O65  1  0.75829626  0.63549017  0.07275712  1
  O  O66  1  0.91789356  0.25921713  0.69714891  1
  O  O67  1  0.82991909  0.17643146  0.44197078  1
  O  O68  1  0.98970412  0.09539312  0.89254072  1
  O  O69  1  0.68067429  0.09211511  0.03433250  1
  O  O70  1  0.94658529  0.32279967  0.32528082  1
  O  O71  1  0.99661368  0.33134429  0.12794362  1
