# generated using pymatgen
data_Li2Sn(PO3)4
_symmetry_space_group_name_H-M   'P 1'
_cell_length_a   7.74774278
_cell_length_b   14.31529441
_cell_length_c   10.55410648
_cell_angle_alpha   90.00000000
_cell_angle_beta   98.88304930
_cell_angle_gamma   90.00000000
_symmetry_Int_Tables_number   1
_chemical_formula_structural   Li2Sn(PO3)4
_chemical_formula_sum   'Li8 Sn4 P16 O48'
_cell_volume   1156.52853570
_cell_formula_units_Z   4
loop_
 _symmetry_equiv_pos_site_id
 _symmetry_equiv_pos_as_xyz
  1  'x, y, z'
loop_
 _atom_site_type_symbol
 _atom_site_label
 _atom_site_symmetry_multiplicity
 _atom_site_fract_x
 _atom_site_fract_y
 _atom_site_fract_z
 _atom_site_occupancy
  Li  Li0  1  0.09525692  0.79599135  0.69553315  1
  Li  Li1  1  0.13656979  0.36133529  0.07185046  1
  Li  Li2  1  0.40474308  0.29599135  0.80446685  1
  Li  Li3  1  0.36343021  0.86133529  0.42814954  1
  Li  Li4  1  0.63656979  0.13866471  0.57185046  1
  Li  Li5  1  0.59525692  0.70400865  0.19553315  1
  Li  Li6  1  0.86343021  0.63866471  0.92814954  1
  Li  Li7  1  0.90474308  0.20400865  0.30446685  1
  Sn  Sn8  1  0.22479795  0.35784737  0.48246263  1
  Sn  Sn9  1  0.27520205  0.85784737  0.01753737  1
  Sn  Sn10  1  0.72479795  0.14215263  0.98246263  1
  Sn  Sn11  1  0.77520205  0.64215263  0.51753737  1
  P  P12  1  0.06200136  0.16550204  0.63396897  1
  P  P13  1  0.21471774  0.58533829  0.64501776  1
  P  P14  1  0.07028632  0.69522509  0.20061046  1
  P  P15  1  0.28528226  0.08533829  0.85498224  1
  P  P16  1  0.16709346  0.08881714  0.11238142  1
  P  P17  1  0.43799864  0.66550204  0.86603103  1
  P  P18  1  0.33290654  0.58881714  0.38761858  1
  P  P19  1  0.42971368  0.19522509  0.29938954  1
  P  P20  1  0.57028632  0.80477491  0.70061046  1
  P  P21  1  0.66709346  0.41118286  0.61238142  1
  P  P22  1  0.56200136  0.33449796  0.13396897  1
  P  P23  1  0.83290654  0.91118286  0.88761858  1
  P  P24  1  0.71471774  0.91466171  0.14501776  1
  P  P25  1  0.92971368  0.30477491  0.79938954  1
  P  P26  1  0.78528226  0.41466171  0.35498224  1
  P  P27  1  0.93799864  0.83449796  0.36603103  1
  O  O28  1  0.08431250  0.25536999  0.73421209  1
  O  O29  1  0.08371769  0.66194350  0.66168236  1
  O  O30  1  0.17586791  0.12116456  0.96649971  1
  O  O31  1  0.12511809  0.85109089  0.41980816  1
  O  O32  1  0.97940849  0.63899983  0.09177320  1
  O  O33  1  0.14720689  0.48834737  0.62047808  1
  O  O34  1  0.13209415  0.08206065  0.73263629  1
  O  O35  1  0.01648013  0.14339560  0.15333560  1
  O  O36  1  0.31233012  0.68325807  0.95790062  1
  O  O37  1  0.18766988  0.18325807  0.54209938  1
  O  O38  1  0.14912359  0.62586115  0.31465641  1
  O  O39  1  0.36790585  0.58206065  0.76736371  1
  O  O40  1  0.35279311  0.98834737  0.87952192  1
  O  O41  1  0.32413209  0.62116456  0.53350029  1
  O  O42  1  0.16866002  0.98427255  0.12320604  1
  O  O43  1  0.20694437  0.76723060  0.18338532  1
  O  O44  1  0.29305563  0.26723060  0.31661468  1
  O  O45  1  0.33133998  0.48427255  0.37679396  1
  O  O46  1  0.41628231  0.16194350  0.83831764  1
  O  O47  1  0.41568750  0.75536999  0.76578791  1
  O  O48  1  0.35087641  0.12586115  0.18534359  1
  O  O49  1  0.62511809  0.64890911  0.91980816  1
  O  O50  1  0.47940849  0.86100017  0.59177320  1
  O  O51  1  0.51648013  0.35660440  0.65333560  1
  O  O52  1  0.48351987  0.64339560  0.34666440  1
  O  O53  1  0.52059151  0.13899983  0.40822680  1
  O  O54  1  0.37488191  0.35109089  0.08019184  1
  O  O55  1  0.64912359  0.87413885  0.81465641  1
  O  O56  1  0.58431250  0.24463001  0.23421209  1
  O  O57  1  0.58371769  0.83805650  0.16168236  1
  O  O58  1  0.66866002  0.51572745  0.62320604  1
  O  O59  1  0.70694437  0.73276940  0.68338532  1
  O  O60  1  0.79305563  0.23276940  0.81661468  1
  O  O61  1  0.83133998  0.01572745  0.87679396  1
  O  O62  1  0.67586791  0.37883544  0.46649971  1
  O  O63  1  0.64720689  0.01165263  0.12047808  1
  O  O64  1  0.63209415  0.41793935  0.23263629  1
  O  O65  1  0.85087641  0.37413885  0.68534359  1
  O  O66  1  0.81233012  0.81674193  0.45790062  1
  O  O67  1  0.68766988  0.31674193  0.04209938  1
  O  O68  1  0.98351987  0.85660440  0.84666440  1
  O  O69  1  0.86790585  0.91793935  0.26736371  1
  O  O70  1  0.85279311  0.51165263  0.37952192  1
  O  O71  1  0.02059151  0.36100017  0.90822680  1
  O  O72  1  0.87488191  0.14890911  0.58019184  1
  O  O73  1  0.82413209  0.87883544  0.03350029  1
  O  O74  1  0.91628231  0.33805650  0.33831764  1
  O  O75  1  0.91568750  0.74463001  0.26578791  1
