# generated using pymatgen
data_LiCu3(CO3)3
_symmetry_space_group_name_H-M   'P 1'
_cell_length_a   14.14184408
_cell_length_b   14.00302443
_cell_length_c   3.25271073
_cell_angle_alpha   88.84247537
_cell_angle_beta   91.33786250
_cell_angle_gamma   119.48643093
_symmetry_Int_Tables_number   1
_chemical_formula_structural   LiCu3(CO3)3
_chemical_formula_sum   'Li3 Cu9 C9 O27'
_cell_volume   560.51614843
_cell_formula_units_Z   3
loop_
 _symmetry_equiv_pos_site_id
 _symmetry_equiv_pos_as_xyz
  1  'x, y, z'
loop_
 _atom_site_type_symbol
 _atom_site_label
 _atom_site_symmetry_multiplicity
 _atom_site_fract_x
 _atom_site_fract_y
 _atom_site_fract_z
 _atom_site_occupancy
  Li  Li0  1  0.44961140  0.88980356  0.55198799  1
  Li  Li1  1  0.12149670  0.21944138  0.50979397  1
  Li  Li2  1  0.79749543  0.54873473  0.48756027  1
  Cu  Cu3  1  0.22601600  0.77198106  0.07175371  1
  Cu  Cu4  1  0.21670871  0.45889137  0.01436365  1
  Cu  Cu5  1  0.21708915  0.09115920  0.00728178  1
  Cu  Cu6  1  0.55356510  0.75144667  0.93522786  1
  Cu  Cu7  1  0.55801508  0.46336050  0.97049456  1
  Cu  Cu8  1  0.54157886  0.12134438  0.06433818  1
  Cu  Cu9  1  0.88702259  0.79163103  0.95483076  1
  Cu  Cu10  1  0.89119868  0.41935232  0.97830812  1
  Cu  Cu11  1  0.88367970  0.11743792  0.97697228  1
  C  C12  1  0.99899141  0.66178898  0.00213341  1
  C  C13  1  0.33557680  0.67127250  0.00336862  1
  C  C14  1  0.65351373  0.98919895  0.01408018  1
  C  C15  1  0.32247399  0.33141496  0.99181526  1
  C  C16  1  0.33501455  0.00570949  0.52280172  1
  C  C17  1  0.68133422  0.66621942  0.47388244  1
  C  C18  1  0.67038521  0.34029805  0.99150206  1
  C  C19  1  0.00291386  0.00670298  0.00955352  1
  C  C20  1  -0.00004341  0.32422459  0.50745907  1
  O  O21  1  0.02490322  0.92811117  0.01769561  1
  O  O22  1  0.08527786  0.75425869  0.05934085  1
  O  O23  1  0.00302705  0.57263154  0.97561896  1
  O  O24  1  0.31712569  0.90592311  0.54146830  1
  O  O25  1  0.09775433  0.40370769  0.50273074  1
  O  O26  1  0.23279919  0.60462993  0.03119482  1
  O  O27  1  0.36785812  0.77572093  0.04996313  1
  O  O28  1  0.08550569  0.10768263  0.01816934  1
  O  O29  1  0.55814801  0.98559081  0.03646498  1
  O  O30  1  0.22642428  0.32567245  0.02676249  1
  O  O31  1  0.40140701  0.63653567  0.92908649  1
  O  O32  1  0.40763530  0.42550308  0.98260242  1
  O  O33  1  0.65771392  0.90332001  0.91587291  1
  O  O34  1  0.32778329  0.24327273  0.96299065  1
  O  O35  1  0.25548375  0.02675603  0.52385932  1
  O  O36  1  0.59972771  0.68239970  0.45177924  1
  O  O37  1  0.43512319  0.08609248  0.50723662  1
  O  O38  1  0.66439869  0.56430990  0.47883695  1
  O  O39  1  0.78059909  0.74629136  0.48626396  1
  O  O40  1  0.90524418  0.98857464  0.99164645  1
  O  O41  1  0.57746995  0.33450985  0.00366767  1
  O  O42  1  0.76019127  0.43666403  0.99260890  1
  O  O43  1  0.67984120  0.25399383  0.97941434  1
  O  O44  1  0.90441313  0.65849680  0.97116719  1
  O  O45  1  0.73900361  0.07961758  0.08881278  1
  O  O46  1  0.91725402  0.34107713  0.50080099  1
  O  O47  1  0.98140652  0.22196818  0.51579352  1
