# generated using pymatgen
data_Li3Ti2(PO4)3
_symmetry_space_group_name_H-M   'P 1'
_cell_length_a   8.62448367
_cell_length_b   8.62448367
_cell_length_c   6.45213523
_cell_angle_alpha   73.99268572
_cell_angle_beta   106.00731428
_cell_angle_gamma   86.85904212
_symmetry_Int_Tables_number   1
_chemical_formula_structural   Li3Ti2(PO4)3
_chemical_formula_sum   'Li6 Ti4 P6 O24'
_cell_volume   438.95773303
_cell_formula_units_Z   2
loop_
 _symmetry_equiv_pos_site_id
 _symmetry_equiv_pos_as_xyz
  1  'x, y, z'
loop_
 _atom_site_type_symbol
 _atom_site_label
 _atom_site_symmetry_multiplicity
 _atom_site_fract_x
 _atom_site_fract_y
 _atom_site_fract_z
 _atom_site_occupancy
  Li  Li0  1  0.00298774  0.00298774  0.75000000  1
  Li  Li1  1  0.71144616  0.71144616  0.75000000  1
  Li  Li2  1  0.50000000  0.50000000  0.50000000  1
  Li  Li3  1  0.28855384  0.28855384  0.25000000  1
  Li  Li4  1  0.99701226  0.99701226  0.25000000  1
  Li  Li5  1  0.50000000  0.50000000  0.00000000  1
  Ti  Ti6  1  0.05199554  0.61200657  0.62262911  1
  Ti  Ti7  1  0.38799343  0.94800446  0.12262911  1
  Ti  Ti8  1  0.61200657  0.05199554  0.87737089  1
  Ti  Ti9  1  0.94800446  0.38799343  0.37737089  1
  P  P10  1  0.33787610  0.85944685  0.61658992  1
  P  P11  1  0.14055315  0.66212390  0.11658992  1
  P  P12  1  0.28876384  0.28876384  0.75000000  1
  P  P13  1  0.71123616  0.71123616  0.25000000  1
  P  P14  1  0.85944685  0.33787610  0.88341008  1
  P  P15  1  0.66212390  0.14055315  0.38341008  1
  O  O16  1  0.01461041  0.65881238  0.89388877  1
  O  O17  1  0.15396228  0.83529134  0.58243198  1
  O  O18  1  0.39154329  0.94699311  0.80669547  1
  O  O19  1  0.34118762  0.98538959  0.39388877  1
  O  O20  1  0.16470866  0.84603772  0.08243198  1
  O  O21  1  0.05300689  0.60845671  0.30669547  1
  O  O22  1  0.45598790  0.70340982  0.68902646  1
  O  O23  1  0.26309390  0.46564707  0.75990581  1
  O  O24  1  0.29659018  0.54401210  0.18902646  1
  O  O25  1  0.17460366  0.26182828  0.53423969  1
  O  O26  1  0.26182828  0.17460366  0.96576031  1
  O  O27  1  0.53435293  0.73690610  0.25990581  1
  O  O28  1  0.46564707  0.26309390  0.74009419  1
  O  O29  1  0.73817172  0.82539634  0.03423969  1
  O  O30  1  0.82539634  0.73817172  0.46576031  1
  O  O31  1  0.70340982  0.45598790  0.81097354  1
  O  O32  1  0.73690610  0.53435293  0.24009419  1
  O  O33  1  0.54401210  0.29659018  0.31097354  1
  O  O34  1  0.94699311  0.39154329  0.69330453  1
  O  O35  1  0.83529134  0.15396228  0.91756802  1
  O  O36  1  0.65881238  0.01461041  0.60611123  1
  O  O37  1  0.60845671  0.05300689  0.19330453  1
  O  O38  1  0.84603772  0.16470866  0.41756802  1
  O  O39  1  0.98538959  0.34118762  0.10611123  1
