# generated using pymatgen
data_HfMg6Zn
_symmetry_space_group_name_H-M   'P 1'
_cell_length_a   6.35345797
_cell_length_b   6.35345746
_cell_length_c   4.93340474
_cell_angle_alpha   90.00000000
_cell_angle_beta   90.00000000
_cell_angle_gamma   120.93255164
_symmetry_Int_Tables_number   1
_chemical_formula_structural   HfMg6Zn
_chemical_formula_sum   'Hf1 Mg6 Zn1'
_cell_volume   170.82027224
_cell_formula_units_Z   1
loop_
 _symmetry_equiv_pos_site_id
 _symmetry_equiv_pos_as_xyz
  1  'x, y, z'
loop_
 _atom_site_type_symbol
 _atom_site_label
 _atom_site_symmetry_multiplicity
 _atom_site_fract_x
 _atom_site_fract_y
 _atom_site_fract_z
 _atom_site_occupancy
  Hf  Hf0  1  0.32344251  0.17655749  0.75000000  1
  Mg  Mg1  1  0.16900310  0.83694757  0.25000000  1
  Mg  Mg2  1  0.66305243  0.33099690  0.25000000  1
  Mg  Mg3  1  0.66842444  0.83157556  0.25000000  1
  Mg  Mg4  1  0.32520834  0.66463647  0.75000000  1
  Mg  Mg5  1  0.83536353  0.17479166  0.75000000  1
  Mg  Mg6  1  0.83316720  0.66683280  0.75000000  1
  Zn  Zn7  1  0.18233844  0.31766156  0.25000000  1
