# generated using pymatgen
data_K2Yb2O3
_symmetry_space_group_name_H-M   'P 1'
_cell_length_a   6.60397796
_cell_length_b   6.87348556
_cell_length_c   6.74973986
_cell_angle_alpha   90.00000000
_cell_angle_beta   116.59771613
_cell_angle_gamma   90.00000000
_symmetry_Int_Tables_number   1
_chemical_formula_structural   K2Yb2O3
_chemical_formula_sum   'K4 Yb4 O6'
_cell_volume   273.96228640
_cell_formula_units_Z   2
loop_
 _symmetry_equiv_pos_site_id
 _symmetry_equiv_pos_as_xyz
  1  'x, y, z'
loop_
 _atom_site_type_symbol
 _atom_site_label
 _atom_site_symmetry_multiplicity
 _atom_site_fract_x
 _atom_site_fract_y
 _atom_site_fract_z
 _atom_site_occupancy
  Yb  Yb0  1  0.33383037  0.38009508  0.56790846  1
  Yb  Yb1  1  0.66616963  0.88009508  0.93209154  1
  Yb  Yb2  1  0.33383037  0.11990492  0.06790846  1
  Yb  Yb3  1  0.66616963  0.61990492  0.43209154  1
  K  K4  1  0.18007377  0.64966459  0.92355576  1
  K  K5  1  0.18007377  0.85033541  0.42355576  1
  K  K6  1  0.81992623  0.14966459  0.57644424  1
  K  K7  1  0.81992623  0.35033541  0.07644424  1
  O  O8  1  0.00000000  0.50000000  0.50000000  1
  O  O9  1  0.00000000  0.00000000  0.00000000  1
  O  O10  1  0.40110037  0.10822548  0.76752036  1
  O  O11  1  0.59889963  0.60822548  0.73247964  1
  O  O12  1  0.40110037  0.39177452  0.26752036  1
  O  O13  1  0.59889963  0.89177452  0.23247964  1
