# generated using pymatgen
data_H21C6N2Cl3
_symmetry_space_group_name_H-M   'P 1'
_cell_length_a   5.44407659
_cell_length_b   10.60139119
_cell_length_c   11.55399476
_cell_angle_alpha   90.00000000
_cell_angle_beta   92.39318884
_cell_angle_gamma   90.00000000
_symmetry_Int_Tables_number   1
_chemical_formula_structural   H21C6N2Cl3
_chemical_formula_sum   'H42 C12 N4 Cl6'
_cell_volume   666.25471695
_cell_formula_units_Z   2
loop_
 _symmetry_equiv_pos_site_id
 _symmetry_equiv_pos_as_xyz
  1  'x, y, z'
loop_
 _atom_site_type_symbol
 _atom_site_label
 _atom_site_symmetry_multiplicity
 _atom_site_fract_x
 _atom_site_fract_y
 _atom_site_fract_z
 _atom_site_occupancy
  H  H0  1  0.02543976  0.26772065  0.67798124  1
  H  H1  1  0.02098486  0.62200589  0.10217114  1
  H  H2  1  0.03629180  0.32793403  0.20941179  1
  H  H3  1  0.06552279  0.15522923  0.39211700  1
  H  H4  1  0.07120001  0.42743299  0.45356807  1
  H  H5  1  0.11824490  0.65976045  0.90877748  1
  H  H6  1  0.12547650  0.48282637  0.70632367  1
  H  H7  1  0.20162566  0.24712772  0.90506065  1
  H  H8  1  0.13513870  0.89514776  0.04811585  1
  H  H9  1  0.24718239  0.10835065  0.99281239  1
  H  H10  1  0.22148834  0.81144372  0.42297713  1
  H  H11  1  0.23362044  0.85395245  0.27271080  1
  H  H12  1  0.23321787  0.37689672  0.09616374  1
  H  H13  1  0.28484895  0.53611230  0.52362482  1
  H  H14  1  0.31375629  0.86250795  0.92393280  1
  H  H15  1  0.27121793  0.04923286  0.46952483  1
  H  H16  1  0.29067138  0.06723837  0.31557311  1
  H  H17  1  0.30923740  0.37025499  0.55148857  1
  H  H18  1  0.28373327  0.22817076  0.16680632  1
  H  H19  1  0.34992754  0.76701400  0.05207693  1
  H  H20  1  0.43889512  0.96115517  0.68558306  1
  H  H21  1  0.56110488  0.46115517  0.31441694  1
  H  H22  1  0.65007246  0.26701400  0.94792307  1
  H  H23  1  0.71626673  0.72817076  0.83319368  1
  H  H24  1  0.69076260  0.87025499  0.44851143  1
  H  H25  1  0.70932862  0.56723837  0.68442689  1
  H  H26  1  0.72878207  0.54923286  0.53047517  1
  H  H27  1  0.68624371  0.36250795  0.07606720  1
  H  H28  1  0.71515105  0.03611230  0.47637518  1
  H  H29  1  0.76678213  0.87689672  0.90383626  1
  H  H30  1  0.76637956  0.35395245  0.72728920  1
  H  H31  1  0.77851166  0.31144372  0.57702287  1
  H  H32  1  0.75281761  0.60835065  0.00718761  1
  H  H33  1  0.86486130  0.39514776  0.95188415  1
  H  H34  1  0.79837434  0.74712772  0.09493935  1
  H  H35  1  0.87452350  0.98282637  0.29367633  1
  H  H36  1  0.88175510  0.15976045  0.09122252  1
  H  H37  1  0.92879999  0.92743299  0.54643193  1
  H  H38  1  0.93447721  0.65522923  0.60788300  1
  H  H39  1  0.96370820  0.82793403  0.79058821  1
  H  H40  1  0.97901514  0.12200589  0.89782886  1
  H  H41  1  0.97456024  0.76772065  0.32201876  1
  C  C42  1  0.11071646  0.17352845  0.95439073  1
  C  C43  1  0.11284760  0.83954987  0.34493101  1
  C  C44  1  0.14448459  0.29624998  0.13670299  1
  C  C45  1  0.16625866  0.06594342  0.38782195  1
  C  C46  1  0.18191293  0.44810158  0.53284588  1
  C  C47  1  0.22001304  0.82122821  0.99696097  1
  C  C48  1  0.77998696  0.32122821  0.00303903  1
  C  C49  1  0.81808707  0.94810158  0.46715412  1
  C  C50  1  0.83374134  0.56594342  0.61217805  1
  C  C51  1  0.85551541  0.79624998  0.86329701  1
  C  C52  1  0.88715240  0.33954987  0.65506899  1
  C  C53  1  0.88928354  0.67352845  0.04560927  1
  N  N54  1  0.02542175  0.73371544  0.95047655  1
  N  N55  1  0.01425650  0.46110173  0.63109880  1
  N  N56  1  0.98574350  0.96110073  0.36890120  1
  N  N57  1  0.97457825  0.23371544  0.04952345  1
  Cl  Cl58  1  0.32379043  0.50409846  0.85916311  1
  Cl  Cl59  1  0.36326279  0.81333999  0.64824882  1
  Cl  Cl60  1  0.49420372  0.09156785  0.72367404  1
  Cl  Cl61  1  0.50579628  0.59156785  0.27632596  1
  Cl  Cl62  1  0.63673721  0.31333999  0.35175118  1
  Cl  Cl63  1  0.67620957  0.00409846  0.14083689  1
