# generated using pymatgen
data_KAl2P2H4O11
_symmetry_space_group_name_H-M   'P 1'
_cell_length_a   9.10413280
_cell_length_b   9.96034626
_cell_length_c   10.08076392
_cell_angle_alpha   90.00000000
_cell_angle_beta   90.00000000
_cell_angle_gamma   90.00000000
_symmetry_Int_Tables_number   1
_chemical_formula_structural   KAl2P2H4O11
_chemical_formula_sum   'K4 Al8 P8 H16 O44'
_cell_volume   914.12684856
_cell_formula_units_Z   4
loop_
 _symmetry_equiv_pos_site_id
 _symmetry_equiv_pos_as_xyz
  1  'x, y, z'
loop_
 _atom_site_type_symbol
 _atom_site_label
 _atom_site_symmetry_multiplicity
 _atom_site_fract_x
 _atom_site_fract_y
 _atom_site_fract_z
 _atom_site_occupancy
  K  K0  1  0.24104441  0.98058700  0.35683199  1
  K  K1  1  0.25895559  0.01941300  0.85683199  1
  K  K2  1  0.74104441  0.51941300  0.64316801  1
  K  K3  1  0.75895559  0.48058700  0.14316801  1
  Al  Al4  1  0.08630328  0.72957515  0.65027745  1
  Al  Al5  1  0.13774757  0.50171687  0.18131083  1
  Al  Al6  1  0.36225243  0.49828313  0.68131083  1
  Al  Al7  1  0.41369672  0.27042485  0.15027745  1
  Al  Al8  1  0.58630328  0.77042485  0.34972255  1
  Al  Al9  1  0.63774757  0.99828313  0.81868917  1
  Al  Al10  1  0.86225243  0.00171687  0.31868917  1
  Al  Al11  1  0.91369672  0.22957515  0.84972255  1
  P  P12  1  0.07207444  0.52450346  0.86573698  1
  P  P13  1  0.07516322  0.20077432  0.13807523  1
  P  P14  1  0.42483678  0.79922568  0.63807523  1
  P  P15  1  0.42792556  0.47549654  0.36573698  1
  P  P16  1  0.57207444  0.97549654  0.13426302  1
  P  P17  1  0.57516322  0.29922568  0.86192477  1
  P  P18  1  0.92483678  0.70077432  0.36192477  1
  P  P19  1  0.92792556  0.02450346  0.63426302  1
  H  H20  1  0.01738167  0.41113866  0.49630977  1
  H  H21  1  0.09094531  0.79403140  0.03943015  1
  H  H22  1  0.16565112  0.29640060  0.67880063  1
  H  H23  1  0.17464563  0.74370016  0.23158849  1
  H  H24  1  0.32535437  0.25629984  0.73158849  1
  H  H25  1  0.33434888  0.70359940  0.17880063  1
  H  H26  1  0.40905469  0.20596860  0.53943015  1
  H  H27  1  0.48261833  0.58886134  0.99630977  1
  H  H28  1  0.51738167  0.08886134  0.50369023  1
  H  H29  1  0.59094531  0.70596860  0.96056985  1
  H  H30  1  0.66565112  0.20359940  0.32119937  1
  H  H31  1  0.67464563  0.75629984  0.76841151  1
  H  H32  1  0.82535437  0.24370016  0.26841151  1
  H  H33  1  0.83434888  0.79640060  0.82119937  1
  H  H34  1  0.90905469  0.29403140  0.46056985  1
  H  H35  1  0.98261833  0.91113866  0.00369023  1
  O  O36  1  0.00820780  0.39245662  0.81110651  1
  O  O37  1  0.00298940  0.08908899  0.21985007  1
  O  O38  1  0.99740864  0.64706948  0.79370850  1
  O  O39  1  0.02659791  0.19565446  0.99202834  1
  O  O40  1  0.04657759  0.53838915  0.01627979  1
  O  O41  1  0.03199821  0.33811656  0.19958515  1
  O  O42  1  0.08262670  0.87947401  0.99249707  1
  O  O43  1  0.19016374  0.56863399  0.61880703  1
  O  O44  1  0.22793110  0.68915719  0.16673687  1
  O  O45  1  0.24304871  0.17363161  0.14185937  1
  O  O46  1  0.24116953  0.53257933  0.83722898  1
  O  O47  1  0.25883047  0.46742067  0.33722898  1
  O  O48  1  0.25695129  0.82636839  0.64185937  1
  O  O49  1  0.27206890  0.31084281  0.66673687  1
  O  O50  1  0.30983626  0.43136601  0.11880703  1
  O  O51  1  0.41737330  0.12052599  0.49249707  1
  O  O52  1  0.46800179  0.66188344  0.69958515  1
  O  O53  1  0.45342241  0.46161085  0.51627979  1
  O  O54  1  0.47340209  0.80434554  0.49202834  1
  O  O55  1  0.50259136  0.35293052  0.29370850  1
  O  O56  1  0.49701060  0.91091101  0.71985007  1
  O  O57  1  0.49179220  0.60754338  0.31110651  1
  O  O58  1  0.50820780  0.10754338  0.18889349  1
  O  O59  1  0.50298940  0.41091101  0.78014993  1
  O  O60  1  0.49740864  0.85293052  0.20629150  1
  O  O61  1  0.52659791  0.30434554  0.00797166  1
  O  O62  1  0.54657759  0.96161085  0.98372021  1
  O  O63  1  0.53199821  0.16188344  0.80041485  1
  O  O64  1  0.58262670  0.62052599  0.00750293  1
  O  O65  1  0.69016374  0.93136601  0.38119297  1
  O  O66  1  0.72793110  0.81084281  0.83326313  1
  O  O67  1  0.74304871  0.32636839  0.85814063  1
  O  O68  1  0.74116953  0.96742067  0.16277102  1
  O  O69  1  0.75883047  0.03257933  0.66277102  1
  O  O70  1  0.75695129  0.67363161  0.35814063  1
  O  O71  1  0.77206890  0.18915719  0.33326313  1
  O  O72  1  0.80983626  0.06863399  0.88119297  1
  O  O73  1  0.91737330  0.37947401  0.50750293  1
  O  O74  1  0.96800179  0.83811656  0.30041485  1
  O  O75  1  0.95342241  0.03838915  0.48372021  1
  O  O76  1  0.97340209  0.69565446  0.50797166  1
  O  O77  1  0.00259136  0.14706948  0.70629150  1
  O  O78  1  0.99701060  0.58908899  0.28014993  1
  O  O79  1  0.99179220  0.89245662  0.68889349  1
