# generated using pymatgen
data_Li4Cu3F10
_symmetry_space_group_name_H-M   'P 1'
_cell_length_a   8.59988096
_cell_length_b   6.01198236
_cell_length_c   5.65694569
_cell_angle_alpha   55.35943028
_cell_angle_beta   99.35285334
_cell_angle_gamma   114.49533394
_symmetry_Int_Tables_number   1
_chemical_formula_structural   Li4Cu3F10
_chemical_formula_sum   'Li4 Cu3 F10'
_cell_volume   217.92488737
_cell_formula_units_Z   1
loop_
 _symmetry_equiv_pos_site_id
 _symmetry_equiv_pos_as_xyz
  1  'x, y, z'
loop_
 _atom_site_type_symbol
 _atom_site_label
 _atom_site_symmetry_multiplicity
 _atom_site_fract_x
 _atom_site_fract_y
 _atom_site_fract_z
 _atom_site_occupancy
  Li  Li0  1  0.69189334  0.63112994  0.07848386  1
  Li  Li1  1  0.71206669  0.11021978  0.52134151  1
  Li  Li2  1  0.28793331  0.88978022  0.47865849  1
  Li  Li3  1  0.30810666  0.36887006  0.92151614  1
  Cu  Cu4  1  0.85067117  0.53045349  0.70185002  1
  Cu  Cu5  1  0.50000000  0.00000000  0.00000000  1
  Cu  Cu6  1  0.14932883  0.46954651  0.29814998  1
  F  F7  1  0.77863276  0.79123769  0.70225228  1
  F  F8  1  0.72037167  0.00493012  0.97564381  1
  F  F9  1  0.67462404  0.43752624  0.48256680  1
  F  F10  1  0.41448701  0.77923271  0.82373457  1
  F  F11  1  0.58551299  0.22076729  0.17626543  1
  F  F12  1  0.32537596  0.56247376  0.51743320  1
  F  F13  1  0.27962833  0.99506988  0.02435619  1
  F  F14  1  0.22136724  0.20876231  0.29774772  1
  F  F15  1  0.00000000  0.50000000  0.50000000  1
  F  F16  1  0.00000000  0.50000000  0.00000000  1
