# generated using pymatgen
data_Li3Sb(PO4)2
_symmetry_space_group_name_H-M   'P 1'
_cell_length_a   5.08730917
_cell_length_b   18.94308826
_cell_length_c   6.49002617
_cell_angle_alpha   90.00000000
_cell_angle_beta   90.84219727
_cell_angle_gamma   90.00000000
_symmetry_Int_Tables_number   1
_chemical_formula_structural   Li3Sb(PO4)2
_chemical_formula_sum   'Li12 Sb4 P8 O32'
_cell_volume   625.37201516
_cell_formula_units_Z   4
loop_
 _symmetry_equiv_pos_site_id
 _symmetry_equiv_pos_as_xyz
  1  'x, y, z'
loop_
 _atom_site_type_symbol
 _atom_site_label
 _atom_site_symmetry_multiplicity
 _atom_site_fract_x
 _atom_site_fract_y
 _atom_site_fract_z
 _atom_site_occupancy
  Li  Li0  1  0.20131722  0.70096058  0.82225957  1
  Li  Li1  1  0.23300468  0.88387388  0.49683722  1
  Li  Li2  1  0.26886202  0.04571762  0.30338131  1
  Li  Li3  1  0.26699532  0.38387388  0.00316278  1
  Li  Li4  1  0.23113798  0.54571762  0.19661869  1
  Li  Li5  1  0.29868278  0.20096058  0.67774043  1
  Li  Li6  1  0.70131722  0.79903942  0.32225957  1
  Li  Li7  1  0.76886202  0.45428238  0.80338131  1
  Li  Li8  1  0.73300468  0.61612612  0.99683722  1
  Li  Li9  1  0.73113798  0.95428238  0.69661869  1
  Li  Li10  1  0.76699532  0.11612612  0.50316278  1
  Li  Li11  1  0.79868278  0.29903942  0.17774043  1
  Sb  Sb12  1  0.19673832  0.87590321  0.01627833  1
  Sb  Sb13  1  0.30326168  0.37590321  0.48372167  1
  Sb  Sb14  1  0.69673832  0.62409679  0.51627833  1
  Sb  Sb15  1  0.80326168  0.12409679  0.98372167  1
  P  P16  1  0.18506912  0.71549562  0.29304724  1
  P  P17  1  0.20970133  0.53467502  0.74337016  1
  P  P18  1  0.29029867  0.03467502  0.75662984  1
  P  P19  1  0.31493088  0.21549562  0.20695276  1
  P  P20  1  0.68506912  0.78450438  0.79304724  1
  P  P21  1  0.70970133  0.96532498  0.24337016  1
  P  P22  1  0.79029867  0.46532498  0.25662984  1
  P  P23  1  0.81493088  0.28450438  0.70695276  1
  O  O24  1  0.00925955  0.20390553  0.19133973  1
  O  O25  1  0.05828584  0.68929851  0.49873573  1
  O  O26  1  0.08724290  0.44403699  0.22630356  1
  O  O27  1  0.06807468  0.67667020  0.10731130  1
  O  O28  1  0.20151640  0.05592013  0.97565021  1
  O  O29  1  0.12427530  0.07024746  0.58746737  1
  O  O30  1  0.12227401  0.79720793  0.28372841  1
  O  O31  1  0.21542483  0.45175460  0.76496100  1
  O  O32  1  0.28457517  0.95175460  0.73503900  1
  O  O33  1  0.37772599  0.29720793  0.21627159  1
  O  O34  1  0.37572470  0.57024746  0.91253263  1
  O  O35  1  0.29848360  0.55592013  0.52434979  1
  O  O36  1  0.43192532  0.17667020  0.39268870  1
  O  O37  1  0.41275710  0.94403699  0.27369644  1
  O  O38  1  0.44171416  0.18929851  0.00126427  1
  O  O39  1  0.49074045  0.70390553  0.30866027  1
  O  O40  1  0.50925955  0.29609447  0.69133973  1
  O  O41  1  0.55828584  0.81070149  0.99873573  1
  O  O42  1  0.58724290  0.05596301  0.72630356  1
  O  O43  1  0.56807468  0.82332980  0.60731130  1
  O  O44  1  0.70151640  0.44407987  0.47565021  1
  O  O45  1  0.62427530  0.42975254  0.08746737  1
  O  O46  1  0.62227401  0.70279207  0.78372841  1
  O  O47  1  0.71542483  0.04824540  0.26496100  1
  O  O48  1  0.78457517  0.54824540  0.23503900  1
  O  O49  1  0.87772599  0.20279207  0.71627159  1
  O  O50  1  0.87572470  0.92975254  0.41253263  1
  O  O51  1  0.79848360  0.94407987  0.02434979  1
  O  O52  1  0.93192532  0.32332980  0.89268870  1
  O  O53  1  0.91275710  0.55596301  0.77369644  1
  O  O54  1  0.94171416  0.31070149  0.50126427  1
  O  O55  1  0.99074045  0.79609447  0.80866027  1
