# generated using pymatgen
data_Li2AgF5
_symmetry_space_group_name_H-M   'P 1'
_cell_length_a   6.12254725
_cell_length_b   10.00859524
_cell_length_c   8.05305052
_cell_angle_alpha   90.00000000
_cell_angle_beta   109.02955310
_cell_angle_gamma   90.00000000
_symmetry_Int_Tables_number   1
_chemical_formula_structural   Li2AgF5
_chemical_formula_sum   'Li8 Ag4 F20'
_cell_volume   466.50742870
_cell_formula_units_Z   4
loop_
 _symmetry_equiv_pos_site_id
 _symmetry_equiv_pos_as_xyz
  1  'x, y, z'
loop_
 _atom_site_type_symbol
 _atom_site_label
 _atom_site_symmetry_multiplicity
 _atom_site_fract_x
 _atom_site_fract_y
 _atom_site_fract_z
 _atom_site_occupancy
  Li  Li0  1  0.10278191  0.27038262  0.53700751  1
  Li  Li1  1  0.38430671  0.67885735  0.98094719  1
  Li  Li2  1  0.10278191  0.22961738  0.03700751  1
  Li  Li3  1  0.38430671  0.82114265  0.48094719  1
  Li  Li4  1  0.61569329  0.17885735  0.51905281  1
  Li  Li5  1  0.89721809  0.77038262  0.96299249  1
  Li  Li6  1  0.61569329  0.32114265  0.01905281  1
  Li  Li7  1  0.89721809  0.72961738  0.46299249  1
  Ag  Ag8  1  0.33799884  0.01067386  0.77303622  1
  Ag  Ag9  1  0.33799884  0.48932614  0.27303622  1
  Ag  Ag10  1  0.66200116  0.51067386  0.72696378  1
  Ag  Ag11  1  0.66200116  0.98932614  0.22696378  1
  F  F12  1  0.11819292  0.12131783  0.84676083  1
  F  F13  1  0.12640116  0.84950610  0.53836280  1
  F  F14  1  0.31956314  0.87237009  0.94474997  1
  F  F15  1  0.11819292  0.37868217  0.34676083  1
  F  F16  1  0.42233412  0.41338816  0.79324793  1
  F  F17  1  0.37562704  0.16113386  0.62215509  1
  F  F18  1  0.12640116  0.65049390  0.03836280  1
  F  F19  1  0.31956314  0.62762991  0.44474997  1
  F  F20  1  0.62437296  0.66113386  0.87784491  1
  F  F21  1  0.57766588  0.91338816  0.70675207  1
  F  F22  1  0.42233412  0.08661184  0.29324793  1
  F  F23  1  0.37562704  0.33886614  0.12215509  1
  F  F24  1  0.68043686  0.37237009  0.55525003  1
  F  F25  1  0.87359884  0.34950610  0.96163720  1
  F  F26  1  0.62437296  0.83886614  0.37784491  1
  F  F27  1  0.57766588  0.58661184  0.20675207  1
  F  F28  1  0.88180708  0.62131783  0.65323917  1
  F  F29  1  0.68043686  0.12762991  0.05525003  1
  F  F30  1  0.87359884  0.15049390  0.46163720  1
  F  F31  1  0.88180708  0.87868217  0.15323917  1
