# generated using pymatgen
data_Li3Sb(PO4)2
_symmetry_space_group_name_H-M   'P 1'
_cell_length_a   8.37244488
_cell_length_b   8.37244488
_cell_length_c   8.37244428
_cell_angle_alpha   68.96868091
_cell_angle_beta   68.96868091
_cell_angle_gamma   68.96868409
_symmetry_Int_Tables_number   1
_chemical_formula_structural   Li3Sb(PO4)2
_chemical_formula_sum   'Li9 Sb3 P6 O24'
_cell_volume   493.14904228
_cell_formula_units_Z   3
loop_
 _symmetry_equiv_pos_site_id
 _symmetry_equiv_pos_as_xyz
  1  'x, y, z'
loop_
 _atom_site_type_symbol
 _atom_site_label
 _atom_site_symmetry_multiplicity
 _atom_site_fract_x
 _atom_site_fract_y
 _atom_site_fract_z
 _atom_site_occupancy
  Li  Li0  1  0.30102289  0.83884171  0.62291647  1
  Li  Li1  1  0.35275685  0.74661560  0.13930878  1
  Li  Li2  1  0.13930878  0.35275685  0.74661560  1
  Li  Li3  1  0.99745701  0.99745701  0.99745701  1
  Li  Li4  1  0.51182449  0.51182449  0.51182449  1
  Li  Li5  1  0.65353841  0.65353841  0.65353841  1
  Li  Li6  1  0.83884171  0.62291647  0.30102289  1
  Li  Li7  1  0.62291647  0.30102289  0.83884171  1
  Li  Li8  1  0.74661560  0.13930878  0.35275685  1
  Sb  Sb9  1  0.15495156  0.15495156  0.15495156  1
  Sb  Sb10  1  0.34150183  0.34150183  0.34150183  1
  Sb  Sb11  1  0.84450704  0.84450704  0.84450704  1
  P  P12  1  0.08359641  0.75271121  0.42245027  1
  P  P13  1  0.58202957  0.91000404  0.24509054  1
  P  P14  1  0.24509054  0.58202957  0.91000404  1
  P  P15  1  0.75271121  0.42245027  0.08359641  1
  P  P16  1  0.42245027  0.08359641  0.75271121  1
  P  P17  1  0.91000404  0.24509054  0.58202957  1
  O  O18  1  0.10061802  0.89841061  0.23256361  1
  O  O19  1  0.09541784  0.76780164  0.89492853  1
  O  O20  1  0.46366142  0.91699148  0.69610010  1
  O  O21  1  0.56354808  0.09377542  0.82146648  1
  O  O22  1  0.26273860  0.59724749  0.39351127  1
  O  O23  1  0.17051133  0.42955795  0.93118002  1
  O  O24  1  0.07209640  0.30418598  0.56282302  1
  O  O25  1  0.59390214  0.73895089  0.39688600  1
  O  O26  1  0.76780164  0.89492853  0.09541784  1
  O  O27  1  0.93118002  0.17051133  0.42955795  1
  O  O28  1  0.30418598  0.56282302  0.07209640  1
  O  O29  1  0.39688600  0.59390214  0.73895089  1
  O  O30  1  0.59724749  0.39351127  0.26273860  1
  O  O31  1  0.69610010  0.46366142  0.91699148  1
  O  O32  1  0.09377542  0.82146648  0.56354808  1
  O  O33  1  0.39351127  0.26273860  0.59724749  1
  O  O34  1  0.23256361  0.10061802  0.89841061  1
  O  O35  1  0.82146648  0.56354808  0.09377542  1
  O  O36  1  0.91699148  0.69610010  0.46366142  1
  O  O37  1  0.73895089  0.39688600  0.59390214  1
  O  O38  1  0.42955795  0.93118002  0.17051133  1
  O  O39  1  0.56282302  0.07209640  0.30418598  1
  O  O40  1  0.89841061  0.23256361  0.10061802  1
  O  O41  1  0.89492853  0.09541784  0.76780164  1
