# generated using pymatgen
data_Li2AgF4
_symmetry_space_group_name_H-M   'P 1'
_cell_length_a   5.33020168
_cell_length_b   9.98086541
_cell_length_c   18.91493019
_cell_angle_alpha   90.00000000
_cell_angle_beta   90.00000000
_cell_angle_gamma   90.00000000
_symmetry_Int_Tables_number   1
_chemical_formula_structural   Li2AgF4
_chemical_formula_sum   'Li24 Ag12 F48'
_cell_volume   1006.27476988
_cell_formula_units_Z   12
loop_
 _symmetry_equiv_pos_site_id
 _symmetry_equiv_pos_as_xyz
  1  'x, y, z'
loop_
 _atom_site_type_symbol
 _atom_site_label
 _atom_site_symmetry_multiplicity
 _atom_site_fract_x
 _atom_site_fract_y
 _atom_site_fract_z
 _atom_site_occupancy
  Li  Li0  1  0.20341248  0.42306647  0.10830777  1
  Li  Li1  1  0.20341248  0.07693353  0.60830777  1
  Li  Li2  1  0.23321893  0.72557263  0.49321389  1
  Li  Li3  1  0.23321893  0.77442737  0.99321389  1
  Li  Li4  1  0.23228549  0.44132774  0.44844035  1
  Li  Li5  1  0.23228549  0.05867226  0.94844035  1
  Li  Li6  1  0.26386033  0.75265503  0.16681918  1
  Li  Li7  1  0.26386033  0.74734497  0.66681918  1
  Li  Li8  1  0.29642573  0.77087804  0.31128345  1
  Li  Li9  1  0.29642573  0.72912196  0.81128345  1
  Li  Li10  1  0.29899538  0.09920975  0.29142453  1
  Li  Li11  1  0.29899538  0.40079025  0.79142453  1
  Li  Li12  1  0.70341248  0.92306647  0.39169223  1
  Li  Li13  1  0.70341248  0.57693353  0.89169223  1
  Li  Li14  1  0.73321893  0.22557263  0.00678611  1
  Li  Li15  1  0.73321893  0.27442737  0.50678611  1
  Li  Li16  1  0.73228549  0.94132774  0.05155965  1
  Li  Li17  1  0.73228549  0.55867226  0.55155965  1
  Li  Li18  1  0.76386033  0.25265503  0.33318082  1
  Li  Li19  1  0.76386033  0.24734497  0.83318082  1
  Li  Li20  1  0.79642573  0.27087804  0.18871655  1
  Li  Li21  1  0.79642573  0.22912196  0.68871655  1
  Li  Li22  1  0.79899538  0.59920975  0.20857547  1
  Li  Li23  1  0.79899538  0.90079025  0.70857547  1
  Ag  Ag24  1  0.19217312  0.10580680  0.44446741  1
  Ag  Ag25  1  0.19217312  0.39419320  0.94446741  1
  Ag  Ag26  1  0.28486441  0.11227790  0.10984638  1
  Ag  Ag27  1  0.28486441  0.38772210  0.60984638  1
  Ag  Ag28  1  0.32628876  0.44322298  0.26293547  1
  Ag  Ag29  1  0.32628876  0.05677702  0.76293547  1
  Ag  Ag30  1  0.69217312  0.60580680  0.05553259  1
  Ag  Ag31  1  0.69217312  0.89419320  0.55553259  1
  Ag  Ag32  1  0.78486441  0.61227790  0.39015362  1
  Ag  Ag33  1  0.78486441  0.88772210  0.89015362  1
  Ag  Ag34  1  0.82628876  0.55677702  0.73706453  1
  Ag  Ag35  1  0.82628876  0.94322298  0.23706453  1
  F  F36  1  0.00274961  0.73176674  0.25560016  1
  F  F37  1  0.00274961  0.76823326  0.75560016  1
  F  F38  1  0.00795942  0.43462243  0.19899478  1
  F  F39  1  0.00795942  0.06537757  0.69899478  1
  F  F40  1  0.02498868  0.64428044  0.11318641  1
  F  F41  1  0.02498868  0.85571956  0.61318641  1
  F  F42  1  0.02699932  0.96464477  0.34676703  1
  F  F43  1  0.02699932  0.53535523  0.84676703  1
  F  F44  1  0.06854092  0.94653796  0.01555075  1
  F  F45  1  0.06854092  0.55346204  0.51555075  1
  F  F46  1  0.13170132  0.52376084  0.35907830  1
  F  F47  1  0.13170132  0.97623916  0.85907830  1
  F  F48  1  0.14893916  0.95002822  0.17291271  1
  F  F49  1  0.14893916  0.54997178  0.67291271  1
  F  F50  1  0.38379326  0.94054912  0.49144495  1
  F  F51  1  0.38379326  0.55945088  0.99144495  1
  F  F52  1  0.40391950  0.28270538  0.05012479  1
  F  F53  1  0.40391950  0.21729462  0.55012479  1
  F  F54  1  0.44428608  0.72520694  0.40280266  1
  F  F55  1  0.44428608  0.77479306  0.90280266  1
  F  F56  1  0.48945326  0.68336891  0.23617888  1
  F  F57  1  0.48945326  0.81663109  0.73617888  1
  F  F58  1  0.49410381  0.78855278  0.07519690  1
  F  F59  1  0.49410381  0.71144722  0.57519690  1
  F  F60  1  0.50274961  0.23176674  0.24439984  1
  F  F61  1  0.50274961  0.26823326  0.74439984  1
  F  F62  1  0.50795942  0.56537757  0.80100522  1
  F  F63  1  0.50795942  0.93462243  0.30100522  1
  F  F64  1  0.52498868  0.14428044  0.38681359  1
  F  F65  1  0.52498868  0.35571956  0.88681359  1
  F  F66  1  0.52699932  0.46464477  0.15323297  1
  F  F67  1  0.52699932  0.03535523  0.65323297  1
  F  F68  1  0.56854092  0.44653796  0.48444925  1
  F  F69  1  0.56854092  0.05346204  0.98444925  1
  F  F70  1  0.63170132  0.02376084  0.14092170  1
  F  F71  1  0.63170132  0.47623916  0.64092170  1
  F  F72  1  0.64893916  0.04997178  0.82708729  1
  F  F73  1  0.64893916  0.45002822  0.32708729  1
  F  F74  1  0.88379326  0.44054912  0.00855505  1
  F  F75  1  0.88379326  0.05945088  0.50855505  1
  F  F76  1  0.90391950  0.71729462  0.94987521  1
  F  F77  1  0.90391950  0.78270538  0.44987521  1
  F  F78  1  0.94428608  0.22520694  0.09719734  1
  F  F79  1  0.94428608  0.27479306  0.59719734  1
  F  F80  1  0.98945326  0.18336891  0.26382112  1
  F  F81  1  0.98945326  0.31663109  0.76382112  1
  F  F82  1  0.99410381  0.21144722  0.92480310  1
  F  F83  1  0.99410381  0.28855278  0.42480310  1
