# generated using pymatgen
data_LiVPO4
_symmetry_space_group_name_H-M   'P 1'
_cell_length_a   7.64705863
_cell_length_b   14.00893602
_cell_length_c   6.00315263
_cell_angle_alpha   90.00000000
_cell_angle_beta   90.00000000
_cell_angle_gamma   90.00000000
_symmetry_Int_Tables_number   1
_chemical_formula_structural   LiVPO4
_chemical_formula_sum   'Li8 V8 P8 O32'
_cell_volume   643.10066282
_cell_formula_units_Z   8
loop_
 _symmetry_equiv_pos_site_id
 _symmetry_equiv_pos_as_xyz
  1  'x, y, z'
loop_
 _atom_site_type_symbol
 _atom_site_label
 _atom_site_symmetry_multiplicity
 _atom_site_fract_x
 _atom_site_fract_y
 _atom_site_fract_z
 _atom_site_occupancy
  Li  Li0  1  0.19011490  0.22476997  0.15821175  1
  Li  Li1  1  0.19011490  0.27523003  0.65821175  1
  Li  Li2  1  0.30988510  0.77523003  0.65821175  1
  Li  Li3  1  0.30988510  0.72476997  0.15821175  1
  Li  Li4  1  0.69011490  0.22476997  0.34178825  1
  Li  Li5  1  0.69011490  0.27523003  0.84178825  1
  Li  Li6  1  0.80988510  0.72476997  0.34178825  1
  Li  Li7  1  0.80988510  0.77523003  0.84178825  1
  V  V8  1  0.18571864  0.53205330  0.39294303  1
  V  V9  1  0.18571864  0.96794670  0.89294303  1
  V  V10  1  0.31428136  0.03205330  0.39294303  1
  V  V11  1  0.31428136  0.46794670  0.89294303  1
  V  V12  1  0.68571864  0.53205330  0.10705697  1
  V  V13  1  0.68571864  0.96794670  0.60705697  1
  V  V14  1  0.81428136  0.03205330  0.10705697  1
  V  V15  1  0.81428136  0.46794670  0.60705697  1
  P  P16  1  0.05168192  0.63038122  0.89705303  1
  P  P17  1  0.05168192  0.86961878  0.39705303  1
  P  P18  1  0.44831808  0.13038122  0.89705303  1
  P  P19  1  0.44831808  0.36961878  0.39705303  1
  P  P20  1  0.55168192  0.63038122  0.60294697  1
  P  P21  1  0.55168192  0.86961878  0.10294697  1
  P  P22  1  0.94831808  0.13038122  0.60294697  1
  P  P23  1  0.94831808  0.36961878  0.10294697  1
  O  O24  1  0.95828624  0.05496857  0.79917980  1
  O  O25  1  0.95828624  0.44503143  0.29917980  1
  O  O26  1  0.10312017  0.77001069  0.32123945  1
  O  O27  1  0.10312017  0.72998931  0.82123945  1
  O  O28  1  0.12669472  0.13571540  0.48372251  1
  O  O29  1  0.12669472  0.36428460  0.98372251  1
  O  O30  1  0.19854943  0.59099107  0.06037620  1
  O  O31  1  0.19854943  0.90900893  0.56037620  1
  O  O32  1  0.30145057  0.09099107  0.06037620  1
  O  O33  1  0.30145057  0.40900893  0.56037620  1
  O  O34  1  0.37330528  0.63571540  0.48372251  1
  O  O35  1  0.37330528  0.86428460  0.98372251  1
  O  O36  1  0.39687983  0.22998931  0.82123945  1
  O  O37  1  0.39687983  0.27001069  0.32123945  1
  O  O38  1  0.54171376  0.55496857  0.79917980  1
  O  O39  1  0.54171376  0.94503143  0.29917980  1
  O  O40  1  0.45828624  0.44503143  0.20082020  1
  O  O41  1  0.45828624  0.05496857  0.70082020  1
  O  O42  1  0.60312017  0.72998931  0.67876055  1
  O  O43  1  0.60312017  0.77001069  0.17876055  1
  O  O44  1  0.62669472  0.13571540  0.01627749  1
  O  O45  1  0.62669472  0.36428460  0.51627749  1
  O  O46  1  0.69854943  0.59099107  0.43962380  1
  O  O47  1  0.69854943  0.90900893  0.93962380  1
  O  O48  1  0.80145057  0.09099107  0.43962380  1
  O  O49  1  0.80145057  0.40900893  0.93962380  1
  O  O50  1  0.87330528  0.63571540  0.01627749  1
  O  O51  1  0.87330528  0.86428460  0.51627749  1
  O  O52  1  0.89687983  0.22998931  0.67876055  1
  O  O53  1  0.89687983  0.27001069  0.17876055  1
  O  O54  1  0.04171376  0.55496857  0.70082020  1
  O  O55  1  0.04171376  0.94503143  0.20082020  1
