# generated using pymatgen
data_Mg6ZnSi
_symmetry_space_group_name_H-M   'P 1'
_cell_length_a   6.12173608
_cell_length_b   6.44473730
_cell_length_c   4.82334475
_cell_angle_alpha   90.00000000
_cell_angle_beta   90.00000000
_cell_angle_gamma   121.76129727
_symmetry_Int_Tables_number   1
_chemical_formula_structural   Mg6ZnSi
_chemical_formula_sum   'Mg6 Zn1 Si1'
_cell_volume   161.79830813
_cell_formula_units_Z   1
loop_
 _symmetry_equiv_pos_site_id
 _symmetry_equiv_pos_as_xyz
  1  'x, y, z'
loop_
 _atom_site_type_symbol
 _atom_site_label
 _atom_site_symmetry_multiplicity
 _atom_site_fract_x
 _atom_site_fract_y
 _atom_site_fract_z
 _atom_site_occupancy
  Mg  Mg0  1  0.66986428  0.33411962  0.25000000  1
  Mg  Mg1  1  0.66986428  0.83574366  0.25000000  1
  Mg  Mg2  1  0.32412323  0.16342806  0.75000000  1
  Mg  Mg3  1  0.32412323  0.66069617  0.75000000  1
  Mg  Mg4  1  0.83810836  0.16905468  0.75000000  1
  Mg  Mg5  1  0.83828749  0.66914425  0.75000000  1
  Zn  Zn6  1  0.16727232  0.33363566  0.25000000  1
  Si  Si7  1  0.16835680  0.83417790  0.25000000  1
