# generated using pymatgen
data_Li2Ti2CoO6
_symmetry_space_group_name_H-M   'P 1'
_cell_length_a   5.20032243
_cell_length_b   5.11970611
_cell_length_c   10.41166502
_cell_angle_alpha   90.00000000
_cell_angle_beta   90.00000000
_cell_angle_gamma   60.51150199
_symmetry_Int_Tables_number   1
_chemical_formula_structural   Li2Ti2CoO6
_chemical_formula_sum   'Li4 Ti4 Co2 O12'
_cell_volume   241.29125421
_cell_formula_units_Z   2
loop_
 _symmetry_equiv_pos_site_id
 _symmetry_equiv_pos_as_xyz
  1  'x, y, z'
loop_
 _atom_site_type_symbol
 _atom_site_label
 _atom_site_symmetry_multiplicity
 _atom_site_fract_x
 _atom_site_fract_y
 _atom_site_fract_z
 _atom_site_occupancy
  Li  Li0  1  0.50000000  0.16751569  0.75000000  1
  Li  Li1  1  0.50000000  0.33248431  0.25000000  1
  Li  Li2  1  0.50000000  0.66751569  0.75000000  1
  Li  Li3  1  0.50000000  0.83248431  0.25000000  1
  Ti  Ti4  1  0.32315781  0.33842109  0.00000000  1
  Ti  Ti5  1  0.32315781  0.83842109  0.50000000  1
  Ti  Ti6  1  0.67684219  0.16157891  0.50000000  1
  Ti  Ti7  1  0.67684219  0.66157891  0.00000000  1
  Co  Co8  1  0.00000000  0.00000000  0.00000000  1
  Co  Co9  1  0.00000000  0.50000000  0.50000000  1
  O  O10  1  0.00000000  0.15479468  0.59717821  1
  O  O11  1  1.00000000  0.34520532  0.09717821  1
  O  O12  1  0.00000000  0.65479468  0.90282179  1
  O  O13  1  0.36907477  0.99586564  0.89217142  1
  O  O14  1  1.00000000  0.84520532  0.40282179  1
  O  O15  1  0.36907477  0.13505959  0.39217142  1
  O  O16  1  0.36907477  0.49586564  0.60782858  1
  O  O17  1  0.36907477  0.63505959  0.10782858  1
  O  O18  1  0.63092523  0.00413436  0.10782858  1
  O  O19  1  0.63092523  0.36494041  0.89217142  1
  O  O20  1  0.63092523  0.50413436  0.39217142  1
  O  O21  1  0.63092523  0.86494041  0.60782858  1
