# generated using pymatgen
data_LiFeB2O5
_symmetry_space_group_name_H-M   'P 1'
_cell_length_a   4.36833977
_cell_length_b   11.85084004
_cell_length_c   6.21350179
_cell_angle_alpha   90.00000000
_cell_angle_beta   91.21672321
_cell_angle_gamma   90.00000000
_symmetry_Int_Tables_number   1
_chemical_formula_structural   LiFeB2O5
_chemical_formula_sum   'Li4 Fe4 B8 O20'
_cell_volume   321.59111529
_cell_formula_units_Z   4
loop_
 _symmetry_equiv_pos_site_id
 _symmetry_equiv_pos_as_xyz
  1  'x, y, z'
loop_
 _atom_site_type_symbol
 _atom_site_label
 _atom_site_symmetry_multiplicity
 _atom_site_fract_x
 _atom_site_fract_y
 _atom_site_fract_z
 _atom_site_occupancy
  Li  Li0  1  0.37796918  0.27751931  0.74600396  1
  Li  Li1  1  0.37796918  0.22248069  0.24600396  1
  Li  Li2  1  0.62203082  0.77751931  0.75399604  1
  Li  Li3  1  0.62203082  0.72248069  0.25399604  1
  Fe  Fe4  1  0.20634289  0.60015428  0.50696778  1
  Fe  Fe5  1  0.20634289  0.89984572  0.00696778  1
  Fe  Fe6  1  0.79365711  0.10015428  0.99303222  1
  Fe  Fe7  1  0.79365711  0.39984572  0.49303222  1
  B  B8  1  0.18542802  0.63336068  0.98149476  1
  B  B9  1  0.18542802  0.86663932  0.48149476  1
  B  B10  1  0.30691829  0.05713876  0.70850192  1
  B  B11  1  0.30691829  0.44286124  0.20850192  1
  B  B12  1  0.69308171  0.55713876  0.79149808  1
  B  B13  1  0.69308171  0.94286124  0.29149808  1
  B  B14  1  0.81457198  0.13336068  0.51850524  1
  B  B15  1  0.81457198  0.36663932  0.01850524  1
  O  O16  1  0.14204986  0.13719864  0.57543249  1
  O  O17  1  0.14204986  0.36280136  0.07543249  1
  O  O18  1  0.24216936  0.07596420  0.94854338  1
  O  O19  1  0.24216936  0.42403580  0.44854338  1
  O  O20  1  0.23682773  0.93329044  0.68767848  1
  O  O21  1  0.30632020  0.74642612  0.01328032  1
  O  O22  1  0.23682773  0.56670956  0.18767848  1
  O  O23  1  0.30632020  0.75357388  0.51328032  1
  O  O24  1  0.35676379  0.57408833  0.80817118  1
  O  O25  1  0.35676379  0.92591167  0.30817118  1
  O  O26  1  0.64323621  0.07408833  0.69182882  1
  O  O27  1  0.64323621  0.42591167  0.19182882  1
  O  O28  1  0.69367980  0.24642612  0.48671968  1
  O  O29  1  0.76317227  0.43329044  0.81232152  1
  O  O30  1  0.69367980  0.25357388  0.98671968  1
  O  O31  1  0.76317227  0.06670956  0.31232152  1
  O  O32  1  0.75783064  0.57596420  0.55145662  1
  O  O33  1  0.75783064  0.92403580  0.05145662  1
  O  O34  1  0.85795014  0.63719864  0.92456751  1
  O  O35  1  0.85795014  0.86280136  0.42456751  1
