# generated using pymatgen
data_LiNiPO4
_symmetry_space_group_name_H-M   'P 1'
_cell_length_a   8.55584836
_cell_length_b   7.67290172
_cell_length_c   14.78482345
_cell_angle_alpha   90.00000000
_cell_angle_beta   90.27458167
_cell_angle_gamma   90.00000000
_symmetry_Int_Tables_number   1
_chemical_formula_structural   LiNiPO4
_chemical_formula_sum   'Li12 Ni12 P12 O48'
_cell_volume   970.58565907
_cell_formula_units_Z   12
loop_
 _symmetry_equiv_pos_site_id
 _symmetry_equiv_pos_as_xyz
  1  'x, y, z'
loop_
 _atom_site_type_symbol
 _atom_site_label
 _atom_site_symmetry_multiplicity
 _atom_site_fract_x
 _atom_site_fract_y
 _atom_site_fract_z
 _atom_site_occupancy
  Li  Li0  1  0.03395262  0.74826937  0.09559028  1
  Li  Li1  1  0.09654753  0.77804637  0.72887409  1
  Li  Li2  1  0.10998749  0.74366329  0.43465459  1
  Li  Li3  1  0.39001251  0.24366329  0.06534541  1
  Li  Li4  1  0.40345247  0.27804637  0.77112591  1
  Li  Li5  1  0.46604738  0.24826937  0.40440972  1
  Li  Li6  1  0.53395262  0.75173063  0.59559028  1
  Li  Li7  1  0.59654753  0.72195363  0.22887409  1
  Li  Li8  1  0.60998749  0.75633671  0.93465459  1
  Li  Li9  1  0.89001251  0.25633671  0.56534541  1
  Li  Li10  1  0.90345247  0.22195363  0.27112591  1
  Li  Li11  1  0.96604738  0.25173063  0.90440972  1
  Ni  Ni12  1  0.25558951  0.06091974  0.55737841  1
  Ni  Ni13  1  0.26331231  0.98127565  0.89964962  1
  Ni  Ni14  1  0.25419058  0.16843929  0.24899595  1
  Ni  Ni15  1  0.24580942  0.66843929  0.25100405  1
  Ni  Ni16  1  0.23668769  0.48127565  0.60035038  1
  Ni  Ni17  1  0.24441049  0.56091974  0.94262159  1
  Ni  Ni18  1  0.75558951  0.43908026  0.05737841  1
  Ni  Ni19  1  0.76331231  0.51872435  0.39965062  1
  Ni  Ni20  1  0.75419058  0.33156071  0.74899595  1
  Ni  Ni21  1  0.74580942  0.83156071  0.75100405  1
  Ni  Ni22  1  0.73668769  0.01872435  0.10034938  1
  Ni  Ni23  1  0.74441049  0.93908026  0.44262159  1
  P  P24  1  0.04977287  0.33398945  0.09113644  1
  P  P25  1  0.09707123  0.15942458  0.72088404  1
  P  P26  1  0.10917476  0.33767891  0.42586613  1
  P  P27  1  0.39082524  0.83767891  0.07413387  1
  P  P28  1  0.40292877  0.65942458  0.77911596  1
  P  P29  1  0.45022713  0.83398945  0.40886356  1
  P  P30  1  0.54977287  0.16601055  0.59113644  1
  P  P31  1  0.59707123  0.34057542  0.22088404  1
  P  P32  1  0.60917476  0.16232109  0.92586613  1
  P  P33  1  0.89082524  0.66232109  0.57413387  1
  P  P34  1  0.90292877  0.84057542  0.27911596  1
  P  P35  1  0.95022713  0.66601055  0.90886356  1
  O  O36  1  0.03285506  0.49358444  0.88267890  1
  O  O37  1  0.03778541  0.62229941  0.63153386  1
  O  O38  1  0.07213657  0.76999374  0.96668070  1
  O  O39  1  0.06376577  0.75767033  0.30303915  1
  O  O40  1  0.07831935  0.20054602  0.50064027  1
  O  O41  1  0.11371829  0.99117042  0.66467159  1
  O  O42  1  0.11138214  0.12476465  0.82378039  1
  O  O43  1  0.08047317  0.22352228  0.17811816  1
  O  O44  1  0.17344894  0.50668317  0.47015772  1
  O  O45  1  0.20365649  0.37085407  0.04028281  1
  O  O46  1  0.24260806  0.26610222  0.36418158  1
  O  O47  1  0.22712395  0.28589097  0.68867547  1
  O  O48  1  0.25739194  0.76610222  0.13581842  1
  O  O49  1  0.27287605  0.78589097  0.81132453  1
  O  O50  1  0.29634351  0.87085407  0.45971719  1
  O  O51  1  0.32655106  0.00668317  0.02984228  1
  O  O52  1  0.41952683  0.72352228  0.32188184  1
  O  O53  1  0.38861786  0.62476465  0.67621961  1
  O  O54  1  0.38628171  0.49117042  0.83532841  1
  O  O55  1  0.43623423  0.25767033  0.19696085  1
  O  O56  1  0.42168065  0.70054602  0.99935973  1
  O  O57  1  0.42786343  0.26999374  0.53331930  1
  O  O58  1  0.46221459  0.12229941  0.86846614  1
  O  O59  1  0.46714494  0.99358444  0.61732110  1
  O  O60  1  0.53285506  0.00641556  0.38267890  1
  O  O61  1  0.53778541  0.87770059  0.13153386  1
  O  O62  1  0.57213657  0.73000626  0.46668070  1
  O  O63  1  0.57831935  0.29945398  0.00064027  1
  O  O64  1  0.56376577  0.74232967  0.80303915  1
  O  O65  1  0.61371829  0.50882958  0.16467159  1
  O  O66  1  0.61138214  0.37523535  0.32378039  1
  O  O67  1  0.58047317  0.27647772  0.67811816  1
  O  O68  1  0.67344894  0.99331683  0.97015772  1
  O  O69  1  0.70365649  0.12914593  0.54028281  1
  O  O70  1  0.72712395  0.21410903  0.18867547  1
  O  O71  1  0.74260806  0.23389778  0.86418158  1
  O  O72  1  0.77287605  0.71410903  0.31132453  1
  O  O73  1  0.75739194  0.73389778  0.63581842  1
  O  O74  1  0.79634351  0.62914593  0.95971719  1
  O  O75  1  0.82655106  0.49331683  0.52984228  1
  O  O76  1  0.91952683  0.77647772  0.82188184  1
  O  O77  1  0.88861786  0.87523535  0.17621961  1
  O  O78  1  0.88628171  0.00882958  0.33532841  1
  O  O79  1  0.92168065  0.79945398  0.49935973  1
  O  O80  1  0.93623423  0.24232967  0.69696085  1
  O  O81  1  0.92786343  0.23000626  0.03331930  1
  O  O82  1  0.96221459  0.37770059  0.36846614  1
  O  O83  1  0.96714494  0.50641556  0.11732110  1
