# generated using pymatgen
data_Li3Bi2(PO4)3
_symmetry_space_group_name_H-M   'P 1'
_cell_length_a   9.71711874
_cell_length_b   9.71711874
_cell_length_c   15.75844147
_cell_angle_alpha   85.24338305
_cell_angle_beta   82.41699596
_cell_angle_gamma   130.65597953
_symmetry_Int_Tables_number   1
_chemical_formula_structural   Li3Bi2(PO4)3
_chemical_formula_sum   'Li12 Bi8 P12 O48'
_cell_volume   1090.35166805
_cell_formula_units_Z   4
loop_
 _symmetry_equiv_pos_site_id
 _symmetry_equiv_pos_as_xyz
  1  'x, y, z'
loop_
 _atom_site_type_symbol
 _atom_site_label
 _atom_site_symmetry_multiplicity
 _atom_site_fract_x
 _atom_site_fract_y
 _atom_site_fract_z
 _atom_site_occupancy
  Li  Li0  1  0.14204147  0.76792304  0.35448290  1
  Li  Li1  1  0.91829390  0.22509082  0.94914230  1
  Li  Li2  1  0.21540213  0.46540213  0.25000000  1
  Li  Li3  1  0.67423312  0.86743621  0.55085770  1
  Li  Li4  1  0.62240595  0.49652437  0.14551710  1
  Li  Li5  1  0.50000000  0.50000000  0.50000000  1
  Li  Li6  1  0.37759405  0.50347563  0.85448290  1
  Li  Li7  1  0.32576688  0.13256379  0.44914230  1
  Li  Li8  1  0.78459787  0.53459787  0.75000000  1
  Li  Li9  1  0.08170610  0.77490918  0.05085770  1
  Li  Li10  1  0.85795853  0.23207696  0.64551710  1
  Li  Li11  1  0.50000000  0.00000000  0.00000000  1
  Bi  Bi12  1  0.26807761  0.71883236  0.52995067  1
  Bi  Bi13  1  0.23210284  0.74906930  0.83531123  1
  Bi  Bi14  1  0.08438053  0.06741408  0.66468877  1
  Bi  Bi15  1  0.74878203  0.79802828  0.97004933  1
  Bi  Bi16  1  0.25121797  0.20197172  0.02995067  1
  Bi  Bi17  1  0.91561947  0.93258592  0.33531123  1
  Bi  Bi18  1  0.76789716  0.25093070  0.16468877  1
  Bi  Bi19  1  0.73192239  0.28116764  0.47004933  1
  P  P20  1  0.57776739  0.93678788  0.36310015  1
  P  P21  1  0.24280395  0.50761069  0.68883466  1
  P  P22  1  0.29033101  0.61347296  0.03901449  1
  P  P23  1  0.15248745  0.32934550  0.46098551  1
  P  P24  1  0.69644535  0.93163860  0.81116534  1
  P  P25  1  0.79988804  0.94086854  0.13689985  1
  P  P26  1  0.20011196  0.05913146  0.86310015  1
  P  P27  1  0.30355465  0.06836140  0.18883466  1
  P  P28  1  0.84751255  0.67065450  0.53901449  1
  P  P29  1  0.70966899  0.38652704  0.96098551  1
  P  P30  1  0.75719605  0.49238931  0.31116534  1
  P  P31  1  0.42223261  0.06321212  0.63689985  1
  O  O32  1  0.18317661  0.96935429  0.28467739  1
  O  O33  1  0.18567191  0.95539097  0.12303755  1
  O  O34  1  0.34028480  0.03594852  0.83516797  1
  O  O35  1  0.40183258  0.04792660  0.53809535  1
  O  O36  1  0.03824880  0.74997800  0.48093713  1
  O  O37  1  0.27968565  0.85763916  0.69017371  1
  O  O38  1  0.37212348  0.83784423  0.36858890  1
  O  O39  1  0.07277199  0.46861349  0.66384693  1
  O  O40  1  0.21717012  0.70616139  0.00213220  1
  O  O41  1  0.53034662  0.92341117  0.82307856  1
  O  O42  1  0.18560635  0.50894855  0.13558003  1
  O  O43  1  0.24596833  0.53214601  0.78467739  1
  O  O44  1  0.31098675  0.53126209  0.47344775  1
  O  O45  1  0.42157148  0.69129055  0.62303755  1
  O  O46  1  0.50470984  0.78443450  0.02655225  1
  O  O47  1  0.62888351  0.82454723  0.33516797  1
  O  O48  1  0.14452858  0.32118638  0.36441997  1
  O  O49  1  0.91397805  0.06007208  0.03809535  1
  O  O50  1  0.24648973  0.35342518  0.67692144  1
  O  O51  1  0.26908487  0.48081407  0.98093713  1
  O  O52  1  0.95218613  0.03013964  0.19017371  1
  O  O53  1  0.20829359  0.21930232  0.49786780  1
  O  O54  1  0.70643313  0.74071338  0.13141110  1
  O  O55  1  0.63246142  0.73661992  0.83615307  1
  O  O56  1  0.36753858  0.26338008  0.16384693  1
  O  O57  1  0.29356687  0.25928662  0.86858890  1
  O  O58  1  0.79170641  0.78069768  0.50213220  1
  O  O59  1  0.04781387  0.96986036  0.80982629  1
  O  O60  1  0.73091513  0.51918593  0.01906287  1
  O  O61  1  0.75351027  0.64657482  0.32307856  1
  O  O62  1  0.08602195  0.93992792  0.96190465  1
  O  O63  1  0.85547142  0.67881362  0.63558003  1
  O  O64  1  0.37111649  0.17545277  0.66483203  1
  O  O65  1  0.49529016  0.21556550  0.97344775  1
  O  O66  1  0.57842852  0.30870945  0.37696245  1
  O  O67  1  0.68901325  0.46873791  0.52655225  1
  O  O68  1  0.75403167  0.46785399  0.21532261  1
  O  O69  1  0.81439365  0.49105145  0.86441997  1
  O  O70  1  0.46965338  0.07658883  0.17692144  1
  O  O71  1  0.78282988  0.29383861  0.99786780  1
  O  O72  1  0.92722801  0.53138651  0.33615307  1
  O  O73  1  0.62787652  0.16215577  0.63141110  1
  O  O74  1  0.72031435  0.14236084  0.30982629  1
  O  O75  1  0.96175120  0.25002200  0.51906287  1
  O  O76  1  0.59816742  0.95207340  0.46190465  1
  O  O77  1  0.65971520  0.96405148  0.16483203  1
  O  O78  1  0.81432809  0.04460903  0.87696245  1
  O  O79  1  0.81682339  0.03064571  0.71532261  1
