# generated using pymatgen
data_VIO4
_symmetry_space_group_name_H-M   'P 1'
_cell_length_a   7.03820154
_cell_length_b   7.03820154
_cell_length_c   9.27971345
_cell_angle_alpha   80.29762298
_cell_angle_beta   99.70237702
_cell_angle_gamma   95.01619838
_symmetry_Int_Tables_number   1
_chemical_formula_structural   VIO4
_chemical_formula_sum   'V4 I4 O16'
_cell_volume   445.80117818
_cell_formula_units_Z   4
loop_
 _symmetry_equiv_pos_site_id
 _symmetry_equiv_pos_as_xyz
  1  'x, y, z'
loop_
 _atom_site_type_symbol
 _atom_site_label
 _atom_site_symmetry_multiplicity
 _atom_site_fract_x
 _atom_site_fract_y
 _atom_site_fract_z
 _atom_site_occupancy
  V  V0  1  0.27269877  0.72730123  0.41804944  1
  V  V1  1  0.24512947  0.24512947  0.00000000  1
  V  V2  1  0.75487053  0.75487053  0.00000000  1
  V  V3  1  0.72730123  0.27269877  0.58195056  1
  I  I4  1  0.23945590  0.76054410  0.89315004  1
  I  I5  1  0.80398330  0.80398330  0.50000000  1
  I  I6  1  0.19601670  0.19601670  0.50000000  1
  I  I7  1  0.76054410  0.23945590  0.10684996  1
  O  O8  1  0.13773914  0.86226086  0.50880052  1
  O  O9  1  0.21555370  0.78444630  0.23857413  1
  O  O10  1  0.23436576  0.46339896  0.87675585  1
  O  O11  1  0.53660104  0.76563424  0.87675585  1
  O  O12  1  0.51892037  0.79448956  0.48299505  1
  O  O13  1  0.20551044  0.48107963  0.48299505  1
  O  O14  1  0.93737550  0.76153864  0.89287874  1
  O  O15  1  0.23846136  0.06262450  0.89287874  1
  O  O16  1  0.06262450  0.23846136  0.10712126  1
  O  O17  1  0.76153864  0.93737550  0.10712126  1
  O  O18  1  0.48107963  0.20551044  0.51700495  1
  O  O19  1  0.79448956  0.51892037  0.51700495  1
  O  O20  1  0.46339896  0.23436576  0.12324415  1
  O  O21  1  0.76563424  0.53660104  0.12324415  1
  O  O22  1  0.78444630  0.21555370  0.76142587  1
  O  O23  1  0.86226086  0.13773914  0.49119948  1
