# generated using pymatgen
data_Li6VSb3(PO4)6
_symmetry_space_group_name_H-M   'P 1'
_cell_length_a   8.60954421
_cell_length_b   8.57729770
_cell_length_c   8.57954471
_cell_angle_alpha   64.82455702
_cell_angle_beta   65.24582685
_cell_angle_gamma   65.40368627
_symmetry_Int_Tables_number   1
_chemical_formula_structural   Li6VSb3(PO4)6
_chemical_formula_sum   'Li6 V1 Sb3 P6 O24'
_cell_volume   498.36939748
_cell_formula_units_Z   1
loop_
 _symmetry_equiv_pos_site_id
 _symmetry_equiv_pos_as_xyz
  1  'x, y, z'
loop_
 _atom_site_type_symbol
 _atom_site_label
 _atom_site_symmetry_multiplicity
 _atom_site_fract_x
 _atom_site_fract_y
 _atom_site_fract_z
 _atom_site_occupancy
  Li  Li0  1  0.01822415  0.97029237  0.01145130  1
  Li  Li1  1  0.74813797  0.15688069  0.35375299  1
  Li  Li2  1  0.48849676  0.50089695  0.52319876  1
  Li  Li3  1  0.22658317  0.88014560  0.64441878  1
  Li  Li4  1  0.66169275  0.21745486  0.88331912  1
  Li  Li5  1  0.86570505  0.64968479  0.21972120  1
  V  V6  1  0.84672941  0.85039321  0.84228229  1
  Sb  Sb7  1  0.15521110  0.16423369  0.14957849  1
  Sb  Sb8  1  0.34898722  0.36592253  0.34780849  1
  Sb  Sb9  1  0.65729479  0.65965337  0.65266296  1
  P  P10  1  0.06935912  0.74713321  0.42541380  1
  P  P11  1  0.42461213  0.06943229  0.75093068  1
  P  P12  1  0.74730303  0.43517159  0.05999401  1
  P  P13  1  0.25049322  0.58183132  0.92041506  1
  P  P14  1  0.59723306  0.93120179  0.25682485  1
  P  P15  1  0.90868275  0.24818691  0.56856137  1
  O  O16  1  0.07995175  0.29605077  0.50774979  1
  O  O17  1  0.30311027  0.56582361  0.07682174  1
  O  O18  1  0.08186786  0.91116514  0.25052548  1
  O  O19  1  0.61788333  0.05421213  0.32691538  1
  O  O20  1  0.25998574  0.60192688  0.41718709  1
  O  O21  1  0.01378787  0.80263897  0.59547217  1
  O  O22  1  0.25594901  0.08409383  0.92022703  1
  O  O23  1  0.42407123  0.25863363  0.60568069  1
  O  O24  1  0.60751387  0.42356392  0.25238464  1
  O  O25  1  0.20598732  0.41903663  0.93934042  1
  O  O26  1  0.08670277  0.75754183  0.90140407  1
  O  O27  1  0.41943327  0.99649459  0.21866883  1
  O  O28  1  0.59929558  0.99812027  0.80590941  1
  O  O29  1  0.90676557  0.25936930  0.08148714  1
  O  O30  1  0.80389477  0.60707347  0.99818853  1
  O  O31  1  0.39876626  0.61725618  0.73051944  1
  O  O32  1  0.61770260  0.73207991  0.39466366  1
  O  O33  1  0.76056258  0.91024884  0.08347452  1
  O  O34  1  0.89181228  0.19575818  0.42920241  1
  O  O35  1  0.72953396  0.40284986  0.61573269  1
  O  O36  1  0.40813172  0.94164882  0.68016615  1
  O  O37  1  0.90334929  0.08891148  0.75100836  1
  O  O38  1  0.67042268  0.42992620  0.93038815  1
  O  O39  1  0.93877371  0.66605739  0.42755005  1
