# generated using pymatgen
data_Li2FePO5
_symmetry_space_group_name_H-M   'P 1'
_cell_length_a   9.07458637
_cell_length_b   4.51919179
_cell_length_c   9.18727840
_cell_angle_alpha   90.00000000
_cell_angle_beta   90.00000000
_cell_angle_gamma   90.00000000
_symmetry_Int_Tables_number   1
_chemical_formula_structural   Li2FePO5
_chemical_formula_sum   'Li8 Fe4 P4 O20'
_cell_volume   376.76841501
_cell_formula_units_Z   4
loop_
 _symmetry_equiv_pos_site_id
 _symmetry_equiv_pos_as_xyz
  1  'x, y, z'
loop_
 _atom_site_type_symbol
 _atom_site_label
 _atom_site_symmetry_multiplicity
 _atom_site_fract_x
 _atom_site_fract_y
 _atom_site_fract_z
 _atom_site_occupancy
  Li  Li0  1  0.00000000  0.58681969  0.00125509  1
  Li  Li1  1  0.00000000  0.41318031  0.50125509  1
  Li  Li2  1  0.25369406  0.00702912  0.00170655  1
  Li  Li3  1  0.25369406  0.99297088  0.50170655  1
  Li  Li4  1  0.50000000  0.00654932  0.26012150  1
  Li  Li5  1  0.50000000  0.99345068  0.76012150  1
  Li  Li6  1  0.74630594  0.00702912  0.00170655  1
  Li  Li7  1  0.74630594  0.99297088  0.50170655  1
  Fe  Fe8  1  0.00000000  0.96679326  0.28433925  1
  Fe  Fe9  1  0.00000000  0.03320674  0.78433925  1
  Fe  Fe10  1  0.50000000  0.44748924  0.99709798  1
  Fe  Fe11  1  0.50000000  0.55251076  0.49709798  1
  P  P12  1  0.24853235  0.50217379  0.24787893  1
  P  P13  1  0.24853235  0.49782621  0.74787893  1
  P  P14  1  0.75146765  0.50217379  0.24787893  1
  P  P15  1  0.75146765  0.49782621  0.74787893  1
  O  O16  1  0.00000000  0.83175850  0.46937615  1
  O  O17  1  0.00000000  0.16824150  0.96937615  1
  O  O18  1  0.15035577  0.72160141  0.16081899  1
  O  O19  1  0.15035577  0.27839859  0.66081899  1
  O  O20  1  0.15469081  0.28348055  0.33851979  1
  O  O21  1  0.15469081  0.71651945  0.83851979  1
  O  O22  1  0.34573371  0.31173447  0.14503419  1
  O  O23  1  0.34573371  0.68826553  0.64503419  1
  O  O24  1  0.34754697  0.69442794  0.34804332  1
  O  O25  1  0.34754697  0.30557206  0.84804332  1
  O  O26  1  0.50000000  0.15302954  0.49286752  1
  O  O27  1  0.50000000  0.84697046  0.99286752  1
  O  O28  1  0.65245303  0.30557206  0.84804332  1
  O  O29  1  0.65245303  0.69442794  0.34804332  1
  O  O30  1  0.65426629  0.31173447  0.14503419  1
  O  O31  1  0.65426629  0.68826553  0.64503419  1
  O  O32  1  0.84530919  0.28348055  0.33851979  1
  O  O33  1  0.84530919  0.71651945  0.83851979  1
  O  O34  1  0.84964423  0.27839859  0.66081899  1
  O  O35  1  0.84964423  0.72160141  0.16081899  1
