# generated using pymatgen
data_Li2CrSiO5
_symmetry_space_group_name_H-M   'P 1'
_cell_length_a   13.11334378
_cell_length_b   5.03768541
_cell_length_c   12.48266538
_cell_angle_alpha   90.00000000
_cell_angle_beta   61.21846773
_cell_angle_gamma   90.00000000
_symmetry_Int_Tables_number   1
_chemical_formula_structural   Li2CrSiO5
_chemical_formula_sum   'Li16 Cr8 Si8 O40'
_cell_volume   722.74462100
_cell_formula_units_Z   8
loop_
 _symmetry_equiv_pos_site_id
 _symmetry_equiv_pos_as_xyz
  1  'x, y, z'
loop_
 _atom_site_type_symbol
 _atom_site_label
 _atom_site_symmetry_multiplicity
 _atom_site_fract_x
 _atom_site_fract_y
 _atom_site_fract_z
 _atom_site_occupancy
  Li  Li0  1  0.32047735  0.76113601  0.82396664  1
  Li  Li1  1  0.09221031  0.77803258  0.56310421  1
  Li  Li2  1  0.18332341  0.21220705  0.64161302  1
  Li  Li3  1  0.59166470  0.72524560  0.84539606  1
  Li  Li4  1  0.40833530  0.22524560  0.65460394  1
  Li  Li5  1  0.81667659  0.71220705  0.85838698  1
  Li  Li6  1  0.32047735  0.73886399  0.32396664  1
  Li  Li7  1  0.09221031  0.72196742  0.06310421  1
  Li  Li8  1  0.90778969  0.27803258  0.93689579  1
  Li  Li9  1  0.67952265  0.26113601  0.67603336  1
  Li  Li10  1  0.18332341  0.28779295  0.14161302  1
  Li  Li11  1  0.59166470  0.77475440  0.34539606  1
  Li  Li12  1  0.40833530  0.27475440  0.15460394  1
  Li  Li13  1  0.81667659  0.78779295  0.35838698  1
  Li  Li14  1  0.90778969  0.22196742  0.43689579  1
  Li  Li15  1  0.67952265  0.23886399  0.17603336  1
  Cr  Cr16  1  0.06075866  0.72927733  0.80632603  1
  Cr  Cr17  1  0.43749919  0.26986344  0.86779891  1
  Cr  Cr18  1  0.06075866  0.77072267  0.30632603  1
  Cr  Cr19  1  0.56250081  0.76986344  0.63220109  1
  Cr  Cr20  1  0.43749919  0.23013656  0.36779891  1
  Cr  Cr21  1  0.93924134  0.22927733  0.69367397  1
  Cr  Cr22  1  0.56250081  0.73013656  0.13220109  1
  Cr  Cr23  1  0.93924134  0.27072267  0.19367397  1
  Si  Si24  1  0.16007928  0.21201816  0.90468068  1
  Si  Si25  1  0.66231126  0.22025013  0.93203720  1
  Si  Si26  1  0.16007928  0.28798184  0.40468068  1
  Si  Si27  1  0.33768874  0.72025013  0.56796280  1
  Si  Si28  1  0.66231126  0.27974987  0.43203720  1
  Si  Si29  1  0.83992072  0.71201816  0.59531932  1
  Si  Si30  1  0.33768874  0.77974987  0.06796280  1
  Si  Si31  1  0.83992072  0.78798184  0.09531932  1
  O  O32  1  0.99495358  0.04641167  0.79257931  1
  O  O33  1  0.13231242  0.89136112  0.90271706  1
  O  O34  1  0.12424964  0.38223593  0.81508423  1
  O  O35  1  0.38180131  0.61885286  0.93859634  1
  O  O36  1  0.30111254  0.23258174  0.84197379  1
  O  O37  1  0.09551855  0.16466734  0.54348312  1
  O  O38  1  0.20022025  0.80505118  0.64644469  1
  O  O39  1  0.64468599  0.89686543  0.96029092  1
  O  O40  1  0.50028044  0.95301289  0.78896436  1
  O  O41  1  0.99495358  0.45358833  0.29257931  1
  O  O42  1  0.59404770  0.32754006  0.85992691  1
  O  O43  1  0.13231242  0.60863888  0.40271706  1
  O  O44  1  0.40595230  0.82754006  0.64007309  1
  O  O45  1  0.12424964  0.11776407  0.31508423  1
  O  O46  1  0.49971956  0.45301289  0.71103564  1
  O  O47  1  0.35531401  0.39686543  0.53970908  1
  O  O48  1  0.38180131  0.88114714  0.43859634  1
  O  O49  1  0.30111254  0.26741826  0.34197379  1
  O  O50  1  0.79977975  0.30505118  0.85355531  1
  O  O51  1  0.90448145  0.66466734  0.95651688  1
  O  O52  1  0.09551855  0.33533266  0.04348312  1
  O  O53  1  0.20022025  0.69494882  0.14644469  1
  O  O54  1  0.69888746  0.73258174  0.65802621  1
  O  O55  1  0.61819869  0.11885286  0.56140366  1
  O  O56  1  0.64468599  0.60313457  0.46029092  1
  O  O57  1  0.50028044  0.54698711  0.28896436  1
  O  O58  1  0.87575036  0.88223593  0.68491577  1
  O  O59  1  0.59404770  0.17245994  0.35992691  1
  O  O60  1  0.86768758  0.39136112  0.59728294  1
  O  O61  1  0.40595230  0.67245994  0.14007309  1
  O  O62  1  0.00504642  0.54641167  0.70742069  1
  O  O63  1  0.49971956  0.04698711  0.21103564  1
  O  O64  1  0.35531401  0.10313457  0.03970908  1
  O  O65  1  0.79977975  0.19494882  0.35355531  1
  O  O66  1  0.90448145  0.83533266  0.45651688  1
  O  O67  1  0.69888746  0.76741826  0.15802621  1
  O  O68  1  0.61819869  0.38114714  0.06140366  1
  O  O69  1  0.87575036  0.61776407  0.18491577  1
  O  O70  1  0.86768758  0.10863888  0.09728294  1
  O  O71  1  0.00504642  0.95358833  0.20742069  1
