# generated using pymatgen
data_LiCo2(PO4)3
_symmetry_space_group_name_H-M   'P 1'
_cell_length_a   8.70159262
_cell_length_b   12.02927858
_cell_length_c   8.76691000
_cell_angle_alpha   90.00000000
_cell_angle_beta   90.00000000
_cell_angle_gamma   90.29293774
_symmetry_Int_Tables_number   1
_chemical_formula_structural   LiCo2(PO4)3
_chemical_formula_sum   'Li4 Co8 P12 O48'
_cell_volume   917.65450664
_cell_formula_units_Z   4
loop_
 _symmetry_equiv_pos_site_id
 _symmetry_equiv_pos_as_xyz
  1  'x, y, z'
loop_
 _atom_site_type_symbol
 _atom_site_label
 _atom_site_symmetry_multiplicity
 _atom_site_fract_x
 _atom_site_fract_y
 _atom_site_fract_z
 _atom_site_occupancy
  Li  Li0  1  0.58436597  0.25389520  0.78932613  1
  Li  Li1  1  0.71185083  0.68139837  0.72776615  1
  Li  Li2  1  0.78814917  0.81860163  0.22776615  1
  Li  Li3  1  0.91563403  0.24610480  0.28932613  1
  Co  Co4  1  0.24822321  0.11914395  0.46096038  1
  Co  Co5  1  0.24842556  0.87719199  0.03779604  1
  Co  Co6  1  0.25157444  0.62280801  0.53779604  1
  Co  Co7  1  0.25177679  0.38085605  0.96096038  1
  Co  Co8  1  0.75029159  0.61085278  0.04489679  1
  Co  Co9  1  0.74110969  0.38659583  0.46490095  1
  Co  Co10  1  0.75889031  0.11340417  0.96490095  1
  Co  Co11  1  0.74970841  0.88914722  0.54489679  1
  P  P12  1  0.03636817  0.49595974  0.24978713  1
  P  P13  1  0.10405109  0.85509422  0.38787937  1
  P  P14  1  0.11067913  0.14482163  0.10561317  1
  P  P15  1  0.38932087  0.35517837  0.60561317  1
  P  P16  1  0.39594891  0.64490578  0.88787937  1
  P  P17  1  0.46363183  0.00404026  0.74978713  1
  P  P18  1  0.53479381  0.99851536  0.25018402  1
  P  P19  1  0.60569280  0.35235442  0.11289592  1
  P  P20  1  0.60350904  0.64879094  0.39608217  1
  P  P21  1  0.89649096  0.85120906  0.89608217  1
  P  P22  1  0.89430720  0.14764558  0.61289592  1
  P  P23  1  0.96520619  0.50148464  0.75018402  1
  O  O24  1  0.05874445  0.42418109  0.85149133  1
  O  O25  1  0.07012505  0.58439664  0.66253321  1
  O  O26  1  0.07399673  0.84738688  0.90231817  1
  O  O27  1  0.07006054  0.15678413  0.59798052  1
  O  O28  1  0.12768020  0.56789317  0.36380319  1
  O  O29  1  0.14302029  0.82626450  0.22057759  1
  O  O30  1  0.15130374  0.43413915  0.14742079  1
  O  O31  1  0.15748356  0.97320484  0.42692971  1
  O  O32  1  0.16423057  0.02870032  0.06417270  1
  O  O33  1  0.14288046  0.17680483  0.27419008  1
  O  O34  1  0.17987853  0.23045368  0.99291624  1
  O  O35  1  0.17871306  0.77235792  0.50031353  1
  O  O36  1  0.32128694  0.72764208  0.00031353  1
  O  O37  1  0.32012147  0.26954632  0.49291624  1
  O  O38  1  0.35711954  0.32319517  0.77419008  1
  O  O39  1  0.33576943  0.47129968  0.56417270  1
  O  O40  1  0.34251644  0.52679516  0.92692971  1
  O  O41  1  0.34869626  0.06586085  0.64742079  1
  O  O42  1  0.35697971  0.67373550  0.72057759  1
  O  O43  1  0.37231980  0.93210683  0.86380319  1
  O  O44  1  0.42993946  0.34321587  0.09798052  1
  O  O45  1  0.42600327  0.65261312  0.40231817  1
  O  O46  1  0.42987495  0.91560336  0.16253321  1
  O  O47  1  0.44125555  0.07581891  0.35149133  1
  O  O48  1  0.55753498  0.92322296  0.65074704  1
  O  O49  1  0.56421956  0.09194035  0.82969361  1
  O  O50  1  0.56822280  0.34136152  0.59709228  1
  O  O51  1  0.57249775  0.65697125  0.90496473  1
  O  O52  1  0.62609401  0.06911383  0.13316167  1
  O  O53  1  0.65808683  0.31947636  0.27479538  1
  O  O54  1  0.65449914  0.92789852  0.33785354  1
  O  O55  1  0.65953428  0.47294611  0.07824451  1
  O  O56  1  0.65943966  0.53083944  0.43619705  1
  O  O57  1  0.66081333  0.68306434  0.23651426  1
  O  O58  1  0.66989121  0.72963570  0.51851306  1
  O  O59  1  0.67531074  0.27410958  0.99058657  1
  O  O60  1  0.82468926  0.22589042  0.49058657  1
  O  O61  1  0.83010879  0.77036430  0.01851306  1
  O  O62  1  0.83918667  0.81693566  0.73651426  1
  O  O63  1  0.84056034  0.96916056  0.93619705  1
  O  O64  1  0.84046572  0.02705389  0.57824451  1
  O  O65  1  0.84550086  0.57210148  0.83785354  1
  O  O66  1  0.84191317  0.18052364  0.77479538  1
  O  O67  1  0.87390599  0.43088617  0.63316167  1
  O  O68  1  0.92750225  0.84302875  0.40496473  1
  O  O69  1  0.93177720  0.15863848  0.09709228  1
  O  O70  1  0.93578044  0.40805965  0.32969361  1
  O  O71  1  0.94246502  0.57677704  0.15074704  1
