# generated using pymatgen
data_Li2CrSi4O11
_symmetry_space_group_name_H-M   'P 1'
_cell_length_a   7.18642640
_cell_length_b   7.18642640
_cell_length_c   8.21263217
_cell_angle_alpha   81.12351535
_cell_angle_beta   98.87648465
_cell_angle_gamma   96.62268248
_symmetry_Int_Tables_number   1
_chemical_formula_structural   Li2CrSi4O11
_chemical_formula_sum   'Li4 Cr2 Si8 O22'
_cell_volume   412.21674008
_cell_formula_units_Z   2
loop_
 _symmetry_equiv_pos_site_id
 _symmetry_equiv_pos_as_xyz
  1  'x, y, z'
loop_
 _atom_site_type_symbol
 _atom_site_label
 _atom_site_symmetry_multiplicity
 _atom_site_fract_x
 _atom_site_fract_y
 _atom_site_fract_z
 _atom_site_occupancy
  Li  Li0  1  0.07795607  0.07795607  0.75000000  1
  Li  Li1  1  0.34942049  0.34942049  0.75000000  1
  Li  Li2  1  0.65057951  0.65057951  0.25000000  1
  Li  Li3  1  0.92204393  0.92204393  0.25000000  1
  Cr  Cr4  1  0.00000000  0.50000000  0.50000000  1
  Cr  Cr5  1  0.50000000  0.00000000  0.00000000  1
  Si  Si6  1  0.34239683  0.77601580  0.66199314  1
  Si  Si7  1  0.22398420  0.65760317  0.16199314  1
  Si  Si8  1  0.74789252  0.83898386  0.56327046  1
  Si  Si9  1  0.83898386  0.74789252  0.93672954  1
  Si  Si10  1  0.16101614  0.25210748  0.06327046  1
  Si  Si11  1  0.25210748  0.16101614  0.43672954  1
  Si  Si12  1  0.77601580  0.34239683  0.83800686  1
  Si  Si13  1  0.65760317  0.22398420  0.33800686  1
  O  O14  1  0.24417529  0.94532622  0.53356338  1
  O  O15  1  0.39391933  0.84714000  0.84150996  1
  O  O16  1  0.05467378  0.75582471  0.03356338  1
  O  O17  1  0.15286000  0.60608067  0.34150996  1
  O  O18  1  0.19883186  0.58457404  0.67618395  1
  O  O19  1  0.41542596  0.80116814  0.17618395  1
  O  O20  1  0.53631025  0.73958484  0.59001571  1
  O  O21  1  0.14942250  0.26903975  0.55218170  1
  O  O22  1  0.26041516  0.46368975  0.09001571  1
  O  O23  1  0.86649682  0.86649682  0.75000000  1
  O  O24  1  0.26903975  0.14942250  0.94781830  1
  O  O25  1  0.73096025  0.85057750  0.05218170  1
  O  O26  1  0.13350318  0.13350318  0.25000000  1
  O  O27  1  0.73958484  0.53631025  0.90998429  1
  O  O28  1  0.85057750  0.73096025  0.44781830  1
  O  O29  1  0.46368975  0.26041516  0.40998429  1
  O  O30  1  0.58457404  0.19883186  0.82381605  1
  O  O31  1  0.80116814  0.41542596  0.32381605  1
  O  O32  1  0.84714000  0.39391933  0.65849004  1
  O  O33  1  0.94532622  0.24417529  0.96643662  1
  O  O34  1  0.60608067  0.15286000  0.15849004  1
  O  O35  1  0.75582471  0.05467378  0.46643662  1
