# generated using pymatgen
data_Li4La3Nb12O36
_symmetry_space_group_name_H-M   'P 1'
_cell_length_a   7.97058229
_cell_length_b   9.80564180
_cell_length_c   11.30989401
_cell_angle_alpha   72.87821253
_cell_angle_beta   90.00000000
_cell_angle_gamma   66.01933195
_symmetry_Int_Tables_number   1
_chemical_formula_structural   Li4La3Nb12O36
_chemical_formula_sum   'Li4 La3 Nb12 O36'
_cell_volume   764.56910055
_cell_formula_units_Z   1
loop_
 _symmetry_equiv_pos_site_id
 _symmetry_equiv_pos_as_xyz
  1  'x, y, z'
loop_
 _atom_site_type_symbol
 _atom_site_label
 _atom_site_symmetry_multiplicity
 _atom_site_fract_x
 _atom_site_fract_y
 _atom_site_fract_z
 _atom_site_occupancy
  Li  Li0  1  0.83333300  0.33333300  0.66666700  1
  Li  Li1  1  0.16698646  0.66602708  0.33397353  1
  Li  Li2  1  0.33333300  0.33333300  0.16666700  1
  Li  Li3  1  0.49968054  0.00063892  0.99935947  1
  La  La4  1  0.33333300  0.33333300  0.66666700  1
  La  La5  1  0.00008853  0.99982294  0.99893593  1
  La  La6  1  0.66657847  0.66684406  0.33439807  1
  Nb  Nb7  1  0.58236152  0.33735971  0.91717020  1
  Nb  Nb8  1  0.08027877  0.33735971  0.91717020  1
  Nb  Nb9  1  0.08430548  0.32930729  0.41616380  1
  Nb  Nb10  1  0.24717354  0.00322361  0.25302607  1
  Nb  Nb11  1  0.75253665  0.99456936  0.74736341  1
  Nb  Nb12  1  0.41377201  0.67209764  0.58596959  1
  Nb  Nb13  1  0.25289399  0.99456936  0.74736341  1
  Nb  Nb14  1  0.58638823  0.32930729  0.41616380  1
  Nb  Nb15  1  0.74960284  0.00322361  0.25302607  1
  Nb  Nb16  1  0.91413035  0.67209764  0.58596959  1
  Nb  Nb17  1  0.41949346  0.66344339  0.08030793  1
  Nb  Nb18  1  0.91706316  0.66344339  0.08030793  1
  O  O19  1  0.16713304  0.16682730  0.83420706  1
  O  O20  1  0.49005301  0.01989399  0.75432851  1
  O  O21  1  0.84266987  0.31466126  0.91330189  1
  O  O22  1  0.99368714  0.01262572  0.76226376  1
  O  O23  1  0.33878427  0.32243246  0.90851762  1
  O  O24  1  0.66603965  0.16682730  0.83420706  1
  O  O25  1  0.16447746  0.18202737  0.59164625  1
  O  O26  1  0.31950744  0.84935066  0.92439350  1
  O  O27  1  0.83114290  0.84935066  0.92439350  1
  O  O28  1  0.50218954  0.48463963  0.74168675  1
  O  O29  1  0.65349616  0.18202737  0.59164625  1
  O  O30  1  0.01317084  0.48463963  0.74168675  1
  O  O31  1  0.17319655  0.17281185  0.32716402  1
  O  O32  1  0.33333300  0.83333300  0.66666700  1
  O  O33  1  0.83333300  0.83333300  0.66666700  1
  O  O34  1  0.65399159  0.17281185  0.32716402  1
  O  O35  1  0.32788273  0.34423454  0.42481538  1
  O  O36  1  0.82399713  0.35200574  0.42003111  1
  O  O37  1  0.00062735  0.49983870  0.49912594  1
  O  O38  1  0.67297986  0.65404028  0.57107024  1
  O  O39  1  0.49953396  0.49983870  0.49912594  1
  O  O40  1  0.17661299  0.64677301  0.57900449  1
  O  O41  1  0.34715956  0.81731634  0.40893950  1
  O  O42  1  0.49541712  0.51335505  0.25641957  1
  O  O43  1  0.67543816  0.15331195  0.07691443  1
  O  O44  1  0.99122884  0.51335505  0.25641957  1
  O  O45  1  0.83552410  0.81731634  0.40893950  1
  O  O46  1  0.17124988  0.15331195  0.07691443  1
  O  O47  1  0.49347045  0.49385415  0.00616998  1
  O  O48  1  0.01267541  0.49385415  0.00616998  1
  O  O49  1  0.66106401  0.67787299  0.09469257  1
  O  O50  1  0.15910961  0.68177979  0.08838307  1
  O  O51  1  0.33333300  0.83333300  0.16666700  1
  O  O52  1  0.50755639  0.98488621  0.24494993  1
  O  O53  1  0.83333300  0.83333300  0.16666700  1
  O  O54  1  0.00560299  0.98879401  0.23864043  1
