# generated using pymatgen
data_LiNiPO4
_symmetry_space_group_name_H-M   'P 1'
_cell_length_a   9.90099397
_cell_length_b   9.90099346
_cell_length_c   22.58012939
_cell_angle_alpha   90.00000000
_cell_angle_beta   90.00000000
_cell_angle_gamma   119.99999710
_symmetry_Int_Tables_number   1
_chemical_formula_structural   LiNiPO4
_chemical_formula_sum   'Li24 Ni24 P24 O96'
_cell_volume   1916.96701581
_cell_formula_units_Z   24
loop_
 _symmetry_equiv_pos_site_id
 _symmetry_equiv_pos_as_xyz
  1  'x, y, z'
loop_
 _atom_site_type_symbol
 _atom_site_label
 _atom_site_symmetry_multiplicity
 _atom_site_fract_x
 _atom_site_fract_y
 _atom_site_fract_z
 _atom_site_occupancy
  Li  Li0  1  0.04106309  0.94193460  0.41325929  1
  Li  Li1  1  0.07420011  0.58186307  0.91333153  1
  Li  Li2  1  0.06382477  0.51838054  0.25456322  1
  Li  Li3  1  0.00503784  0.46657918  0.58781631  1
  Li  Li4  1  0.46154134  0.99496216  0.92114931  1
  Li  Li5  1  0.45455677  0.93617523  0.58789622  1
  Li  Li6  1  0.05806540  0.09912750  0.07992629  1
  Li  Li7  1  0.50766296  0.92579989  0.24666553  1
  Li  Li8  1  0.09912750  0.04106309  0.24659329  1
  Li  Li9  1  0.41813693  0.49233704  0.57999853  1
  Li  Li10  1  0.48161946  0.54544323  0.92122922  1
  Li  Li11  1  0.53342082  0.53845866  0.25448331  1
  Li  Li12  1  0.46657918  0.46154134  0.75448331  1
  Li  Li13  1  0.51838054  0.45455677  0.42122922  1
  Li  Li14  1  0.58186307  0.50766296  0.07999853  1
  Li  Li15  1  0.90087250  0.95893691  0.74659329  1
  Li  Li16  1  0.49233704  0.07420011  0.74666553  1
  Li  Li17  1  0.94193460  0.90087250  0.57992629  1
  Li  Li18  1  0.54544323  0.06382477  0.08789622  1
  Li  Li19  1  0.53845866  0.00503784  0.42114931  1
  Li  Li20  1  0.99496216  0.53342082  0.08781631  1
  Li  Li21  1  0.93617523  0.48161946  0.75456322  1
  Li  Li22  1  0.92579989  0.41813693  0.41333153  1
  Li  Li23  1  0.95893691  0.05806540  0.91325929  1
  Ni  Ni24  1  0.14549171  0.83074904  0.67899101  1
  Ni  Ni25  1  0.19203533  0.89645473  0.01349599  1
  Ni  Ni26  1  0.18037269  0.77815393  0.37844416  1
  Ni  Ni27  1  0.10354527  0.29558060  0.68016299  1
  Ni  Ni28  1  0.34593869  0.69987999  0.81658498  1
  Ni  Ni29  1  0.30012001  0.64605870  0.48325098  1
  Ni  Ni30  1  0.35394130  0.65406131  0.14991798  1
  Ni  Ni31  1  0.16925096  0.31474267  0.34565701  1
  Ni  Ni32  1  0.22184607  0.40221875  0.04511116  1
  Ni  Ni33  1  0.59778125  0.81962731  0.71177816  1
  Ni  Ni34  1  0.29558060  0.19203533  0.84682899  1
  Ni  Ni35  1  0.31474267  0.14549171  0.51232401  1
  Ni  Ni36  1  0.68525733  0.85450829  0.01232401  1
  Ni  Ni37  1  0.70441940  0.80796467  0.34682899  1
  Ni  Ni38  1  0.40221875  0.18037269  0.21177816  1
  Ni  Ni39  1  0.77815393  0.59778125  0.54511116  1
  Ni  Ni40  1  0.83074904  0.68525733  0.84565701  1
  Ni  Ni41  1  0.64605870  0.34593869  0.64991798  1
  Ni  Ni42  1  0.69987999  0.35394130  0.98325198  1
  Ni  Ni43  1  0.65406131  0.30012001  0.31658498  1
  Ni  Ni44  1  0.89645473  0.70441940  0.18016299  1
  Ni  Ni45  1  0.81962731  0.22184607  0.87844416  1
  Ni  Ni46  1  0.80796467  0.10354527  0.51349599  1
  Ni  Ni47  1  0.85450829  0.16925096  0.17899101  1
  P  P48  1  0.17171467  0.85511624  0.81320920  1
  P  P49  1  0.12581608  0.77992874  0.51221605  1
  P  P50  1  0.23287787  0.87579024  0.14669518  1
  P  P51  1  0.12420976  0.35708764  0.81336118  1
  P  P52  1  0.32221476  0.68675421  0.00724499  1
  P  P53  1  0.14488376  0.31659843  0.47987520  1
  P  P54  1  0.31324579  0.63545956  0.67391199  1
  P  P55  1  0.36454044  0.67778524  0.34057899  1
  P  P56  1  0.22007126  0.34588734  0.17888305  1
  P  P57  1  0.65411266  0.87418392  0.84554905  1
  P  P58  1  0.35708764  0.23287787  0.98002818  1
  P  P59  1  0.31659843  0.17171467  0.64654220  1
  P  P60  1  0.68340157  0.82828533  0.14654220  1
  P  P61  1  0.64291236  0.76712213  0.48002818  1
  P  P62  1  0.34588734  0.12581608  0.34554905  1
  P  P63  1  0.77992874  0.65411266  0.67888305  1
  P  P64  1  0.63545956  0.32221476  0.84057899  1
  P  P65  1  0.68675421  0.36454044  0.17391199  1
  P  P66  1  0.85511624  0.68340157  0.97987520  1
  P  P67  1  0.67778524  0.31324579  0.50724499  1
  P  P68  1  0.87579024  0.64291236  0.31336118  1
  P  P69  1  0.76712213  0.12420976  0.64669518  1
  P  P70  1  0.87418392  0.22007126  0.01221605  1
  P  P71  1  0.82828533  0.14488376  0.31320920  1
  O  O72  1  0.01283317  0.70395549  0.80102626  1
  O  O73  1  0.13543443  0.97898413  0.83757371  1
  O  O74  1  0.00691134  0.68772216  0.56195305  1
  O  O75  1  0.12250735  0.93305718  0.49986407  1
  O  O76  1  0.20526422  0.99182130  0.18401495  1
  O  O77  1  0.07345843  0.72785999  0.13400622  1
  O  O78  1  0.08118498  0.67675344  0.45530657  1
  O  O79  1  0.26259680  0.90604939  0.75352355  1
  O  O80  1  0.31042147  0.95124341  0.08680589  1
  O  O81  1  0.16221879  0.64323403  0.67297098  1
  O  O82  1  0.19985541  0.71743674  0.97766248  1
  O  O83  1  0.27676979  0.83059342  0.85810684  1
  O  O84  1  0.21969869  0.66976045  0.31093274  1
  O  O85  1  0.29059469  0.81289525  0.52984415  1
  O  O86  1  0.04875659  0.35917806  0.75347289  1
  O  O87  1  0.34444981  0.83669781  0.18094844  1
  O  O88  1  0.16330219  0.50775101  0.84761544  1
  O  O89  1  0.00817870  0.21344291  0.85068195  1
  O  O90  1  0.09395061  0.35654741  0.42019055  1
  O  O91  1  0.02101587  0.15645029  0.50424071  1
  O  O92  1  0.25478654  0.62023266  0.07084821  1
  O  O93  1  0.06694282  0.18945017  0.16653107  1
  O  O94  1  0.16940658  0.44617637  0.52477384  1
  O  O95  1  0.18710475  0.47769944  0.19651115  1
  O  O96  1  0.36544712  0.74521346  0.40418121  1
  O  O97  1  0.28256326  0.48241867  0.64432948  1
  O  O98  1  0.37976734  0.63455288  0.73751421  1
  O  O99  1  0.33023955  0.54993823  0.97759974  1
  O  O100  1  0.45006177  0.78030131  0.64426574  1
  O  O101  1  0.48101425  0.83778121  0.00630398  1
  O  O102  1  0.35676597  0.51898575  0.33963798  1
  O  O103  1  0.15645029  0.13543443  0.67090771  1
  O  O104  1  0.21344291  0.20526422  0.01734795  1
  O  O105  1  0.27214001  0.34559844  0.80067322  1
  O  O106  1  0.32324656  0.40443054  0.12197257  1
  O  O107  1  0.51758133  0.80014459  0.31099548  1
  O  O108  1  0.18945017  0.12250735  0.33319707  1
  O  O109  1  0.29604451  0.30887768  0.46769326  1
  O  O110  1  0.31227784  0.31918918  0.22862005  1
  O  O111  1  0.52230056  0.70940531  0.86317815  1
  O  O112  1  0.59556946  0.91881502  0.78863957  1
  O  O113  1  0.55382363  0.72323021  0.19143984  1
  O  O114  1  0.35917806  0.31042147  0.92013989  1
  O  O115  1  0.68081082  0.99308866  0.89528705  1
  O  O116  1  0.49224899  0.65555019  0.51428244  1
  O  O117  1  0.35654741  0.26259680  0.58685655  1
  O  O118  1  0.65440156  0.92654157  0.46733922  1
  O  O119  1  0.69112232  0.98716683  0.13435926  1
  O  O120  1  0.30887768  0.01283317  0.63435926  1
  O  O121  1  0.34559844  0.07345843  0.96733922  1
  O  O122  1  0.64345259  0.73740320  0.08685655  1
  O  O123  1  0.50775101  0.34444981  0.01428244  1
  O  O124  1  0.31918918  0.00691134  0.39528705  1
  O  O125  1  0.64082194  0.68957853  0.42013989  1
  O  O126  1  0.44617637  0.27676979  0.69143984  1
  O  O127  1  0.40443054  0.08118498  0.28863957  1
  O  O128  1  0.47769944  0.29059469  0.36317815  1
  O  O129  1  0.68772216  0.68081082  0.72862005  1
  O  O130  1  0.70395549  0.69112232  0.96769326  1
  O  O131  1  0.81054983  0.87749265  0.83319707  1
  O  O132  1  0.48241867  0.19985541  0.81099548  1
  O  O133  1  0.67675344  0.59556946  0.62197257  1
  O  O134  1  0.72785999  0.65440156  0.30067322  1
  O  O135  1  0.78655709  0.79473578  0.51734795  1
  O  O136  1  0.84354971  0.86456557  0.17090771  1
  O  O137  1  0.64323403  0.48101425  0.83963798  1
  O  O138  1  0.51898575  0.16221879  0.50630398  1
  O  O139  1  0.54993823  0.21969869  0.14426574  1
  O  O140  1  0.66976045  0.45006177  0.47759974  1
  O  O141  1  0.62023266  0.36544712  0.23751421  1
  O  O142  1  0.71743674  0.51758133  0.14432948  1
  O  O143  1  0.63455288  0.25478654  0.90418121  1
  O  O144  1  0.81289525  0.52230056  0.69651115  1
  O  O145  1  0.83059342  0.55382363  0.02477384  1
  O  O146  1  0.93305718  0.81054983  0.66653107  1
  O  O147  1  0.74521346  0.37976734  0.57084821  1
  O  O148  1  0.97898413  0.84354971  0.00424071  1
  O  O149  1  0.90604939  0.64345259  0.92019055  1
  O  O150  1  0.99182130  0.78655709  0.35068195  1
  O  O151  1  0.83669781  0.49224899  0.34761544  1
  O  O152  1  0.65555019  0.16330219  0.68094844  1
  O  O153  1  0.95124341  0.64082194  0.25347289  1
  O  O154  1  0.70940531  0.18710475  0.02984415  1
  O  O155  1  0.78030131  0.33023955  0.81093274  1
  O  O156  1  0.72323021  0.16940658  0.35810684  1
  O  O157  1  0.80014459  0.28256326  0.47766248  1
  O  O158  1  0.83778121  0.35676597  0.17297098  1
  O  O159  1  0.68957853  0.04875659  0.58680589  1
  O  O160  1  0.73740320  0.09395061  0.25352355  1
  O  O161  1  0.91881502  0.32324656  0.95530657  1
  O  O162  1  0.92654157  0.27214001  0.63400622  1
  O  O163  1  0.79473578  0.00817870  0.68401495  1
  O  O164  1  0.87749265  0.06694282  0.99986407  1
  O  O165  1  0.99308866  0.31227784  0.06195305  1
  O  O166  1  0.86456557  0.02101587  0.33757371  1
  O  O167  1  0.98716683  0.29604451  0.30102626  1
