# generated using pymatgen
data_NbOF3
_symmetry_space_group_name_H-M   'P 1'
_cell_length_a   5.66879313
_cell_length_b   5.66816794
_cell_length_c   9.78158178
_cell_angle_alpha   90.00000000
_cell_angle_beta   90.00000000
_cell_angle_gamma   89.99880587
_symmetry_Int_Tables_number   1
_chemical_formula_structural   NbOF3
_chemical_formula_sum   'Nb4 O4 F12'
_cell_volume   314.29857226
_cell_formula_units_Z   4
loop_
 _symmetry_equiv_pos_site_id
 _symmetry_equiv_pos_as_xyz
  1  'x, y, z'
loop_
 _atom_site_type_symbol
 _atom_site_label
 _atom_site_symmetry_multiplicity
 _atom_site_fract_x
 _atom_site_fract_y
 _atom_site_fract_z
 _atom_site_occupancy
  Nb  Nb0  1  0.10681205  0.41488798  0.49966983  1
  Nb  Nb1  1  0.41477721  0.89318844  0.24962043  1
  Nb  Nb2  1  0.58522279  0.10681156  0.74962043  1
  Nb  Nb3  1  0.89318795  0.58511202  0.99966983  1
  O  O4  1  0.07404867  0.67254988  0.59016860  1
  O  O5  1  0.32733697  0.07403688  0.84021078  1
  O  O6  1  0.67266303  0.92596312  0.34021078  1
  O  O7  1  0.92595133  0.32745012  0.09016860  1
  F  F8  1  0.06285410  0.79788605  0.12739791  1
  F  F9  1  0.15512086  0.57195584  0.88050026  1
  F  F10  1  0.20211463  0.06287011  0.37740125  1
  F  F11  1  0.31033242  0.56883561  0.34354784  1
  F  F12  1  0.42805645  0.15511739  0.13050731  1
  F  F13  1  0.43116321  0.31032875  0.59355480  1
  F  F14  1  0.56883679  0.68967125  0.09355480  1
  F  F15  1  0.57194355  0.84488261  0.63050731  1
  F  F16  1  0.68966758  0.43116439  0.84354784  1
  F  F17  1  0.79788537  0.93712989  0.87740125  1
  F  F18  1  0.84487914  0.42804416  0.38050026  1
  F  F19  1  0.93714590  0.20211395  0.62739791  1
