# generated using pymatgen
data_Li3Mn3SiO8
_symmetry_space_group_name_H-M   'P 1'
_cell_length_a   5.26896713
_cell_length_b   5.65239237
_cell_length_c   5.33352940
_cell_angle_alpha   90.00000648
_cell_angle_beta   67.99755132
_cell_angle_gamma   90.00000311
_symmetry_Int_Tables_number   1
_chemical_formula_structural   Li3Mn3SiO8
_chemical_formula_sum   'Li3 Mn3 Si1 O8'
_cell_volume   147.27561503
_cell_formula_units_Z   1
loop_
 _symmetry_equiv_pos_site_id
 _symmetry_equiv_pos_as_xyz
  1  'x, y, z'
loop_
 _atom_site_type_symbol
 _atom_site_label
 _atom_site_symmetry_multiplicity
 _atom_site_fract_x
 _atom_site_fract_y
 _atom_site_fract_z
 _atom_site_occupancy
  Li  Li0  1  0.00000000  0.50000000  0.00000000  1
  Li  Li1  1  1.00000000  0.24141252  0.50000000  1
  Li  Li2  1  0.00000000  0.75858748  0.50000000  1
  Mn  Mn3  1  0.50000000  0.24866044  0.00000000  1
  Mn  Mn4  1  0.50000000  0.75133956  1.00000000  1
  Mn  Mn5  1  0.50000000  0.50000000  0.50000000  1
  Si  Si6  1  0.50000000  0.00000000  0.50000000  1
  O  O7  1  0.31093339  1.00000000  0.26586690  1
  O  O8  1  0.71796789  0.23446623  0.29995800  1
  O  O9  1  0.26369927  0.50000000  0.21211156  1
  O  O10  1  0.28203211  0.23446623  0.70004200  1
  O  O11  1  0.71796789  0.76553377  0.29995800  1
  O  O12  1  0.68906661  0.00000000  0.73413310  1
  O  O13  1  0.73630073  0.50000000  0.78788844  1
  O  O14  1  0.28203211  0.76553377  0.70004200  1
