# generated using pymatgen
data_LiMnCO4
_symmetry_space_group_name_H-M   'P 1'
_cell_length_a   6.48834948
_cell_length_b   5.30124216
_cell_length_c   10.10423939
_cell_angle_alpha   90.00000000
_cell_angle_beta   100.85133294
_cell_angle_gamma   90.00000000
_symmetry_Int_Tables_number   1
_chemical_formula_structural   LiMnCO4
_chemical_formula_sum   'Li4 Mn4 C4 O16'
_cell_volume   341.33404467
_cell_formula_units_Z   4
loop_
 _symmetry_equiv_pos_site_id
 _symmetry_equiv_pos_as_xyz
  1  'x, y, z'
loop_
 _atom_site_type_symbol
 _atom_site_label
 _atom_site_symmetry_multiplicity
 _atom_site_fract_x
 _atom_site_fract_y
 _atom_site_fract_z
 _atom_site_occupancy
  Li  Li0  1  0.15005667  0.32943630  0.82276445  1
  Li  Li1  1  0.15005667  0.17056370  0.32276445  1
  Li  Li2  1  0.84994333  0.82943630  0.67723555  1
  Li  Li3  1  0.84994333  0.67056370  0.17723555  1
  Mn  Mn4  1  0.41730068  0.62181622  0.64215651  1
  Mn  Mn5  1  0.58269932  0.12181622  0.85784349  1
  Mn  Mn6  1  0.41730068  0.87818378  0.14215651  1
  Mn  Mn7  1  0.58269932  0.37818378  0.35784349  1
  C  C8  1  0.20457020  0.78252355  0.91806919  1
  C  C9  1  0.20457020  0.71747645  0.41806919  1
  C  C10  1  0.79542980  0.28252355  0.58193081  1
  C  C11  1  0.79542980  0.21747645  0.08193081  1
  O  O12  1  0.10076756  0.71662442  0.80545091  1
  O  O13  1  0.10076756  0.78337558  0.30545091  1
  O  O14  1  0.26519999  0.01840618  0.95006187  1
  O  O15  1  0.26519999  0.48159382  0.45006187  1
  O  O16  1  0.26648679  0.87950093  0.51428187  1
  O  O17  1  0.40543836  0.32760676  0.74029879  1
  O  O18  1  0.26648679  0.62049907  0.01428187  1
  O  O19  1  0.40543836  0.17239324  0.24029879  1
  O  O20  1  0.59456164  0.82760676  0.75970121  1
  O  O21  1  0.73351321  0.37950093  0.98571813  1
  O  O22  1  0.59456164  0.67239324  0.25970121  1
  O  O23  1  0.73351321  0.12049907  0.48571813  1
  O  O24  1  0.73480001  0.51840618  0.54993813  1
  O  O25  1  0.73480001  0.98159382  0.04993813  1
  O  O26  1  0.89923244  0.21662442  0.69454909  1
  O  O27  1  0.89923244  0.28337558  0.19454909  1
