# generated using pymatgen
data_Li4Ti3Cu3(WO8)2
_symmetry_space_group_name_H-M   'P 1'
_cell_length_a   6.01431515
_cell_length_b   5.96669762
_cell_length_c   10.03712575
_cell_angle_alpha   90.00421710
_cell_angle_beta   92.17986715
_cell_angle_gamma   119.75559910
_symmetry_Int_Tables_number   1
_chemical_formula_structural   Li4Ti3Cu3(WO8)2
_chemical_formula_sum   'Li4 Ti3 Cu3 W2 O16'
_cell_volume   312.39671651
_cell_formula_units_Z   1
loop_
 _symmetry_equiv_pos_site_id
 _symmetry_equiv_pos_as_xyz
  1  'x, y, z'
loop_
 _atom_site_type_symbol
 _atom_site_label
 _atom_site_symmetry_multiplicity
 _atom_site_fract_x
 _atom_site_fract_y
 _atom_site_fract_z
 _atom_site_occupancy
  Li  Li0  1  0.32991379  0.66489422  0.91061989  1
  Li  Li1  1  0.98499702  0.99256339  0.97553766  1
  Li  Li2  1  0.00125200  0.00052915  0.49014312  1
  Li  Li3  1  0.66395342  0.33201772  0.41493796  1
  Ti  Ti4  1  0.19248711  0.84900222  0.21899153  1
  Ti  Ti5  1  0.19230140  0.34338446  0.21899112  1
  Ti  Ti6  1  0.35623018  0.17806369  0.73440367  1
  Cu  Cu7  1  0.65857709  0.82934142  0.20470785  1
  Cu  Cu8  1  0.83529996  0.66156303  0.69989551  1
  Cu  Cu9  1  0.83503362  0.17352293  0.69990019  1
  W  W10  1  0.33107230  0.66556925  0.49014290  1
  W  W11  1  0.69813965  0.34907076  0.98438727  1
  O  O12  1  0.19631505  0.84033734  0.58502227  1
  O  O13  1  0.04040956  0.52017002  0.33754504  1
  O  O14  1  0.30520450  0.65260906  0.11148250  1
  O  O15  1  0.00737285  0.00370582  0.29909676  1
  O  O16  1  0.00814513  0.00417542  0.78450332  1
  O  O17  1  0.19632800  0.35610159  0.58504061  1
  O  O18  1  0.45737996  0.96245522  0.34865661  1
  O  O19  1  0.45746694  0.49520315  0.34862651  1
  O  O20  1  0.33698438  0.16849444  0.10985617  1
  O  O21  1  0.66009257  0.83034613  0.56378571  1
  O  O22  1  0.48732339  0.45576364  0.86553964  1
  O  O23  1  0.48724326  0.03145031  0.86540292  1
  O  O24  1  0.64130528  0.32065835  0.61743574  1
  O  O25  1  0.84049138  0.66024158  0.08857684  1
  O  O26  1  0.95834245  0.47903854  0.86602253  1
  O  O27  1  0.84033677  0.18002615  0.08858917  1
