# generated using pymatgen
data_LaMg6Zn
_symmetry_space_group_name_H-M   'P 1'
_cell_length_a   6.69694461
_cell_length_b   6.69694401
_cell_length_c   5.07194704
_cell_angle_alpha   90.00000000
_cell_angle_beta   90.00000000
_cell_angle_gamma   119.75512749
_symmetry_Int_Tables_number   1
_chemical_formula_structural   LaMg6Zn
_chemical_formula_sum   'La1 Mg6 Zn1'
_cell_volume   197.48088181
_cell_formula_units_Z   1
loop_
 _symmetry_equiv_pos_site_id
 _symmetry_equiv_pos_as_xyz
  1  'x, y, z'
loop_
 _atom_site_type_symbol
 _atom_site_label
 _atom_site_symmetry_multiplicity
 _atom_site_fract_x
 _atom_site_fract_y
 _atom_site_fract_z
 _atom_site_occupancy
  La  La0  1  0.32613375  0.17386625  0.75000000  1
  Mg  Mg1  1  0.15813090  0.81024562  0.25000000  1
  Mg  Mg2  1  0.68975438  0.34186910  0.25000000  1
  Mg  Mg3  1  0.66824309  0.83175691  0.25000000  1
  Mg  Mg4  1  0.31952005  0.66111773  0.75000000  1
  Mg  Mg5  1  0.83888227  0.18047995  0.75000000  1
  Mg  Mg6  1  0.83672452  0.66327548  0.75000000  1
  Zn  Zn7  1  0.16261104  0.33738896  0.25000000  1
