# generated using pymatgen
data_Mn3Co(PO4)6
_symmetry_space_group_name_H-M   'P 1'
_cell_length_a   8.66309155
_cell_length_b   8.41213021
_cell_length_c   8.41213031
_cell_angle_alpha   60.00000169
_cell_angle_beta   60.95374937
_cell_angle_gamma   60.95375244
_symmetry_Int_Tables_number   1
_chemical_formula_structural   Mn3Co(PO4)6
_chemical_formula_sum   'Mn3 Co1 P6 O24'
_cell_volume   439.62510569
_cell_formula_units_Z   1
loop_
 _symmetry_equiv_pos_site_id
 _symmetry_equiv_pos_as_xyz
  1  'x, y, z'
loop_
 _atom_site_type_symbol
 _atom_site_label
 _atom_site_symmetry_multiplicity
 _atom_site_fract_x
 _atom_site_fract_y
 _atom_site_fract_z
 _atom_site_occupancy
  Mn  Mn0  1  0.06784313  0.64405196  0.64405196  1
  Mn  Mn1  1  0.43146421  0.85617860  0.85617860  1
  Mn  Mn2  1  0.93229327  0.35590224  0.35590224  1
  Co  Co3  1  0.56571142  0.14476286  0.14476286  1
  P  P4  1  0.25093532  0.24975281  0.53270307  1
  P  P5  1  0.25093532  0.96660880  0.24975281  1
  P  P6  1  0.25093532  0.53270307  0.96660880  1
  P  P7  1  0.74867183  0.46448454  0.03457361  1
  P  P8  1  0.74867183  0.03457361  0.75227002  1
  P  P9  1  0.74867183  0.75227002  0.46448454  1
  O  O10  1  0.07358467  0.14110941  0.27338735  1
  O  O11  1  0.07358467  0.51191857  0.14110941  1
  O  O12  1  0.07358467  0.27338735  0.51191857  1
  O  O13  1  0.26629640  0.07221826  0.71827378  1
  O  O14  1  0.23442385  0.42591886  0.55963687  1
  O  O15  1  0.42951963  0.22752362  0.35762651  1
  O  O16  1  0.26629640  0.94321156  0.07221826  1
  O  O17  1  0.23442385  0.78001942  0.42591886  1
  O  O18  1  0.23442385  0.55963687  0.78001942  1
  O  O19  1  0.57267180  0.63984971  0.01246458  1
  O  O20  1  0.73483075  0.27651959  0.05927515  1
  O  O21  1  0.57267180  0.01246458  0.77501392  1
  O  O22  1  0.42951963  0.98533024  0.22752362  1
  O  O23  1  0.26629640  0.71827378  0.94321156  1
  O  O24  1  0.42951963  0.35762651  0.98533024  1
  O  O25  1  0.76435715  0.43994584  0.22055436  1
  O  O26  1  0.76435715  0.22055436  0.57514265  1
  O  O27  1  0.73483075  0.05927515  0.92937551  1
  O  O28  1  0.57267180  0.77501392  0.63984971  1
  O  O29  1  0.76435715  0.57514265  0.43994584  1
  O  O30  1  0.73483075  0.92937551  0.27651959  1
  O  O31  1  0.92560425  0.72670827  0.48757839  1
  O  O32  1  0.92560425  0.48757839  0.86010910  1
  O  O33  1  0.92560425  0.86010910  0.72670827  1
