# generated using pymatgen
data_Li3V7O12
_symmetry_space_group_name_H-M   'P 1'
_cell_length_a   5.22644447
_cell_length_b   5.22644428
_cell_length_c   9.91032552
_cell_angle_alpha   84.48436296
_cell_angle_beta   95.51563264
_cell_angle_gamma   59.71989914
_symmetry_Int_Tables_number   1
_chemical_formula_structural   Li3V7O12
_chemical_formula_sum   'Li3 V7 O12'
_cell_volume   229.37754496
_cell_formula_units_Z   1
loop_
 _symmetry_equiv_pos_site_id
 _symmetry_equiv_pos_as_xyz
  1  'x, y, z'
loop_
 _atom_site_type_symbol
 _atom_site_label
 _atom_site_symmetry_multiplicity
 _atom_site_fract_x
 _atom_site_fract_y
 _atom_site_fract_z
 _atom_site_occupancy
  Li  Li0  1  0.15643875  0.67606347  0.51261988  1
  Li  Li1  1  0.67606347  0.15643875  0.98738012  1
  Li  Li2  1  0.92019392  0.92019392  0.75000000  1
  V  V3  1  0.08466832  0.08466832  0.25000000  1
  V  V4  1  0.99926535  0.51855944  0.98754505  1
  V  V5  1  0.23729913  0.23729913  0.75000000  1
  V  V6  1  0.51855944  0.99926535  0.51245495  1
  V  V7  1  0.42453514  0.42453514  0.25000000  1
  V  V8  1  0.57407084  0.57407084  0.75000000  1
  V  V9  1  0.75136156  0.75136156  0.25000000  1
  O  O10  1  0.14777886  0.37007652  0.36252250  1
  O  O11  1  0.03379962  0.78807373  0.13610462  1
  O  O12  1  0.37007652  0.14777886  0.13747750  1
  O  O13  1  0.28827855  0.50523910  0.86787359  1
  O  O14  1  0.50523910  0.28827855  0.63212641  1
  O  O15  1  0.23817882  0.94486822  0.63336259  1
  O  O16  1  0.44977116  0.73297282  0.36369881  1
  O  O17  1  0.78807373  0.03379962  0.36389538  1
  O  O18  1  0.64235422  0.84667945  0.87170921  1
  O  O19  1  0.73297282  0.44977116  0.13630119  1
  O  O20  1  0.94486822  0.23817882  0.86663741  1
  O  O21  1  0.84667945  0.64235422  0.62829079  1
