# generated using pymatgen
data_Li4V11O22
_symmetry_space_group_name_H-M   'P 1'
_cell_length_a   10.15792615
_cell_length_b   5.12366937
_cell_length_c   9.01745261
_cell_angle_alpha   84.71459852
_cell_angle_beta   114.21577809
_cell_angle_gamma   85.49713603
_symmetry_Int_Tables_number   1
_chemical_formula_structural   Li4V11O22
_chemical_formula_sum   'Li4 V11 O22'
_cell_volume   422.69523145
_cell_formula_units_Z   1
loop_
 _symmetry_equiv_pos_site_id
 _symmetry_equiv_pos_as_xyz
  1  'x, y, z'
loop_
 _atom_site_type_symbol
 _atom_site_label
 _atom_site_symmetry_multiplicity
 _atom_site_fract_x
 _atom_site_fract_y
 _atom_site_fract_z
 _atom_site_occupancy
  Li  Li0  1  0.00125997  0.99911778  0.00150748  1
  Li  Li1  1  0.19026495  0.90232536  0.38033289  1
  Li  Li2  1  0.53928356  0.71757037  0.08767331  1
  Li  Li3  1  0.81461377  0.12895331  0.62466488  1
  V  V4  1  0.32003283  0.09556378  0.13874598  1
  V  V5  1  0.03797766  0.72025916  0.59466314  1
  V  V6  1  0.15700502  0.17763088  0.76742761  1
  V  V7  1  0.40974796  0.54345397  0.32191043  1
  V  V8  1  0.77574516  0.37209863  0.03701686  1
  V  V9  1  0.22086853  0.63394901  0.95919033  1
  V  V10  1  0.50616389  0.99590402  0.49557466  1
  V  V11  1  0.58348498  0.45245421  0.68351272  1
  V  V12  1  0.85810338  0.82342179  0.23739394  1
  V  V13  1  0.95763282  0.27788912  0.40606746  1
  V  V14  1  0.67789792  0.90996955  0.86404553  1
  O  O15  1  0.04894005  0.62273161  0.40008505  1
  O  O16  1  0.21874899  0.78014292  0.15934527  1
  O  O17  1  0.13791379  0.04101923  0.56533952  1
  O  O18  1  0.41257585  0.42364579  0.12826442  1
  O  O19  1  0.31764275  0.21457093  0.33503530  1
  O  O20  1  0.03771540  0.88189269  0.78079371  1
  O  O21  1  0.68664609  0.05295524  0.06967770  1
  O  O22  1  0.22369448  0.49332858  0.75412606  1
  O  O23  1  0.49426048  0.86436603  0.27861743  1
  O  O24  1  0.14207441  0.28308031  0.97562655  1
  O  O25  1  0.39961412  0.67541218  0.50667096  1
  O  O26  1  0.59341902  0.32877699  0.48268522  1
  O  O27  1  0.50163537  0.14893959  0.69950431  1
  O  O28  1  0.86719326  0.67878145  0.03006045  1
  O  O29  1  0.76946675  0.51776037  0.23738156  1
  O  O30  1  0.95801122  0.12016643  0.20355064  1
  O  O31  1  0.32313303  0.94376880  0.93754664  1
  O  O32  1  0.67914425  0.76531460  0.66475966  1
  O  O33  1  0.58987863  0.57218302  0.89146634  1
  O  O34  1  0.85989430  0.95272522  0.43602246  1
  O  O35  1  0.77893563  0.23737728  0.84014777  1
  O  O36  1  0.95775973  0.39346178  0.61160776  1
