# generated using pymatgen
data_Li2Cr(SiO3)2
_symmetry_space_group_name_H-M   'P 1'
_cell_length_a   5.82256135
_cell_length_b   5.82256135
_cell_length_c   9.13687532
_cell_angle_alpha   89.99776524
_cell_angle_beta   90.00223476
_cell_angle_gamma   62.46798302
_symmetry_Int_Tables_number   1
_chemical_formula_structural   Li2Cr(SiO3)2
_chemical_formula_sum   'Li4 Cr2 Si4 O12'
_cell_volume   274.68082834
_cell_formula_units_Z   2
loop_
 _symmetry_equiv_pos_site_id
 _symmetry_equiv_pos_as_xyz
  1  'x, y, z'
loop_
 _atom_site_type_symbol
 _atom_site_label
 _atom_site_symmetry_multiplicity
 _atom_site_fract_x
 _atom_site_fract_y
 _atom_site_fract_z
 _atom_site_occupancy
  Li  Li0  1  0.59785574  0.70998759  0.88439887  1
  Li  Li1  1  0.29001241  0.40214426  0.38439887  1
  Li  Li2  1  0.70998759  0.59785574  0.61560113  1
  Li  Li3  1  0.40214426  0.29001241  0.11560113  1
  Cr  Cr4  1  0.24647327  0.24647327  0.75000000  1
  Cr  Cr5  1  0.75352673  0.75352673  0.25000000  1
  Si  Si6  1  0.13198790  0.80154139  0.63743266  1
  Si  Si7  1  0.19845861  0.86801210  0.13743266  1
  Si  Si8  1  0.80154139  0.13198790  0.86256734  1
  Si  Si9  1  0.86801210  0.19845861  0.36256734  1
  O  O10  1  0.35895838  0.85256074  0.71411984  1
  O  O11  1  0.14743926  0.64104162  0.21411984  1
  O  O12  1  0.23168747  0.50397166  0.59065349  1
  O  O13  1  0.49602834  0.76831253  0.09065349  1
  O  O14  1  0.87947826  0.87947826  0.75000000  1
  O  O15  1  0.00000000  0.00000000  0.50000000  1
  O  O16  1  0.12052174  0.12052174  0.25000000  1
  O  O17  1  0.00000000  0.00000000  0.00000000  1
  O  O18  1  0.50397166  0.23168747  0.90934651  1
  O  O19  1  0.76831253  0.49602834  0.40934651  1
  O  O20  1  0.85256074  0.35895838  0.78588016  1
  O  O21  1  0.64104162  0.14743926  0.28588016  1
