# generated using pymatgen
data_Li2V3P5O18
_symmetry_space_group_name_H-M   'P 1'
_cell_length_a   4.86932277
_cell_length_b   13.20787420
_cell_length_c   12.68615693
_cell_angle_alpha   87.92869330
_cell_angle_beta   89.96763387
_cell_angle_gamma   79.45055801
_symmetry_Int_Tables_number   1
_chemical_formula_structural   Li2V3P5O18
_chemical_formula_sum   'Li4 V6 P10 O36'
_cell_volume   801.55987758
_cell_formula_units_Z   2
loop_
 _symmetry_equiv_pos_site_id
 _symmetry_equiv_pos_as_xyz
  1  'x, y, z'
loop_
 _atom_site_type_symbol
 _atom_site_label
 _atom_site_symmetry_multiplicity
 _atom_site_fract_x
 _atom_site_fract_y
 _atom_site_fract_z
 _atom_site_occupancy
  Li  Li0  1  0.52292151  0.66795668  0.86703080  1
  Li  Li1  1  0.80706706  0.66828112  0.36977521  1
  Li  Li2  1  0.19088722  0.33210154  0.63279368  1
  Li  Li3  1  0.47309748  0.33276752  0.13450281  1
  V  V4  1  0.15468146  0.60610698  0.62120003  1
  V  V5  1  0.23812695  0.60574182  0.12122484  1
  V  V6  1  0.75971318  0.39440839  0.87938719  1
  V  V7  1  0.84390110  0.39445442  0.37917411  1
  V  V8  1  0.49833973  0.00023385  0.50052746  1
  V  V9  1  0.49758578  0.99958119  0.00082112  1
  P  P10  1  0.06349859  0.86373686  0.59524123  1
  P  P11  1  0.06746018  0.86316128  0.09525908  1
  P  P12  1  0.15816511  0.54573151  0.87273548  1
  P  P13  1  0.29508539  0.54617226  0.37278273  1
  P  P14  1  0.70343094  0.45434189  0.62756154  1
  P  P15  1  0.83893844  0.45433385  0.12779622  1
  P  P16  1  0.92755480  0.13659499  0.90663184  1
  P  P17  1  0.93208579  0.13650176  0.40561161  1
  P  P18  1  0.73047422  0.00042592  0.75073033  1
  P  P19  1  0.26592450  0.99903740  0.25100599  1
  O  O20  1  0.59870890  0.95380565  0.84375799  1
  O  O21  1  0.21673576  0.91202539  0.00665697  1
  O  O22  1  0.44143964  0.95231098  0.34456704  1
  O  O23  1  0.98296135  0.91480807  0.70844520  1
  O  O24  1  0.86619529  0.91197560  0.50626448  1
  O  O25  1  0.09748108  0.91359607  0.20884280  1
  O  O26  1  0.36064342  0.87498085  0.57015196  1
  O  O27  1  0.75964435  0.87377720  0.06975512  1
  O  O28  1  0.02835228  0.75167033  0.61685849  1
  O  O29  1  0.21439466  0.75117845  0.11607759  1
  O  O30  1  0.24852737  0.60804267  0.96343592  1
  O  O31  1  0.23505749  0.60900167  0.77460588  1
  O  O32  1  0.14396093  0.60881434  0.46362081  1
  O  O33  1  0.15523375  0.60947980  0.27484041  1
  O  O34  1  0.75283528  0.56667574  0.62557416  1
  O  O35  1  0.83881481  0.54402953  0.87714990  1
  O  O36  1  0.67811429  0.56663523  0.12611127  1
  O  O37  1  0.61639662  0.54399751  0.37728225  1
  O  O38  1  0.38241324  0.45607878  0.62351443  1
  O  O39  1  0.31933572  0.43344738  0.87426523  1
  O  O40  1  0.15823182  0.45611489  0.12414548  1
  O  O41  1  0.24455926  0.43398939  0.37444924  1
  O  O42  1  0.84255493  0.39148892  0.72597761  1
  O  O43  1  0.85676299  0.39160780  0.53711943  1
  O  O44  1  0.76125260  0.39121394  0.22594681  1
  O  O45  1  0.74850632  0.39197415  0.03715511  1
  O  O46  1  0.78280348  0.24869313  0.88468494  1
  O  O47  1  0.96432787  0.24871634  0.38353701  1
  O  O48  1  0.23517170  0.12549365  0.93266677  1
  O  O49  1  0.63458323  0.12544585  0.43040539  1
  O  O50  1  0.89908637  0.08551318  0.79330530  1
  O  O51  1  0.12994216  0.08829205  0.49437841  1
  O  O52  1  0.01402030  0.08504540  0.29281157  1
  O  O53  1  0.55517194  0.04723100  0.65714002  1
  O  O54  1  0.77692051  0.08780054  0.99486343  1
  O  O55  1  0.39684087  0.04547932  0.15773225  1
