# generated using pymatgen
data_Li4Fe(SiO4)2
_symmetry_space_group_name_H-M   'P 1'
_cell_length_a   4.86337329
_cell_length_b   5.44441112
_cell_length_c   6.16018003
_cell_angle_alpha   96.95843053
_cell_angle_beta   92.08234743
_cell_angle_gamma   98.47870719
_symmetry_Int_Tables_number   1
_chemical_formula_structural   Li4Fe(SiO4)2
_chemical_formula_sum   'Li4 Fe1 Si2 O8'
_cell_volume   159.89533541
_cell_formula_units_Z   1
loop_
 _symmetry_equiv_pos_site_id
 _symmetry_equiv_pos_as_xyz
  1  'x, y, z'
loop_
 _atom_site_type_symbol
 _atom_site_label
 _atom_site_symmetry_multiplicity
 _atom_site_fract_x
 _atom_site_fract_y
 _atom_site_fract_z
 _atom_site_occupancy
  Li  Li0  1  0.16604752  0.29816472  0.52718903  1
  Li  Li1  1  0.22455032  0.53037565  0.18599052  1
  Li  Li2  1  0.77544968  0.46962435  0.81400948  1
  Li  Li3  1  0.83395248  0.70183528  0.47281097  1
  Fe  Fe4  1  0.00000000  0.00000000  0.00000000  1
  Si  Si5  1  0.35804896  0.82524335  0.72560916  1
  Si  Si6  1  0.64195104  0.17475665  0.27439084  1
  O  O7  1  0.17528862  0.70477615  0.92806840  1
  O  O8  1  0.24162469  0.67248252  0.49183551  1
  O  O9  1  0.31173141  0.17986870  0.23411345  1
  O  O10  1  0.24420553  0.10319844  0.77015557  1
  O  O11  1  0.75579447  0.89680156  0.22984443  1
  O  O12  1  0.68826859  0.82013130  0.76588655  1
  O  O13  1  0.75837531  0.32751748  0.50816449  1
  O  O14  1  0.82471138  0.29522385  0.07193160  1
