# generated using pymatgen
data_LiVF5
_symmetry_space_group_name_H-M   'P 1'
_cell_length_a   5.99398185
_cell_length_b   5.99398198
_cell_length_c   10.87727709
_cell_angle_alpha   90.00000000
_cell_angle_beta   90.00000000
_cell_angle_gamma   98.87053586
_symmetry_Int_Tables_number   1
_chemical_formula_structural   LiVF5
_chemical_formula_sum   'Li4 V4 F20'
_cell_volume   386.12263874
_cell_formula_units_Z   4
loop_
 _symmetry_equiv_pos_site_id
 _symmetry_equiv_pos_as_xyz
  1  'x, y, z'
loop_
 _atom_site_type_symbol
 _atom_site_label
 _atom_site_symmetry_multiplicity
 _atom_site_fract_x
 _atom_site_fract_y
 _atom_site_fract_z
 _atom_site_occupancy
  Li  Li0  1  0.15291210  0.84708790  0.00000000  1
  Li  Li1  1  0.34708790  0.65291210  0.50000000  1
  Li  Li2  1  0.65291210  0.34708790  0.50000000  1
  Li  Li3  1  0.84708790  0.15291210  0.00000000  1
  V  V4  1  0.15444275  0.15444275  0.39405947  1
  V  V5  1  0.34555725  0.34555725  0.89405947  1
  V  V6  1  0.65444275  0.65444275  0.10594053  1
  V  V7  1  0.84555725  0.84555725  0.60594053  1
  F  F8  1  0.13095588  0.86904412  0.50000000  1
  F  F9  1  0.99689056  0.99689056  0.73285040  1
  F  F10  1  0.07964374  0.42121394  0.35154578  1
  F  F11  1  0.07878606  0.42035626  0.85154578  1
  F  F12  1  0.17087371  0.17087371  0.02557309  1
  F  F13  1  0.36904412  0.63095588  0.00000000  1
  F  F14  1  0.32912629  0.32912629  0.52557309  1
  F  F15  1  0.42121394  0.07964374  0.35154578  1
  F  F16  1  0.42035626  0.07878606  0.85154578  1
  F  F17  1  0.50310944  0.50310944  0.23285040  1
  F  F18  1  0.49689056  0.49689056  0.76714960  1
  F  F19  1  0.57964374  0.92121394  0.14845422  1
  F  F20  1  0.57878606  0.92035626  0.64845422  1
  F  F21  1  0.67087371  0.67087371  0.47442691  1
  F  F22  1  0.63095588  0.36904412  0.00000000  1
  F  F23  1  0.82912629  0.82912629  0.97442691  1
  F  F24  1  0.92121394  0.57964374  0.14845422  1
  F  F25  1  0.92035626  0.57878606  0.64845422  1
  F  F26  1  0.00310944  0.00310944  0.26714960  1
  F  F27  1  0.86904412  0.13095588  0.50000000  1
