# generated using pymatgen
data_Li3(NiO2)5
_symmetry_space_group_name_H-M   'P 1'
_cell_length_a   5.03632364
_cell_length_b   5.00743140
_cell_length_c   7.47809262
_cell_angle_alpha   110.09283795
_cell_angle_beta   102.02688065
_cell_angle_gamma   100.08365261
_symmetry_Int_Tables_number   1
_chemical_formula_structural   Li3(NiO2)5
_chemical_formula_sum   'Li3 Ni5 O10'
_cell_volume   166.86129119
_cell_formula_units_Z   1
loop_
 _symmetry_equiv_pos_site_id
 _symmetry_equiv_pos_as_xyz
  1  'x, y, z'
loop_
 _atom_site_type_symbol
 _atom_site_label
 _atom_site_symmetry_multiplicity
 _atom_site_fract_x
 _atom_site_fract_y
 _atom_site_fract_z
 _atom_site_occupancy
  Li  Li0  1  0.22112571  0.91670354  0.41693864  1
  Li  Li1  1  0.50000000  0.50000000  0.50000000  1
  Li  Li2  1  0.77887429  0.08329646  0.58306136  1
  Ni  Ni3  1  0.10812887  0.70096191  0.69967324  1
  Ni  Ni4  1  0.00000000  0.50000000  0.00000000  1
  Ni  Ni5  1  0.30095116  0.11232954  0.09842183  1
  Ni  Ni6  1  0.69904884  0.88767046  0.90157817  1
  Ni  Ni7  1  0.89187113  0.29903809  0.30032676  1
  O  O8  1  0.05560628  0.07669972  0.85443118  1
  O  O9  1  0.11545607  0.32169582  0.53913334  1
  O  O10  1  0.31530948  0.72354002  0.94828417  1
  O  O11  1  0.20907951  0.47247016  0.23326534  1
  O  O12  1  0.44680100  0.86894983  0.66631581  1
  O  O13  1  0.55319900  0.13105017  0.33368419  1
  O  O14  1  0.79092049  0.52752984  0.76673466  1
  O  O15  1  0.68469052  0.27645998  0.05171583  1
  O  O16  1  0.88454393  0.67830418  0.46086666  1
  O  O17  1  0.94439372  0.92330028  0.14556882  1
