# generated using pymatgen
data_LiFe(PO3)4
_symmetry_space_group_name_H-M   'P 1'
_cell_length_a   7.44101738
_cell_length_b   8.85671493
_cell_length_c   14.22491698
_cell_angle_alpha   90.00000000
_cell_angle_beta   95.07656143
_cell_angle_gamma   90.00000000
_symmetry_Int_Tables_number   1
_chemical_formula_structural   LiFe(PO3)4
_chemical_formula_sum   'Li4 Fe4 P16 O48'
_cell_volume   933.78692674
_cell_formula_units_Z   4
loop_
 _symmetry_equiv_pos_site_id
 _symmetry_equiv_pos_as_xyz
  1  'x, y, z'
loop_
 _atom_site_type_symbol
 _atom_site_label
 _atom_site_symmetry_multiplicity
 _atom_site_fract_x
 _atom_site_fract_y
 _atom_site_fract_z
 _atom_site_occupancy
  Li  Li0  1  0.06045575  0.57309203  0.92432244  1
  Li  Li1  1  0.43954425  0.07309203  0.57567756  1
  Li  Li2  1  0.56045575  0.92690797  0.42432244  1
  Li  Li3  1  0.93954425  0.42690797  0.07567756  1
  Fe  Fe4  1  0.03267573  0.65302111  0.35309886  1
  Fe  Fe5  1  0.53267573  0.84697889  0.85309886  1
  Fe  Fe6  1  0.46732427  0.15302111  0.14690114  1
  Fe  Fe7  1  0.96732427  0.34697889  0.64690114  1
  P  P8  1  0.06339267  0.27767391  0.43015799  1
  P  P9  1  0.13684004  0.04817040  0.78319728  1
  P  P10  1  0.18334235  0.22969979  0.95840340  1
  P  P11  1  0.20985937  0.03914182  0.30769810  1
  P  P12  1  0.31665765  0.72969979  0.54159660  1
  P  P13  1  0.36315996  0.54817040  0.71680272  1
  P  P14  1  0.29014063  0.53914182  0.19230190  1
  P  P15  1  0.56339267  0.22232609  0.93015799  1
  P  P16  1  0.43660733  0.77767391  0.06984201  1
  P  P17  1  0.70985937  0.46085818  0.80769810  1
  P  P18  1  0.63684004  0.45182960  0.28319728  1
  P  P19  1  0.68334235  0.27030021  0.45840340  1
  P  P20  1  0.79014063  0.96085818  0.69230190  1
  P  P21  1  0.81665765  0.77030021  0.04159660  1
  P  P22  1  0.86315996  0.95182960  0.21680272  1
  P  P23  1  0.93660733  0.72232609  0.56984201  1
  O  O24  1  0.06576113  0.36592706  0.96832028  1
  O  O25  1  0.08010728  0.12240689  0.88018666  1
  O  O26  1  0.03124601  0.06639342  0.23725382  1
  O  O27  1  0.10225077  0.29245667  0.53614100  1
  O  O28  1  0.13568604  0.16242203  0.70465120  1
  O  O29  1  0.14194206  0.78443074  0.59207557  1
  O  O30  1  0.10041470  0.40868753  0.36944988  1
  O  O31  1  0.19726729  0.45533524  0.69864213  1
  O  O32  1  0.16861744  0.12896798  0.40298873  1
  O  O33  1  0.13878751  0.62240159  0.23348827  1
  O  O34  1  0.30273271  0.95533524  0.80135787  1
  O  O35  1  0.24057645  0.87862944  0.33686824  1
  O  O36  1  0.25730899  0.63957662  0.45479397  1
  O  O37  1  0.35805794  0.28443074  0.90792443  1
  O  O38  1  0.36431396  0.66242203  0.79534880  1
  O  O39  1  0.39774923  0.79245667  0.96385900  1
  O  O40  1  0.24269101  0.13957662  0.04520603  1
  O  O41  1  0.25942355  0.37862944  0.16313176  1
  O  O42  1  0.41989272  0.62240689  0.61981334  1
  O  O43  1  0.36121249  0.12240159  0.26651173  1
  O  O44  1  0.43423887  0.86592706  0.53167972  1
  O  O45  1  0.33138256  0.62896798  0.09701127  1
  O  O46  1  0.53124601  0.43360658  0.73725382  1
  O  O47  1  0.39958530  0.90868753  0.13055012  1
  O  O48  1  0.60041470  0.09131247  0.86944988  1
  O  O49  1  0.46875399  0.56639342  0.26274618  1
  O  O50  1  0.66861744  0.37103202  0.90298873  1
  O  O51  1  0.56576113  0.13407294  0.46832028  1
  O  O52  1  0.63878751  0.87759841  0.73348827  1
  O  O53  1  0.58010728  0.37759311  0.38018666  1
  O  O54  1  0.74057645  0.62137056  0.83686824  1
  O  O55  1  0.75730899  0.86042338  0.95479397  1
  O  O56  1  0.60225077  0.20754333  0.03614100  1
  O  O57  1  0.63568604  0.33757797  0.20465120  1
  O  O58  1  0.64194106  0.71556926  0.09207557  1
  O  O59  1  0.74269101  0.36042338  0.54520603  1
  O  O60  1  0.75942355  0.12137056  0.66313176  1
  O  O61  1  0.69726729  0.04466476  0.19864213  1
  O  O62  1  0.86121249  0.37759841  0.76651173  1
  O  O63  1  0.83138256  0.87103202  0.59701127  1
  O  O64  1  0.80273271  0.54466476  0.30135787  1
  O  O65  1  0.89958530  0.59131247  0.63055012  1
  O  O66  1  0.85805894  0.21556926  0.40792443  1
  O  O67  1  0.86431396  0.83757797  0.29534880  1
  O  O68  1  0.89774923  0.70754333  0.46385900  1
  O  O69  1  0.96875399  0.93360658  0.76274618  1
  O  O70  1  0.91989272  0.87759311  0.11981334  1
  O  O71  1  0.93423887  0.63407294  0.03167972  1
