# generated using pymatgen
data_Li2Fe2SiO6
_symmetry_space_group_name_H-M   'P 1'
_cell_length_a   11.59261906
_cell_length_b   11.65221282
_cell_length_c   6.75108448
_cell_angle_alpha   73.09479058
_cell_angle_beta   73.06629447
_cell_angle_gamma   85.18345467
_symmetry_Int_Tables_number   1
_chemical_formula_structural   Li2Fe2SiO6
_chemical_formula_sum   'Li12 Fe12 Si6 O36'
_cell_volume   834.69601351
_cell_formula_units_Z   6
loop_
 _symmetry_equiv_pos_site_id
 _symmetry_equiv_pos_as_xyz
  1  'x, y, z'
loop_
 _atom_site_type_symbol
 _atom_site_label
 _atom_site_symmetry_multiplicity
 _atom_site_fract_x
 _atom_site_fract_y
 _atom_site_fract_z
 _atom_site_occupancy
  Li  Li0  1  0.01079042  0.99737314  0.49704888  1
  Li  Li1  1  0.67000338  0.99909447  0.16645854  1
  Li  Li2  1  0.45623250  0.13829495  0.94873080  1
  Li  Li3  1  0.14305239  0.21267829  0.57092593  1
  Li  Li4  1  0.64106376  0.28736435  0.53676707  1
  Li  Li5  1  0.95933246  0.36287144  0.83767804  1
  Li  Li6  1  0.51075686  0.49740221  0.24618890  1
  Li  Li7  1  0.17035386  0.49696570  0.91518677  1
  Li  Li8  1  0.95640430  0.63601539  0.20571501  1
  Li  Li9  1  0.64351764  0.71056381  0.82552174  1
  Li  Li10  1  0.14289492  0.78740445  0.28537810  1
  Li  Li11  1  0.45689884  0.85938757  0.59081542  1
  Fe  Fe12  1  0.69645890  0.00024713  0.65011827  1
  Fe  Fe13  1  0.01682065  0.99984594  0.99031168  1
  Fe  Fe14  1  0.46376282  0.11516084  0.45514727  1
  Fe  Fe15  1  0.14802954  0.21355209  0.06283267  1
  Fe  Fe16  1  0.64700245  0.28471663  0.02763767  1
  Fe  Fe17  1  0.96420546  0.38487578  0.31981513  1
  Fe  Fe18  1  0.19556268  0.50052901  0.40160512  1
  Fe  Fe19  1  0.51560915  0.50051134  0.74427184  1
  Fe  Fe20  1  0.96443091  0.61536620  0.71519257  1
  Fe  Fe21  1  0.64835265  0.71340391  0.32629927  1
  Fe  Fe22  1  0.14893724  0.78434495  0.78963159  1
  Fe  Fe23  1  0.46648660  0.88579752  0.07754756  1
  Si  Si24  1  0.25328667  0.99892559  0.37213170  1
  Si  Si25  1  0.85678424  0.16561267  0.72886895  1
  Si  Si26  1  0.35763630  0.33556341  0.64599459  1
  Si  Si27  1  0.75286421  0.49952950  0.12416480  1
  Si  Si28  1  0.35747509  0.66556567  0.99851178  1
  Si  Si29  1  0.85702797  0.83470857  0.41149751  1
  O  O30  1  0.59464914  0.00667829  0.47355455  1
  O  O31  1  0.93222270  0.03741493  0.76822337  1
  O  O32  1  0.33580178  0.00248725  0.53112231  1
  O  O33  1  0.15974607  0.11557833  0.34698898  1
  O  O34  1  0.11875201  0.13418984  0.87981021  1
  O  O35  1  0.76899834  0.15765898  0.57907228  1
  O  O36  1  0.50465419  0.19195966  0.16210738  1
  O  O37  1  0.77981144  0.17994027  0.96695575  1
  O  O38  1  0.45522843  0.22203001  0.63212518  1
  O  O39  1  0.95360662  0.27997829  0.60485782  1
  O  O40  1  0.28207664  0.31849151  0.89992981  1
  O  O41  1  0.00667511  0.30720271  0.10506050  1
  O  O42  1  0.26947733  0.34400699  0.48879313  1
  O  O43  1  0.61770209  0.36660096  0.76601253  1
  O  O44  1  0.66001058  0.38218268  0.21452252  1
  O  O45  1  0.83511371  0.49672213  0.28682043  1
  O  O46  1  0.43144918  0.46466312  0.55789662  1
  O  O47  1  0.09488434  0.49396308  0.22944012  1
  O  O48  1  0.09414670  0.50533110  0.67454437  1
  O  O49  1  0.43244114  0.53726068  0.01414237  1
  O  O50  1  0.83726236  0.50222850  0.88189306  1
  O  O51  1  0.66153027  0.61792237  0.12401256  1
  O  O52  1  0.61804724  0.63449119  0.61867467  1
  O  O53  1  0.26875288  0.65755507  0.24256613  1
  O  O54  1  0.00738862  0.69068613  0.89037041  1
  O  O55  1  0.28223142  0.67965558  0.81963615  1
  O  O56  1  0.95299416  0.71974191  0.44008723  1
  O  O57  1  0.45376766  0.78033773  0.91059556  1
  O  O58  1  0.78009131  0.82078843  0.24940062  1
  O  O59  1  0.50726500  0.80703952  0.32914252  1
  O  O60  1  0.76933680  0.84297238  0.64818086  1
  O  O61  1  0.11864013  0.86553664  0.99945978  1
  O  O62  1  0.16213341  0.88005432  0.49101980  1
  O  O63  1  0.33753820  0.99734980  0.13154882  1
  O  O64  1  0.93300572  0.96265847  0.29720022  1
  O  O65  1  0.59655344  0.99532363  0.92912420  1
