# generated using pymatgen
data_FeNi(PO4)2
_symmetry_space_group_name_H-M   'P 1'
_cell_length_a   8.43349218
_cell_length_b   8.65392973
_cell_length_c   8.65392966
_cell_angle_alpha   59.99999757
_cell_angle_beta   59.13151244
_cell_angle_gamma   59.13151724
_symmetry_Int_Tables_number   1
_chemical_formula_structural   FeNi(PO4)2
_chemical_formula_sum   'Fe3 Ni3 P6 O24'
_cell_volume   440.64779444
_cell_formula_units_Z   3
loop_
 _symmetry_equiv_pos_site_id
 _symmetry_equiv_pos_as_xyz
  1  'x, y, z'
loop_
 _atom_site_type_symbol
 _atom_site_label
 _atom_site_symmetry_multiplicity
 _atom_site_fract_x
 _atom_site_fract_y
 _atom_site_fract_z
 _atom_site_occupancy
  Fe  Fe0  1  0.00442621  0.99852426  0.99852426  1
  Fe  Fe1  1  0.56436198  0.14521301  0.14521301  1
  Fe  Fe2  1  0.50110392  0.49963236  0.49963236  1
  Ni  Ni3  1  0.07445488  0.64184871  0.64184871  1
  Ni  Ni4  1  0.42948890  0.85683737  0.85683737  1
  Ni  Ni5  1  0.92813576  0.35728775  0.35728775  1
  P  P6  1  0.24952840  0.25111197  0.54814227  1
  P  P7  1  0.24952840  0.95121736  0.25111197  1
  P  P8  1  0.24952840  0.54814227  0.95121736  1
  P  P9  1  0.74994842  0.45181786  0.04887495  1
  P  P10  1  0.74994842  0.04887495  0.74935877  1
  P  P11  1  0.74994842  0.74935877  0.45181786  1
  O  O12  1  0.06284683  0.09837658  0.33535382  1
  O  O13  1  0.06284683  0.50342377  0.09837658  1
  O  O14  1  0.06284683  0.33535382  0.50342377  1
  O  O15  1  0.21193364  0.09692874  0.74924384  1
  O  O16  1  0.43124851  0.17115375  0.39461936  1
  O  O17  1  0.29239954  0.39913059  0.56093022  1
  O  O18  1  0.21193364  0.94189279  0.09692874  1
  O  O19  1  0.29239954  0.74753965  0.39913059  1
  O  O20  1  0.56684704  0.60339118  0.00311842  1
  O  O21  1  0.29239954  0.56093022  0.74753965  1
  O  O22  1  0.78529480  0.24835664  0.06150134  1
  O  O23  1  0.56684704  0.00311842  0.82664336  1
  O  O24  1  0.43124851  0.00297838  0.17115375  1
  O  O25  1  0.21193364  0.74924384  0.94189279  1
  O  O26  1  0.71225429  0.43541830  0.25274700  1
  O  O27  1  0.43124851  0.39461936  0.00297838  1
  O  O28  1  0.71225429  0.25274700  0.59957941  1
  O  O29  1  0.78529480  0.06150134  0.90484722  1
  O  O30  1  0.71225429  0.59957941  0.43541830  1
  O  O31  1  0.56684704  0.82664336  0.60339118  1
  O  O32  1  0.78529480  0.90484722  0.24835664  1
  O  O33  1  0.93704198  0.67062865  0.49338326  1
  O  O34  1  0.93704198  0.49338326  0.89894611  1
  O  O35  1  0.93704198  0.89894611  0.67062865  1
