# generated using pymatgen
data_Mg6ZrCu
_symmetry_space_group_name_H-M   'P 1'
_cell_length_a   6.48619750
_cell_length_b   5.95277424
_cell_length_c   4.88327328
_cell_angle_alpha   90.00000000
_cell_angle_beta   90.00000000
_cell_angle_gamma   117.31487282
_symmetry_Int_Tables_number   1
_chemical_formula_structural   Mg6ZrCu
_chemical_formula_sum   'Mg6 Zr1 Cu1'
_cell_volume   167.52403944
_cell_formula_units_Z   1
loop_
 _symmetry_equiv_pos_site_id
 _symmetry_equiv_pos_as_xyz
  1  'x, y, z'
loop_
 _atom_site_type_symbol
 _atom_site_label
 _atom_site_symmetry_multiplicity
 _atom_site_fract_x
 _atom_site_fract_y
 _atom_site_fract_z
 _atom_site_occupancy
  Mg  Mg0  1  0.63485137  0.31645856  0.25000000  1
  Mg  Mg1  1  0.63485137  0.81839180  0.25000000  1
  Mg  Mg2  1  0.33820331  0.17155858  0.75000000  1
  Mg  Mg3  1  0.33820331  0.66664574  0.75000000  1
  Mg  Mg4  1  0.83063148  0.16531624  0.75000000  1
  Mg  Mg5  1  0.89002330  0.69501215  0.75000000  1
  Zr  Zr6  1  0.13124138  0.31562019  0.25000000  1
  Cu  Cu7  1  0.20199449  0.85099675  0.25000000  1
