# generated using pymatgen
data_Li2FeSi4O11
_symmetry_space_group_name_H-M   'P 1'
_cell_length_a   7.27665242
_cell_length_b   7.27665242
_cell_length_c   8.29326319
_cell_angle_alpha   81.00155976
_cell_angle_beta   98.99844024
_cell_angle_gamma   96.59803565
_symmetry_Int_Tables_number   1
_chemical_formula_structural   Li2FeSi4O11
_chemical_formula_sum   'Li4 Fe2 Si8 O22'
_cell_volume   426.53819036
_cell_formula_units_Z   2
loop_
 _symmetry_equiv_pos_site_id
 _symmetry_equiv_pos_as_xyz
  1  'x, y, z'
loop_
 _atom_site_type_symbol
 _atom_site_label
 _atom_site_symmetry_multiplicity
 _atom_site_fract_x
 _atom_site_fract_y
 _atom_site_fract_z
 _atom_site_occupancy
  Li  Li0  1  0.08035865  0.08035865  0.75000000  1
  Li  Li1  1  0.35129743  0.35129743  0.75000000  1
  Li  Li2  1  0.64870257  0.64870257  0.25000000  1
  Li  Li3  1  0.91964135  0.91964135  0.25000000  1
  Fe  Fe4  1  0.00000000  0.50000000  0.50000000  1
  Fe  Fe5  1  0.50000000  0.00000000  0.00000000  1
  Si  Si6  1  0.34221935  0.78120118  0.65854616  1
  Si  Si7  1  0.21879882  0.65778065  0.15854616  1
  Si  Si8  1  0.74708269  0.84191612  0.56498151  1
  Si  Si9  1  0.84191612  0.74708269  0.93501849  1
  Si  Si10  1  0.15808388  0.25291731  0.06498151  1
  Si  Si11  1  0.25291731  0.15808388  0.43501849  1
  Si  Si12  1  0.78120118  0.34221935  0.84145384  1
  Si  Si13  1  0.65778065  0.21879882  0.34145384  1
  O  O14  1  0.24215736  0.94255830  0.52557754  1
  O  O15  1  0.37827446  0.84791609  0.83888554  1
  O  O16  1  0.05744170  0.75784264  0.02557754  1
  O  O17  1  0.15208391  0.62172554  0.33888554  1
  O  O18  1  0.20570680  0.58790727  0.67568457  1
  O  O19  1  0.41209273  0.79429320  0.17568457  1
  O  O20  1  0.53705270  0.75028329  0.59243746  1
  O  O21  1  0.16006535  0.26986085  0.55089675  1
  O  O22  1  0.24971671  0.46294730  0.09243746  1
  O  O23  1  0.86614154  0.86614154  0.75000000  1
  O  O24  1  0.26986085  0.16006535  0.94910325  1
  O  O25  1  0.73013915  0.83993465  0.05089675  1
  O  O26  1  0.13385846  0.13385846  0.25000000  1
  O  O27  1  0.75028329  0.53705270  0.90756254  1
  O  O28  1  0.83993465  0.73013915  0.44910325  1
  O  O29  1  0.46294730  0.24971671  0.40756254  1
  O  O30  1  0.58790727  0.20570680  0.82431543  1
  O  O31  1  0.79429320  0.41209273  0.32431543  1
  O  O32  1  0.84791609  0.37827446  0.66111446  1
  O  O33  1  0.94255830  0.24215736  0.97442246  1
  O  O34  1  0.62172554  0.15208391  0.16111446  1
  O  O35  1  0.75784264  0.05744170  0.47442246  1
