# generated using pymatgen
data_LiV(PO3)4
_symmetry_space_group_name_H-M   'P 1'
_cell_length_a   7.01831599
_cell_length_b   7.40437995
_cell_length_c   8.75420895
_cell_angle_alpha   90.00000000
_cell_angle_beta   90.00000000
_cell_angle_gamma   94.26484598
_symmetry_Int_Tables_number   1
_chemical_formula_structural   LiV(PO3)4
_chemical_formula_sum   'Li2 V2 P8 O24'
_cell_volume   453.66395112
_cell_formula_units_Z   2
loop_
 _symmetry_equiv_pos_site_id
 _symmetry_equiv_pos_as_xyz
  1  'x, y, z'
loop_
 _atom_site_type_symbol
 _atom_site_label
 _atom_site_symmetry_multiplicity
 _atom_site_fract_x
 _atom_site_fract_y
 _atom_site_fract_z
 _atom_site_occupancy
  Li  Li0  1  0.34686926  0.66790659  0.36471510  1
  Li  Li1  1  0.65313074  0.33209341  0.86471510  1
  V  V2  1  0.22752460  0.22774526  0.92848650  1
  V  V3  1  0.77247540  0.77225474  0.42848650  1
  P  P4  1  0.98478233  0.41450142  0.37237477  1
  P  P5  1  0.08202739  0.09293125  0.57501434  1
  P  P6  1  0.39055173  0.59432156  0.73373210  1
  P  P7  1  0.42870448  0.07531504  0.37625369  1
  P  P8  1  0.57129552  0.92468496  0.87625369  1
  P  P9  1  0.60944827  0.40567844  0.23373210  1
  P  P10  1  0.91797261  0.90706875  0.07501434  1
  P  P11  1  0.01521767  0.58549858  0.87237477  1
  O  O12  1  0.01960828  0.77414033  0.96209188  1
  O  O13  1  0.98460606  0.90837194  0.54570798  1
  O  O14  1  0.10659559  0.45190695  0.97684489  1
  O  O15  1  0.07770376  0.16600096  0.73484848  1
  O  O16  1  0.16689029  0.63533897  0.73681041  1
  O  O17  1  0.17701145  0.46685814  0.31055078  1
  O  O18  1  0.30464037  0.09337721  0.53196418  1
  O  O19  1  0.30786082  0.01490554  0.24599459  1
  O  O20  1  0.40649592  0.39897729  0.78427242  1
  O  O21  1  0.47769496  0.71864392  0.87074723  1
  O  O22  1  0.40735456  0.03934627  0.91511650  1
  O  O23  1  0.46833186  0.65149102  0.58118617  1
  O  O24  1  0.53166814  0.34850898  0.08118617  1
  O  O25  1  0.59264544  0.96065373  0.41511650  1
  O  O26  1  0.52230504  0.28135608  0.37074723  1
  O  O27  1  0.59350408  0.60102271  0.28427242  1
  O  O28  1  0.69213918  0.98509446  0.74599459  1
  O  O29  1  0.69535963  0.90662279  0.03196418  1
  O  O30  1  0.82298855  0.53314186  0.81055078  1
  O  O31  1  0.83310971  0.36466103  0.23681041  1
  O  O32  1  0.92229624  0.83399904  0.23484848  1
  O  O33  1  0.89340441  0.54809305  0.47684489  1
  O  O34  1  0.01539394  0.09162806  0.04570798  1
  O  O35  1  0.98039172  0.22585967  0.46209188  1
