# generated using pymatgen
data_Fe2O3F
_symmetry_space_group_name_H-M   'P 1'
_cell_length_a   4.70985831
_cell_length_b   4.70985831
_cell_length_c   3.01467608
_cell_angle_alpha   90.00000000
_cell_angle_beta   90.00000000
_cell_angle_gamma   94.29238013
_symmetry_Int_Tables_number   1
_chemical_formula_structural   Fe2O3F
_chemical_formula_sum   'Fe2 O3 F1'
_cell_volume   66.68627732
_cell_formula_units_Z   1
loop_
 _symmetry_equiv_pos_site_id
 _symmetry_equiv_pos_as_xyz
  1  'x, y, z'
loop_
 _atom_site_type_symbol
 _atom_site_label
 _atom_site_symmetry_multiplicity
 _atom_site_fract_x
 _atom_site_fract_y
 _atom_site_fract_z
 _atom_site_occupancy
  Fe  Fe0  1  0.01799572  0.98200428  0.00000000  1
  Fe  Fe1  1  0.48056119  0.51943881  0.50000000  1
  O  O2  1  0.19241791  0.80758209  0.50000000  1
  O  O3  1  0.30710094  0.30772228  0.00000000  1
  O  O4  1  0.69227772  0.69289906  0.00000000  1
  F  F5  1  0.80964652  0.19035348  0.50000000  1
