# generated using pymatgen
data_FeOF
_symmetry_space_group_name_H-M   'P 1'
_cell_length_a   9.58588340
_cell_length_b   14.30957821
_cell_length_c   3.12961106
_cell_angle_alpha   90.00000000
_cell_angle_beta   90.00000000
_cell_angle_gamma   90.05515231
_symmetry_Int_Tables_number   1
_chemical_formula_structural   FeOF
_chemical_formula_sum   'Fe12 O12 F12'
_cell_volume   429.28838783
_cell_formula_units_Z   12
loop_
 _symmetry_equiv_pos_site_id
 _symmetry_equiv_pos_as_xyz
  1  'x, y, z'
loop_
 _atom_site_type_symbol
 _atom_site_label
 _atom_site_symmetry_multiplicity
 _atom_site_fract_x
 _atom_site_fract_y
 _atom_site_fract_z
 _atom_site_occupancy
  Fe  Fe0  1  0.00550244  0.00430494  0.00000000  1
  Fe  Fe1  1  0.01160877  0.32855394  0.00000000  1
  Fe  Fe2  1  0.00691982  0.66997009  0.00000000  1
  Fe  Fe3  1  0.22740534  0.16509265  0.50000000  1
  Fe  Fe4  1  0.24515951  0.48174784  0.50000000  1
  Fe  Fe5  1  0.22317528  0.83313524  0.50000000  1
  Fe  Fe6  1  0.49954496  0.34267414  0.00000000  1
  Fe  Fe7  1  0.51224924  0.99688488  0.00000000  1
  Fe  Fe8  1  0.51468573  0.66329375  0.00000000  1
  Fe  Fe9  1  0.78332155  0.17145645  0.50000000  1
  Fe  Fe10  1  0.73051443  0.49685444  0.50000000  1
  Fe  Fe11  1  0.72844864  0.83110791  0.50000000  1
  O  O12  1  0.09974263  0.27111557  0.50000000  1
  O  O13  1  0.09286326  0.93758883  0.50000000  1
  O  O14  1  0.15652618  0.10167172  0.00000000  1
  O  O15  1  0.15143110  0.77004353  0.00000000  1
  O  O16  1  0.14858475  0.43397102  0.00000000  1
  O  O17  1  0.40574374  0.39595982  0.50000000  1
  O  O18  1  0.59741977  0.94047562  0.50000000  1
  O  O19  1  0.59544277  0.60076710  0.50000000  1
  O  O20  1  0.65850087  0.43175898  0.00000000  1
  O  O21  1  0.64891004  0.76961047  0.00000000  1
  O  O22  1  0.85357363  0.23565332  0.00000000  1
  O  O23  1  0.90589197  0.06258586  0.50000000  1
  F  F24  1  0.10066211  0.59683931  0.50000000  1
  F  F25  1  0.35339799  0.22865204  0.00000000  1
  F  F26  1  0.34168147  0.56685856  0.00000000  1
  F  F27  1  0.34786031  0.90149683  0.00000000  1
  F  F28  1  0.40502404  0.06663050  0.50000000  1
  F  F29  1  0.39923042  0.73299279  0.50000000  1
  F  F30  1  0.59890102  0.26355638  0.50000000  1
  F  F31  1  0.65351035  0.10579789  0.00000000  1
  F  F32  1  0.84681402  0.89508783  0.00000000  1
  F  F33  1  0.85141557  0.56756467  0.00000000  1
  F  F34  1  0.90330216  0.40483637  0.50000000  1
  F  F35  1  0.89503311  0.73340869  0.50000000  1
