# generated using pymatgen
data_Cr3P4O15
_symmetry_space_group_name_H-M   'P 1'
_cell_length_a   17.45242184
_cell_length_b   6.41838308
_cell_length_c   10.63778073
_cell_angle_alpha   90.00000000
_cell_angle_beta   90.00000000
_cell_angle_gamma   90.00000000
_symmetry_Int_Tables_number   1
_chemical_formula_structural   Cr3P4O15
_chemical_formula_sum   'Cr12 P16 O60'
_cell_volume   1191.60514654
_cell_formula_units_Z   4
loop_
 _symmetry_equiv_pos_site_id
 _symmetry_equiv_pos_as_xyz
  1  'x, y, z'
loop_
 _atom_site_type_symbol
 _atom_site_label
 _atom_site_symmetry_multiplicity
 _atom_site_fract_x
 _atom_site_fract_y
 _atom_site_fract_z
 _atom_site_occupancy
  Cr  Cr0  1  0.13308813  0.58189385  0.49356066  1
  Cr  Cr1  1  0.16586240  0.60476124  0.00231056  1
  Cr  Cr2  1  0.24800574  0.31626822  0.73918418  1
  Cr  Cr3  1  0.25199426  0.81626822  0.23918418  1
  Cr  Cr4  1  0.33413760  0.10476124  0.50231056  1
  Cr  Cr5  1  0.36691187  0.08189385  0.99356066  1
  Cr  Cr6  1  0.63308813  0.58189385  0.00643934  1
  Cr  Cr7  1  0.66586240  0.60476124  0.49768944  1
  Cr  Cr8  1  0.74800574  0.31626822  0.76081582  1
  Cr  Cr9  1  0.75199426  0.81626822  0.26081582  1
  Cr  Cr10  1  0.83413760  0.10476124  0.99768944  1
  Cr  Cr11  1  0.86691187  0.08189385  0.50643934  1
  P  P12  1  0.05288962  0.64579146  0.22840929  1
  P  P13  1  0.07429431  0.46235921  0.76359674  1
  P  P14  1  0.17784112  0.08284117  0.48118804  1
  P  P15  1  0.20764519  0.09798747  0.99949200  1
  P  P16  1  0.29235481  0.59798747  0.49949200  1
  P  P17  1  0.32215888  0.58284117  0.98118804  1
  P  P18  1  0.42570569  0.96235921  0.26359674  1
  P  P19  1  0.44711038  0.14579146  0.72840929  1
  P  P20  1  0.55288962  0.64579146  0.27159071  1
  P  P21  1  0.57429431  0.46235921  0.73640326  1
  P  P22  1  0.67784112  0.08284117  0.01881196  1
  P  P23  1  0.70764519  0.09798747  0.50050800  1
  P  P24  1  0.79235481  0.59798747  0.00050800  1
  P  P25  1  0.82215888  0.58284117  0.51881196  1
  P  P26  1  0.92570569  0.96235921  0.23640326  1
  P  P27  1  0.94711038  0.14579146  0.77159071  1
  O  O28  1  0.01735293  0.48241430  0.14521917  1
  O  O29  1  0.00813485  0.86370543  0.21243451  1
  O  O30  1  0.05120253  0.59855449  0.36903937  1
  O  O31  1  0.06582662  0.57973283  0.63876949  1
  O  O32  1  0.08525919  0.60645872  0.87584161  1
  O  O33  1  0.13631213  0.29098805  0.75826328  1
  O  O34  1  0.12836832  0.89216117  0.49785926  1
  O  O35  1  0.13175137  0.27891674  0.45866309  1
  O  O36  1  0.13647926  0.70173398  0.18419479  1
  O  O37  1  0.15751918  0.91028898  0.97649267  1
  O  O38  1  0.16379972  0.29524947  0.02970805  1
  O  O39  1  0.24209879  0.04950935  0.37465291  1
  O  O40  1  0.23498558  0.11147616  0.59735646  1
  O  O41  1  0.23298007  0.62305709  0.38545822  1
  O  O42  1  0.23071846  0.54696361  0.60692464  1
  O  O43  1  0.26928154  0.04696361  0.10692464  1
  O  O44  1  0.26701993  0.12305709  0.88545822  1
  O  O45  1  0.26501442  0.61147616  0.09735646  1
  O  O46  1  0.25790121  0.54950935  0.87465291  1
  O  O47  1  0.33620028  0.79524947  0.52970805  1
  O  O48  1  0.34248082  0.41028898  0.47649267  1
  O  O49  1  0.36352074  0.20173398  0.68419479  1
  O  O50  1  0.36824863  0.77891674  0.95866309  1
  O  O51  1  0.37163168  0.39216117  0.99785926  1
  O  O52  1  0.36368787  0.79098805  0.25826328  1
  O  O53  1  0.41474081  0.10645872  0.37584161  1
  O  O54  1  0.43417338  0.07973283  0.13876949  1
  O  O55  1  0.44879747  0.09855449  0.86903937  1
  O  O56  1  0.49186515  0.36370543  0.71243451  1
  O  O57  1  0.48264707  0.98241430  0.64521917  1
  O  O58  1  0.51735293  0.48241430  0.35478083  1
  O  O59  1  0.50813485  0.86370543  0.28756549  1
  O  O60  1  0.55120253  0.59855449  0.13096063  1
  O  O61  1  0.56582662  0.57973283  0.86123051  1
  O  O62  1  0.58525919  0.60645872  0.62415839  1
  O  O63  1  0.63631213  0.29098805  0.74173672  1
  O  O64  1  0.62836832  0.89216117  0.00214074  1
  O  O65  1  0.63175137  0.27891674  0.04133691  1
  O  O66  1  0.63647926  0.70173398  0.31580521  1
  O  O67  1  0.65751918  0.91028898  0.52350733  1
  O  O68  1  0.66379972  0.29524947  0.47029195  1
  O  O69  1  0.74209879  0.04950935  0.12534709  1
  O  O70  1  0.73498558  0.11147616  0.90264354  1
  O  O71  1  0.73298007  0.62305709  0.11454178  1
  O  O72  1  0.73071846  0.54696361  0.89307536  1
  O  O73  1  0.76928154  0.04696361  0.39307536  1
  O  O74  1  0.76701993  0.12305709  0.61454178  1
  O  O75  1  0.76501442  0.61147616  0.40264354  1
  O  O76  1  0.75790121  0.54950935  0.62534709  1
  O  O77  1  0.83620028  0.79524947  0.97029195  1
  O  O78  1  0.84248082  0.41028898  0.02350733  1
  O  O79  1  0.86352074  0.20173398  0.81580521  1
  O  O80  1  0.86824863  0.77891674  0.54133691  1
  O  O81  1  0.87163168  0.39216117  0.50214074  1
  O  O82  1  0.86368787  0.79098805  0.24173672  1
  O  O83  1  0.91474081  0.10645872  0.12415839  1
  O  O84  1  0.93417338  0.07973283  0.36123051  1
  O  O85  1  0.94879747  0.09855449  0.63096063  1
  O  O86  1  0.99186515  0.36370543  0.78756549  1
  O  O87  1  0.98264707  0.98241430  0.85478083  1
