# generated using pymatgen
data_Li2Ni(CO3)2
_symmetry_space_group_name_H-M   'P 1'
_cell_length_a   8.66037457
_cell_length_b   5.97299670
_cell_length_c   5.37688053
_cell_angle_alpha   63.24995965
_cell_angle_beta   71.91485254
_cell_angle_gamma   81.96810910
_symmetry_Int_Tables_number   1
_chemical_formula_structural   Li2Ni(CO3)2
_chemical_formula_sum   'Li4 Ni2 C4 O12'
_cell_volume   236.10027444
_cell_formula_units_Z   2
loop_
 _symmetry_equiv_pos_site_id
 _symmetry_equiv_pos_as_xyz
  1  'x, y, z'
loop_
 _atom_site_type_symbol
 _atom_site_label
 _atom_site_symmetry_multiplicity
 _atom_site_fract_x
 _atom_site_fract_y
 _atom_site_fract_z
 _atom_site_occupancy
  Li  Li0  1  0.63907040  0.88172619  0.56720018  1
  Li  Li1  1  0.13907040  0.61827381  0.69892637  1
  Li  Li2  1  0.86092960  0.38172619  0.45627057  1
  Li  Li3  1  0.36092960  0.11827381  0.08799677  1
  Ni  Ni4  1  0.50000000  0.50000000  0.25826630  1
  Ni  Ni5  1  0.00000000  0.00000000  0.00826630  1
  C  C6  1  0.70680617  0.92265665  0.97665306  1
  C  C7  1  0.20680617  0.57734335  0.14930971  1
  C  C8  1  0.79319383  0.42265665  0.93345923  1
  C  C9  1  0.29319383  0.07734335  0.60611588  1
  O  O10  1  0.79471459  0.98921965  0.71474469  1
  O  O11  1  0.76402117  0.91381560  0.17722278  1
  O  O12  1  0.55271408  0.86105991  0.04839644  1
  O  O13  1  0.05271408  0.63894009  0.15945634  1
  O  O14  1  0.26402117  0.58618440  0.34103838  1
  O  O15  1  0.29471459  0.51078035  0.95396434  1
  O  O16  1  0.70528541  0.48921965  0.75945927  1
  O  O17  1  0.73597883  0.41381560  0.19124395  1
  O  O18  1  0.94728592  0.36105991  0.85111052  1
  O  O19  1  0.44728592  0.13894009  0.46217042  1
  O  O20  1  0.23597883  0.08618440  0.85505955  1
  O  O21  1  0.20528541  0.01078035  0.49867893  1
