# generated using pymatgen
data_LiCoSiO4
_symmetry_space_group_name_H-M   'P 1'
_cell_length_a   8.65314932
_cell_length_b   8.02571309
_cell_length_c   15.11453262
_cell_angle_alpha   90.00000000
_cell_angle_beta   90.59472649
_cell_angle_gamma   90.00000000
_symmetry_Int_Tables_number   1
_chemical_formula_structural   LiCoSiO4
_chemical_formula_sum   'Li12 Co12 Si12 O48'
_cell_volume   1049.61288630
_cell_formula_units_Z   12
loop_
 _symmetry_equiv_pos_site_id
 _symmetry_equiv_pos_as_xyz
  1  'x, y, z'
loop_
 _atom_site_type_symbol
 _atom_site_label
 _atom_site_symmetry_multiplicity
 _atom_site_fract_x
 _atom_site_fract_y
 _atom_site_fract_z
 _atom_site_occupancy
  Li  Li0  1  0.20458198  0.99327514  0.94009622  1
  Li  Li1  1  0.22503390  0.00858794  0.58649254  1
  Li  Li2  1  0.24996176  0.84890385  0.24582187  1
  Li  Li3  1  0.25003824  0.34890385  0.25417813  1
  Li  Li4  1  0.27496610  0.50858794  0.91350746  1
  Li  Li5  1  0.29541802  0.49327514  0.55990378  1
  Li  Li6  1  0.70458198  0.50672486  0.44009622  1
  Li  Li7  1  0.72503390  0.49141206  0.08649254  1
  Li  Li8  1  0.74996176  0.65109615  0.74582187  1
  Li  Li9  1  0.75003824  0.15109615  0.75417813  1
  Li  Li10  1  0.77496610  0.99141206  0.41350746  1
  Li  Li11  1  0.79541802  0.00672486  0.05990378  1
  Co  Co12  1  0.05058138  0.66044155  0.40425259  1
  Co  Co13  1  0.08010622  0.83251211  0.76912361  1
  Co  Co14  1  0.10609918  0.66252415  0.07615435  1
  Co  Co15  1  0.39390082  0.16252415  0.42384565  1
  Co  Co16  1  0.41989378  0.33251211  0.73087639  1
  Co  Co17  1  0.44941862  0.16044155  0.09574741  1
  Co  Co18  1  0.55058138  0.83955845  0.90425259  1
  Co  Co19  1  0.58010622  0.66748789  0.26912361  1
  Co  Co20  1  0.60609918  0.83747585  0.57615435  1
  Co  Co21  1  0.89390082  0.33747585  0.92384565  1
  Co  Co22  1  0.91989378  0.16748789  0.23087639  1
  Co  Co23  1  0.94941862  0.33955845  0.59574741  1
  Si  Si24  1  0.04492901  0.26509034  0.40941072  1
  Si  Si25  1  0.08333886  0.21946466  0.77497551  1
  Si  Si26  1  0.11436636  0.27105102  0.07258026  1
  Si  Si27  1  0.38563364  0.77105102  0.42741974  1
  Si  Si28  1  0.41666114  0.71946466  0.72502449  1
  Si  Si29  1  0.45507099  0.76509034  0.09058928  1
  Si  Si30  1  0.54492901  0.23490966  0.90941072  1
  Si  Si31  1  0.58333886  0.28053534  0.27497551  1
  Si  Si32  1  0.61436636  0.22894898  0.57258026  1
  Si  Si33  1  0.88563364  0.72894898  0.92741974  1
  Si  Si34  1  0.91666114  0.78053534  0.22502449  1
  Si  Si35  1  0.95507099  0.73490966  0.59058928  1
  O  O36  1  0.03652901  0.55076853  0.60468018  1
  O  O37  1  0.06340483  0.86928145  0.64582216  1
  O  O38  1  0.05061581  0.78485170  0.97480604  1
  O  O39  1  0.08017084  0.03866307  0.82651080  1
  O  O40  1  0.07282961  0.35898441  0.85507885  1
  O  O41  1  0.06752515  0.75749203  0.29151152  1
  O  O42  1  0.05949968  0.21502319  0.51493662  1
  O  O43  1  0.08831373  0.27657377  0.18044168  1
  O  O44  1  0.17384806  0.45469047  0.03741622  1
  O  O45  1  0.23440530  0.22977370  0.71091828  1
  O  O46  1  0.22170468  0.26227520  0.36892438  1
  O  O47  1  0.24841233  0.13529292  0.04660693  1
  O  O48  1  0.25158767  0.63529292  0.45339307  1
  O  O49  1  0.27829532  0.76227520  0.13107562  1
  O  O50  1  0.26559470  0.72977370  0.78908172  1
  O  O51  1  0.32615194  0.95469047  0.46258378  1
  O  O52  1  0.41168627  0.77657377  0.31955832  1
  O  O53  1  0.44050032  0.71502319  0.98506338  1
  O  O54  1  0.42717039  0.85898441  0.64492115  1
  O  O55  1  0.43247485  0.25749203  0.20848848  1
  O  O56  1  0.41982916  0.53866307  0.67348920  1
  O  O57  1  0.44938419  0.28485170  0.52519396  1
  O  O58  1  0.43659517  0.36928145  0.85417784  1
  O  O59  1  0.46347099  0.05076853  0.89531982  1
  O  O60  1  0.53652901  0.94923147  0.10468018  1
  O  O61  1  0.56340483  0.63071855  0.14582216  1
  O  O62  1  0.55061581  0.71514830  0.47480604  1
  O  O63  1  0.58017084  0.46133693  0.32651080  1
  O  O64  1  0.56752515  0.74250797  0.79151152  1
  O  O65  1  0.57282961  0.14101559  0.35507885  1
  O  O66  1  0.55949968  0.28497681  0.01493662  1
  O  O67  1  0.58831373  0.22342623  0.68044168  1
  O  O68  1  0.67384806  0.04530953  0.53741622  1
  O  O69  1  0.73440530  0.27022630  0.21091828  1
  O  O70  1  0.72170468  0.23772480  0.86892438  1
  O  O71  1  0.74841233  0.36470708  0.54660693  1
  O  O72  1  0.75158767  0.86470708  0.95339307  1
  O  O73  1  0.77829532  0.73772480  0.63107562  1
  O  O74  1  0.76559470  0.77022630  0.28908172  1
  O  O75  1  0.82615194  0.54530953  0.96258378  1
  O  O76  1  0.91168627  0.72342623  0.81955832  1
  O  O77  1  0.94050032  0.78497681  0.48506338  1
  O  O78  1  0.93247485  0.24250797  0.70848848  1
  O  O79  1  0.92717039  0.64101559  0.14492115  1
  O  O80  1  0.91982916  0.96133693  0.17348920  1
  O  O81  1  0.94938419  0.21514830  0.02519396  1
  O  O82  1  0.93659517  0.13071855  0.35417784  1
  O  O83  1  0.96347099  0.44923147  0.39531982  1
