# generated using pymatgen
data_Li4Co3Ni2Sb3O16
_symmetry_space_group_name_H-M   'P 1'
_cell_length_a   5.92562354
_cell_length_b   6.00772834
_cell_length_c   9.70936233
_cell_angle_alpha   89.99999031
_cell_angle_beta   90.23619870
_cell_angle_gamma   120.45856764
_symmetry_Int_Tables_number   1
_chemical_formula_structural   Li4Co3Ni2Sb3O16
_chemical_formula_sum   'Li4 Co3 Ni2 Sb3 O16'
_cell_volume   297.94445807
_cell_formula_units_Z   1
loop_
 _symmetry_equiv_pos_site_id
 _symmetry_equiv_pos_as_xyz
  1  'x, y, z'
loop_
 _atom_site_type_symbol
 _atom_site_label
 _atom_site_symmetry_multiplicity
 _atom_site_fract_x
 _atom_site_fract_y
 _atom_site_fract_z
 _atom_site_occupancy
  Li  Li0  1  0.33878010  0.66939650  0.86466872  1
  Li  Li1  1  0.95199589  0.97600530  0.98883395  1
  Li  Li2  1  0.96781400  0.98390293  0.50729739  1
  Li  Li3  1  0.66585435  0.33293962  0.40422234  1
  Co  Co4  1  0.66563417  0.83282589  0.21672362  1
  Co  Co5  1  0.83242237  0.66256443  0.71512007  1
  Co  Co6  1  0.83242047  0.16988604  0.71512129  1
  Ni  Ni7  1  0.34095334  0.67049857  0.51102232  1
  Ni  Ni8  1  0.68884707  0.34444349  0.97450375  1
  Sb  Sb9  1  0.17220229  0.83383229  0.21556210  1
  Sb  Sb10  1  0.17220579  0.33838430  0.21556062  1
  Sb  Sb11  1  0.34014491  0.17008795  0.71498528  1
  O  O12  1  0.15504498  0.84147089  0.60164711  1
  O  O13  1  0.02744521  0.51372121  0.33502077  1
  O  O14  1  0.34705127  0.67354148  0.10326957  1
  O  O15  1  0.99187757  0.99593967  0.31956692  1
  O  O16  1  0.99068366  0.99535638  0.80972444  1
  O  O17  1  0.15504837  0.31360453  0.60164902  1
  O  O18  1  0.49131801  0.96872317  0.33080292  1
  O  O19  1  0.49129731  0.52258300  0.33080936  1
  O  O20  1  0.31589679  0.15795904  0.09958696  1
  O  O21  1  0.67684320  0.83843691  0.61256971  1
  O  O22  1  0.52704686  0.48879469  0.83496266  1
  O  O23  1  0.52704242  0.03827476  0.83496292  1
  O  O24  1  0.67920450  0.33961376  0.60896664  1
  O  O25  1  0.84242693  0.68564299  0.10746041  1
  O  O26  1  0.97003359  0.48503712  0.82577344  1
  O  O27  1  0.84246662  0.15683311  0.10744471  1
