# generated using pymatgen
data_YMg6Bi
_symmetry_space_group_name_H-M   'P 1'
_cell_length_a   6.64662224
_cell_length_b   6.33593062
_cell_length_c   5.40606846
_cell_angle_alpha   90.00000000
_cell_angle_beta   90.00000000
_cell_angle_gamma   118.46539833
_symmetry_Int_Tables_number   1
_chemical_formula_structural   YMg6Bi
_chemical_formula_sum   'Y1 Mg6 Bi1'
_cell_volume   200.13993634
_cell_formula_units_Z   1
loop_
 _symmetry_equiv_pos_site_id
 _symmetry_equiv_pos_as_xyz
  1  'x, y, z'
loop_
 _atom_site_type_symbol
 _atom_site_label
 _atom_site_symmetry_multiplicity
 _atom_site_fract_x
 _atom_site_fract_y
 _atom_site_fract_z
 _atom_site_occupancy
  Y  Y0  1  0.15954845  0.32977373  0.25000000  1
  Mg  Mg1  1  0.66460407  0.33027612  0.25000000  1
  Mg  Mg2  1  0.66460407  0.83432694  0.25000000  1
  Mg  Mg3  1  0.34629129  0.17578325  0.75000000  1
  Mg  Mg4  1  0.34629129  0.67050904  0.75000000  1
  Mg  Mg5  1  0.82846526  0.16423313  0.75000000  1
  Mg  Mg6  1  0.82383507  0.66191804  0.75000000  1
  Bi  Bi7  1  0.16636051  0.83317975  0.25000000  1
