# generated using pymatgen
data_Fe4O3F5
_symmetry_space_group_name_H-M   'P 1'
_cell_length_a   4.83753027
_cell_length_b   9.72194037
_cell_length_c   6.17844928
_cell_angle_alpha   90.00000000
_cell_angle_beta   90.00000000
_cell_angle_gamma   90.94524936
_symmetry_Int_Tables_number   1
_chemical_formula_structural   Fe4O3F5
_chemical_formula_sum   'Fe8 O6 F10'
_cell_volume   290.53404449
_cell_formula_units_Z   2
loop_
 _symmetry_equiv_pos_site_id
 _symmetry_equiv_pos_as_xyz
  1  'x, y, z'
loop_
 _atom_site_type_symbol
 _atom_site_label
 _atom_site_symmetry_multiplicity
 _atom_site_fract_x
 _atom_site_fract_y
 _atom_site_fract_z
 _atom_site_occupancy
  Fe  Fe0  1  0.97242299  0.97407675  0.00910428  1
  Fe  Fe1  1  0.03825527  0.01135160  0.49615558  1
  Fe  Fe2  1  0.97242299  0.47407675  0.99089572  1
  Fe  Fe3  1  0.03825527  0.51135160  0.50384442  1
  Fe  Fe4  1  0.50321551  0.24803252  0.25191923  1
  Fe  Fe5  1  0.46976780  0.26611759  0.74915385  1
  Fe  Fe6  1  0.46976780  0.76611759  0.25084615  1
  Fe  Fe7  1  0.50321551  0.74803252  0.74808077  1
  O  O8  1  0.18991815  0.40532001  0.75904431  1
  O  O9  1  0.18991815  0.90532001  0.24095569  1
  O  O10  1  0.33613716  0.16699308  0.50038247  1
  O  O11  1  0.33613716  0.66699308  0.49961753  1
  O  O12  1  0.68191916  0.33863366  0.00182606  1
  O  O13  1  0.68191916  0.83863366  0.99817394  1
  F  F14  1  0.20091299  0.39700659  0.23561834  1
  F  F15  1  0.20091299  0.89700659  0.76438166  1
  F  F16  1  0.29136851  0.14754546  -0.00006181  1
  F  F17  1  0.29136851  0.64754546  0.00006181  1
  F  F18  1  0.70423592  0.35416087  0.49543069  1
  F  F19  1  0.70423592  0.85416087  0.50456931  1
  F  F20  1  0.79631984  0.59977366  0.76515967  1
  F  F21  1  0.81552570  0.09098621  0.76546905  1
  F  F22  1  0.81552570  0.59098621  0.23453095  1
  F  F23  1  0.79631984  0.09977366  0.23484033  1
