# generated using pymatgen
data_LiFe2C2O7
_symmetry_space_group_name_H-M   'P 1'
_cell_length_a   10.52515642
_cell_length_b   5.98978418
_cell_length_c   9.33102009
_cell_angle_alpha   90.00000000
_cell_angle_beta   63.14115274
_cell_angle_gamma   90.00000000
_symmetry_Int_Tables_number   1
_chemical_formula_structural   LiFe2C2O7
_chemical_formula_sum   'Li4 Fe8 C8 O28'
_cell_volume   524.79928421
_cell_formula_units_Z   4
loop_
 _symmetry_equiv_pos_site_id
 _symmetry_equiv_pos_as_xyz
  1  'x, y, z'
loop_
 _atom_site_type_symbol
 _atom_site_label
 _atom_site_symmetry_multiplicity
 _atom_site_fract_x
 _atom_site_fract_y
 _atom_site_fract_z
 _atom_site_occupancy
  Li  Li0  1  0.49278483  0.94043711  0.76638229  1
  Li  Li1  1  0.50721517  0.44043711  0.73361771  1
  Li  Li2  1  0.49278483  0.55956289  0.26638229  1
  Li  Li3  1  0.50721517  0.05956289  0.23361771  1
  Fe  Fe4  1  0.16185844  0.11515953  0.93432779  1
  Fe  Fe5  1  0.98828734  0.08077364  0.72095991  1
  Fe  Fe6  1  0.16185844  0.38484047  0.43432779  1
  Fe  Fe7  1  0.98828734  0.41922636  0.22095991  1
  Fe  Fe8  1  0.01171266  0.58077364  0.77904009  1
  Fe  Fe9  1  0.83814156  0.61515953  0.56567221  1
  Fe  Fe10  1  0.01171266  0.91922636  0.27904009  1
  Fe  Fe11  1  0.83814156  0.88484047  0.06567221  1
  C  C12  1  0.22569436  0.65657424  0.93179621  1
  C  C13  1  0.33257163  0.23968994  0.59488846  1
  C  C14  1  0.22569436  0.84342576  0.43179621  1
  C  C15  1  0.66742837  0.73968994  0.90511154  1
  C  C16  1  0.33257163  0.26031006  0.09488846  1
  C  C17  1  0.77430564  0.15657424  0.56820379  1
  C  C18  1  0.66742837  0.76031006  0.40511154  1
  C  C19  1  0.77430564  0.34342576  0.06820379  1
  O  O20  1  0.02142982  0.87653897  0.87281429  1
  O  O21  1  0.13997694  0.48348856  0.97239744  1
  O  O22  1  0.34238695  0.19485583  0.95669230  1
  O  O23  1  0.20001374  0.21082427  0.71358570  1
  O  O24  1  0.33899982  0.67304916  0.80166191  1
  O  O25  1  0.02142982  0.62346103  0.37281429  1
  O  O26  1  0.13997694  0.01651144  0.47239744  1
  O  O27  1  0.18276303  0.67594500  0.53539321  1
  O  O28  1  0.56157988  0.70195209  0.88089817  1
  O  O29  1  0.43842012  0.20195209  0.61910183  1
  O  O30  1  0.34238695  0.30514417  0.45669230  1
  O  O31  1  0.81723697  0.17594500  0.96460679  1
  O  O32  1  0.20001374  0.28917573  0.21358570  1
  O  O33  1  0.66100018  0.17304916  0.69833809  1
  O  O34  1  0.33899982  0.82695084  0.30166191  1
  O  O35  1  0.79998626  0.71082427  0.78641430  1
  O  O36  1  0.18276303  0.82405500  0.03539321  1
  O  O37  1  0.65761305  0.69485583  0.54330770  1
  O  O38  1  0.56157988  0.79804791  0.38089817  1
  O  O39  1  0.43842012  0.29804791  0.11910183  1
  O  O40  1  0.81723697  0.32405500  0.46460679  1
  O  O41  1  0.86002306  0.98348856  0.52760256  1
  O  O42  1  0.97857018  0.37653897  0.62718571  1
  O  O43  1  0.66100018  0.32695084  0.19833809  1
  O  O44  1  0.79998626  0.78917573  0.28641430  1
  O  O45  1  0.65761305  0.80514417  0.04330770  1
  O  O46  1  0.86002306  0.51651144  0.02760256  1
  O  O47  1  0.97857018  0.12346103  0.12718571  1
