# generated using pymatgen
data_LiP3(WO6)2
_symmetry_space_group_name_H-M   'P 1'
_cell_length_a   9.06222257
_cell_length_b   9.22159819
_cell_length_c   12.49177018
_cell_angle_alpha   90.00000000
_cell_angle_beta   90.00000000
_cell_angle_gamma   90.00000000
_symmetry_Int_Tables_number   1
_chemical_formula_structural   LiP3(WO6)2
_chemical_formula_sum   'Li4 P12 W8 O48'
_cell_volume   1043.91443957
_cell_formula_units_Z   4
loop_
 _symmetry_equiv_pos_site_id
 _symmetry_equiv_pos_as_xyz
  1  'x, y, z'
loop_
 _atom_site_type_symbol
 _atom_site_label
 _atom_site_symmetry_multiplicity
 _atom_site_fract_x
 _atom_site_fract_y
 _atom_site_fract_z
 _atom_site_occupancy
  Li  Li0  1  0.14643880  0.76900927  0.25000000  1
  Li  Li1  1  0.14643880  0.73099073  0.75000000  1
  Li  Li2  1  0.85356120  0.26900927  0.25000000  1
  Li  Li3  1  0.85356120  0.23099073  0.75000000  1
  P  P4  1  0.03385893  0.75000000  0.00000000  1
  P  P5  1  0.03385893  0.75000000  0.50000000  1
  P  P6  1  0.39886301  0.37332698  0.13204976  1
  P  P7  1  0.39886301  0.12667302  0.63204976  1
  P  P8  1  0.39886301  0.37332698  0.36795024  1
  P  P9  1  0.39886301  0.12667302  0.86795024  1
  P  P10  1  0.60113699  0.62667302  0.86795024  1
  P  P11  1  0.60113699  0.62667302  0.63204976  1
  P  P12  1  0.60113699  0.87332698  0.13204976  1
  P  P13  1  0.60113699  0.87332698  0.36795024  1
  P  P14  1  0.96614107  0.25000000  0.00000000  1
  P  P15  1  0.96614107  0.25000000  0.50000000  1
  W  W16  1  0.24658351  0.02294854  0.09920085  1
  W  W17  1  0.24658351  0.02294854  0.40079915  1
  W  W18  1  0.24658351  0.47705146  0.59920085  1
  W  W19  1  0.24658351  0.47705146  0.90079915  1
  W  W20  1  0.75341649  0.52294854  0.09920085  1
  W  W21  1  0.75341649  0.52294854  0.40079915  1
  W  W22  1  0.75341649  0.97705146  0.90079915  1
  W  W23  1  0.75341649  0.97705146  0.59920085  1
  O  O24  1  0.05593881  0.13712992  0.43829061  1
  O  O25  1  0.05593881  0.36287008  0.56170939  1
  O  O26  1  0.05593881  0.36287008  0.93829061  1
  O  O27  1  0.05593881  0.13712992  0.06170939  1
  O  O28  1  0.13249242  0.82189849  0.08825853  1
  O  O29  1  0.13249242  0.82189849  0.41174147  1
  O  O30  1  0.13249242  0.67810151  0.91174147  1
  O  O31  1  0.13249242  0.67810151  0.58825853  1
  O  O32  1  0.20677953  0.01471740  0.25000000  1
  O  O33  1  0.20677953  0.48528260  0.75000000  1
  O  O34  1  0.30450032  0.02704545  0.56117301  1
  O  O35  1  0.30450032  0.47295455  0.06117301  1
  O  O36  1  0.30450032  0.47295455  0.43882699  1
  O  O37  1  0.30450032  0.02704545  0.93882699  1
  O  O38  1  0.34368685  0.07723008  0.75000000  1
  O  O39  1  0.34368685  0.42276992  0.25000000  1
  O  O40  1  0.36656695  0.21332175  0.38159138  1
  O  O41  1  0.36656695  0.28667825  0.61840862  1
  O  O42  1  0.36656695  0.28667825  0.88159138  1
  O  O43  1  0.36656695  0.21332175  0.11840862  1
  O  O44  1  0.43624025  0.89777384  0.12399035  1
  O  O45  1  0.43624025  0.60222616  0.62399035  1
  O  O46  1  0.43624025  0.89777384  0.37600965  1
  O  O47  1  0.43624025  0.60222616  0.87600965  1
  O  O48  1  0.56375975  0.10222616  0.87600965  1
  O  O49  1  0.56375975  0.39777384  0.12399035  1
  O  O50  1  0.56375975  0.39777384  0.37600965  1
  O  O51  1  0.56375975  0.10222616  0.62399035  1
  O  O52  1  0.63343305  0.71332175  0.11840862  1
  O  O53  1  0.63343305  0.71332175  0.38159138  1
  O  O54  1  0.63343305  0.78667825  0.88159138  1
  O  O55  1  0.63343305  0.78667825  0.61840862  1
  O  O56  1  0.65631315  0.57723008  0.75000000  1
  O  O57  1  0.65631315  0.92276992  0.25000000  1
  O  O58  1  0.69549968  0.52704545  0.56117301  1
  O  O59  1  0.69549968  0.52704545  0.93882699  1
  O  O60  1  0.69549968  0.97295455  0.06117301  1
  O  O61  1  0.69549968  0.97295455  0.43882699  1
  O  O62  1  0.79322047  0.51471740  0.25000000  1
  O  O63  1  0.79322047  0.98528260  0.75000000  1
  O  O64  1  0.86750758  0.17810151  0.58825853  1
  O  O65  1  0.86750758  0.32189849  0.41174147  1
  O  O66  1  0.86750758  0.32189849  0.08825853  1
  O  O67  1  0.86750758  0.17810151  0.91174147  1
  O  O68  1  0.94406119  0.86287008  0.93829061  1
  O  O69  1  0.94406119  0.63712992  0.06170939  1
  O  O70  1  0.94406119  0.63712992  0.43829061  1
  O  O71  1  0.94406119  0.86287008  0.56170939  1
