# generated using pymatgen
data_Li2V2P2O9
_symmetry_space_group_name_H-M   'P 1'
_cell_length_a   8.45025200
_cell_length_b   5.67306285
_cell_length_c   14.53110142
_cell_angle_alpha   90.00304933
_cell_angle_beta   90.00434303
_cell_angle_gamma   89.99014739
_symmetry_Int_Tables_number   1
_chemical_formula_structural   Li2V2P2O9
_chemical_formula_sum   'Li8 V8 P8 O36'
_cell_volume   696.60370680
_cell_formula_units_Z   4
loop_
 _symmetry_equiv_pos_site_id
 _symmetry_equiv_pos_as_xyz
  1  'x, y, z'
loop_
 _atom_site_type_symbol
 _atom_site_label
 _atom_site_symmetry_multiplicity
 _atom_site_fract_x
 _atom_site_fract_y
 _atom_site_fract_z
 _atom_site_occupancy
  Li  Li0  1  0.02161709  0.24999972  0.73890443  1
  Li  Li1  1  0.01979355  0.25000042  0.12868897  1
  Li  Li2  1  0.48021394  0.75001201  0.62871755  1
  Li  Li3  1  0.47835699  0.74999497  0.23887570  1
  Li  Li4  1  0.52164782  0.25000557  0.76112339  1
  Li  Li5  1  0.51981713  0.24998658  0.37129356  1
  Li  Li6  1  0.98023453  0.74999292  0.87130113  1
  Li  Li7  1  0.97838627  0.75000236  0.26109587  1
  V  V8  1  0.99999108  0.00000585  0.49999293  1
  V  V9  1  0.99999438  0.49999771  0.49999469  1
  V  V10  1  0.20695806  0.24995994  0.93620733  1
  V  V11  1  0.29301308  0.75009651  0.43621687  1
  V  V12  1  0.50000078  0.00000714  0.00000363  1
  V  V13  1  0.50000388  0.49999700  0.00000601  1
  V  V14  1  0.70697984  0.24989365  0.56378734  1
  V  V15  1  0.79304215  0.75002030  0.06379164  1
  P  P16  1  0.17144596  0.74998872  0.07040184  1
  P  P17  1  0.20780897  0.25004327  0.32998479  1
  P  P18  1  0.29218961  0.74995374  0.82996801  1
  P  P19  1  0.32856201  0.24989281  0.57040612  1
  P  P20  1  0.67143308  0.75010774  0.42959543  1
  P  P21  1  0.70783132  0.25005399  0.17002399  1
  P  P22  1  0.79220262  0.74995421  0.67001416  1
  P  P23  1  0.82854853  0.24999816  0.92960363  1
  O  O24  1  0.98821315  0.25003242  0.98365367  1
  O  O25  1  0.06596589  0.24988942  0.40564123  1
  O  O26  1  0.06103115  0.75000079  0.41316861  1
  O  O27  1  0.13119819  0.25001659  0.23761294  1
  O  O28  1  0.14898529  0.74997885  0.17271907  1
  O  O29  1  0.18298069  0.53042285  0.84788527  1
  O  O30  1  0.18295381  0.96958555  0.84788586  1
  O  O31  1  0.23723917  0.01899083  0.53818015  1
  O  O32  1  0.23693689  0.48097241  0.53818660  1
  O  O33  1  0.26295171  0.51903498  0.03817613  1
  O  O34  1  0.26285691  0.98101559  0.03817838  1
  O  O35  1  0.31702937  0.03044898  0.34788893  1
  O  O36  1  0.31698928  0.46958338  0.34791027  1
  O  O37  1  0.35106855  0.25007058  0.67271735  1
  O  O38  1  0.36874646  0.74999003  0.73761700  1
  O  O39  1  0.43893904  0.24999606  0.91317736  1
  O  O40  1  0.43402256  0.75003975  0.90564212  1
  O  O41  1  0.51175968  0.74990237  0.48364622  1
  O  O42  1  0.48822845  0.25009287  0.51635197  1
  O  O43  1  0.56597887  0.24996477  0.09436742  1
  O  O44  1  0.56106861  0.75001955  0.08682596  1
  O  O45  1  0.63124421  0.25002414  0.26239405  1
  O  O46  1  0.64893739  0.74992786  0.32727597  1
  O  O47  1  0.68301076  0.53042567  0.65209001  1
  O  O48  1  0.68297261  0.96955557  0.65211016  1
  O  O49  1  0.73713390  0.01898324  0.96182352  1
  O  O50  1  0.73703588  0.48095950  0.96182031  1
  O  O51  1  0.76304735  0.51902756  0.46181484  1
  O  O52  1  0.76274469  0.98100537  0.46181754  1
  O  O53  1  0.81704870  0.03041808  0.15211466  1
  O  O54  1  0.81701259  0.46958229  0.15211500  1
  O  O55  1  0.85101376  0.25001450  0.82727876  1
  O  O56  1  0.86879885  0.74998617  0.76238458  1
  O  O57  1  0.93896924  0.25000114  0.58682884  1
  O  O58  1  0.93403674  0.75011554  0.59435282  1
  O  O59  1  0.01177690  0.74995945  0.01634741  1
