# generated using pymatgen
data_LiVPO5
_symmetry_space_group_name_H-M   'P 1'
_cell_length_a   5.96071264
_cell_length_b   7.91864308
_cell_length_c   5.12192251
_cell_angle_alpha   80.28127618
_cell_angle_beta   90.00000000
_cell_angle_gamma   67.89085373
_symmetry_Int_Tables_number   1
_chemical_formula_structural   LiVPO5
_chemical_formula_sum   'Li2 V2 P2 O10'
_cell_volume   220.23223552
_cell_formula_units_Z   2
loop_
 _symmetry_equiv_pos_site_id
 _symmetry_equiv_pos_as_xyz
  1  'x, y, z'
loop_
 _atom_site_type_symbol
 _atom_site_label
 _atom_site_symmetry_multiplicity
 _atom_site_fract_x
 _atom_site_fract_y
 _atom_site_fract_z
 _atom_site_occupancy
  Li  Li0  1  0.13485547  0.73028906  0.04906374  1
  Li  Li1  1  0.86514453  0.26971094  0.95093626  1
  V  V2  1  0.22631804  0.00000000  0.50000000  1
  V  V3  1  0.77368196  1.00000000  0.50000000  1
  P  P4  1  0.64399013  0.71201873  0.70235369  1
  P  P5  1  0.35600987  0.28798127  0.29764631  1
  O  O6  1  0.38263328  0.79854404  0.80794724  1
  O  O7  1  0.81882268  0.79854404  0.80794724  1
  O  O8  1  0.04601962  0.90796076  0.31201209  1
  O  O9  1  0.58160479  0.83679141  0.40974330  1
  O  O10  1  0.74591777  0.50816346  0.73230329  1
  O  O11  1  0.25408223  0.49183654  0.26769671  1
  O  O12  1  0.41839521  0.16320859  0.59025670  1
  O  O13  1  0.95398038  0.09203924  0.68798791  1
  O  O14  1  0.18117732  0.20145596  0.19205276  1
  O  O15  1  0.61736672  0.20145596  0.19205276  1
