# generated using pymatgen
data_Mg6MnZn
_symmetry_space_group_name_H-M   'P 1'
_cell_length_a   6.15961790
_cell_length_b   6.15961745
_cell_length_c   4.91963032
_cell_angle_alpha   90.00000000
_cell_angle_beta   90.00000000
_cell_angle_gamma   120.04134492
_symmetry_Int_Tables_number   1
_chemical_formula_structural   Mg6MnZn
_chemical_formula_sum   'Mg6 Mn1 Zn1'
_cell_volume   161.58071591
_cell_formula_units_Z   1
loop_
 _symmetry_equiv_pos_site_id
 _symmetry_equiv_pos_as_xyz
  1  'x, y, z'
loop_
 _atom_site_type_symbol
 _atom_site_label
 _atom_site_symmetry_multiplicity
 _atom_site_fract_x
 _atom_site_fract_y
 _atom_site_fract_z
 _atom_site_occupancy
  Mg  Mg0  1  0.17025241  0.84140991  0.25000000  1
  Mg  Mg1  1  0.65859009  0.32974759  0.25000000  1
  Mg  Mg2  1  0.66654108  0.83345892  0.25000000  1
  Mg  Mg3  1  0.33054401  0.65569654  0.75000000  1
  Mg  Mg4  1  0.84430346  0.16945599  0.75000000  1
  Mg  Mg5  1  0.83283961  0.66716039  0.75000000  1
  Mn  Mn6  1  0.17047426  0.32952574  0.25000000  1
  Zn  Zn7  1  0.32645507  0.17354493  0.75000000  1
