# generated using pymatgen
data_LiVP2O7
_symmetry_space_group_name_H-M   'P 1'
_cell_length_a   9.27664041
_cell_length_b   8.28980828
_cell_length_c   6.73498490
_cell_angle_alpha   90.00000000
_cell_angle_beta   103.94656851
_cell_angle_gamma   90.00000000
_symmetry_Int_Tables_number   1
_chemical_formula_structural   LiVP2O7
_chemical_formula_sum   'Li4 V4 P8 O28'
_cell_volume   502.66278407
_cell_formula_units_Z   4
loop_
 _symmetry_equiv_pos_site_id
 _symmetry_equiv_pos_as_xyz
  1  'x, y, z'
loop_
 _atom_site_type_symbol
 _atom_site_label
 _atom_site_symmetry_multiplicity
 _atom_site_fract_x
 _atom_site_fract_y
 _atom_site_fract_z
 _atom_site_occupancy
  Li  Li0  1  0.24741326  0.07768903  0.26607276  1
  Li  Li1  1  0.24741326  0.42231097  0.26607276  1
  Li  Li2  1  0.75258674  0.57768903  0.73392724  1
  Li  Li3  1  0.75258674  0.92231097  0.73392724  1
  V  V4  1  0.24982858  0.92984286  0.75101612  1
  V  V5  1  0.24982858  0.57015714  0.75101612  1
  V  V6  1  0.75017142  0.07015714  0.24898388  1
  V  V7  1  0.75017142  0.42984286  0.24898388  1
  P  P8  1  0.04970238  0.75000000  0.99899553  1
  P  P9  1  0.03418187  0.25000000  0.57886771  1
  P  P10  1  0.46824985  0.25000000  0.91854249  1
  P  P11  1  0.44687975  0.75000000  0.49831864  1
  P  P12  1  0.55312025  0.25000000  0.50168136  1
  P  P13  1  0.53175015  0.75000000  0.08145751  1
  P  P14  1  0.96581813  0.75000000  0.42113229  1
  P  P15  1  0.95029762  0.25000000  0.00100447  1
  O  O16  1  0.04608212  0.75000000  0.23860870  1
  O  O17  1  0.14215984  0.59707199  0.98102181  1
  O  O18  1  0.14215984  0.90292801  0.98102181  1
  O  O19  1  0.10105425  0.75000000  0.61081977  1
  O  O20  1  0.12532356  0.09783456  0.57727799  1
  O  O21  1  0.12532356  0.40216544  0.57727799  1
  O  O22  1  0.10764777  0.25000000  0.13019512  1
  O  O23  1  0.37680278  0.09786653  0.91493869  1
  O  O24  1  0.37680278  0.40213347  0.91493869  1
  O  O25  1  0.39920921  0.75000000  0.88821866  1
  O  O26  1  0.35499863  0.59693792  0.51851383  1
  O  O27  1  0.35499863  0.90306208  0.51851383  1
  O  O28  1  0.39466611  0.25000000  0.37683083  1
  O  O29  1  0.44539256  0.75000000  0.25785795  1
  O  O30  1  0.55460744  0.25000000  0.74214205  1
  O  O31  1  0.60533389  0.75000000  0.62316917  1
  O  O32  1  0.64500137  0.09693792  0.48148617  1
  O  O33  1  0.64500137  0.40306208  0.48148617  1
  O  O34  1  0.60079079  0.25000000  0.11178134  1
  O  O35  1  0.62319722  0.59786653  0.08506131  1
  O  O36  1  0.62319722  0.90213347  0.08506131  1
  O  O37  1  0.89235223  0.75000000  0.86980488  1
  O  O38  1  0.87467644  0.59783456  0.42272201  1
  O  O39  1  0.87467644  0.90216544  0.42272201  1
  O  O40  1  0.89894575  0.25000000  0.38918023  1
  O  O41  1  0.85784016  0.09707199  0.01897819  1
  O  O42  1  0.85784016  0.40292801  0.01897819  1
  O  O43  1  0.95391788  0.25000000  0.76139130  1
