# generated using pymatgen
data_LiMn2(CO3)4
_symmetry_space_group_name_H-M   'P 1'
_cell_length_a   8.62343926
_cell_length_b   6.47786507
_cell_length_c   5.45024993
_cell_angle_alpha   64.70060800
_cell_angle_beta   68.05401802
_cell_angle_gamma   80.03756907
_symmetry_Int_Tables_number   1
_chemical_formula_structural   LiMn2(CO3)4
_chemical_formula_sum   'Li1 Mn2 C4 O12'
_cell_volume   255.27931050
_cell_formula_units_Z   1
loop_
 _symmetry_equiv_pos_site_id
 _symmetry_equiv_pos_as_xyz
  1  'x, y, z'
loop_
 _atom_site_type_symbol
 _atom_site_label
 _atom_site_symmetry_multiplicity
 _atom_site_fract_x
 _atom_site_fract_y
 _atom_site_fract_z
 _atom_site_occupancy
  Li  Li0  1  0.15932294  0.48532212  0.07947857  1
  Mn  Mn1  1  0.51304290  0.51309638  0.36180946  1
  Mn  Mn2  1  0.99935479  0.99096772  0.09846588  1
  C  C3  1  0.79081053  0.61865422  0.25620321  1
  C  C4  1  0.71452458  0.11228859  0.28297641  1
  C  C5  1  0.28088482  0.88508668  0.11389404  1
  C  C6  1  0.20647948  0.37743948  0.64623139  1
  O  O7  1  0.94427828  0.67270850  0.19164790  1
  O  O8  1  0.82599888  0.07048869  0.40883504  1
  O  O9  1  0.67862628  0.58296149  0.50475115  1
  O  O10  1  0.74428654  0.59182230  0.07195918  1
  O  O11  1  0.77298317  0.07031693  0.04939613  1
  O  O12  1  0.56815603  0.18481595  0.37310760  1
  O  O13  1  0.42560757  0.82321762  0.12238330  1
  O  O14  1  0.23071915  0.88948341  0.90965265  1
  O  O15  1  0.31718324  0.43327901  0.72119985  1
  O  O16  1  0.24469543  0.40327825  0.38856603  1
  O  O17  1  0.16266226  0.94985417  0.30132133  1
  O  O18  1  0.06192114  0.31055347  0.84747089  1
