# generated using pymatgen
data_Li8(FeO2)5
_symmetry_space_group_name_H-M   'P 1'
_cell_length_a   5.43978891
_cell_length_b   6.77223568
_cell_length_c   8.02902213
_cell_angle_alpha   90.43749942
_cell_angle_beta   102.80415805
_cell_angle_gamma   113.38418660
_symmetry_Int_Tables_number   1
_chemical_formula_structural   Li8(FeO2)5
_chemical_formula_sum   'Li8 Fe5 O10'
_cell_volume   263.22543148
_cell_formula_units_Z   1
loop_
 _symmetry_equiv_pos_site_id
 _symmetry_equiv_pos_as_xyz
  1  'x, y, z'
loop_
 _atom_site_type_symbol
 _atom_site_label
 _atom_site_symmetry_multiplicity
 _atom_site_fract_x
 _atom_site_fract_y
 _atom_site_fract_z
 _atom_site_occupancy
  Li  Li0  1  0.90217787  0.34183294  0.06882201  1
  Li  Li1  1  0.70680826  0.15282706  0.44305913  1
  Li  Li2  1  0.49782213  0.05816706  0.13117799  1
  Li  Li3  1  0.69319174  0.24717294  0.75694087  1
  Li  Li4  1  0.27415236  0.71317364  0.26558228  1
  Li  Li5  1  0.31392129  0.87567918  0.55107777  1
  Li  Li6  1  0.08607871  0.52432082  0.64892223  1
  Li  Li7  1  0.12584764  0.68682636  0.93441772  1
  Fe  Fe8  1  0.90336484  0.90001781  0.19814929  1
  Fe  Fe9  1  0.49663516  0.49998219  0.00185071  1
  Fe  Fe10  1  0.70000000  0.70000000  0.60000000  1
  Fe  Fe11  1  0.29111185  0.29887576  0.40382415  1
  Fe  Fe12  1  0.10888815  0.10112424  0.79617585  1
  O  O13  1  0.89883233  0.17343826  0.26369846  1
  O  O14  1  0.89978484  0.63275423  0.10400269  1
  O  O15  1  0.68071443  0.41583197  0.55699195  1
  O  O16  1  0.29630727  0.01187542  0.32492336  1
  O  O17  1  0.50021516  0.76724577  0.09599731  1
  O  O18  1  0.50116767  0.22656174  0.93630154  1
  O  O19  1  0.71928557  0.98416803  0.64300805  1
  O  O20  1  0.32380846  0.59337182  0.48628864  1
  O  O21  1  0.10369273  0.38812458  0.87507664  1
  O  O22  1  0.07619154  0.80662818  0.71371136  1
