# generated using pymatgen
data_LiMn2(CO3)4
_symmetry_space_group_name_H-M   'P 1'
_cell_length_a   7.33148394
_cell_length_b   9.74125032
_cell_length_c   8.45918131
_cell_angle_alpha   90.00000000
_cell_angle_beta   69.76613845
_cell_angle_gamma   90.00000000
_symmetry_Int_Tables_number   1
_chemical_formula_structural   LiMn2(CO3)4
_chemical_formula_sum   'Li2 Mn4 C8 O24'
_cell_volume   566.85430851
_cell_formula_units_Z   2
loop_
 _symmetry_equiv_pos_site_id
 _symmetry_equiv_pos_as_xyz
  1  'x, y, z'
loop_
 _atom_site_type_symbol
 _atom_site_label
 _atom_site_symmetry_multiplicity
 _atom_site_fract_x
 _atom_site_fract_y
 _atom_site_fract_z
 _atom_site_occupancy
  Li  Li0  1  0.51060726  0.43454059  0.13255131  1
  Li  Li1  1  0.98939274  0.93454059  0.36744869  1
  Mn  Mn2  1  0.03441215  0.35316701  0.43503714  1
  Mn  Mn3  1  0.46558785  0.85316701  0.06496286  1
  Mn  Mn4  1  0.55165088  0.14143021  0.92643949  1
  Mn  Mn5  1  0.94834912  0.64143021  0.57356051  1
  C  C6  1  0.25593233  0.10877820  0.25844724  1
  C  C7  1  0.24406767  0.60877820  0.24155276  1
  C  C8  1  0.25775713  0.47972802  0.63439754  1
  C  C9  1  0.24224287  0.97972802  0.86560246  1
  C  C10  1  0.76375957  0.01629250  0.13665057  1
  C  C11  1  0.73624043  0.51629250  0.36334943  1
  C  C12  1  0.74650515  0.39917909  0.77014379  1
  C  C13  1  0.75349485  0.89917909  0.72985621  1
  O  O14  1  0.11524035  0.15028945  0.38768809  1
  O  O15  1  0.21942350  0.47611243  0.25861313  1
  O  O16  1  0.13724442  0.69644186  0.34943191  1
  O  O17  1  0.36275558  0.19644186  0.15056809  1
  O  O18  1  0.28057650  0.97611243  0.24138687  1
  O  O19  1  0.38475965  0.65028945  0.11231191  1
  O  O20  1  0.11524872  0.96295196  0.79831483  1
  O  O21  1  0.21579686  0.37354560  0.56051837  1
  O  O22  1  0.17642180  0.59882399  0.64061082  1
  O  O23  1  0.32357820  0.09882399  0.85938918  1
  O  O24  1  0.28420314  0.87354560  0.93948163  1
  O  O25  1  0.61435266  0.52783936  0.28961110  1
  O  O26  1  0.38475128  0.46295196  0.70168517  1
  O  O27  1  0.73891559  0.11588895  0.04442433  1
  O  O28  1  0.66447574  0.90202782  0.15720889  1
  O  O29  1  0.83552426  0.40202782  0.34279111  1
  O  O30  1  0.76108441  0.61588895  0.45557567  1
  O  O31  1  0.88564734  0.02783936  0.21038890  1
  O  O32  1  0.62106206  0.35163736  0.90703841  1
  O  O33  1  0.70907885  0.02796425  0.73633006  1
  O  O34  1  0.67745992  0.81351234  0.85209231  1
  O  O35  1  0.82254008  0.31351234  0.64790769  1
  O  O36  1  0.79092115  0.52796425  0.76366994  1
  O  O37  1  0.87893794  0.85163736  0.59296159  1
