# generated using pymatgen
data_LiCoSiO4
_symmetry_space_group_name_H-M   'P 1'
_cell_length_a   5.17857891
_cell_length_b   5.17263564
_cell_length_c   9.23392548
_cell_angle_alpha   86.08282776
_cell_angle_beta   93.39234576
_cell_angle_gamma   119.80173517
_symmetry_Int_Tables_number   1
_chemical_formula_structural   LiCoSiO4
_chemical_formula_sum   'Li2 Co2 Si2 O8'
_cell_volume   214.04423604
_cell_formula_units_Z   2
loop_
 _symmetry_equiv_pos_site_id
 _symmetry_equiv_pos_as_xyz
  1  'x, y, z'
loop_
 _atom_site_type_symbol
 _atom_site_label
 _atom_site_symmetry_multiplicity
 _atom_site_fract_x
 _atom_site_fract_y
 _atom_site_fract_z
 _atom_site_occupancy
  Li  Li0  1  0.98246254  0.97871924  0.18877874  1
  Li  Li1  1  0.99840103  0.02123586  0.68454820  1
  Co  Co2  1  0.32250056  0.65710091  0.13281680  1
  Co  Co3  1  0.67093051  0.35844849  0.63243890  1
  Si  Si4  1  0.34294985  0.68352687  0.76595286  1
  Si  Si5  1  0.65959320  0.31121864  0.26661846  1
  O  O6  1  0.02736947  0.39097951  0.71948791  1
  O  O7  1  0.34766611  0.98888296  0.69841776  1
  O  O8  1  0.37975315  0.69556217  0.94268246  1
  O  O9  1  0.36043746  0.32313572  0.20552329  1
  O  O10  1  0.62296264  0.66332452  0.70176968  1
  O  O11  1  0.69311553  0.33409887  0.44279822  1
  O  O12  1  0.63470124  0.99697880  0.22281117  1
  O  O13  1  0.95745670  0.59678745  0.19417556  1
