# generated using pymatgen
data_LiVP2O7
_symmetry_space_group_name_H-M   'P 1'
_cell_length_a   6.30171645
_cell_length_b   6.31232118
_cell_length_c   13.86597933
_cell_angle_alpha   76.17434740
_cell_angle_beta   81.61990380
_cell_angle_gamma   98.92891079
_symmetry_Int_Tables_number   1
_chemical_formula_structural   LiVP2O7
_chemical_formula_sum   'Li4 V4 P8 O28'
_cell_volume   519.39760892
_cell_formula_units_Z   4
loop_
 _symmetry_equiv_pos_site_id
 _symmetry_equiv_pos_as_xyz
  1  'x, y, z'
loop_
 _atom_site_type_symbol
 _atom_site_label
 _atom_site_symmetry_multiplicity
 _atom_site_fract_x
 _atom_site_fract_y
 _atom_site_fract_z
 _atom_site_occupancy
  Li  Li0  1  0.21039679  0.61837552  0.66546509  1
  Li  Li1  1  0.78570700  0.87299566  0.83519779  1
  Li  Li2  1  0.21405837  0.12575091  0.16493396  1
  Li  Li3  1  0.79087498  0.38170139  0.33499321  1
  V  V4  1  0.40977142  0.99150197  0.35739324  1
  V  V5  1  0.15310668  0.23201102  0.85650246  1
  V  V6  1  0.84551472  0.76625984  0.14381911  1
  V  V7  1  0.59019102  0.00765666  0.64352392  1
  P  P8  1  0.27674404  0.76522741  0.86291842  1
  P  P9  1  0.34422893  0.67496520  0.08534600  1
  P  P10  1  0.26132414  0.43142496  0.41457256  1
  P  P11  1  0.87023840  0.85867402  0.36374514  1
  P  P12  1  0.12935704  0.13990578  0.63699960  1
  P  P13  1  0.74041215  0.56900149  0.58611725  1
  P  P14  1  0.65561152  0.32439820  0.91485065  1
  P  P15  1  0.72184689  0.23337717  0.13725534  1
  O  O16  1  0.09200175  0.89240387  0.87867293  1
  O  O17  1  0.17267091  0.82108251  0.10818744  1
  O  O18  1  0.27289913  0.97154551  0.62067486  1
  O  O19  1  0.48617619  0.91491953  0.78923302  1
  O  O20  1  0.08415921  0.42901669  0.35504546  1
  O  O21  1  0.20228567  0.56594687  0.82373192  1
  O  O22  1  0.35249890  0.67969589  0.96637582  1
  O  O23  1  0.38080600  0.66503839  0.41460972  1
  O  O24  1  0.57727205  0.79654778  0.08590347  1
  O  O25  1  0.28462607  0.43831342  0.14439471  1
  O  O26  1  0.14582862  0.31847303  0.53346396  1
  O  O27  1  0.56913953  0.71603565  0.60814632  1
  O  O28  1  0.89116674  0.02559631  0.67700808  1
  O  O29  1  0.20615258  0.27564769  0.71052184  1
  O  O30  1  0.79288726  0.72456241  0.28973485  1
  O  O31  1  0.10872781  0.97356333  0.32361156  1
  O  O32  1  0.43253896  0.28484400  0.39167773  1
  O  O33  1  0.85495388  0.67864510  0.46673099  1
  O  O34  1  0.71760747  0.56077866  0.85587529  1
  O  O35  1  0.42280986  0.20405680  0.91321543  1
  O  O36  1  0.62066011  0.33432396  0.58776994  1
  O  O37  1  0.64493411  0.31966011  0.03408093  1
  O  O38  1  0.79735776  0.43190299  0.17669982  1
  O  O39  1  0.91821478  0.57432323  0.64510992  1
  O  O40  1  0.51319823  0.08305984  0.21138136  1
  O  O41  1  0.72695153  0.02665194  0.38082386  1
  O  O42  1  0.82632019  0.17680921  0.89291982  1
  O  O43  1  0.90659562  0.10632808  0.12052524  1
