# generated using pymatgen
data_Li17(Co4O9)2
_symmetry_space_group_name_H-M   'P 1'
_cell_length_a   9.58329019
_cell_length_b   7.75932879
_cell_length_c   7.61054165
_cell_angle_alpha   61.14648436
_cell_angle_beta   103.21708868
_cell_angle_gamma   87.70282489
_symmetry_Int_Tables_number   1
_chemical_formula_structural   Li17(Co4O9)2
_chemical_formula_sum   'Li17 Co8 O18'
_cell_volume   474.96624065
_cell_formula_units_Z   1
loop_
 _symmetry_equiv_pos_site_id
 _symmetry_equiv_pos_as_xyz
  1  'x, y, z'
loop_
 _atom_site_type_symbol
 _atom_site_label
 _atom_site_symmetry_multiplicity
 _atom_site_fract_x
 _atom_site_fract_y
 _atom_site_fract_z
 _atom_site_occupancy
  Li  Li0  1  0.13186572  0.14482097  0.81068786  1
  Li  Li1  1  0.10567800  0.62114182  0.47248469  1
  Li  Li2  1  0.12459519  0.92096098  0.63597663  1
  Li  Li3  1  0.14945016  0.34985717  0.40445532  1
  Li  Li4  1  0.33623993  0.85699114  0.95187503  1
  Li  Li5  1  0.40223110  0.62409237  0.83576028  1
  Li  Li6  1  0.37662701  0.07412372  0.49649521  1
  Li  Li7  1  0.35968580  0.46292318  0.23654670  1
  Li  Li8  1  0.62941321  0.55066140  0.75804730  1
  Li  Li9  1  0.62102043  0.92790509  0.49846802  1
  Li  Li10  1  0.59798876  0.37312324  0.15791368  1
  Li  Li11  1  0.65805469  0.13211698  0.05168433  1
  Li  Li12  1  0.85819014  0.29230968  0.87566038  1
  Li  Li13  1  0.84930733  0.66581981  0.58684858  1
  Li  Li14  1  0.88044745  0.08789889  0.35407744  1
  Li  Li15  1  0.89440245  0.38227288  0.51698956  1
  Li  Li16  1  0.87154442  0.84707023  0.19214386  1
  Co  Co17  1  0.11755617  0.47942087  0.93668872  1
  Co  Co18  1  0.14617207  0.04156359  0.23247926  1
  Co  Co19  1  0.39100371  0.29606998  0.71713066  1
  Co  Co20  1  0.36529266  0.76650046  0.37082226  1
  Co  Co21  1  0.63289124  0.23171670  0.62815037  1
  Co  Co22  1  0.61065055  0.69346436  0.29086935  1
  Co  Co23  1  0.85792106  0.95761102  0.76227497  1
  Co  Co24  1  0.87883455  0.53090706  0.06912196  1
  O  O25  1  0.02252445  0.41243791  0.75226408  1
  O  O26  1  0.03103276  0.89503104  0.38309175  1
  O  O27  1  0.21991653  0.67327590  0.88898347  1
  O  O28  1  0.28963094  0.11254274  0.68723527  1
  O  O29  1  0.20529801  0.27058978  0.22569847  1
  O  O30  1  0.29046315  0.52332320  0.44244599  1
  O  O31  1  0.25246290  0.95336050  0.10312366  1
  O  O32  1  0.49382512  0.35659641  0.89863752  1
  O  O33  1  0.46020448  0.79552281  0.58053080  1
  O  O34  1  0.54038875  0.20368117  0.41872816  1
  O  O35  1  0.50775861  0.63758640  0.10594790  1
  O  O36  1  0.76351276  0.06105651  0.89642684  1
  O  O37  1  0.71262608  0.46932126  0.57697702  1
  O  O38  1  0.79192510  0.73168366  0.77605987  1
  O  O39  1  0.71008845  0.88192891  0.31355816  1
  O  O40  1  0.78735185  0.32496741  0.08512742  1
  O  O41  1  0.96947612  0.10830824  0.60959733  1
  O  O42  1  0.96122711  0.56647456  0.28049489  1
