# generated using pymatgen
data_Li8Mn(O2F)2
_symmetry_space_group_name_H-M   'P 1'
_cell_length_a   5.68523835
_cell_length_b   5.72992793
_cell_length_c   10.88214026
_cell_angle_alpha   89.99970861
_cell_angle_beta   90.00030625
_cell_angle_gamma   120.26196385
_symmetry_Int_Tables_number   1
_chemical_formula_structural   Li8Mn(O2F)2
_chemical_formula_sum   'Li16 Mn2 O8 F4'
_cell_volume   306.18950967
_cell_formula_units_Z   2
loop_
 _symmetry_equiv_pos_site_id
 _symmetry_equiv_pos_as_xyz
  1  'x, y, z'
loop_
 _atom_site_type_symbol
 _atom_site_label
 _atom_site_symmetry_multiplicity
 _atom_site_fract_x
 _atom_site_fract_y
 _atom_site_fract_z
 _atom_site_occupancy
  Li  Li0  1  0.99999051  0.68676734  0.77393379  1
  Li  Li1  1  0.00000334  0.59213046  0.12756775  1
  Li  Li2  1  0.99998724  0.40786756  0.62756439  1
  Li  Li3  1  0.99999950  0.31322229  0.27393705  1
  Li  Li4  1  0.32322088  0.65482114  0.40276056  1
  Li  Li5  1  0.32322512  0.66840694  0.90275625  1
  Li  Li6  1  0.30411108  0.30632015  0.76347888  1
  Li  Li7  1  0.37736513  0.38494464  0.13880716  1
  Li  Li8  1  0.62261408  0.61505494  0.63880962  1
  Li  Li9  1  0.30412963  0.99780962  0.26347368  1
  Li  Li10  1  0.69587468  0.69368496  0.26347526  1
  Li  Li11  1  0.37736334  0.99242335  0.63880913  1
  Li  Li12  1  0.67675743  0.34517063  0.90275388  1
  Li  Li13  1  0.67677158  0.33159641  0.40276009  1
  Li  Li14  1  0.62263276  0.00758485  0.13880878  1
  Li  Li15  1  0.69586715  0.00219673  0.76347584  1
  Mn  Mn16  1  0.99995030  0.97412762  0.00025410  1
  Mn  Mn17  1  0.99999346  0.02586208  0.50027592  1
  O  O18  1  0.99999735  0.65027842  0.95097687  1
  O  O19  1  0.99998958  0.34970570  0.45098055  1
  O  O20  1  0.33926002  0.67357037  0.21850409  1
  O  O21  1  0.00000452  0.01567844  0.18489492  1
  O  O22  1  0.33924219  0.66569301  0.71849530  1
  O  O23  1  0.99998875  0.98432226  0.68491154  1
  O  O24  1  0.66073315  0.32643606  0.71849245  1
  O  O25  1  0.66075221  0.33431437  0.21850172  1
  F  F26  1  0.34785315  0.35185583  0.95049628  1
  F  F27  1  0.34784053  0.99600533  0.45049782  1
  F  F28  1  0.65213219  0.64814795  0.45049864  1
  F  F29  1  0.65215115  0.00400255  0.95048771  1
