# generated using pymatgen
data_Li3Ti2Mn5O12
_symmetry_space_group_name_H-M   'P 1'
_cell_length_a   5.26031028
_cell_length_b   5.14223913
_cell_length_c   29.81397728
_cell_angle_alpha   91.12112690
_cell_angle_beta   89.65319457
_cell_angle_gamma   61.74476076
_symmetry_Int_Tables_number   1
_chemical_formula_structural   Li3Ti2Mn5O12
_chemical_formula_sum   'Li9 Ti6 Mn15 O36'
_cell_volume   710.12601163
_cell_formula_units_Z   3
loop_
 _symmetry_equiv_pos_site_id
 _symmetry_equiv_pos_as_xyz
  1  'x, y, z'
loop_
 _atom_site_type_symbol
 _atom_site_label
 _atom_site_symmetry_multiplicity
 _atom_site_fract_x
 _atom_site_fract_y
 _atom_site_fract_z
 _atom_site_occupancy
  Li  Li0  1  0.84137222  0.81427108  0.49562425  1
  Li  Li1  1  0.83103239  0.84375248  0.00249455  1
  Li  Li2  1  0.84617661  0.49847763  0.82869479  1
  Li  Li3  1  0.83324667  0.50374730  0.33646244  1
  Li  Li4  1  0.83706858  0.16826503  0.16281112  1
  Li  Li5  1  0.15831998  0.83329991  0.08378369  1
  Li  Li6  1  0.15737470  0.49113764  0.67111004  1
  Li  Li7  1  0.16403291  0.49828324  0.41681436  1
  Li  Li8  1  0.17166160  0.14896259  0.75117416  1
  Ti  Ti9  1  0.50569625  0.84875568  0.91860295  1
  Ti  Ti10  1  0.49307265  0.82067768  0.41487505  1
  Ti  Ti11  1  0.50859113  0.47156445  0.74781418  1
  Ti  Ti12  1  0.50616688  0.50842227  0.25156684  1
  Ti  Ti13  1  0.48443200  0.19468422  0.58505323  1
  Ti  Ti14  1  0.49385840  0.15718514  0.08175801  1
  Mn  Mn15  1  0.85138656  0.81393576  0.75194985  1
  Mn  Mn16  1  0.84108287  0.83130326  0.24884411  1
  Mn  Mn17  1  0.82494317  0.51570134  0.58233757  1
  Mn  Mn18  1  0.84970932  0.48340555  0.08398050  1
  Mn  Mn19  1  0.84185374  0.17231623  0.91491488  1
  Mn  Mn20  1  0.85042213  0.14503958  0.41818087  1
  Mn  Mn21  1  0.48299894  0.84361743  0.67015008  1
  Mn  Mn22  1  0.48322822  0.83177018  0.16366770  1
  Mn  Mn23  1  0.48303420  0.51531358  0.00352291  1
  Mn  Mn24  1  0.49135542  0.49410660  0.49713895  1
  Mn  Mn25  1  0.14763745  0.85771284  0.58158078  1
  Mn  Mn26  1  0.48599377  0.17965560  0.33687198  1
  Mn  Mn27  1  0.48721312  0.16060416  0.83053794  1
  Mn  Mn28  1  0.16694513  0.51605855  0.91559326  1
  Mn  Mn29  1  0.16454678  0.17566359  0.24920903  1
  O  O30  1  0.78741140  0.84992412  0.61889319  1
  O  O31  1  0.78589929  0.84351743  0.12192469  1
  O  O32  1  0.76776067  0.85992387  0.87387434  1
  O  O33  1  0.79886452  0.85065938  0.37952837  1
  O  O34  1  0.81912394  0.55248218  0.95126135  1
  O  O35  1  0.78492197  0.50580544  0.45588143  1
  O  O36  1  0.81241699  0.52326610  0.71356969  1
  O  O37  1  0.77255727  0.51386764  0.20824677  1
  O  O38  1  0.53519078  0.82570621  0.54648635  1
  O  O39  1  0.53715926  0.82910058  0.04471040  1
  O  O40  1  0.55402345  0.79227069  0.78697461  1
  O  O41  1  0.50247118  0.82060703  0.28819697  1
  O  O42  1  0.79216191  0.16906070  0.78876028  1
  O  O43  1  0.81386165  0.21258545  0.28572177  1
  O  O44  1  0.78795994  0.20947809  0.54555436  1
  O  O45  1  0.79832412  0.18882658  0.04588059  1
  O  O46  1  0.48290130  0.52051065  0.88138655  1
  O  O47  1  0.52982318  0.49947350  0.37800522  1
  O  O48  1  0.55352612  0.46108463  0.11988215  1
  O  O49  1  0.47239486  0.50553865  0.62222499  1
  O  O50  1  0.18564201  0.81788048  0.95283921  1
  O  O51  1  0.49373436  0.18036490  0.71120660  1
  O  O52  1  0.20370649  0.79611558  0.45655177  1
  O  O53  1  0.18336855  0.84979157  0.21204485  1
  O  O54  1  0.48275589  0.17920811  0.21438977  1
  O  O55  1  0.18711957  0.79143841  0.71689410  1
  O  O56  1  0.56046796  0.12081683  0.45420798  1
  O  O57  1  0.50505698  0.15888702  0.95513239  1
  O  O58  1  0.18444129  0.47739929  0.28637074  1
  O  O59  1  0.21087076  0.45700578  0.79092956  1
  O  O60  1  0.20533212  0.48467697  0.54167935  1
  O  O61  1  0.17883444  0.48369586  0.05023997  1
  O  O62  1  0.15846458  0.20665082  0.61818291  1
  O  O63  1  0.18577076  0.19029599  0.87845715  1
  O  O64  1  0.19526287  0.13943834  0.12189471  1
  O  O65  1  0.17885578  0.14994351  0.38422982  1
