# generated using pymatgen
data_Li3Co13O5F19
_symmetry_space_group_name_H-M   'P 1'
_cell_length_a   6.15756488
_cell_length_b   6.12616423
_cell_length_c   12.24860409
_cell_angle_alpha   91.14042520
_cell_angle_beta   91.15064006
_cell_angle_gamma   91.13516771
_symmetry_Int_Tables_number   1
_chemical_formula_structural   Li3Co13O5F19
_chemical_formula_sum   'Li3 Co13 O5 F19'
_cell_volume   461.76586302
_cell_formula_units_Z   1
loop_
 _symmetry_equiv_pos_site_id
 _symmetry_equiv_pos_as_xyz
  1  'x, y, z'
loop_
 _atom_site_type_symbol
 _atom_site_label
 _atom_site_symmetry_multiplicity
 _atom_site_fract_x
 _atom_site_fract_y
 _atom_site_fract_z
 _atom_site_occupancy
  Li  Li0  1  0.50925181  0.49246529  0.74582751  1
  Li  Li1  1  0.50900052  0.49559221  0.24718377  1
  Li  Li2  1  0.01390720  0.99008011  0.50101376  1
  Co  Co3  1  0.05814740  0.74472844  0.28748543  1
  Co  Co4  1  0.06064630  0.73688568  0.78042301  1
  Co  Co5  1  0.40142792  0.93918451  0.63097605  1
  Co  Co6  1  0.41901979  0.92943286  0.12933580  1
  Co  Co7  1  0.24493377  0.45399053  0.46447227  1
  Co  Co8  1  0.24553919  0.45501718  0.96143479  1
  Co  Co9  1  0.98961769  0.97416344  0.01207844  1
  Co  Co10  1  0.77665999  0.59559776  0.52471051  1
  Co  Co11  1  0.75717425  0.60158290  0.02380027  1
  Co  Co12  1  0.57698063  0.05799568  0.88833472  1
  Co  Co13  1  0.57707122  0.07132450  0.37991191  1
  Co  Co14  1  0.94491565  0.21952468  0.70254326  1
  Co  Co15  1  0.94737162  0.22999387  0.20879137  1
  O  O16  1  0.09996660  0.94870806  0.66681485  1
  O  O17  1  0.11135908  0.95669087  0.16875184  1
  O  O18  1  0.03658708  0.68063042  0.44272524  1
  O  O19  1  0.03547187  0.68121723  0.93929422  1
  O  O20  1  0.66237436  0.90938337  0.02692744  1
  F  F21  1  0.43831795  0.80666160  0.79879890  1
  F  F22  1  0.44355378  0.80718205  0.29981448  1
  F  F23  1  0.18969670  0.41294997  0.77840101  1
  F  F24  1  0.19322602  0.41341222  0.28378568  1
  F  F25  1  0.67007940  0.91592580  0.52656894  1
  F  F26  1  0.42210229  0.59226631  0.59540769  1
  F  F27  1  0.41297759  0.57021854  0.09736580  1
  F  F28  1  0.57073437  0.41209145  0.90722003  1
  F  F29  1  0.57863826  0.41985169  0.41131880  1
  F  F30  1  0.28794435  0.12189090  0.97019473  1
  F  F31  1  0.31172558  0.11723252  0.47450941  1
  F  F32  1  0.81249000  0.57108579  0.20193970  1
  F  F33  1  0.80970975  0.56089039  0.69660588  1
  F  F34  1  0.59320039  0.17607021  0.71185158  1
  F  F35  1  0.59590927  0.18529420  0.21726199  1
  F  F36  1  0.95528016  0.30563805  0.54365688  1
  F  F37  1  0.94551218  0.31629728  0.04824242  1
  F  F38  1  0.89566970  0.06460245  0.35253005  1
  F  F39  1  0.89580932  0.06624800  0.85169055  1
