# generated using pymatgen
data_Li5TiV3O8
_symmetry_space_group_name_H-M   'P 1'
_cell_length_a   4.19968288
_cell_length_b   6.59019250
_cell_length_c   6.74913707
_cell_angle_alpha   72.85662427
_cell_angle_beta   90.00403425
_cell_angle_gamma   71.44967199
_symmetry_Int_Tables_number   1
_chemical_formula_structural   Li5TiV3O8
_chemical_formula_sum   'Li5 Ti1 V3 O8'
_cell_volume   168.31054745
_cell_formula_units_Z   1
loop_
 _symmetry_equiv_pos_site_id
 _symmetry_equiv_pos_as_xyz
  1  'x, y, z'
loop_
 _atom_site_type_symbol
 _atom_site_label
 _atom_site_symmetry_multiplicity
 _atom_site_fract_x
 _atom_site_fract_y
 _atom_site_fract_z
 _atom_site_occupancy
  Li  Li0  1  0.06166475  0.88901031  0.36620042  1
  Li  Li1  1  0.19173115  0.62939348  0.99388445  1
  Li  Li2  1  0.82830547  0.35776415  0.99827408  1
  Li  Li3  1  0.50215863  0.00818709  0.98974173  1
  Li  Li4  1  0.94794573  0.11743193  0.63096978  1
  Ti  Ti5  1  0.72076392  0.57052879  0.31098724  1
  V  V6  1  0.61628160  0.77898325  0.67922416  1
  V  V7  1  0.28914269  0.43725517  0.67300520  1
  V  V8  1  0.39655182  0.22037350  0.31804918  1
  O  O9  1  0.11737612  0.77749825  0.67980514  1
  O  O10  1  0.56956487  0.87339201  0.34095712  1
  O  O11  1  0.22396920  0.56530677  0.32492184  1
  O  O12  1  0.66561770  0.68172665  0.01411995  1
  O  O13  1  0.77994882  0.45520315  0.64742469  1
  O  O14  1  0.45430042  0.10480315  0.65982840  1
  O  O15  1  0.35140744  0.31110031  0.99274994  1
  O  O16  1  0.88311168  0.24735002  0.31941468  1
