# generated using pymatgen
data_Li2TiMn2O6
_symmetry_space_group_name_H-M   'P 1'
_cell_length_a   9.08017108
_cell_length_b   9.15924853
_cell_length_c   10.33416146
_cell_angle_alpha   90.00000000
_cell_angle_beta   90.00000000
_cell_angle_gamma   58.20077486
_symmetry_Int_Tables_number   1
_chemical_formula_structural   Li2TiMn2O6
_chemical_formula_sum   'Li12 Ti6 Mn12 O36'
_cell_volume   730.46069818
_cell_formula_units_Z   6
loop_
 _symmetry_equiv_pos_site_id
 _symmetry_equiv_pos_as_xyz
  1  'x, y, z'
loop_
 _atom_site_type_symbol
 _atom_site_label
 _atom_site_symmetry_multiplicity
 _atom_site_fract_x
 _atom_site_fract_y
 _atom_site_fract_z
 _atom_site_occupancy
  Li  Li0  1  0.93556062  0.61875394  0.27802211  1
  Li  Li1  1  0.76322838  0.10486590  0.23272517  1
  Li  Li2  1  0.77750861  0.41938574  0.22954074  1
  Li  Li3  1  0.72249139  0.08061426  0.72954074  1
  Li  Li4  1  0.73677162  0.39513410  0.73272517  1
  Li  Li5  1  0.56443938  0.88124606  0.77802211  1
  Li  Li6  1  0.43556821  0.11886187  0.22194534  1
  Li  Li7  1  0.26312324  0.60484952  0.26724986  1
  Li  Li8  1  0.27754879  0.91937888  0.27043350  1
  Li  Li9  1  0.22245121  0.58062112  0.77043350  1
  Li  Li10  1  0.23687676  0.89515048  0.76724986  1
  Li  Li11  1  0.06443179  0.38113813  0.72194534  1
  Ti  Ti12  1  0.83708178  0.82443352  0.51344063  1
  Ti  Ti13  1  0.66291822  0.67556648  0.01344063  1
  Ti  Ti14  1  0.49995999  0.49995780  0.50010954  1
  Ti  Ti15  1  0.33697537  0.32455336  0.98649999  1
  Ti  Ti16  1  0.16302463  0.17544664  0.48649999  1
  Ti  Ti17  1  0.00004001  0.00004220  0.00010954  1
  Mn  Mn18  1  0.99395235  0.66995496  0.00206774  1
  Mn  Mn19  1  0.83147457  0.16187784  0.49495537  1
  Mn  Mn20  1  0.83364365  0.49377662  0.50273211  1
  Mn  Mn21  1  0.66852543  0.33812216  0.99495537  1
  Mn  Mn22  1  0.66635635  0.00622338  0.00273211  1
  Mn  Mn23  1  0.49395896  0.17003730  0.49802200  1
  Mn  Mn24  1  0.50604765  0.83004504  0.50206774  1
  Mn  Mn25  1  0.33371860  0.99378645  0.99722660  1
  Mn  Mn26  1  0.33138672  0.66188279  0.00496064  1
  Mn  Mn27  1  0.16628140  0.50621355  0.49722660  1
  Mn  Mn28  1  0.16861328  0.83811721  0.50496064  1
  Mn  Mn29  1  0.00604104  0.32996270  0.99802200  1
  O  O30  1  0.96509703  0.61442126  0.60988011  1
  O  O31  1  0.93083232  0.95383270  0.59892887  1
  O  O32  1  0.95530317  0.28440893  0.60553449  1
  O  O33  1  0.87641071  0.57249754  0.10951114  1
  O  O34  1  0.89293407  0.22141025  0.10177591  1
  O  O35  1  0.87633314  0.91864891  0.10288675  1
  O  O36  1  0.79141693  0.45506790  0.90170526  1
  O  O37  1  0.77029989  0.78604662  0.90993800  1
  O  O38  1  0.78682472  0.13204173  0.89328916  1
  O  O39  1  0.71317528  0.36795827  0.39328916  1
  O  O40  1  0.70858307  0.04493210  0.40170526  1
  O  O41  1  0.72970011  0.71395338  0.40993800  1
  O  O42  1  0.60706593  0.27858975  0.60177591  1
  O  O43  1  0.62366686  0.58135109  0.60288675  1
  O  O44  1  0.62358929  0.92750246  0.60951114  1
  O  O45  1  0.54469683  0.21559107  0.10553449  1
  O  O46  1  0.56916768  0.54616730  0.09892887  1
  O  O47  1  0.53490297  0.88557874  0.10988011  1
  O  O48  1  0.46512291  0.11439881  0.89013859  1
  O  O49  1  0.43052466  0.45387149  0.90091002  1
  O  O50  1  0.45545543  0.78450623  0.89436661  1
  O  O51  1  0.37656025  0.07257376  0.39052664  1
  O  O52  1  0.37628770  0.41870533  0.39709673  1
  O  O53  1  0.39267253  0.72161231  0.39836670  1
  O  O54  1  0.27023014  0.28612042  0.59008791  1
  O  O55  1  0.29151752  0.95531288  0.59839950  1
  O  O56  1  0.28674708  0.63207340  0.60671831  1
  O  O57  1  0.21325292  0.86792660  0.10671831  1
  O  O58  1  0.22976986  0.21387958  0.09008791  1
  O  O59  1  0.20848248  0.54468712  0.09839950  1
  O  O60  1  0.12371230  0.08129467  0.89709673  1
  O  O61  1  0.10732747  0.77838769  0.89836670  1
  O  O62  1  0.12343975  0.42742624  0.89052664  1
  O  O63  1  0.04454457  0.71549377  0.39436661  1
  O  O64  1  0.06947534  0.04612851  0.40091002  1
  O  O65  1  0.03487709  0.38560119  0.39013859  1
