# generated using pymatgen
data_Mn2O3F
_symmetry_space_group_name_H-M   'P 1'
_cell_length_a   4.58436286
_cell_length_b   5.49688649
_cell_length_c   5.49688649
_cell_angle_alpha   113.56038265
_cell_angle_beta   91.98828111
_cell_angle_gamma   88.01171889
_symmetry_Int_Tables_number   1
_chemical_formula_structural   Mn2O3F
_chemical_formula_sum   'Mn4 O6 F2'
_cell_volume   126.86364923
_cell_formula_units_Z   2
loop_
 _symmetry_equiv_pos_site_id
 _symmetry_equiv_pos_as_xyz
  1  'x, y, z'
loop_
 _atom_site_type_symbol
 _atom_site_label
 _atom_site_symmetry_multiplicity
 _atom_site_fract_x
 _atom_site_fract_y
 _atom_site_fract_z
 _atom_site_occupancy
  Mn  Mn0  1  0.50000000  0.00000000  0.50000000  1
  Mn  Mn1  1  0.50000000  0.50000000  0.00000000  1
  Mn  Mn2  1  0.00000000  0.50000000  0.50000000  1
  Mn  Mn3  1  0.00000000  0.00000000  0.00000000  1
  O  O4  1  0.80808755  0.15760626  0.34239374  1
  O  O5  1  0.69182974  0.15616623  0.84620519  1
  O  O6  1  0.69182974  0.65379481  0.34383377  1
  O  O7  1  0.30817026  0.34620519  0.65616623  1
  O  O8  1  0.30817026  0.84383377  0.15379481  1
  O  O9  1  0.19191245  0.84239374  0.65760626  1
  F  F10  1  0.78520505  0.64131060  0.85868940  1
  F  F11  1  0.21479495  0.35868940  0.14131060  1
