# generated using pymatgen
data_Li9(FeO4)2
_symmetry_space_group_name_H-M   'P 1'
_cell_length_a   5.49924370
_cell_length_b   6.81552949
_cell_length_c   11.00029323
_cell_angle_alpha   90.00000000
_cell_angle_beta   78.11532643
_cell_angle_gamma   90.00000000
_symmetry_Int_Tables_number   1
_chemical_formula_structural   Li9(FeO4)2
_chemical_formula_sum   'Li18 Fe4 O16'
_cell_volume   403.45593837
_cell_formula_units_Z   2
loop_
 _symmetry_equiv_pos_site_id
 _symmetry_equiv_pos_as_xyz
  1  'x, y, z'
loop_
 _atom_site_type_symbol
 _atom_site_label
 _atom_site_symmetry_multiplicity
 _atom_site_fract_x
 _atom_site_fract_y
 _atom_site_fract_z
 _atom_site_occupancy
  Li  Li0  1  0.09273475  0.20400722  0.28029139  1
  Li  Li1  1  0.00218020  0.24977627  0.66108259  1
  Li  Li2  1  0.30003784  0.52954077  0.06025099  1
  Li  Li3  1  0.19633957  0.02419267  0.43814055  1
  Li  Li4  1  0.20643591  0.46341512  0.42853300  1
  Li  Li5  1  0.11377801  0.51948793  0.80092891  1
  Li  Li6  1  0.39392205  0.74193180  0.20644866  1
  Li  Li7  1  0.50218020  0.25022373  0.16108259  1
  Li  Li8  1  0.39200333  0.03741389  0.69692237  1
  Li  Li9  1  0.61377801  0.98051207  0.30092891  1
  Li  Li10  1  0.47308393  0.75751980  0.84155211  1
  Li  Li11  1  0.59273475  0.29599278  0.78029139  1
  Li  Li12  1  0.89200333  0.46258611  0.19692237  1
  Li  Li13  1  0.80003784  0.97045923  0.56025099  1
  Li  Li14  1  0.69633957  0.47580733  0.93814055  1
  Li  Li15  1  0.70643591  0.03658488  0.92853300  1
  Li  Li16  1  0.97308393  0.74248020  0.34155211  1
  Li  Li17  1  0.89392205  0.75806820  0.70644866  1
  Fe  Fe18  1  0.33595444  0.74302428  0.56080454  1
  Fe  Fe19  1  0.17996111  0.23495549  0.94367124  1
  Fe  Fe20  1  0.83595444  0.75697572  0.06080454  1
  Fe  Fe21  1  0.67996111  0.26504451  0.44367124  1
  O  O22  1  0.07233466  0.71576782  0.15376001  1
  O  O23  1  0.16197820  0.27579339  0.11327596  1
  O  O24  1  0.14381987  0.52862093  0.62078474  1
  O  O25  1  0.12449727  0.96726055  0.61365766  1
  O  O26  1  0.33774616  0.75684167  0.38962312  1
  O  O27  1  0.41208555  0.22730508  0.35650174  1
  O  O28  1  0.64381987  0.97137907  0.12078474  1
  O  O29  1  0.62449727  0.53273945  0.11365766  1
  O  O30  1  0.37370319  0.47675807  0.88659771  1
  O  O31  1  0.40434197  0.04710261  0.86800169  1
  O  O32  1  0.57233466  0.78423218  0.65376001  1
  O  O33  1  0.66197820  0.22420661  0.61327596  1
  O  O34  1  0.87370319  0.02324193  0.38659771  1
  O  O35  1  0.90434197  0.45289739  0.36800169  1
  O  O36  1  0.83774616  0.74315833  0.88962312  1
  O  O37  1  0.91208555  0.27269492  0.85650174  1
