# generated using pymatgen
data_Mg6MnZn
_symmetry_space_group_name_H-M   'P 1'
_cell_length_a   6.16038385
_cell_length_b   6.16740008
_cell_length_c   4.92077058
_cell_angle_alpha   90.00000000
_cell_angle_beta   90.00000000
_cell_angle_gamma   120.03768755
_symmetry_Int_Tables_number   1
_chemical_formula_structural   Mg6MnZn
_chemical_formula_sum   'Mg6 Mn1 Zn1'
_cell_volume   161.84846691
_cell_formula_units_Z   1
loop_
 _symmetry_equiv_pos_site_id
 _symmetry_equiv_pos_as_xyz
  1  'x, y, z'
loop_
 _atom_site_type_symbol
 _atom_site_label
 _atom_site_symmetry_multiplicity
 _atom_site_fract_x
 _atom_site_fract_y
 _atom_site_fract_z
 _atom_site_occupancy
  Mg  Mg0  1  0.66677456  0.33261358  0.25000000  1
  Mg  Mg1  1  0.66677456  0.83415998  0.25000000  1
  Mg  Mg2  1  0.32744721  0.16561541  0.75000000  1
  Mg  Mg3  1  0.32744721  0.66183280  0.75000000  1
  Mg  Mg4  1  0.84092610  0.17046355  0.75000000  1
  Mg  Mg5  1  0.83851589  0.66925845  0.75000000  1
  Mn  Mn6  1  0.16528208  0.33264054  0.25000000  1
  Zn  Zn7  1  0.16683239  0.83341569  0.25000000  1
