# generated using pymatgen
data_Li2V(OF)2
_symmetry_space_group_name_H-M   'P 1'
_cell_length_a   5.09133981
_cell_length_b   5.91165305
_cell_length_c   5.11805443
_cell_angle_alpha   90.00000000
_cell_angle_beta   109.95843053
_cell_angle_gamma   90.00000000
_symmetry_Int_Tables_number   1
_chemical_formula_structural   Li2V(OF)2
_chemical_formula_sum   'Li4 V2 O4 F4'
_cell_volume   144.79257547
_cell_formula_units_Z   2
loop_
 _symmetry_equiv_pos_site_id
 _symmetry_equiv_pos_as_xyz
  1  'x, y, z'
loop_
 _atom_site_type_symbol
 _atom_site_label
 _atom_site_symmetry_multiplicity
 _atom_site_fract_x
 _atom_site_fract_y
 _atom_site_fract_z
 _atom_site_occupancy
  Li  Li0  1  0.25000000  0.13635135  0.50000000  1
  Li  Li1  1  0.25000000  0.60900935  0.50000000  1
  Li  Li2  1  0.75000000  0.39099065  0.50000000  1
  Li  Li3  1  0.75000000  0.86364865  0.50000000  1
  V  V4  1  0.25000000  0.88334401  0.00000000  1
  V  V5  1  0.75000000  0.11665599  0.00000000  1
  O  O6  1  0.02560033  0.89585209  0.22276212  1
  O  O7  1  0.47439967  0.89585209  0.77723788  1
  O  O8  1  0.52560033  0.10414791  0.22276212  1
  O  O9  1  0.97439967  0.10414791  0.77723788  1
  F  F10  1  0.02005159  0.64715985  0.72688343  1
  F  F11  1  0.52005159  0.35284015  0.72688343  1
  F  F12  1  0.47994841  0.64715985  0.27311657  1
  F  F13  1  0.97994841  0.35284015  0.27311657  1
