# generated using pymatgen
data_LiTiMn3O8
_symmetry_space_group_name_H-M   'P 1'
_cell_length_a   6.04697477
_cell_length_b   15.47100781
_cell_length_c   6.08012237
_cell_angle_alpha   99.49275361
_cell_angle_beta   121.02096861
_cell_angle_gamma   100.95539000
_symmetry_Int_Tables_number   1
_chemical_formula_structural   LiTiMn3O8
_chemical_formula_sum   'Li3 Ti3 Mn9 O24'
_cell_volume   454.61994425
_cell_formula_units_Z   3
loop_
 _symmetry_equiv_pos_site_id
 _symmetry_equiv_pos_as_xyz
  1  'x, y, z'
loop_
 _atom_site_type_symbol
 _atom_site_label
 _atom_site_symmetry_multiplicity
 _atom_site_fract_x
 _atom_site_fract_y
 _atom_site_fract_z
 _atom_site_occupancy
  Li  Li0  1  0.00581196  0.00128098  0.50156011  1
  Li  Li1  1  0.99418904  0.33205102  0.16510589  1
  Li  Li2  1  0.50000000  0.66666700  0.33333300  1
  Ti  Ti3  1  0.99010502  0.33464363  0.67385855  1
  Ti  Ti4  1  0.00000000  0.66666600  0.33333200  1
  Ti  Ti5  1  0.00989498  0.99868937  0.99280545  1
  Mn  Mn6  1  0.00000000  0.16666700  0.83333400  1
  Mn  Mn7  1  0.99493562  0.50227507  0.51149658  1
  Mn  Mn8  1  0.50000000  0.66666700  0.83333300  1
  Mn  Mn9  1  0.49556114  0.83514418  0.67269134  1
  Mn  Mn10  1  0.00506538  0.83105793  0.15517042  1
  Mn  Mn11  1  0.50237808  0.00154646  0.50913191  1
  Mn  Mn12  1  0.49999900  0.16666700  0.33333300  1
  Mn  Mn13  1  0.49762192  0.33178754  0.15753509  1
  Mn  Mn14  1  0.50443686  0.49818982  0.99397566  1
  O  O15  1  0.19827206  0.08000222  0.89773856  1
  O  O16  1  0.30628902  0.58555453  0.93078566  1
  O  O17  1  0.23421926  0.25428161  0.78246270  1
  O  O18  1  0.26612726  0.74533989  0.72332967  1
  O  O19  1  0.22850617  0.42452258  0.61530977  1
  O  O20  1  0.28590332  0.91999435  0.57869629  1
  O  O21  1  0.73387174  0.58799311  0.94333633  1
  O  O22  1  0.23896515  0.59095240  0.45831027  1
  O  O23  1  0.76578174  0.07905139  0.88420530  1
  O  O24  1  0.26303035  0.07645507  0.38421257  1
  O  O25  1  0.69371198  0.74778047  0.73588234  1
  O  O26  1  0.24654063  0.75643492  0.29413322  1
  O  O27  1  0.80172794  0.25333078  0.76892644  1
  O  O28  1  0.26049694  0.24352893  0.20907664  1
  O  O29  1  0.72787737  0.92172922  0.60905049  1
  O  O30  1  0.24876936  0.92521246  0.12767891  1
  O  O31  1  0.75123264  0.40812154  0.53898909  1
  O  O32  1  0.27212263  0.41160478  0.05761551  1
  O  O33  1  0.73950306  0.08980607  0.45759236  1
  O  O34  1  0.75346037  0.57689808  0.37253178  1
  O  O35  1  0.73696865  0.25687793  0.28245343  1
  O  O36  1  0.76103685  0.74238160  0.20835773  1
  O  O37  1  0.71409768  0.41334065  0.08797271  1
  O  O38  1  0.77149383  0.90881042  0.05135523  1
