# generated using pymatgen
data_K2LiVPO6
_symmetry_space_group_name_H-M   'P 1'
_cell_length_a   6.09997197
_cell_length_b   8.56240580
_cell_length_c   13.59082466
_cell_angle_alpha   90.00058080
_cell_angle_beta   90.00017265
_cell_angle_gamma   72.89103152
_symmetry_Int_Tables_number   1
_chemical_formula_structural   K2LiVPO6
_chemical_formula_sum   'K8 Li4 V4 P4 O24'
_cell_volume   678.44147363
_cell_formula_units_Z   4
loop_
 _symmetry_equiv_pos_site_id
 _symmetry_equiv_pos_as_xyz
  1  'x, y, z'
loop_
 _atom_site_type_symbol
 _atom_site_label
 _atom_site_symmetry_multiplicity
 _atom_site_fract_x
 _atom_site_fract_y
 _atom_site_fract_z
 _atom_site_occupancy
  K  K0  1  0.91530160  0.88879044  0.89681815  1
  K  K1  1  0.58476920  0.61111536  0.39686788  1
  K  K2  1  0.85497584  0.02852230  0.63993238  1
  K  K3  1  0.64499273  0.47153613  0.13995145  1
  K  K4  1  0.35498105  0.52849581  0.86004845  1
  K  K5  1  0.14505198  0.97147808  0.36006728  1
  K  K6  1  0.41519605  0.38882778  0.60314350  1
  K  K7  1  0.08473266  0.11124595  0.10318901  1
  Li  Li8  1  0.01545479  0.32016074  0.47917930  1
  Li  Li9  1  0.51549536  0.82022545  0.02084234  1
  Li  Li10  1  0.48454002  0.17978321  0.97917688  1
  Li  Li11  1  0.98451819  0.67985264  0.52080725  1
  V  V12  1  0.65017403  0.93560748  0.20593325  1
  V  V13  1  0.84984679  0.56435211  0.70590120  1
  V  V14  1  0.15010702  0.43565141  0.29409320  1
  V  V15  1  0.34988630  0.06439735  0.79409379  1
  P  P16  1  0.93577995  0.29542210  0.89015021  1
  P  P17  1  0.43577010  0.79541970  0.60982759  1
  P  P18  1  0.56419707  0.20457092  0.39016642  1
  P  P19  1  0.06425288  0.70459741  0.10985645  1
  O  O20  1  0.98642329  0.70428669  0.73980110  1
  O  O21  1  0.84703260  0.69302166  0.05614778  1
  O  O22  1  0.95945727  0.44564786  0.60225683  1
  O  O23  1  0.01511101  0.15002222  0.81216784  1
  O  O24  1  0.81431049  0.45352916  0.82977160  1
  O  O25  1  0.65299555  0.80700676  0.55612608  1
  O  O26  1  0.75839193  0.26128657  0.96165182  1
  O  O27  1  0.51366972  0.79564510  0.23987267  1
  O  O28  1  0.45948293  0.94569919  0.89769162  1
  O  O29  1  0.74155792  0.23871506  0.46166037  1
  O  O30  1  0.51505368  0.65002553  0.68779821  1
  O  O31  1  0.68569434  0.04647051  0.32978146  1
  O  O32  1  0.31428644  0.95354298  0.67021584  1
  O  O33  1  0.48485843  0.34996428  0.31218389  1
  O  O34  1  0.25838635  0.76131497  0.53831955  1
  O  O35  1  0.54049848  0.05426025  0.10227548  1
  O  O36  1  0.48639754  0.20425764  0.76015949  1
  O  O37  1  0.24165437  0.73870961  0.03834983  1
  O  O38  1  0.34699318  0.19296544  0.44387356  1
  O  O39  1  0.18570529  0.54646644  0.17022243  1
  O  O40  1  0.98497514  0.84997611  0.18783392  1
  O  O41  1  0.04051838  0.55434915  0.39773062  1
  O  O42  1  0.15298376  0.30701976  0.94386428  1
  O  O43  1  0.01351727  0.29576469  0.26020078  1
