# generated using pymatgen
data_V2OF7
_symmetry_space_group_name_H-M   'P 1'
_cell_length_a   5.57907114
_cell_length_b   5.66988039
_cell_length_c   11.44436429
_cell_angle_alpha   90.00000000
_cell_angle_beta   73.36043922
_cell_angle_gamma   90.00000000
_symmetry_Int_Tables_number   1
_chemical_formula_structural   V2OF7
_chemical_formula_sum   'V4 O2 F14'
_cell_volume   346.85637595
_cell_formula_units_Z   2
loop_
 _symmetry_equiv_pos_site_id
 _symmetry_equiv_pos_as_xyz
  1  'x, y, z'
loop_
 _atom_site_type_symbol
 _atom_site_label
 _atom_site_symmetry_multiplicity
 _atom_site_fract_x
 _atom_site_fract_y
 _atom_site_fract_z
 _atom_site_occupancy
  V  V0  1  0.05865281  0.75052972  0.80834146  1
  V  V1  1  0.55865281  0.74947028  0.30834146  1
  V  V2  1  0.46248710  0.23157279  0.68774952  1
  V  V3  1  0.96248710  0.26842721  0.18774952  1
  O  O4  1  0.29126332  0.94916291  0.75195064  1
  O  O5  1  0.79126332  0.55083709  0.25195064  1
  F  F6  1  0.08527750  0.11826949  0.29331032  1
  F  F7  1  0.25986248  0.38256940  0.10449943  1
  F  F8  1  0.28003726  0.60077308  0.38149485  1
  F  F9  1  0.14363557  0.42345111  0.78164566  1
  F  F10  1  0.45985552  0.79098159  0.17536744  1
  F  F11  1  0.36926561  0.30834660  0.55822359  1
  F  F12  1  0.11837284  0.69422840  0.95063710  1
  F  F13  1  0.64363557  0.07654889  0.28164566  1
  F  F14  1  0.86926561  0.19165340  0.05822359  1
  F  F15  1  0.61837284  0.80577160  0.45063710  1
  F  F16  1  0.58527750  0.38173051  0.79331032  1
  F  F17  1  0.75986248  0.11743060  0.60449843  1
  F  F18  1  0.78003726  0.89922692  0.88149485  1
  F  F19  1  0.95985552  0.70901841  0.67536744  1
