# generated using pymatgen
data_Li13Mn3Nb2O16
_symmetry_space_group_name_H-M   'P 1'
_cell_length_a   6.08897735
_cell_length_b   6.02469992
_cell_length_c   9.99811444
_cell_angle_alpha   88.95392107
_cell_angle_beta   89.99831326
_cell_angle_gamma   120.35420337
_symmetry_Int_Tables_number   1
_chemical_formula_structural   Li13Mn3Nb2O16
_chemical_formula_sum   'Li13 Mn3 Nb2 O16'
_cell_volume   316.42440088
_cell_formula_units_Z   1
loop_
 _symmetry_equiv_pos_site_id
 _symmetry_equiv_pos_as_xyz
  1  'x, y, z'
loop_
 _atom_site_type_symbol
 _atom_site_label
 _atom_site_symmetry_multiplicity
 _atom_site_fract_x
 _atom_site_fract_y
 _atom_site_fract_z
 _atom_site_occupancy
  Li  Li0  1  0.00310814  0.00624569  0.01747472  1
  Li  Li1  1  0.12341735  0.24685933  0.50208287  1
  Li  Li2  1  0.34601327  0.08608504  0.22570181  1
  Li  Li3  1  0.16323186  0.32644481  0.25613185  1
  Li  Li4  1  0.17279155  0.34560841  0.74328193  1
  Li  Li5  1  0.41630386  0.24096648  0.97525761  1
  Li  Li6  1  0.74008200  0.08611200  0.22570022  1
  Li  Li7  1  0.82463005  0.24095685  0.97525591  1
  Li  Li8  1  0.66919313  0.33840665  0.75063932  1
  Li  Li9  1  0.32482500  0.64963950  0.40221108  1
  Li  Li10  1  0.11994100  0.83427498  0.45710690  1
  Li  Li11  1  0.71433911  0.83426991  0.45709958  1
  Li  Li12  1  0.81846729  0.63696496  0.94323688  1
  Mn  Mn13  1  0.16759495  0.82950657  0.72036119  1
  Mn  Mn14  1  0.66186242  0.82951589  0.72035954  1
  Mn  Mn15  1  0.82024303  0.64052150  0.21956340  1
  Nb  Nb16  1  0.64985271  0.29969539  0.48067625  1
  Nb  Nb17  1  0.34454956  0.68912935  0.99055675  1
  O  O18  1  0.33472875  0.14198852  0.59911929  1
  O  O19  1  0.17188391  0.34381441  0.06582771  1
  O  O20  1  0.49691929  0.99384388  0.36846471  1
  O  O21  1  0.03174188  0.53564720  0.84908681  1
  O  O22  1  0.80723669  0.14198829  0.59912383  1
  O  O23  1  0.15783074  0.82179336  0.08819677  1
  O  O24  1  0.48983717  0.46286692  0.36092704  1
  O  O25  1  0.67275663  0.34554414  0.11292486  1
  O  O26  1  0.34064368  0.68133899  0.62106750  1
  O  O27  1  0.50386291  0.53564311  0.84908767  1
  O  O28  1  0.97304635  0.46282824  0.36094933  1
  O  O29  1  0.66391384  0.82181982  0.08819149  1
  O  O30  1  0.50485292  0.00974703  0.86615780  1
  O  O31  1  0.81511221  0.63025023  0.58750466  1
  O  O32  1  0.98166162  0.96331729  0.31911245  1
  O  O33  1  0.98397214  0.96800127  0.82004427  1
