# generated using pymatgen
data_CaMg6Bi
_symmetry_space_group_name_H-M   'P 1'
_cell_length_a   6.68593581
_cell_length_b   6.36805900
_cell_length_c   5.45753882
_cell_angle_alpha   90.00000000
_cell_angle_beta   90.00000000
_cell_angle_gamma   118.43933755
_symmetry_Int_Tables_number   1
_chemical_formula_structural   CaMg6Bi
_chemical_formula_sum   'Ca1 Mg6 Bi1'
_cell_volume   204.32145056
_cell_formula_units_Z   1
loop_
 _symmetry_equiv_pos_site_id
 _symmetry_equiv_pos_as_xyz
  1  'x, y, z'
loop_
 _atom_site_type_symbol
 _atom_site_label
 _atom_site_symmetry_multiplicity
 _atom_site_fract_x
 _atom_site_fract_y
 _atom_site_fract_z
 _atom_site_occupancy
  Ca  Ca0  1  0.16155862  0.33077881  0.25000000  1
  Mg  Mg1  1  0.66526742  0.33121082  0.25000000  1
  Mg  Mg2  1  0.66526742  0.83405559  0.25000000  1
  Mg  Mg3  1  0.34479985  0.17154088  0.75000000  1
  Mg  Mg4  1  0.34479985  0.67325997  0.75000000  1
  Mg  Mg5  1  0.82431893  0.16215996  0.75000000  1
  Mg  Mg6  1  0.82441208  0.66220654  0.75000000  1
  Bi  Bi7  1  0.16957584  0.83478742  0.25000000  1
