# generated using pymatgen
data_KCoO2
_symmetry_space_group_name_H-M   'P 1'
_cell_length_a   6.49913933
_cell_length_b   6.49913975
_cell_length_c   7.88190764
_cell_angle_alpha   56.31901434
_cell_angle_beta   123.68098798
_cell_angle_gamma   151.11088977
_symmetry_Int_Tables_number   1
_chemical_formula_structural   KCoO2
_chemical_formula_sum   'K2 Co2 O4'
_cell_volume   131.85441851
_cell_formula_units_Z   2
loop_
 _symmetry_equiv_pos_site_id
 _symmetry_equiv_pos_as_xyz
  1  'x, y, z'
loop_
 _atom_site_type_symbol
 _atom_site_label
 _atom_site_symmetry_multiplicity
 _atom_site_fract_x
 _atom_site_fract_y
 _atom_site_fract_z
 _atom_site_occupancy
  K  K0  1  0.17855088  0.82144912  0.69948072  1
  K  K1  1  0.82144912  0.17855088  0.30051928  1
  Co  Co2  1  0.03210527  0.96789473  0.19109402  1
  Co  Co3  1  0.96789473  0.03210527  0.80890598  1
  O  O4  1  0.12746914  0.87253086  0.07249780  1
  O  O5  1  0.44679293  0.55320707  0.67033512  1
  O  O6  1  0.55320707  0.44679293  0.32966488  1
  O  O7  1  0.87253086  0.12746914  0.92750220  1
