# generated using pymatgen
data_Li3V2(O2F)2
_symmetry_space_group_name_H-M   'P 1'
_cell_length_a   5.97124628
_cell_length_b   5.22280394
_cell_length_c   14.94222998
_cell_angle_alpha   90.73031351
_cell_angle_beta   91.13006034
_cell_angle_gamma   91.72645779
_symmetry_Int_Tables_number   1
_chemical_formula_structural   Li3V2(O2F)2
_chemical_formula_sum   'Li12 V8 O16 F8'
_cell_volume   465.65445038
_cell_formula_units_Z   4
loop_
 _symmetry_equiv_pos_site_id
 _symmetry_equiv_pos_as_xyz
  1  'x, y, z'
loop_
 _atom_site_type_symbol
 _atom_site_label
 _atom_site_symmetry_multiplicity
 _atom_site_fract_x
 _atom_site_fract_y
 _atom_site_fract_z
 _atom_site_occupancy
  Li  Li0  1  0.00782413  0.29054813  0.16251578  1
  Li  Li1  1  0.99755822  0.33716060  0.66672692  1
  Li  Li2  1  0.00177523  0.66863726  0.29290982  1
  Li  Li3  1  0.25672090  0.84084549  0.66616905  1
  Li  Li4  1  0.22738649  0.84619622  0.16279458  1
  Li  Li5  1  0.24131285  0.47305911  0.02562135  1
  Li  Li6  1  0.48976756  0.30912936  0.17887841  1
  Li  Li7  1  0.52065589  0.00770194  0.03915704  1
  Li  Li8  1  0.49600352  0.67680191  0.29780870  1
  Li  Li9  1  0.74093697  0.84622481  0.66547125  1
  Li  Li10  1  0.75544770  0.54226383  0.04456207  1
  Li  Li11  1  0.75600617  0.13709705  0.29849237  1
  V  V12  1  0.00051476  0.00324446  0.49555047  1
  V  V13  1  0.00014901  0.67053758  0.83718468  1
  V  V14  1  0.24942981  0.50352855  0.50372664  1
  V  V15  1  0.25500539  0.17445566  0.82917639  1
  V  V16  1  0.49857726  0.00075169  0.50039158  1
  V  V17  1  0.49916148  0.66143574  0.82711038  1
  V  V18  1  0.74959986  0.49550630  0.50343089  1
  V  V19  1  0.75272692  0.16399594  0.83312191  1
  O  O20  1  0.99025424  0.33181558  0.43659388  1
  O  O21  1  0.01462973  0.34348379  0.89814262  1
  O  O22  1  0.00863222  0.00404338  0.75776821  1
  O  O23  1  0.98990373  0.66630388  0.57670792  1
  O  O24  1  0.24543908  0.82695888  0.43437933  1
  O  O25  1  0.24381861  0.83435683  0.89310951  1
  O  O26  1  0.23309953  0.49548224  0.75778268  1
  O  O27  1  0.22916090  0.15347455  0.57245148  1
  O  O28  1  0.51448547  0.34532997  0.43964186  1
  O  O29  1  0.48537787  0.31961421  0.89812286  1
  O  O30  1  0.49771669  0.99446146  0.75750843  1
  O  O31  1  0.50563557  0.68294816  0.57498032  1
  O  O32  1  0.76334504  0.82791079  0.43462814  1
  O  O33  1  0.75099456  0.83156042  0.89712409  1
  O  O34  1  0.76639491  0.50910114  0.76120759  1
  O  O35  1  0.76449705  0.16786636  0.57271795  1
  F  F36  1  0.00257397  0.99789244  0.24841286  1
  F  F37  1  0.02550367  0.63473998  0.08723880  1
  F  F38  1  0.25119195  0.51954122  0.24070899  1
  F  F39  1  0.26836726  0.16577631  0.09014445  1
  F  F40  1  0.49488927  0.99742748  0.25078817  1
  F  F41  1  0.48377338  0.67246159  0.06865569  1
  F  F42  1  0.74005548  0.47640589  0.26300234  1
  F  F43  1  0.73369571  0.21858781  0.09071553  1
