# generated using pymatgen
data_LiFeF3
_symmetry_space_group_name_H-M   'P 1'
_cell_length_a   5.21001033
_cell_length_b   5.23563124
_cell_length_c   7.66011687
_cell_angle_alpha   89.98194006
_cell_angle_beta   89.86488992
_cell_angle_gamma   59.76844011
_symmetry_Int_Tables_number   1
_chemical_formula_structural   LiFeF3
_chemical_formula_sum   'Li3 Fe3 F9'
_cell_volume   180.53197614
_cell_formula_units_Z   3
loop_
 _symmetry_equiv_pos_site_id
 _symmetry_equiv_pos_as_xyz
  1  'x, y, z'
loop_
 _atom_site_type_symbol
 _atom_site_label
 _atom_site_symmetry_multiplicity
 _atom_site_fract_x
 _atom_site_fract_y
 _atom_site_fract_z
 _atom_site_occupancy
  Li  Li0  1  0.00148742  0.00695694  0.66142828  1
  Li  Li1  1  0.99691725  0.99564567  0.34403028  1
  Li  Li2  1  0.33122133  0.32985905  0.26055372  1
  Fe  Fe3  1  0.66748759  0.66226822  0.34617373  1
  Fe  Fe4  1  0.00160826  0.99870500  0.99441627  1
  Fe  Fe5  1  0.33698855  0.33372640  0.67412846  1
  F  F6  1  0.66511543  0.01624120  0.48612978  1
  F  F7  1  0.98668904  0.69573606  0.18942521  1
  F  F8  1  0.31909786  0.97912315  0.19279818  1
  F  F9  1  0.31583391  0.65742446  0.48917760  1
  F  F10  1  0.03852789  0.69351000  0.81541105  1
  F  F11  1  0.69525603  0.30927393  0.19074834  1
  F  F12  1  0.68854061  0.27747006  0.81837962  1
  F  F13  1  0.01241462  0.32003052  0.48565493  1
  F  F14  1  0.27940820  0.04444633  0.81846257  1
