# generated using pymatgen
data_CdNO4
_symmetry_space_group_name_H-M   'P 1'
_cell_length_a   4.01282868
_cell_length_b   7.41635127
_cell_length_c   11.18608476
_cell_angle_alpha   90.00000000
_cell_angle_beta   90.00000000
_cell_angle_gamma   90.00000000
_symmetry_Int_Tables_number   1
_chemical_formula_structural   CdNO4
_chemical_formula_sum   'Cd4 N4 O16'
_cell_volume   332.90400211
_cell_formula_units_Z   4
loop_
 _symmetry_equiv_pos_site_id
 _symmetry_equiv_pos_as_xyz
  1  'x, y, z'
loop_
 _atom_site_type_symbol
 _atom_site_label
 _atom_site_symmetry_multiplicity
 _atom_site_fract_x
 _atom_site_fract_y
 _atom_site_fract_z
 _atom_site_occupancy
  Cd  Cd0  1  0.93414385  0.73091013  0.37148204  1
  Cd  Cd1  1  0.56585615  0.26908987  0.87148204  1
  Cd  Cd2  1  0.43414385  0.76908987  0.62851796  1
  Cd  Cd3  1  0.06585615  0.23091013  0.12851796  1
  N  N4  1  0.69521725  0.84392502  0.14171936  1
  N  N5  1  0.80478275  0.15607498  0.64171936  1
  N  N6  1  0.19521725  0.65607498  0.85828064  1
  N  N7  1  0.30478275  0.34392502  0.35828064  1
  O  O8  1  0.57008354  0.90890555  0.05086182  1
  O  O9  1  0.92991646  0.09109445  0.55086182  1
  O  O10  1  0.07008354  0.59109445  0.94913818  1
  O  O11  1  0.42991646  0.40890555  0.44913818  1
  O  O12  1  0.91192099  0.93802948  0.20482165  1
  O  O13  1  0.58807901  0.06197052  0.70482165  1
  O  O14  1  0.41192099  0.56197052  0.79517835  1
  O  O15  1  0.08807901  0.43802948  0.29517835  1
  O  O16  1  0.62523580  0.68955343  0.18169675  1
  O  O17  1  0.87476420  0.31044657  0.68169675  1
  O  O18  1  0.12523580  0.81044657  0.81830325  1
  O  O19  1  0.37476420  0.18955343  0.31830325  1
  O  O20  1  0.43212551  0.82517288  0.43165152  1
  O  O21  1  0.06787449  0.17482712  0.93165152  1
  O  O22  1  0.93212551  0.67482712  0.56834848  1
  O  O23  1  0.56787449  0.32517288  0.06834848  1
