# generated using pymatgen
data_Li5Mn3Cr(PO4)4
_symmetry_space_group_name_H-M   'P 1'
_cell_length_a   4.88127172
_cell_length_b   6.38985463
_cell_length_c   10.58932786
_cell_angle_alpha   87.76060187
_cell_angle_beta   91.61019372
_cell_angle_gamma   89.69723987
_symmetry_Int_Tables_number   1
_chemical_formula_structural   Li5Mn3Cr(PO4)4
_chemical_formula_sum   'Li5 Mn3 Cr1 P4 O16'
_cell_volume   329.89836601
_cell_formula_units_Z   1
loop_
 _symmetry_equiv_pos_site_id
 _symmetry_equiv_pos_as_xyz
  1  'x, y, z'
loop_
 _atom_site_type_symbol
 _atom_site_label
 _atom_site_symmetry_multiplicity
 _atom_site_fract_x
 _atom_site_fract_y
 _atom_site_fract_z
 _atom_site_occupancy
  Li  Li0  1  0.00335486  0.01007031  0.99914354  1
  Li  Li1  1  0.99818578  0.49463771  0.99636168  1
  Li  Li2  1  0.37468052  0.45328359  0.63970933  1
  Li  Li3  1  0.53367834  0.02631816  0.49496046  1
  Li  Li4  1  0.61501455  0.52596323  0.37890699  1
  Mn  Mn5  1  0.06225011  0.76904038  0.28065807  1
  Mn  Mn6  1  0.47042796  0.77477331  0.78930762  1
  Mn  Mn7  1  0.54133343  0.23143585  0.20316391  1
  Cr  Cr8  1  0.90054055  0.23206703  0.71559216  1
  P  P9  1  0.11544301  0.25466190  0.40117441  1
  P  P10  1  0.41403463  0.25507629  0.90969735  1
  P  P11  1  0.59796510  0.74732780  0.09766425  1
  P  P12  1  0.89138917  0.74115515  0.59396961  1
  O  O13  1  0.22292069  0.23904120  0.53879941  1
  O  O14  1  0.20595509  0.73644506  0.61234295  1
  O  O15  1  0.24817526  0.06412248  0.33244914  1
  O  O16  1  0.23600813  0.45591870  0.33301097  1
  O  O17  1  0.29027236  0.05595186  0.84867102  1
  O  O18  1  0.30642841  0.45343234  0.83128967  1
  O  O19  1  0.28252320  0.76054070  0.09880490  1
  O  O20  1  0.27759779  0.26396310  0.04304459  1
  O  O21  1  0.71668484  0.73718691  0.96353279  1
  O  O22  1  0.72779788  0.24704499  0.92684451  1
  O  O23  1  0.71405345  0.55480485  0.18023699  1
  O  O24  1  0.73665552  0.94107490  0.16135678  1
  O  O25  1  0.75230358  0.54854672  0.65737756  1
  O  O26  1  0.75261505  0.93206380  0.65458236  1
  O  O27  1  0.79849544  0.25096192  0.38672554  1
  O  O28  1  0.80762629  0.75699375  0.44877043  1
