# generated using pymatgen
data_Li2Mn4OF8
_symmetry_space_group_name_H-M   'P 1'
_cell_length_a   5.46299988
_cell_length_b   9.45643945
_cell_length_c   14.59456776
_cell_angle_alpha   90.00000000
_cell_angle_beta   90.00000000
_cell_angle_gamma   90.00000000
_symmetry_Int_Tables_number   1
_chemical_formula_structural   Li2Mn4OF8
_chemical_formula_sum   'Li8 Mn16 O4 F32'
_cell_volume   753.96307029
_cell_formula_units_Z   4
loop_
 _symmetry_equiv_pos_site_id
 _symmetry_equiv_pos_as_xyz
  1  'x, y, z'
loop_
 _atom_site_type_symbol
 _atom_site_label
 _atom_site_symmetry_multiplicity
 _atom_site_fract_x
 _atom_site_fract_y
 _atom_site_fract_z
 _atom_site_occupancy
  Li  Li0  1  0.00246709  0.00413684  0.14802158  1
  Li  Li1  1  0.00246709  0.99586316  0.35197842  1
  Li  Li2  1  0.49753291  0.49586316  0.64802158  1
  Li  Li3  1  0.49753291  0.50413684  0.85197842  1
  Li  Li4  1  0.51684148  0.52418571  0.34749390  1
  Li  Li5  1  0.51684148  0.47581429  0.15250610  1
  Li  Li6  1  0.98315852  0.02418571  0.65250610  1
  Li  Li7  1  0.98315852  0.97581429  0.84749390  1
  Mn  Mn8  1  0.02115484  0.33058399  0.30883355  1
  Mn  Mn9  1  0.02115484  0.66941601  0.19116645  1
  Mn  Mn10  1  0.01921168  0.66614339  0.48820809  1
  Mn  Mn11  1  0.01921168  0.33385661  0.01179191  1
  Mn  Mn12  1  0.48078832  0.16614339  0.51179191  1
  Mn  Mn13  1  0.48078832  0.83385661  0.98820809  1
  Mn  Mn14  1  0.47884516  0.83058399  0.69116645  1
  Mn  Mn15  1  0.47884516  0.16941601  0.80883355  1
  Mn  Mn16  1  0.48808244  0.83989047  0.18698453  1
  Mn  Mn17  1  0.48808244  0.16010953  0.31301547  1
  Mn  Mn18  1  0.48454616  0.17404156  0.00916628  1
  Mn  Mn19  1  0.48454616  0.82595844  0.49083372  1
  Mn  Mn20  1  0.01545384  0.67404156  0.99083372  1
  Mn  Mn21  1  0.01545384  0.32595844  0.50916628  1
  Mn  Mn22  1  0.01191756  0.66010953  0.68698453  1
  Mn  Mn23  1  0.01191756  0.33989047  0.81301547  1
  O  O24  1  0.20287667  0.19415609  0.40910739  1
  O  O25  1  0.20287667  0.80584391  0.09089261  1
  O  O26  1  0.29712333  0.30584391  0.90910739  1
  O  O27  1  0.29712333  0.69415609  0.59089261  1
  F  F28  1  0.13087500  0.14908083  0.74674229  1
  F  F29  1  0.13087500  0.85091917  0.75325771  1
  F  F30  1  0.15797161  0.83885469  0.41457936  1
  F  F31  1  0.15797161  0.16114531  0.08542064  1
  F  F32  1  0.16230139  0.49573749  0.41045320  1
  F  F33  1  0.16230139  0.50426251  0.08954680  1
  F  F34  1  0.21864584  0.50000000  0.75000000  1
  F  F35  1  0.28135416  0.00000000  0.25000000  1
  F  F36  1  0.33769861  0.99573749  0.58954680  1
  F  F37  1  0.33769861  0.00426251  0.91045320  1
  F  F38  1  0.34202839  0.33885469  0.58542064  1
  F  F39  1  0.34202839  0.66114531  0.91457936  1
  F  F40  1  0.36912500  0.35091917  0.24674229  1
  F  F41  1  0.36912500  0.64908083  0.25325771  1
  F  F42  1  0.66294181  0.64931398  0.74507183  1
  F  F43  1  0.66294181  0.35068602  0.75492817  1
  F  F44  1  0.67662908  0.66554156  0.42293765  1
  F  F45  1  0.67662908  0.33445844  0.07706235  1
  F  F46  1  0.64470157  0.00471106  0.41687157  1
  F  F47  1  0.64470157  0.99528894  0.08312843  1
  F  F48  1  0.70367445  0.32599480  0.40846059  1
  F  F49  1  0.70367445  0.67400520  0.09154041  1
  F  F50  1  0.68060620  0.00000000  0.75000000  1
  F  F51  1  0.81939380  0.50000000  0.25000000  1
  F  F52  1  0.79632555  0.17400520  0.90845959  1
  F  F53  1  0.79632555  0.82599480  0.59154041  1
  F  F54  1  0.85529843  0.49528894  0.91687157  1
  F  F55  1  0.85529843  0.50471106  0.58312843  1
  F  F56  1  0.82337092  0.16554156  0.57706235  1
  F  F57  1  0.82337092  0.83445844  0.92293765  1
  F  F58  1  0.83705819  0.14931398  0.25492817  1
  F  F59  1  0.83705819  0.85068602  0.24507183  1
