# generated using pymatgen
data_Li3Co2Si3O10
_symmetry_space_group_name_H-M   'P 1'
_cell_length_a   5.50804346
_cell_length_b   5.51773649
_cell_length_c   16.79639917
_cell_angle_alpha   94.57099306
_cell_angle_beta   85.42840572
_cell_angle_gamma   120.82735172
_symmetry_Int_Tables_number   1
_chemical_formula_structural   Li3Co2Si3O10
_chemical_formula_sum   'Li6 Co4 Si6 O20'
_cell_volume   436.50786888
_cell_formula_units_Z   2
loop_
 _symmetry_equiv_pos_site_id
 _symmetry_equiv_pos_as_xyz
  1  'x, y, z'
loop_
 _atom_site_type_symbol
 _atom_site_label
 _atom_site_symmetry_multiplicity
 _atom_site_fract_x
 _atom_site_fract_y
 _atom_site_fract_z
 _atom_site_occupancy
  Li  Li0  1  0.43015540  0.83461911  0.73791529  1
  Li  Li1  1  0.36530826  0.85622124  0.04791905  1
  Li  Li2  1  0.16505800  0.56965027  0.23722868  1
  Li  Li3  1  0.14423211  0.63512417  0.54794800  1
  Li  Li4  1  0.75599395  0.51974795  0.77451346  1
  Li  Li5  1  0.47994869  0.24342668  0.27417996  1
  Co  Co6  1  0.80667297  0.99370406  0.58081391  1
  Co  Co7  1  0.00892831  0.81883987  0.92346614  1
  Co  Co8  1  0.00603723  0.19214228  0.08065248  1
  Co  Co9  1  0.18264350  0.99262418  0.42383584  1
  Si  Si10  1  0.87723087  0.87965134  0.25039975  1
  Si  Si11  1  0.52107609  0.68256414  0.40016121  1
  Si  Si12  1  0.31706418  0.47835643  0.90065566  1
  Si  Si13  1  0.67790406  0.52496258  0.09526240  1
  Si  Si14  1  0.47478253  0.32239738  0.59538608  1
  Si  Si15  1  0.11996973  0.12278709  0.75048720  1
  O  O16  1  0.12606209  0.88944013  0.29935086  1
  O  O17  1  0.11068855  0.87469085  0.79930797  1
  O  O18  1  0.24418718  0.69678721  0.43434364  1
  O  O19  1  0.30321433  0.75521738  0.93438216  1
  O  O20  1  0.58406628  0.79589686  0.30705593  1
  O  O21  1  0.80051818  0.88870020  0.45081672  1
  O  O22  1  0.94353570  0.79741661  0.04862557  1
  O  O23  1  0.45748228  0.60797727  0.59261927  1
  O  O24  1  0.39148615  0.54306733  0.09303978  1
  O  O25  1  0.20340069  0.41518588  0.80726208  1
  O  O26  1  0.76749054  0.58178088  0.19302178  1
  O  O27  1  0.64520821  0.55095499  0.89089703  1
  O  O28  1  0.44782411  0.35488188  0.39072033  1
  O  O29  1  0.11158995  0.19975204  0.95108352  1
  O  O30  1  0.20317086  0.05784240  0.54856174  1
  O  O31  1  0.41786166  0.23279778  0.69334167  1
  O  O32  1  0.66393223  0.23137323  0.06924577  1
  O  O33  1  0.76961441  0.33699783  0.56915731  1
  O  O34  1  0.98073498  0.16422650  0.20552910  1
  O  O35  1  0.83444674  0.01857199  0.70550366  1
