# generated using pymatgen
data_LiMnF3
_symmetry_space_group_name_H-M   'P 1'
_cell_length_a   5.96731919
_cell_length_b   8.75869976
_cell_length_c   5.64678446
_cell_angle_alpha   90.00000000
_cell_angle_beta   89.96256504
_cell_angle_gamma   90.00000000
_symmetry_Int_Tables_number   1
_chemical_formula_structural   LiMnF3
_chemical_formula_sum   'Li4 Mn4 F12'
_cell_volume   295.13453189
_cell_formula_units_Z   4
loop_
 _symmetry_equiv_pos_site_id
 _symmetry_equiv_pos_as_xyz
  1  'x, y, z'
loop_
 _atom_site_type_symbol
 _atom_site_label
 _atom_site_symmetry_multiplicity
 _atom_site_fract_x
 _atom_site_fract_y
 _atom_site_fract_z
 _atom_site_occupancy
  Li  Li0  1  0.18357864  0.75000000  0.67633333  1
  Li  Li1  1  0.31669779  0.25000000  0.17672146  1
  Li  Li2  1  0.68330221  0.75000000  0.82327854  1
  Li  Li3  1  0.81642136  0.25000000  0.32366667  1
  Mn  Mn4  1  0.00000000  0.00000000  0.00000000  1
  Mn  Mn5  1  0.00000000  0.50000000  0.00000000  1
  Mn  Mn6  1  0.50000000  0.00000000  0.50000000  1
  Mn  Mn7  1  0.50000000  0.50000000  0.50000000  1
  F  F8  1  0.19141939  0.53202796  0.68641805  1
  F  F9  1  0.19141939  0.96797204  0.68641805  1
  F  F10  1  0.48871581  0.75000000  0.53808749  1
  F  F11  1  0.98657873  0.75000000  0.96154873  1
  F  F12  1  0.69134196  0.53115138  0.81352857  1
  F  F13  1  0.69134196  0.96884862  0.81352857  1
  F  F14  1  0.30865804  0.03115138  0.18647043  1
  F  F15  1  0.30865804  0.46884862  0.18647043  1
  F  F16  1  0.01342127  0.25000000  0.03845127  1
  F  F17  1  0.51128419  0.25000000  0.46191251  1
  F  F18  1  0.80858061  0.46797204  0.31358195  1
  F  F19  1  0.80858061  0.03202796  0.31358195  1
