# generated using pymatgen
data_Li4V3CoO10
_symmetry_space_group_name_H-M   'P 1'
_cell_length_a   4.65871816
_cell_length_b   6.64887048
_cell_length_c   6.64899536
_cell_angle_alpha   90.11929208
_cell_angle_beta   89.69696741
_cell_angle_gamma   90.30288761
_symmetry_Int_Tables_number   1
_chemical_formula_structural   Li4V3CoO10
_chemical_formula_sum   'Li4 V3 Co1 O10'
_cell_volume   205.94785899
_cell_formula_units_Z   1
loop_
 _symmetry_equiv_pos_site_id
 _symmetry_equiv_pos_as_xyz
  1  'x, y, z'
loop_
 _atom_site_type_symbol
 _atom_site_label
 _atom_site_symmetry_multiplicity
 _atom_site_fract_x
 _atom_site_fract_y
 _atom_site_fract_z
 _atom_site_occupancy
  Li  Li0  1  0.03359172  0.99066518  0.96613117  1
  Li  Li1  1  0.00002888  0.48183195  0.98178897  1
  Li  Li2  1  0.96642259  0.46617425  0.49066399  1
  Li  Li3  1  0.99995231  0.00769133  0.50767478  1
  V  V4  1  0.60192039  0.74750432  0.75200502  1
  V  V5  1  0.50006016  0.74661710  0.24664975  1
  V  V6  1  0.39821491  0.25201294  0.24745133  1
  Co  Co7  1  0.49997243  0.24553453  0.74549168  1
  O  O8  1  0.28094012  0.95729603  0.24689541  1
  O  O9  1  0.24113661  0.75549065  0.77169661  1
  O  O10  1  0.71901526  0.74691131  0.45734521  1
  O  O11  1  0.73285911  0.74627813  0.04087319  1
  O  O12  1  0.26717368  0.54081506  0.24626831  1
  O  O13  1  0.73370364  0.47619788  0.74520312  1
  O  O14  1  0.26627456  0.24518364  0.97616406  1
  O  O15  1  0.26045911  0.24612967  0.51850146  1
  O  O16  1  0.75871907  0.27158876  0.25546308  1
  O  O17  1  0.73951445  0.01854427  0.74615687  1
