# generated using pymatgen
data_Li4CrNi5(PO4)6
_symmetry_space_group_name_H-M   'P 1'
_cell_length_a   8.30995154
_cell_length_b   8.80076054
_cell_length_c   8.79562299
_cell_angle_alpha   59.97014189
_cell_angle_beta   58.69314590
_cell_angle_gamma   58.61899026
_symmetry_Int_Tables_number   1
_chemical_formula_structural   Li4CrNi5(PO4)6
_chemical_formula_sum   'Li4 Cr1 Ni5 P6 O24'
_cell_volume   445.29581593
_cell_formula_units_Z   1
loop_
 _symmetry_equiv_pos_site_id
 _symmetry_equiv_pos_as_xyz
  1  'x, y, z'
loop_
 _atom_site_type_symbol
 _atom_site_label
 _atom_site_symmetry_multiplicity
 _atom_site_fract_x
 _atom_site_fract_y
 _atom_site_fract_z
 _atom_site_occupancy
  Li  Li0  1  0.24972477  0.85421064  0.64370310  1
  Li  Li1  1  0.76456903  0.14798398  0.35572143  1
  Li  Li2  1  0.76542765  0.73162440  0.14546940  1
  Li  Li3  1  0.76547140  0.35736701  0.73071343  1
  Cr  Cr4  1  0.56330470  0.14666968  0.14554915  1
  Ni  Ni5  1  0.01071537  0.99686520  0.00186600  1
  Ni  Ni6  1  0.06970429  0.64471038  0.64379834  1
  Ni  Ni7  1  0.49479668  0.49771394  0.50112759  1
  Ni  Ni8  1  0.43213421  0.85553534  0.85372705  1
  Ni  Ni9  1  0.94041738  0.35243047  0.35188330  1
  P  P10  1  0.24915640  0.25428656  0.55246702  1
  P  P11  1  0.24562128  0.94922395  0.24837420  1
  P  P12  1  0.24677203  0.55321215  0.94901066  1
  P  P13  1  0.74811490  0.45304078  0.04741880  1
  P  P14  1  0.75640858  0.04633298  0.75044865  1
  P  P15  1  0.73964126  0.75198388  0.45445157  1
  O  O16  1  0.05146774  0.10408421  0.31623172  1
  O  O17  1  0.05214696  0.52420495  0.10217176  1
  O  O18  1  0.05207722  0.32305178  0.52370799  1
  O  O19  1  0.22393709  0.08910759  0.74127380  1
  O  O20  1  0.43736695  0.18664528  0.39045119  1
  O  O21  1  0.28067724  0.40260604  0.56813930  1
  O  O22  1  0.22545384  0.92674460  0.09699089  1
  O  O23  1  0.28193864  0.76014942  0.41011888  1
  O  O24  1  0.55840491  0.60577370  0.01068802  1
  O  O25  1  0.28493562  0.56985898  0.74870104  1
  O  O26  1  0.77357724  0.24956522  0.07275285  1
  O  O27  1  0.57884980  0.99645073  0.81529769  1
  O  O28  1  0.43634241  0.99242709  0.17790799  1
  O  O29  1  0.21950068  0.75214772  0.92664797  1
  O  O30  1  0.72004603  0.43187370  0.24756664  1
  O  O31  1  0.43712277  0.39266992  0.98876345  1
  O  O32  1  0.72447870  0.24615701  0.59788464  1
  O  O33  1  0.77181949  0.07746386  0.90627803  1
  O  O34  1  0.72349190  0.59757781  0.42657787  1
  O  O35  1  0.53839406  0.81824012  0.60277334  1
  O  O36  1  0.76963707  0.90652741  0.25098237  1
  O  O37  1  0.91956676  0.69383851  0.49808717  1
  O  O38  1  0.93766052  0.48605254  0.89271500  1
  O  O39  1  0.95912342  0.89659145  0.68856273  1
