# generated using pymatgen
data_Mg6AlSi
_symmetry_space_group_name_H-M   'P 1'
_cell_length_a   6.09554469
_cell_length_b   6.09554425
_cell_length_c   5.15318538
_cell_angle_alpha   90.00000000
_cell_angle_beta   90.00000000
_cell_angle_gamma   120.28970678
_symmetry_Int_Tables_number   1
_chemical_formula_structural   Mg6AlSi
_chemical_formula_sum   'Mg6 Al1 Si1'
_cell_volume   165.33171191
_cell_formula_units_Z   1
loop_
 _symmetry_equiv_pos_site_id
 _symmetry_equiv_pos_as_xyz
  1  'x, y, z'
loop_
 _atom_site_type_symbol
 _atom_site_label
 _atom_site_symmetry_multiplicity
 _atom_site_fract_x
 _atom_site_fract_y
 _atom_site_fract_z
 _atom_site_occupancy
  Mg  Mg0  1  0.16895179  0.84044182  0.25000000  1
  Mg  Mg1  1  0.65955818  0.33104821  0.25000000  1
  Mg  Mg2  1  0.66749943  0.83250057  0.25000000  1
  Mg  Mg3  1  0.33232004  0.66202265  0.75000000  1
  Mg  Mg4  1  0.83797735  0.16767996  0.75000000  1
  Mg  Mg5  1  0.83270345  0.66729655  0.75000000  1
  Al  Al6  1  0.16924041  0.33075959  0.25000000  1
  Si  Si7  1  0.33174936  0.16825064  0.75000000  1
