# generated using pymatgen
data_Li4Cr3FeO8
_symmetry_space_group_name_H-M   'P 1'
_cell_length_a   5.88019900
_cell_length_b   5.88262803
_cell_length_c   5.89317032
_cell_angle_alpha   119.86124134
_cell_angle_beta   89.96403904
_cell_angle_gamma   120.04324790
_symmetry_Int_Tables_number   1
_chemical_formula_structural   Li4Cr3FeO8
_chemical_formula_sum   'Li4 Cr3 Fe1 O8'
_cell_volume   144.39673231
_cell_formula_units_Z   1
loop_
 _symmetry_equiv_pos_site_id
 _symmetry_equiv_pos_as_xyz
  1  'x, y, z'
loop_
 _atom_site_type_symbol
 _atom_site_label
 _atom_site_symmetry_multiplicity
 _atom_site_fract_x
 _atom_site_fract_y
 _atom_site_fract_z
 _atom_site_occupancy
  Li  Li0  1  0.00000128  0.50000567  0.49999141  1
  Li  Li1  1  0.50002174  0.50002843  0.50000426  1
  Li  Li2  1  0.00003904  0.00002795  0.49999994  1
  Li  Li3  1  0.50000514  0.99999758  0.50000125  1
  Cr  Cr4  1  -0.00000321  0.49998844  0.99998981  1
  Cr  Cr5  1  0.50000009  0.50000272  0.00000132  1
  Cr  Cr6  1  0.50000022  0.00000243  0.00000444  1
  Fe  Fe7  1  0.00000267  0.00000356  0.99999917  1
  O  O8  1  0.25815455  0.51617990  0.77374988  1
  O  O9  1  0.23940978  0.98448710  0.22445723  1
  O  O10  1  0.76072716  0.52126271  0.77571977  1
  O  O11  1  0.25507597  0.01554924  0.77564298  1
  O  O12  1  0.74492856  0.98445950  0.22435698  1
  O  O13  1  0.23927785  0.47874322  0.22427650  1
  O  O14  1  0.76058553  0.01551158  0.77554149  1
  O  O15  1  0.74185263  0.48382397  0.22624857  1
