# generated using pymatgen
data_LiVF4
_symmetry_space_group_name_H-M   'P 1'
_cell_length_a   11.56419918
_cell_length_b   5.97193119
_cell_length_c   8.90017004
_cell_angle_alpha   88.84568985
_cell_angle_beta   89.61104303
_cell_angle_gamma   90.90471187
_symmetry_Int_Tables_number   1
_chemical_formula_structural   LiVF4
_chemical_formula_sum   'Li8 V8 F32'
_cell_volume   614.43422986
_cell_formula_units_Z   8
loop_
 _symmetry_equiv_pos_site_id
 _symmetry_equiv_pos_as_xyz
  1  'x, y, z'
loop_
 _atom_site_type_symbol
 _atom_site_label
 _atom_site_symmetry_multiplicity
 _atom_site_fract_x
 _atom_site_fract_y
 _atom_site_fract_z
 _atom_site_occupancy
  Li  Li0  1  0.20673993  0.33815418  0.71386111  1
  Li  Li1  1  0.36974002  0.26744893  0.98862529  1
  Li  Li2  1  0.36214911  0.75076602  0.43625975  1
  Li  Li3  1  0.62553364  0.24391993  0.93569277  1
  Li  Li4  1  0.61443999  0.74028846  0.48671245  1
  Li  Li5  1  0.88778219  0.21004286  0.95502811  1
  Li  Li6  1  0.87207521  0.74479991  0.43487954  1
  Li  Li7  1  0.94980625  0.38475087  0.24748950  1
  V  V8  1  0.06471558  0.78011095  0.10150752  1
  V  V9  1  0.19475523  0.29816391  0.31339337  1
  V  V10  1  0.31222298  0.80129601  0.81186362  1
  V  V11  1  0.44790688  0.26130463  0.60088522  1
  V  V12  1  0.55681893  0.72855670  0.09861964  1
  V  V13  1  0.69094009  0.19657801  0.30326236  1
  V  V14  1  0.81036109  0.69629157  0.81399995  1
  V  V15  1  0.93545849  0.23287669  0.60300318  1
  F  F16  1  0.96255925  0.95586034  0.51930733  1
  F  F17  1  0.04168399  0.34221314  0.42897821  1
  F  F18  1  0.05326568  0.26549177  0.74465341  1
  F  F19  1  0.09662671  0.44537707  0.15051482  1
  F  F20  1  0.14579612  0.98731537  0.25979954  1
  F  F21  1  0.19588971  0.72478978  0.67775116  1
  F  F22  1  0.21127345  0.72570360  0.98919582  1
  F  F23  1  0.26938555  0.10848423  0.85257637  1
  F  F24  1  0.23725000  0.59178474  0.36762715  1
  F  F25  1  0.28783834  0.22565183  0.51343428  1
  F  F26  1  0.32611193  0.26417336  0.18922941  1
  F  F27  1  0.36190702  0.47040960  0.76653814  1
  F  F28  1  0.40828390  0.92598172  0.63613096  1
  F  F29  1  0.45530079  0.77572582  0.25935038  1
  F  F30  1  0.44925625  0.87094595  0.94585256  1
  F  F31  1  0.51249238  0.44901894  0.01214519  1
  F  F32  1  0.48274104  0.54692819  0.51334203  1
  F  F33  1  0.55457341  0.13685007  0.44010981  1
  F  F34  1  0.56218792  0.22136811  0.74584169  1
  F  F35  1  0.60243792  0.06503994  0.13219508  1
  F  F36  1  0.64433350  0.50970964  0.25425324  1
  F  F37  1  0.69008200  0.73078658  0.67089717  1
  F  F38  1  0.70099221  0.78366353  0.97951599  1
  F  F39  1  0.76573402  0.39406810  0.87977443  1
  F  F40  1  0.73258626  0.89445958  0.36950418  1
  F  F41  1  0.80312285  0.30833097  0.45881795  1
  F  F42  1  0.82216781  0.23283114  0.16646249  1
  F  F43  1  0.85329541  0.02767537  0.77453078  1
  F  F44  1  0.89873687  0.55883034  0.64319058  1
  F  F45  1  0.94150763  0.70598499  0.24461636  1
  F  F46  1  0.95061266  0.65003580  0.94202350  1
  F  F47  1  0.01380182  0.05697977  0.02920162  1
