# generated using pymatgen
data_Li2VCoO5
_symmetry_space_group_name_H-M   'P 1'
_cell_length_a   6.60968916
_cell_length_b   6.60969569
_cell_length_c   4.60459597
_cell_angle_alpha   90.00006189
_cell_angle_beta   89.99992640
_cell_angle_gamma   90.00346235
_symmetry_Int_Tables_number   1
_chemical_formula_structural   Li2VCoO5
_chemical_formula_sum   'Li4 V2 Co2 O10'
_cell_volume   201.16574489
_cell_formula_units_Z   2
loop_
 _symmetry_equiv_pos_site_id
 _symmetry_equiv_pos_as_xyz
  1  'x, y, z'
loop_
 _atom_site_type_symbol
 _atom_site_label
 _atom_site_symmetry_multiplicity
 _atom_site_fract_x
 _atom_site_fract_y
 _atom_site_fract_z
 _atom_site_occupancy
  Li  Li0  1  0.00003065  0.99996926  0.99999953  1
  Li  Li1  1  0.00002850  0.50002841  0.99999955  1
  Li  Li2  1  0.49996935  0.50003076  0.99999949  1
  Li  Li3  1  0.49997139  0.99997128  0.99999941  1
  V  V4  1  0.25000009  0.25000020  0.61320091  1
  V  V5  1  0.75000023  0.75000046  0.38680147  1
  Co  Co6  1  0.24999965  0.74999956  0.50000042  1
  Co  Co7  1  0.74999973  0.25000021  0.50000025  1
  O  O8  1  0.02297249  0.75003800  0.26374961  1
  O  O9  1  0.24999910  0.25000002  0.25033070  1
  O  O10  1  0.25003842  0.52297294  0.73624911  1
  O  O11  1  0.24996202  0.97702681  0.73624909  1
  O  O12  1  0.47702712  0.74996166  0.26374905  1
  O  O13  1  0.52296389  0.24999660  0.73623540  1
  O  O14  1  0.74999647  0.02296318  0.26376499  1
  O  O15  1  0.75000369  0.47703669  0.26376526  1
  O  O16  1  0.75000019  0.74999982  0.74967124  1
  O  O17  1  0.97703700  0.25000414  0.73623453  1
