# generated using pymatgen
data_Li3Ti2V3O12
_symmetry_space_group_name_H-M   'P 1'
_cell_length_a   8.79516958
_cell_length_b   12.61037572
_cell_length_c   9.27891099
_cell_angle_alpha   90.00000000
_cell_angle_beta   90.00000000
_cell_angle_gamma   91.02420388
_symmetry_Int_Tables_number   1
_chemical_formula_structural   Li3Ti2V3O12
_chemical_formula_sum   'Li12 Ti8 V12 O48'
_cell_volume   1028.96324312
_cell_formula_units_Z   4
loop_
 _symmetry_equiv_pos_site_id
 _symmetry_equiv_pos_as_xyz
  1  'x, y, z'
loop_
 _atom_site_type_symbol
 _atom_site_label
 _atom_site_symmetry_multiplicity
 _atom_site_fract_x
 _atom_site_fract_y
 _atom_site_fract_z
 _atom_site_occupancy
  Li  Li0  1  0.06894818  0.70206919  0.08712856  1
  Li  Li1  1  0.06817651  0.34806922  0.51496391  1
  Li  Li2  1  0.18441677  0.18409700  0.77373478  1
  Li  Li3  1  0.31558323  0.31590300  0.27373478  1
  Li  Li4  1  0.43105182  0.79793081  0.58712856  1
  Li  Li5  1  0.43182349  0.15193078  0.01496391  1
  Li  Li6  1  0.56817651  0.84806922  0.98503609  1
  Li  Li7  1  0.56894818  0.20206919  0.41287144  1
  Li  Li8  1  0.68441677  0.68409700  0.72626522  1
  Li  Li9  1  0.81558323  0.81590300  0.22626522  1
  Li  Li10  1  0.93182349  0.65193078  0.48503609  1
  Li  Li11  1  0.93105182  0.29793081  0.91287144  1
  Ti  Ti12  1  0.25526233  0.88660561  0.01993633  1
  Ti  Ti13  1  0.24473767  0.61339439  0.51993633  1
  Ti  Ti14  1  0.25793745  0.38876473  0.97506331  1
  Ti  Ti15  1  0.24206255  0.11123527  0.47506331  1
  Ti  Ti16  1  0.75793745  0.88876473  0.52493669  1
  Ti  Ti17  1  0.74206255  0.61123527  0.02493669  1
  Ti  Ti18  1  0.75526233  0.38660561  0.48006367  1
  Ti  Ti19  1  0.74473767  0.11339439  0.98006367  1
  V  V20  1  0.02810420  0.49049029  0.24364406  1
  V  V21  1  0.11674077  0.84802651  0.37847632  1
  V  V22  1  0.11297000  0.13930784  0.11469234  1
  V  V23  1  0.38325923  0.65197349  0.87847632  1
  V  V24  1  0.38703000  0.36069216  0.61469234  1
  V  V25  1  0.47189580  0.00950971  0.74364406  1
  V  V26  1  0.52810420  0.99049029  0.25635594  1
  V  V27  1  0.61297000  0.63930784  0.38530766  1
  V  V28  1  0.61674077  0.34802651  0.12152368  1
  V  V29  1  0.88703000  0.86069216  0.88530766  1
  V  V30  1  0.88325923  0.15197349  0.62152368  1
  V  V31  1  0.97189580  0.50950971  0.75635594  1
  O  O32  1  0.05835719  0.42562730  0.88646105  1
  O  O33  1  0.07290558  0.90667357  0.89316794  1
  O  O34  1  0.06625943  0.61046132  0.65026844  1
  O  O35  1  0.07741915  0.19571223  0.57441111  1
  O  O36  1  0.10264570  0.59258550  0.36798306  1
  O  O37  1  0.11787738  0.84535785  0.18583775  1
  O  O38  1  0.15074609  0.98653123  0.42634884  1
  O  O39  1  0.13087092  0.23925783  0.98532212  1
  O  O40  1  0.17381627  0.18548310  0.28373031  1
  O  O41  1  0.18952813  0.42130174  0.16236411  1
  O  O42  1  0.24337197  0.76611150  0.48319367  1
  O  O43  1  0.25662803  0.73388850  0.98319367  1
  O  O44  1  0.24676096  0.04622402  0.05668113  1
  O  O45  1  0.25323904  0.45377598  0.55668113  1
  O  O46  1  0.31047187  0.07869826  0.66236411  1
  O  O47  1  0.32618373  0.31451690  0.78373031  1
  O  O48  1  0.34925391  0.51346877  0.92634884  1
  O  O49  1  0.36912908  0.26074217  0.48532212  1
  O  O50  1  0.38212262  0.65464215  0.68583775  1
  O  O51  1  0.39735430  0.90741450  0.86798306  1
  O  O52  1  0.43374057  0.88953868  0.15026844  1
  O  O53  1  0.42709442  0.59332643  0.39316794  1
  O  O54  1  0.42258085  0.30428777  0.07441111  1
  O  O55  1  0.44164281  0.07437270  0.38646105  1
  O  O56  1  0.55835719  0.92562730  0.61353895  1
  O  O57  1  0.57741915  0.69571223  0.92558889  1
  O  O58  1  0.57290558  0.40667357  0.60683206  1
  O  O59  1  0.56625943  0.11046132  0.84973156  1
  O  O60  1  0.60264570  0.09258550  0.13201694  1
  O  O61  1  0.61787738  0.34535785  0.31416225  1
  O  O62  1  0.63087092  0.73925783  0.51467788  1
  O  O63  1  0.65074609  0.48653123  0.07365116  1
  O  O64  1  0.67381627  0.68548310  0.21626969  1
  O  O65  1  0.68952813  0.92130174  0.33763589  1
  O  O66  1  0.74676096  0.54622402  0.44331887  1
  O  O67  1  0.75323904  0.95377598  0.94331887  1
  O  O68  1  0.74337197  0.26611150  0.01680633  1
  O  O69  1  0.75662803  0.23388850  0.51680633  1
  O  O70  1  0.81047187  0.57869826  0.83763589  1
  O  O71  1  0.82618373  0.81451690  0.71626969  1
  O  O72  1  0.86912908  0.76074217  0.01467788  1
  O  O73  1  0.84925391  0.01346877  0.57365116  1
  O  O74  1  0.88212262  0.15464215  0.81416225  1
  O  O75  1  0.89735430  0.40741450  0.63201694  1
  O  O76  1  0.92258085  0.80428777  0.42558889  1
  O  O77  1  0.93374057  0.38953868  0.34973156  1
  O  O78  1  0.92709442  0.09332643  0.10683206  1
  O  O79  1  0.94164281  0.57437270  0.11353895  1
