# generated using pymatgen
data_MnCr3Te2(PO4)6
_symmetry_space_group_name_H-M   'P 1'
_cell_length_a   8.86137527
_cell_length_b   8.86137561
_cell_length_c   8.86137521
_cell_angle_alpha   58.65465052
_cell_angle_beta   58.65464393
_cell_angle_gamma   58.65464920
_symmetry_Int_Tables_number   1
_chemical_formula_structural   MnCr3Te2(PO4)6
_chemical_formula_sum   'Mn1 Cr3 Te2 P6 O24'
_cell_volume   476.89696832
_cell_formula_units_Z   1
loop_
 _symmetry_equiv_pos_site_id
 _symmetry_equiv_pos_as_xyz
  1  'x, y, z'
loop_
 _atom_site_type_symbol
 _atom_site_label
 _atom_site_symmetry_multiplicity
 _atom_site_fract_x
 _atom_site_fract_y
 _atom_site_fract_z
 _atom_site_occupancy
  Mn  Mn0  1  0.84488821  0.84488821  0.84488821  1
  Cr  Cr1  1  0.14489571  0.14489571  0.14489571  1
  Cr  Cr2  1  0.35297969  0.35297969  0.35297969  1
  Cr  Cr3  1  0.64784943  0.64784943  0.64784943  1
  Te  Te4  1  0.99114833  0.99114833  0.99114833  1
  Te  Te5  1  0.49727496  0.49727496  0.49727496  1
  P  P6  1  0.04514658  0.75041303  0.45243672  1
  P  P7  1  0.45243672  0.04514658  0.75041303  1
  P  P8  1  0.75041303  0.45243672  0.04514658  1
  P  P9  1  0.25532267  0.53787892  0.96263487  1
  P  P10  1  0.53787892  0.96263487  0.25532267  1
  P  P11  1  0.96263487  0.25532267  0.53787892  1
  O  O12  1  0.11556624  0.30878404  0.50563346  1
  O  O13  1  0.30878404  0.50563346  0.11556624  1
  O  O14  1  0.06778558  0.91481649  0.25578082  1
  O  O15  1  0.50563346  0.11556624  0.30878404  1
  O  O16  1  0.23944904  0.58143914  0.42339796  1
  O  O17  1  0.03056184  0.79876357  0.59985611  1
  O  O18  1  0.25578082  0.06778558  0.91481649  1
  O  O19  1  0.42339796  0.23944904  0.58143914  1
  O  O20  1  0.58143914  0.42339796  0.23944904  1
  O  O21  1  0.19282729  0.39087894  0.99377585  1
  O  O22  1  0.08913430  0.74103207  0.94066945  1
  O  O23  1  0.39087894  0.99377585  0.19282729  1
  O  O24  1  0.59985611  0.03056184  0.79876357  1
  O  O25  1  0.91481649  0.25578082  0.06778558  1
  O  O26  1  0.79876357  0.59985611  0.03056184  1
  O  O27  1  0.41961992  0.56339748  0.76770679  1
  O  O28  1  0.56339748  0.76770679  0.41961992  1
  O  O29  1  0.74103207  0.94066945  0.08913430  1
  O  O30  1  0.99377585  0.19282729  0.39087894  1
  O  O31  1  0.76770679  0.41961992  0.56339748  1
  O  O32  1  0.48926241  0.88442477  0.70256731  1
  O  O33  1  0.94066945  0.08913430  0.74103207  1
  O  O34  1  0.70256731  0.48926241  0.88442477  1
  O  O35  1  0.88442477  0.70256731  0.48926241  1
