# generated using pymatgen
data_LiVOF2
_symmetry_space_group_name_H-M   'P 1'
_cell_length_a   10.12959631
_cell_length_b   8.97287050
_cell_length_c   5.47583174
_cell_angle_alpha   89.60964453
_cell_angle_beta   89.79959264
_cell_angle_gamma   90.38528193
_symmetry_Int_Tables_number   1
_chemical_formula_structural   LiVOF2
_chemical_formula_sum   'Li8 V8 O8 F16'
_cell_volume   497.68093809
_cell_formula_units_Z   8
loop_
 _symmetry_equiv_pos_site_id
 _symmetry_equiv_pos_as_xyz
  1  'x, y, z'
loop_
 _atom_site_type_symbol
 _atom_site_label
 _atom_site_symmetry_multiplicity
 _atom_site_fract_x
 _atom_site_fract_y
 _atom_site_fract_z
 _atom_site_occupancy
  Li  Li0  1  0.21026786  0.41966212  0.53183143  1
  Li  Li1  1  0.21206442  0.58983081  0.03578905  1
  Li  Li2  1  0.28520840  0.07955244  0.03461600  1
  Li  Li3  1  0.29346059  0.90762414  0.54834432  1
  Li  Li4  1  0.69622250  0.07853004  0.47046597  1
  Li  Li5  1  0.69578234  0.92267868  0.96559131  1
  Li  Li6  1  0.79299780  0.41507720  0.96064606  1
  Li  Li7  1  0.80850348  0.57608912  0.46174226  1
  V  V8  1  0.01129640  0.90570030  0.24947133  1
  V  V9  1  0.01234138  0.26105704  0.25982591  1
  V  V10  1  0.01186641  0.73919039  0.76636484  1
  V  V11  1  0.01113725  0.09500132  0.74578693  1
  V  V12  1  0.49594260  0.41876609  0.23294848  1
  V  V13  1  0.49123152  0.76220126  0.26944887  1
  V  V14  1  0.49231422  0.24680110  0.74101327  1
  V  V15  1  0.49746572  0.58507990  0.75606175  1
  O  O16  1  0.09082021  0.08646484  0.09165016  1
  O  O17  1  0.09165589  0.91460659  0.59555145  1
  O  O18  1  0.09504701  0.24661458  0.56847106  1
  O  O19  1  0.09254318  0.75378656  0.07556583  1
  O  O20  1  0.41770366  0.74522856  0.58153351  1
  O  O21  1  0.40909778  0.41640536  0.57468384  1
  O  O22  1  0.40468318  0.59122016  0.09757726  1
  O  O23  1  0.59769654  0.40768543  0.92140571  1
  F  F24  1  0.14584872  0.41812151  0.18630993  1
  F  F25  1  0.14980168  0.58933136  0.68893435  1
  F  F26  1  0.35519341  0.91979206  0.20477353  1
  F  F27  1  0.36328874  0.08365714  0.69461984  1
  F  F28  1  0.38692122  0.25976124  0.06200751  1
  F  F29  1  0.61858536  0.58069076  0.41128100  1
  F  F30  1  0.59274257  0.24712849  0.40563968  1
  F  F31  1  0.61093147  0.73694364  0.93437485  1
  F  F32  1  0.63274305  0.91825439  0.29551588  1
  F  F33  1  0.63238239  0.09127186  0.80447451  1
  F  F34  1  0.86722485  0.40984028  0.29318266  1
  F  F35  1  0.87252739  0.58013110  0.79321484  1
  F  F36  1  0.89228740  0.23684005  0.92156026  1
  F  F37  1  0.88987107  0.76414295  0.42852683  1
  F  F38  1  0.88624784  0.08600668  0.41905552  1
  F  F39  1  0.88604948  0.91323543  0.92014524  1
