# generated using pymatgen
data_Li3Ni2(CO3)4
_symmetry_space_group_name_H-M   'P 1'
_cell_length_a   5.39431244
_cell_length_b   6.45543988
_cell_length_c   8.19818311
_cell_angle_alpha   86.51218990
_cell_angle_beta   79.15630278
_cell_angle_gamma   66.79145384
_symmetry_Int_Tables_number   1
_chemical_formula_structural   Li3Ni2(CO3)4
_chemical_formula_sum   'Li3 Ni2 C4 O12'
_cell_volume   257.66728325
_cell_formula_units_Z   1
loop_
 _symmetry_equiv_pos_site_id
 _symmetry_equiv_pos_as_xyz
  1  'x, y, z'
loop_
 _atom_site_type_symbol
 _atom_site_label
 _atom_site_symmetry_multiplicity
 _atom_site_fract_x
 _atom_site_fract_y
 _atom_site_fract_z
 _atom_site_occupancy
  Li  Li0  1  0.52581088  0.94974219  0.68302556  1
  Li  Li1  1  0.12962632  0.04753153  0.33809717  1
  Li  Li2  1  0.21955908  0.54454895  0.17483542  1
  Ni  Ni3  1  0.95343680  0.00137030  0.98827303  1
  Ni  Ni4  1  0.72100758  0.50340793  0.49234455  1
  C  C5  1  0.32324473  0.60473772  0.79049408  1
  C  C6  1  0.91714627  0.10617977  0.70176452  1
  C  C7  1  0.69233408  0.89935242  0.29914662  1
  C  C8  1  0.74578944  0.39463598  0.20576211  1
  O  O9  1  0.21043447  0.66972651  0.94270281  1
  O  O10  1  0.73422129  0.05297769  0.80013072  1
  O  O11  1  0.55663540  0.61506274  0.72803923  1
  O  O12  1  0.13214725  0.08276199  0.76023731  1
  O  O13  1  0.20474786  0.53662728  0.70062335  1
  O  O14  1  0.88585480  0.17525935  0.55285846  1
  O  O15  1  0.66145247  0.82785818  0.45177055  1
  O  O16  1  0.93861053  0.89224308  0.23050669  1
  O  O17  1  0.96197756  0.38787895  0.26288154  1
  O  O18  1  0.51557945  0.47737181  0.30852078  1
  O  O19  1  0.49926945  0.97011956  0.21867642  1
  O  O20  1  0.76316629  0.32318908  0.06234910  1
