# generated using pymatgen
data_LiV3O5F3
_symmetry_space_group_name_H-M   'P 1'
_cell_length_a   6.65582449
_cell_length_b   3.83493221
_cell_length_c   12.05330104
_cell_angle_alpha   90.00000000
_cell_angle_beta   77.40558757
_cell_angle_gamma   90.00000000
_symmetry_Int_Tables_number   1
_chemical_formula_structural   LiV3O5F3
_chemical_formula_sum   'Li2 V6 O10 F6'
_cell_volume   300.25330621
_cell_formula_units_Z   2
loop_
 _symmetry_equiv_pos_site_id
 _symmetry_equiv_pos_as_xyz
  1  'x, y, z'
loop_
 _atom_site_type_symbol
 _atom_site_label
 _atom_site_symmetry_multiplicity
 _atom_site_fract_x
 _atom_site_fract_y
 _atom_site_fract_z
 _atom_site_occupancy
  Li  Li0  1  0.18137836  0.75000000  0.31262991  1
  Li  Li1  1  0.81188444  0.25000000  0.67897306  1
  V  V2  1  0.13561195  0.25000000  0.05633357  1
  V  V3  1  0.32123570  0.25000000  0.54420677  1
  V  V4  1  0.27054204  0.25000000  0.79860083  1
  V  V5  1  0.72713699  0.75000000  0.20100676  1
  V  V6  1  0.68007006  0.75000000  0.46106595  1
  V  V7  1  0.92041793  0.75000000  0.92476984  1
  O  O8  1  0.03476922  0.75000000  0.06958366  1
  O  O9  1  0.12606786  0.25000000  0.67049138  1
  O  O10  1  0.18173072  0.75000000  0.82893664  1
  O  O11  1  0.49190104  0.75000000  0.27998919  1
  O  O12  1  0.38809146  0.75000000  0.52402288  1
  O  O13  1  0.35184590  0.25000000  0.95345418  1
  O  O14  1  0.61605030  0.25000000  0.47603215  1
  O  O15  1  0.50113484  0.25000000  0.71054537  1
  O  O16  1  0.86402415  0.75000000  0.32959705  1
  O  O17  1  0.96658038  0.25000000  0.93539692  1
  F  F18  1  0.20567314  0.25000000  0.19922551  1
  F  F19  1  0.17967885  0.25000000  0.42643396  1
  F  F20  1  0.66153472  0.75000000  0.04664645  1
  F  F21  1  0.79450878  0.25000000  0.17569853  1
  F  F22  1  0.82134323  0.75000000  0.57938190  1
  F  F23  1  0.76678792  0.75000000  0.81698055  1
