# generated using pymatgen
data_CrOF4
_symmetry_space_group_name_H-M   'P 1'
_cell_length_a   5.54828923
_cell_length_b   16.88847966
_cell_length_c   8.06305249
_cell_angle_alpha   90.00000000
_cell_angle_beta   90.86116124
_cell_angle_gamma   90.00000000
_symmetry_Int_Tables_number   1
_chemical_formula_structural   CrOF4
_chemical_formula_sum   'Cr8 O8 F32'
_cell_volume   755.44017743
_cell_formula_units_Z   8
loop_
 _symmetry_equiv_pos_site_id
 _symmetry_equiv_pos_as_xyz
  1  'x, y, z'
loop_
 _atom_site_type_symbol
 _atom_site_label
 _atom_site_symmetry_multiplicity
 _atom_site_fract_x
 _atom_site_fract_y
 _atom_site_fract_z
 _atom_site_occupancy
  Cr  Cr0  1  0.26851325  0.85816319  0.99089524  1
  Cr  Cr1  1  0.25092361  0.38888584  0.90756963  1
  Cr  Cr2  1  0.26851325  0.64183681  0.49089524  1
  Cr  Cr3  1  0.25092361  0.11111416  0.40756963  1
  Cr  Cr4  1  0.74907639  0.88888584  0.59243037  1
  Cr  Cr5  1  0.73148675  0.35816319  0.50910476  1
  Cr  Cr6  1  0.74907639  0.61111416  0.09243037  1
  Cr  Cr7  1  0.73148675  0.14183681  0.00910476  1
  O  O8  1  0.09853956  0.07923148  0.55475074  1
  O  O9  1  0.09853956  0.42076852  0.05475074  1
  O  O10  1  0.43564379  0.63641187  0.64841502  1
  O  O11  1  0.43564379  0.86358813  0.14841502  1
  O  O12  1  0.56435621  0.13641187  0.85158498  1
  O  O13  1  0.56435621  0.36358813  0.35158498  1
  O  O14  1  0.90146044  0.57923148  0.94524926  1
  O  O15  1  0.90146044  0.92076852  0.44524926  1
  F  F16  1  0.02529053  0.34947405  0.77129592  1
  F  F17  1  0.02529053  0.15052595  0.27129592  1
  F  F18  1  0.01901552  0.12830922  0.92603614  1
  F  F19  1  0.01901552  0.37169078  0.42603614  1
  F  F20  1  0.19746147  0.75735431  0.97041413  1
  F  F21  1  0.19746147  0.74264569  0.47041413  1
  F  F22  1  0.25417399  0.95542583  0.91540104  1
  F  F23  1  0.26417653  0.46971676  0.77067770  1
  F  F24  1  0.25417399  0.54457417  0.41540104  1
  F  F25  1  0.26417653  0.03028324  0.27067770  1
  F  F26  1  0.31047641  0.29019599  0.96158817  1
  F  F27  1  0.31047641  0.20980401  0.46158817  1
  F  F28  1  0.45278616  0.91149916  0.52801278  1
  F  F29  1  0.45278616  0.58850084  0.02801278  1
  F  F30  1  0.48201959  0.83971055  0.83120556  1
  F  F31  1  0.51798041  0.33971055  0.66879444  1
  F  F32  1  0.48201959  0.66028945  0.33120556  1
  F  F33  1  0.51798041  0.16028945  0.16879444  1
  F  F34  1  0.54721384  0.41149916  0.97198722  1
  F  F35  1  0.54721384  0.08850084  0.47198722  1
  F  F36  1  0.68952359  0.79019599  0.53841183  1
  F  F37  1  0.68952359  0.70980401  0.03841183  1
  F  F38  1  0.73582347  0.96971676  0.72932230  1
  F  F39  1  0.74582601  0.45542583  0.58459896  1
  F  F40  1  0.73582347  0.53028324  0.22932230  1
  F  F41  1  0.74582601  0.04457417  0.08459896  1
  F  F42  1  0.80253853  0.25735431  0.52958587  1
  F  F43  1  0.80253853  0.24264569  0.02958587  1
  F  F44  1  0.98098448  0.62830922  0.57396386  1
  F  F45  1  0.98098448  0.87169078  0.07396386  1
  F  F46  1  0.97470947  0.84947405  0.72870408  1
  F  F47  1  0.97470947  0.65052595  0.22870408  1
