# generated using pymatgen
data_Li10V(SiO5)2
_symmetry_space_group_name_H-M   'P 1'
_cell_length_a   6.13588036
_cell_length_b   15.38784115
_cell_length_c   5.14641472
_cell_angle_alpha   79.53822974
_cell_angle_beta   89.96037213
_cell_angle_gamma   78.48478369
_symmetry_Int_Tables_number   1
_chemical_formula_structural   Li10V(SiO5)2
_chemical_formula_sum   'Li20 V2 Si4 O20'
_cell_volume   467.89934022
_cell_formula_units_Z   2
loop_
 _symmetry_equiv_pos_site_id
 _symmetry_equiv_pos_as_xyz
  1  'x, y, z'
loop_
 _atom_site_type_symbol
 _atom_site_label
 _atom_site_symmetry_multiplicity
 _atom_site_fract_x
 _atom_site_fract_y
 _atom_site_fract_z
 _atom_site_occupancy
  Li  Li0  1  0.50956661  0.98303268  0.75662231  1
  Li  Li1  1  0.34670439  0.87020647  0.24106415  1
  Li  Li2  1  0.77938637  0.87046503  0.23796985  1
  Li  Li3  1  0.12791292  0.73920172  0.48182536  1
  Li  Li4  1  0.34891226  0.73823147  0.02779324  1
  Li  Li5  1  0.91385060  0.73831187  0.02272899  1
  Li  Li6  1  0.67305658  0.65085958  0.41643732  1
  Li  Li7  1  0.43558493  0.61127731  0.78764178  1
  Li  Li8  1  0.94923522  0.61078942  0.78623441  1
  Li  Li9  1  0.72951541  0.53974981  0.13440376  1
  Li  Li10  1  0.27086591  0.46055109  0.86506877  1
  Li  Li11  1  0.04839218  0.38866952  0.21138910  1
  Li  Li12  1  0.56191208  0.38825337  0.21373162  1
  Li  Li13  1  0.32421801  0.34942179  0.58642754  1
  Li  Li14  1  0.08731023  0.26160228  0.97245004  1
  Li  Li15  1  0.65310637  0.26136035  0.97536662  1
  Li  Li16  1  0.86964675  0.26035258  0.51789786  1
  Li  Li17  1  0.65161162  0.13058358  0.75660274  1
  Li  Li18  1  0.21854422  0.12943197  0.76023947  1
  Li  Li19  1  0.48937461  0.01744701  0.24243307  1
  V  V20  1  0.03652704  0.92939196  0.85374981  1
  V  V21  1  0.96363674  0.07073241  0.14542147  1
  Si  Si22  1  0.59788096  0.80069202  0.69195638  1
  Si  Si23  1  0.21809335  0.56236820  0.30846795  1
  Si  Si24  1  0.78084278  0.43726056  0.68970066  1
  Si  Si25  1  0.39956366  0.19946827  0.30754488  1
  O  O26  1  0.54854570  0.90063543  0.49841812  1
  O  O27  1  0.09023364  0.81837061  0.11902652  1
  O  O28  1  0.59480839  0.80989027  0.00836431  1
  O  O29  1  0.40853589  0.74336591  0.63433402  1
  O  O30  1  0.84345226  0.74256632  0.63179949  1
  O  O31  1  0.96791834  0.61354769  0.16891237  1
  O  O32  1  0.41869710  0.61330199  0.17130601  1
  O  O33  1  0.21188100  0.57303636  0.62087943  1
  O  O34  1  0.72629797  0.54347144  0.73504652  1
  O  O35  1  0.27131739  0.45615224  0.26407110  1
  O  O36  1  0.78585448  0.42698524  0.37773591  1
  O  O37  1  0.03231135  0.38642917  0.82743020  1
  O  O38  1  0.58162494  0.38592567  0.82935559  1
  O  O39  1  0.15279117  0.25686980  0.36450879  1
  O  O40  1  0.58822670  0.25653252  0.36869600  1
  O  O41  1  0.40571921  0.19052302  0.99037373  1
  O  O42  1  0.90972362  0.18165735  0.87902499  1
  O  O43  1  0.44898241  0.09947962  0.50042534  1
  O  O44  1  0.23916916  0.00015196  -0.00002068  1
  O  O45  1  0.76130550  0.99990510  0.99826011  1
