# generated using pymatgen
data_Ca2Bi10O17
_symmetry_space_group_name_H-M   'P 1'
_cell_length_a   8.09026791
_cell_length_b   7.87911167
_cell_length_c   9.87009885
_cell_angle_alpha   80.72100913
_cell_angle_beta   90.00000000
_cell_angle_gamma   59.10944820
_symmetry_Int_Tables_number   1
_chemical_formula_structural   Ca2Bi10O17
_chemical_formula_sum   'Ca2 Bi10 O17'
_cell_volume   530.29774526
_cell_formula_units_Z   1
loop_
 _symmetry_equiv_pos_site_id
 _symmetry_equiv_pos_as_xyz
  1  'x, y, z'
loop_
 _atom_site_type_symbol
 _atom_site_label
 _atom_site_symmetry_multiplicity
 _atom_site_fract_x
 _atom_site_fract_y
 _atom_site_fract_z
 _atom_site_occupancy
  Ca  Ca0  1  0.99543363  0.00913273  0.98339748  1
  Ca  Ca1  1  0.49672840  0.00654419  0.97946917  1
  Bi  Bi2  1  0.12425607  0.75148786  0.68161010  1
  Bi  Bi3  1  0.62250158  0.75499584  0.67934229  1
  Bi  Bi4  1  0.34864627  0.77470128  0.31396526  1
  Bi  Bi5  1  0.87665245  0.77470128  0.31396526  1
  Bi  Bi6  1  0.00142715  0.49903999  0.98266584  1
  Bi  Bi7  1  0.49953186  0.49903999  0.98266584  1
  Bi  Bi8  1  0.09609723  0.27251071  0.67542762  1
  Bi  Bi9  1  0.63139206  0.27251071  0.67542762  1
  Bi  Bi10  1  0.39053373  0.21893253  0.32355590  1
  Bi  Bi11  1  0.85256137  0.29487726  0.31774111  1
  O  O12  1  0.16581609  0.66836782  0.90077144  1
  O  O13  1  0.66125005  0.67750089  0.90200764  1
  O  O14  1  0.61823019  0.76353962  0.29261295  1
  O  O15  1  0.95491456  0.60143775  0.73138611  1
  O  O16  1  0.44364769  0.60143775  0.73138611  1
  O  O17  1  0.31010118  0.83362816  0.10192123  1
  O  O18  1  0.85627066  0.83362816  0.10192123  1
  O  O19  1  0.77793318  0.44413364  0.60454155  1
  O  O20  1  0.23594954  0.52809991  0.34439198  1
  O  O21  1  0.12929956  0.21721074  0.89406435  1
  O  O22  1  0.65348971  0.21721074  0.89406435  1
  O  O23  1  0.45881966  0.08236168  0.72403221  1
  O  O24  1  0.35996403  0.28007194  0.10688632  1
  O  O25  1  0.85014208  0.29971483  0.10650989  1
  O  O26  1  0.97293849  0.05412401  0.72238854  1
  O  O27  1  0.73979918  0.09582849  0.35758430  1
  O  O28  1  0.16437234  0.09582849  0.35758430  1
