# generated using pymatgen
data_Co3SbO8
_symmetry_space_group_name_H-M   'P 1'
_cell_length_a   5.85005973
_cell_length_b   5.85005976
_cell_length_c   5.84973010
_cell_angle_alpha   59.99813308
_cell_angle_beta   59.99813167
_cell_angle_gamma   60.00000022
_symmetry_Int_Tables_number   1
_chemical_formula_structural   Co3SbO8
_chemical_formula_sum   'Co3 Sb1 O8'
_cell_volume   141.55629065
_cell_formula_units_Z   1
loop_
 _symmetry_equiv_pos_site_id
 _symmetry_equiv_pos_as_xyz
  1  'x, y, z'
loop_
 _atom_site_type_symbol
 _atom_site_label
 _atom_site_symmetry_multiplicity
 _atom_site_fract_x
 _atom_site_fract_y
 _atom_site_fract_z
 _atom_site_occupancy
  Co  Co0  1  0.50000000  0.00000000  0.00000000  1
  Co  Co1  1  0.00000000  0.50000000  0.00000000  1
  Co  Co2  1  0.50000000  0.50000000  0.00000000  1
  Sb  Sb3  1  0.00000000  0.00000000  0.00000000  1
  O  O4  1  0.24306003  0.24306003  0.79456865  1
  O  O5  1  0.71931029  0.24306003  0.79456865  1
  O  O6  1  0.24306003  0.71931029  0.79456865  1
  O  O7  1  0.72825850  0.72825850  0.81522349  1
  O  O8  1  0.27174150  0.27174150  0.18477651  1
  O  O9  1  0.75693997  0.28068971  0.20543135  1
  O  O10  1  0.28068971  0.75693997  0.20543135  1
  O  O11  1  0.75693997  0.75693997  0.20543135  1
