# generated using pymatgen
data_LiV3F10
_symmetry_space_group_name_H-M   'P 1'
_cell_length_a   3.98679020
_cell_length_b   6.03795720
_cell_length_c   15.57089193
_cell_angle_alpha   90.00000000
_cell_angle_beta   89.26769371
_cell_angle_gamma   90.00000000
_symmetry_Int_Tables_number   1
_chemical_formula_structural   LiV3F10
_chemical_formula_sum   'Li2 V6 F20'
_cell_volume   374.79296377
_cell_formula_units_Z   2
loop_
 _symmetry_equiv_pos_site_id
 _symmetry_equiv_pos_as_xyz
  1  'x, y, z'
loop_
 _atom_site_type_symbol
 _atom_site_label
 _atom_site_symmetry_multiplicity
 _atom_site_fract_x
 _atom_site_fract_y
 _atom_site_fract_z
 _atom_site_occupancy
  Li  Li0  1  0.09235314  0.49209194  0.39336958  1
  Li  Li1  1  0.09235314  0.50790806  0.89336958  1
  V  V2  1  0.01011732  0.05706448  0.00375154  1
  V  V3  1  0.00524511  0.03629118  0.28652544  1
  V  V4  1  0.02038643  0.50294358  0.13825450  1
  V  V5  1  0.01011732  0.94293552  0.50375154  1
  V  V6  1  0.00524511  0.96370882  0.78652544  1
  V  V7  1  0.02038643  0.49705642  0.63825450  1
  F  F8  1  0.00538593  0.77110223  0.06187792  1
  F  F9  1  0.02697803  0.76757914  0.21890286  1
  F  F10  1  0.98618893  0.79783623  0.37988575  1
  F  F11  1  0.00538593  0.22889777  0.56187792  1
  F  F12  1  0.02535843  0.18402245  0.40360350  1
  F  F13  1  0.02824253  0.36457592  0.26111886  1
  F  F14  1  0.02697803  0.23242086  0.71890286  1
  F  F15  1  0.98618893  0.20216377  0.87988575  1
  F  F16  1  0.02535843  0.81597755  0.90360350  1
  F  F17  1  0.02824253  0.63542408  0.76111886  1
  F  F18  1  0.07615176  0.39396281  0.01211420  1
  F  F19  1  0.07615176  0.60603719  0.51211420  1
  F  F20  1  0.52007454  0.50233502  0.13962515  1
  F  F21  1  0.50932158  0.04274503  0.28532503  1
  F  F22  1  0.51142079  0.94640688  0.49636661  1
  F  F23  1  0.52007454  0.49766498  0.63962515  1
  F  F24  1  0.50932158  0.95725497  0.78532503  1
  F  F25  1  0.51142079  0.05359312  0.99636661  1
  F  F26  1  0.97094247  0.15807217  0.12984707  1
  F  F27  1  0.97094247  0.84192783  0.62984707  1
