# generated using pymatgen
data_Mn12O5F19
_symmetry_space_group_name_H-M   'P 1'
_cell_length_a   5.32476467
_cell_length_b   5.37737248
_cell_length_c   15.38662742
_cell_angle_alpha   94.04919723
_cell_angle_beta   89.36452537
_cell_angle_gamma   88.68971145
_symmetry_Int_Tables_number   1
_chemical_formula_structural   Mn12O5F19
_chemical_formula_sum   'Mn12 O5 F19'
_cell_volume   439.31871386
_cell_formula_units_Z   1
loop_
 _symmetry_equiv_pos_site_id
 _symmetry_equiv_pos_as_xyz
  1  'x, y, z'
loop_
 _atom_site_type_symbol
 _atom_site_label
 _atom_site_symmetry_multiplicity
 _atom_site_fract_x
 _atom_site_fract_y
 _atom_site_fract_z
 _atom_site_occupancy
  Mn  Mn0  1  0.00520816  0.93902349  0.99098682  1
  Mn  Mn1  1  0.98151142  0.45349211  0.17386536  1
  Mn  Mn2  1  0.99528507  0.94151550  0.33335222  1
  Mn  Mn3  1  0.01964908  0.47186324  0.49446365  1
  Mn  Mn4  1  0.94016715  0.03939979  0.67249730  1
  Mn  Mn5  1  0.06606332  0.49674641  0.83664986  1
  Mn  Mn6  1  0.50123698  0.11013916  0.16704498  1
  Mn  Mn7  1  0.49897120  0.53053864  0.98974816  1
  Mn  Mn8  1  0.43777459  0.49142352  0.67252964  1
  Mn  Mn9  1  0.52916051  0.01033093  0.51895876  1
  Mn  Mn10  1  0.46811941  0.58130238  0.32250842  1
  Mn  Mn11  1  0.46219429  0.01113744  0.83606882  1
  O  O12  1  0.15855263  0.65471937  0.26219250  1
  O  O13  1  0.27292648  0.72455695  0.90131214  1
  O  O14  1  0.30477320  0.29620193  0.76159147  1
  O  O15  1  0.66177092  0.25677676  0.61800077  1
  O  O16  1  0.65398132  0.37531833  0.23700824  1
  F  F17  1  0.17044175  0.14868688  0.23910450  1
  F  F18  1  0.34845222  0.87706828  0.07829897  1
  F  F19  1  0.17667908  0.20477806  0.57738479  1
  F  F20  1  0.30673093  0.84513751  0.41205310  1
  F  F21  1  0.17062748  0.23857107  0.93001557  1
  F  F22  1  0.16752449  0.74911591  0.72279559  1
  F  F23  1  0.30635495  0.38212770  0.09963100  1
  F  F24  1  0.37853365  0.66811610  0.56483371  1
  F  F25  1  0.30191733  0.33843499  0.40659896  1
  F  F26  1  0.65895978  0.17032776  0.94524425  1
  F  F27  1  0.83065144  0.64495858  0.06819650  1
  F  F28  1  0.78144490  0.64192262  0.39628855  1
  F  F29  1  0.65677211  0.79392307  0.73222425  1
  F  F30  1  0.81385335  0.15152209  0.43333018  1
  F  F31  1  0.83608483  0.14871427  0.10052324  1
  F  F32  1  0.82039934  0.26321310  0.78603580  1
  F  F33  1  0.86395376  0.78549934  0.56332610  1
  F  F34  1  0.78615210  0.68104184  0.89926033  1
  F  F35  1  0.66712178  0.88235487  0.25607453  1
