# generated using pymatgen
data_Li2Co4OF8
_symmetry_space_group_name_H-M   'P 1'
_cell_length_a   6.85559597
_cell_length_b   7.81453817
_cell_length_c   8.50895098
_cell_angle_alpha   101.95757613
_cell_angle_beta   114.81454222
_cell_angle_gamma   99.96014017
_symmetry_Int_Tables_number   1
_chemical_formula_structural   Li2Co4OF8
_chemical_formula_sum   'Li4 Co8 O2 F16'
_cell_volume   387.05749298
_cell_formula_units_Z   2
loop_
 _symmetry_equiv_pos_site_id
 _symmetry_equiv_pos_as_xyz
  1  'x, y, z'
loop_
 _atom_site_type_symbol
 _atom_site_label
 _atom_site_symmetry_multiplicity
 _atom_site_fract_x
 _atom_site_fract_y
 _atom_site_fract_z
 _atom_site_occupancy
  Li  Li0  1  0.13387240  0.23593156  0.37062084  1
  Li  Li1  1  0.52516622  0.73675081  0.91232145  1
  Li  Li2  1  0.47483378  0.26324919  0.08767855  1
  Li  Li3  1  0.86612760  0.76406844  0.62937916  1
  Co  Co4  1  0.07344477  0.40735247  0.75042545  1
  Co  Co5  1  0.32867330  0.90023488  0.54204708  1
  Co  Co6  1  0.13834038  0.87371984  0.08472922  1
  Co  Co7  1  0.37199813  0.60520522  0.23296062  1
  Co  Co8  1  0.62800187  0.39479478  0.76703938  1
  Co  Co9  1  0.86165962  0.12628016  0.91527078  1
  Co  Co10  1  0.67132670  0.09976512  0.45795292  1
  Co  Co11  1  0.92655523  0.59264753  0.24957455  1
  O  O12  1  0.19944470  0.77523660  0.28341070  1
  O  O13  1  0.80055530  0.22476340  0.71658930  1
  F  F14  1  0.02969851  0.94777904  0.85778409  1
  F  F15  1  0.04875425  0.75490594  0.52049195  1
  F  F16  1  0.21574412  0.35571673  0.99792686  1
  F  F17  1  0.36383107  0.49494779  0.74189463  1
  F  F18  1  0.16526589  0.44946800  0.30629997  1
  F  F19  1  0.54956502  0.90556401  0.78386638  1
  F  F20  1  0.36211017  0.16144719  0.54296980  1
  F  F21  1  0.68060352  0.28818754  0.98709114  1
  F  F22  1  0.31939648  0.71181246  0.01290886  1
  F  F23  1  0.63788983  0.83855281  0.45703020  1
  F  F24  1  0.45043498  0.09443599  0.21613362  1
  F  F25  1  0.83473411  0.55053200  0.69370003  1
  F  F26  1  0.63616893  0.50505221  0.25810537  1
  F  F27  1  0.78425588  0.64428327  0.00207314  1
  F  F28  1  0.95124575  0.24509406  0.47950805  1
  F  F29  1  0.97030149  0.05222096  0.14221591  1
