# generated using pymatgen
data_LiSiBiO4
_symmetry_space_group_name_H-M   'P 1'
_cell_length_a   10.47247757
_cell_length_b   7.27910249
_cell_length_c   4.95972877
_cell_angle_alpha   90.00000000
_cell_angle_beta   90.00000000
_cell_angle_gamma   90.00000000
_symmetry_Int_Tables_number   1
_chemical_formula_structural   LiSiBiO4
_chemical_formula_sum   'Li4 Si4 Bi4 O16'
_cell_volume   378.08130235
_cell_formula_units_Z   4
loop_
 _symmetry_equiv_pos_site_id
 _symmetry_equiv_pos_as_xyz
  1  'x, y, z'
loop_
 _atom_site_type_symbol
 _atom_site_label
 _atom_site_symmetry_multiplicity
 _atom_site_fract_x
 _atom_site_fract_y
 _atom_site_fract_z
 _atom_site_occupancy
  Li  Li0  1  0.15514501  0.00914388  0.24372112  1
  Li  Li1  1  0.34485499  0.50914388  0.74372112  1
  Li  Li2  1  0.65514501  0.49085612  0.24372112  1
  Li  Li3  1  0.84485499  0.99085612  0.74372112  1
  Si  Si4  1  0.09253861  0.76877460  0.74833087  1
  Si  Si5  1  0.40746139  0.26877460  0.24833087  1
  Si  Si6  1  0.59253861  0.73122540  0.74833087  1
  Si  Si7  1  0.90746139  0.23122540  0.24833087  1
  Bi  Bi8  1  0.12252915  0.25942140  0.72891833  1
  Bi  Bi9  1  0.37747085  0.75942140  0.22891833  1
  Bi  Bi10  1  0.62252915  0.24057860  0.72891833  1
  Bi  Bi11  1  0.87747085  0.74057860  0.22891833  1
  O  O12  1  0.05991520  0.23310358  0.14657130  1
  O  O13  1  0.07643038  0.78686200  0.08349546  1
  O  O14  1  0.16912680  0.58338178  0.66240402  1
  O  O15  1  0.16123379  0.95459995  0.62891890  1
  O  O16  1  0.33876621  0.45459995  0.12891890  1
  O  O17  1  0.33087320  0.08338178  0.16240502  1
  O  O18  1  0.42356962  0.28686200  0.58349546  1
  O  O19  1  0.44008480  0.73310358  0.64657130  1
  O  O20  1  0.55991520  0.26689642  0.14657130  1
  O  O21  1  0.57643038  0.71313800  0.08349546  1
  O  O22  1  0.66912680  0.91661822  0.66240402  1
  O  O23  1  0.66123379  0.54540005  0.62891890  1
  O  O24  1  0.83876621  0.04540005  0.12891890  1
  O  O25  1  0.83087320  0.41661822  0.16240502  1
  O  O26  1  0.92356962  0.21313800  0.58349546  1
  O  O27  1  0.94008480  0.76689642  0.64657130  1
