# generated using pymatgen
data_CaMg6Cu
_symmetry_space_group_name_H-M   'P 1'
_cell_length_a   6.59333996
_cell_length_b   6.21711917
_cell_length_c   5.07916097
_cell_angle_alpha   90.00000000
_cell_angle_beta   90.00000000
_cell_angle_gamma   118.12974154
_symmetry_Int_Tables_number   1
_chemical_formula_structural   CaMg6Cu
_chemical_formula_sum   'Ca1 Mg6 Cu1'
_cell_volume   183.61038425
_cell_formula_units_Z   1
loop_
 _symmetry_equiv_pos_site_id
 _symmetry_equiv_pos_as_xyz
  1  'x, y, z'
loop_
 _atom_site_type_symbol
 _atom_site_label
 _atom_site_symmetry_multiplicity
 _atom_site_fract_x
 _atom_site_fract_y
 _atom_site_fract_z
 _atom_site_occupancy
  Ca  Ca0  1  0.14616268  0.32308084  0.25000000  1
  Mg  Mg1  1  0.64801100  0.32053285  0.25000000  1
  Mg  Mg2  1  0.64801100  0.82747715  0.25000000  1
  Mg  Mg3  1  0.33756060  0.15769460  0.75000000  1
  Mg  Mg4  1  0.33756060  0.67986700  0.75000000  1
  Mg  Mg5  1  0.82012305  0.16006203  0.75000000  1
  Mg  Mg6  1  0.86540857  0.68270479  0.75000000  1
  Cu  Cu7  1  0.19716250  0.84858075  0.25000000  1
