# generated using pymatgen
data_Bi5O7F
_symmetry_space_group_name_H-M   'P 1'
_cell_length_a   4.19227241
_cell_length_b   9.75789391
_cell_length_c   13.48316478
_cell_angle_alpha   70.84848026
_cell_angle_beta   89.96832887
_cell_angle_gamma   77.61884775
_symmetry_Int_Tables_number   1
_chemical_formula_structural   Bi5O7F
_chemical_formula_sum   'Bi10 O14 F2'
_cell_volume   507.46338185
_cell_formula_units_Z   2
loop_
 _symmetry_equiv_pos_site_id
 _symmetry_equiv_pos_as_xyz
  1  'x, y, z'
loop_
 _atom_site_type_symbol
 _atom_site_label
 _atom_site_symmetry_multiplicity
 _atom_site_fract_x
 _atom_site_fract_y
 _atom_site_fract_z
 _atom_site_occupancy
  Bi  Bi0  1  0.53197238  0.94427695  0.34916070  1
  Bi  Bi1  1  0.12419775  0.75878214  0.58226687  1
  Bi  Bi2  1  0.74922807  0.50898531  0.87017959  1
  Bi  Bi3  1  0.60093149  0.80531976  0.10442829  1
  Bi  Bi4  1  0.19980158  0.59217005  0.36118544  1
  Bi  Bi5  1  0.79812533  0.40999695  0.63777706  1
  Bi  Bi6  1  0.39943791  0.19680279  0.89449062  1
  Bi  Bi7  1  0.25452687  0.49346846  0.12827169  1
  Bi  Bi8  1  0.88007843  0.24442092  0.41610182  1
  Bi  Bi9  1  0.47228907  0.05909428  0.64918198  1
  O  O10  1  0.06729961  0.87196998  0.40065699  1
  O  O11  1  0.59024809  0.82499262  0.51480735  1
  O  O12  1  0.69476564  0.60661357  0.70401896  1
  O  O13  1  0.62311994  0.76517938  0.28349088  1
  O  O14  1  0.29627399  0.41692284  0.90372908  1
  O  O15  1  0.22617766  0.54576771  0.56401546  1
  O  O16  1  0.15071302  0.69645496  0.17196820  1
  O  O17  1  0.85064434  0.30552791  0.82666290  1
  O  O18  1  0.77526946  0.45781924  0.43416839  1
  O  O19  1  0.70805868  0.58498801  0.09531674  1
  O  O20  1  0.38124758  0.23832694  0.71466145  1
  O  O21  1  0.30134383  0.39640525  0.29465272  1
  O  O22  1  0.41463559  0.17479393  0.48336617  1
  O  O23  1  0.93539237  0.13362958  0.59860298  1
  F  F24  1  0.07647287  0.83730334  0.97047906  1
  F  F25  1  0.93280844  0.16243113  0.02834660  1
