# generated using pymatgen
data_LiTiSi3O8
_symmetry_space_group_name_H-M   'P 1'
_cell_length_a   8.03997544
_cell_length_b   7.09903189
_cell_length_c   7.18947772
_cell_angle_alpha   81.10929663
_cell_angle_beta   109.29433666
_cell_angle_gamma   60.56081539
_symmetry_Int_Tables_number   1
_chemical_formula_structural   LiTiSi3O8
_chemical_formula_sum   'Li2 Ti2 Si6 O16'
_cell_volume   311.20588711
_cell_formula_units_Z   2
loop_
 _symmetry_equiv_pos_site_id
 _symmetry_equiv_pos_as_xyz
  1  'x, y, z'
loop_
 _atom_site_type_symbol
 _atom_site_label
 _atom_site_symmetry_multiplicity
 _atom_site_fract_x
 _atom_site_fract_y
 _atom_site_fract_z
 _atom_site_occupancy
  Li  Li0  1  0.80390100  0.81881387  0.80174981  1
  Li  Li1  1  0.19609900  0.18118613  0.19825019  1
  Ti  Ti2  1  0.18205664  0.77135912  0.12271967  1
  Ti  Ti3  1  0.81794336  0.22864088  0.87728033  1
  Si  Si4  1  0.21360022  0.56095751  0.73221543  1
  Si  Si5  1  0.46112593  0.72797018  0.62322489  1
  Si  Si6  1  0.18597148  0.14771080  0.74130244  1
  Si  Si7  1  0.81402852  0.85228920  0.25869756  1
  Si  Si8  1  0.53887407  0.27202982  0.37677511  1
  Si  Si9  1  0.78639978  0.43904249  0.26778457  1
  O  O10  1  0.11802354  0.70011442  0.86986123  1
  O  O11  1  0.37376686  0.93711865  0.71329177  1
  O  O12  1  0.03471504  0.70378242  0.48332886  1
  O  O13  1  0.31074404  0.83802512  0.36451178  1
  O  O14  1  0.13056288  0.06934630  0.92765367  1
  O  O15  1  0.43640355  0.53015929  0.74955764  1
  O  O16  1  0.27524454  0.29908738  0.81457227  1
  O  O17  1  0.71970886  0.58448954  0.71508435  1
  O  O18  1  0.28029114  0.41551046  0.28491565  1
  O  O19  1  0.72475546  0.70091262  0.18542773  1
  O  O20  1  0.56359645  0.46984071  0.25044236  1
  O  O21  1  0.86943712  0.93065370  0.07234633  1
  O  O22  1  0.68925596  0.16197488  0.63548822  1
  O  O23  1  0.96528496  0.29621758  0.51667114  1
  O  O24  1  0.62623314  0.06288135  0.28670823  1
  O  O25  1  0.88197646  0.29988558  0.13013877  1
