# generated using pymatgen
data_Li4Mn3V2Co3O16
_symmetry_space_group_name_H-M   'P 1'
_cell_length_a   5.85713599
_cell_length_b   5.84625955
_cell_length_c   9.49559162
_cell_angle_alpha   90.01221517
_cell_angle_beta   89.36128664
_cell_angle_gamma   119.97373925
_symmetry_Int_Tables_number   1
_chemical_formula_structural   Li4Mn3V2Co3O16
_chemical_formula_sum   'Li4 Mn3 V2 Co3 O16'
_cell_volume   281.64084214
_cell_formula_units_Z   1
loop_
 _symmetry_equiv_pos_site_id
 _symmetry_equiv_pos_as_xyz
  1  'x, y, z'
loop_
 _atom_site_type_symbol
 _atom_site_label
 _atom_site_symmetry_multiplicity
 _atom_site_fract_x
 _atom_site_fract_y
 _atom_site_fract_z
 _atom_site_occupancy
  Li  Li0  1  0.33804367  0.66882352  0.89732148  1
  Li  Li1  1  0.99392082  0.99738917  0.99916253  1
  Li  Li2  1  0.00506114  0.00260254  0.48837889  1
  Li  Li3  1  0.66962606  0.33485638  0.40083675  1
  Mn  Mn4  1  0.64767216  0.82385221  0.21777190  1
  Mn  Mn5  1  0.83256405  0.66258213  0.71583136  1
  Mn  Mn6  1  0.83250387  0.17003806  0.71582523  1
  V  V7  1  0.31934899  0.65965044  0.48313455  1
  V  V8  1  0.65483033  0.32737376  0.99676912  1
  Co  Co9  1  0.16647604  0.82544185  0.21293348  1
  Co  Co10  1  0.16631071  0.34090506  0.21302544  1
  Co  Co11  1  0.33954923  0.16976470  0.71067053  1
  O  O12  1  0.16368816  0.83301506  0.59984336  1
  O  O13  1  0.04522893  0.52241292  0.36358037  1
  O  O14  1  0.34106804  0.67041158  0.10633406  1
  O  O15  1  0.98593751  0.99288123  0.29896122  1
  O  O16  1  0.00481792  0.00256253  0.80832128  1
  O  O17  1  0.16374842  0.33097593  0.59993698  1
  O  O18  1  0.50040015  0.96519636  0.34712090  1
  O  O19  1  0.50030339  0.53501044  0.34722031  1
  O  O20  1  0.34292841  0.17143540  0.07956056  1
  O  O21  1  0.67874512  0.83933842  0.60399796  1
  O  O22  1  0.53053930  0.48820914  0.84002701  1
  O  O23  1  0.53050320  0.04217131  0.84007142  1
  O  O24  1  0.67057353  0.33522781  0.61189016  1
  O  O25  1  0.80694621  0.64681165  0.08683433  1
  O  O26  1  0.96177992  0.48104541  0.83563383  1
  O  O27  1  0.80688672  0.16031595  0.08684300  1
