# generated using pymatgen
data_AlVO3
_symmetry_space_group_name_H-M   'P 1'
_cell_length_a   5.83720962
_cell_length_b   5.87980737
_cell_length_c   13.21916053
_cell_angle_alpha   102.83368220
_cell_angle_beta   102.80558915
_cell_angle_gamma   90.05662944
_symmetry_Int_Tables_number   1
_chemical_formula_structural   AlVO3
_chemical_formula_sum   'Al8 V8 O24'
_cell_volume   430.76472852
_cell_formula_units_Z   8
loop_
 _symmetry_equiv_pos_site_id
 _symmetry_equiv_pos_as_xyz
  1  'x, y, z'
loop_
 _atom_site_type_symbol
 _atom_site_label
 _atom_site_symmetry_multiplicity
 _atom_site_fract_x
 _atom_site_fract_y
 _atom_site_fract_z
 _atom_site_occupancy
  Al  Al0  1  0.99952528  0.00381289  0.00758836  1
  Al  Al1  1  0.77850933  0.54052321  0.07932049  1
  Al  Al2  1  0.29685720  0.54033940  0.07901776  1
  Al  Al3  1  0.66457285  0.66076973  0.32283824  1
  Al  Al4  1  0.95505686  0.20720452  0.41561641  1
  Al  Al5  1  0.25186104  0.75333963  0.50785845  1
  Al  Al6  1  0.62101140  0.87778984  0.75560295  1
  Al  Al7  1  0.90470613  0.41510323  0.83008292  1
  V  V8  1  0.12400828  0.36943261  0.25073276  1
  V  V9  1  0.12520139  0.88087628  0.25122965  1
  V  V10  1  0.45608139  0.20685147  0.41495867  1
  V  V11  1  0.78729332  0.04713254  0.58145495  1
  V  V12  1  0.78736080  0.53418795  0.58114612  1
  V  V13  1  0.13020926  0.87795417  0.75558427  1
  V  V14  1  0.45721530  0.20933628  0.91851174  1
  V  V15  1  0.45709690  0.70958152  0.91831417  1
  O  O16  1  0.53305942  0.32927678  0.07110744  1
  O  O17  1  0.53335335  0.74388355  0.07093188  1
  O  O18  1  0.03906241  0.31197981  0.08385764  1
  O  O19  1  0.03899816  0.77041771  0.08337633  1
  O  O20  1  0.36573931  0.62037243  0.23832623  1
  O  O21  1  0.87445762  0.61867192  0.23762358  1
  O  O22  1  0.35378990  0.12989577  0.25960297  1
  O  O23  1  0.91506057  0.13407552  0.27195582  1
  O  O24  1  0.20377615  0.96361037  0.42222590  1
  O  O25  1  0.19896109  0.46045696  0.42054874  1
  O  O26  1  0.71009894  0.45103901  0.40914599  1
  O  O27  1  0.71410261  0.95446100  0.41043069  1
  O  O28  1  0.55784652  0.28542151  0.56967552  1
  O  O29  1  0.99811068  0.28037611  0.55993052  1
  O  O30  1  0.03646723  0.79474830  0.58944174  1
  O  O31  1  0.54861520  0.79646619  0.59391867  1
  O  O32  1  0.85765060  0.63570384  0.74982262  1
  O  O33  1  0.85762398  0.11444364  0.74972041  1
  O  O34  1  0.39331280  0.09590866  0.76435072  1
  O  O35  1  0.39294660  0.66845590  0.76432093  1
  O  O36  1  0.71551574  0.95823681  0.91595405  1
  O  O37  1  0.20652608  0.96074382  0.92087485  1
  O  O38  1  0.71141842  0.46098074  0.92169452  1
  O  O39  1  0.19596789  0.45970536  0.91937430  1
