# generated using pymatgen
data_Li4Cr(PO4)3
_symmetry_space_group_name_H-M   'P 1'
_cell_length_a   7.62162668
_cell_length_b   6.99017352
_cell_length_c   13.49400358
_cell_angle_alpha   90.09581584
_cell_angle_beta   94.01607198
_cell_angle_gamma   103.57792282
_symmetry_Int_Tables_number   1
_chemical_formula_structural   Li4Cr(PO4)3
_chemical_formula_sum   'Li12 Cr3 P9 O36'
_cell_volume   696.98302118
_cell_formula_units_Z   3
loop_
 _symmetry_equiv_pos_site_id
 _symmetry_equiv_pos_as_xyz
  1  'x, y, z'
loop_
 _atom_site_type_symbol
 _atom_site_label
 _atom_site_symmetry_multiplicity
 _atom_site_fract_x
 _atom_site_fract_y
 _atom_site_fract_z
 _atom_site_occupancy
  Li  Li0  1  0.21740532  0.94505166  0.61639363  1
  Li  Li1  1  0.19739988  0.90739296  0.11019207  1
  Li  Li2  1  0.20866121  0.41423849  0.61142816  1
  Li  Li3  1  0.18256933  0.43499222  0.10673465  1
  Li  Li4  1  0.48894003  0.75249074  0.99940674  1
  Li  Li5  1  0.48453564  0.76190507  0.50000065  1
  Li  Li6  1  0.51589750  0.23308105  0.49896632  1
  Li  Li7  1  0.52816763  0.25239585  0.99900181  1
  Li  Li8  1  0.81040062  0.58214990  0.88551712  1
  Li  Li9  1  0.81614406  0.58168191  0.37541550  1
  Li  Li10  1  0.80123208  0.07704529  0.88713560  1
  Li  Li11  1  0.80227613  0.07770057  0.38711410  1
  Cr  Cr12  1  0.59891708  0.26873903  0.73512726  1
  Cr  Cr13  1  0.60252290  0.26902041  0.23069226  1
  Cr  Cr14  1  0.82482131  0.60376704  0.61192207  1
  P  P15  1  0.16618227  0.94959062  0.88748774  1
  P  P16  1  0.16688171  0.95021745  0.38733088  1
  P  P17  1  0.17636878  0.38329108  0.88672639  1
  P  P18  1  0.17602617  0.38354629  0.38669383  1
  P  P19  1  0.38216455  0.72411983  0.77465339  1
  P  P20  1  0.38125681  0.72259229  0.27411386  1
  P  P21  1  0.82477075  0.61492990  0.11337508  1
  P  P22  1  0.84180931  0.06153443  0.61169995  1
  P  P23  1  0.84063027  0.05481012  0.11210700  1
  O  O24  1  0.03838861  0.60233172  0.61006127  1
  O  O25  1  0.02341285  0.62394693  0.10934037  1
  O  O26  1  0.04313945  0.13728610  0.60145004  1
  O  O27  1  0.04166492  0.13223098  0.10558201  1
  O  O28  1  0.23464640  0.85726920  0.79119350  1
  O  O29  1  0.29165457  0.93578121  0.97749012  1
  O  O30  1  0.23648265  0.85772463  0.29203963  1
  O  O31  1  0.29302515  0.93978815  0.47799412  1
  O  O32  1  0.20148001  0.17262290  0.85036208  1
  O  O33  1  0.30145516  0.45551767  0.97787699  1
  O  O34  1  0.25914147  0.50199398  0.79000608  1
  O  O35  1  0.20138387  0.17259397  0.35057502  1
  O  O36  1  0.30170622  0.45564391  0.47743865  1
  O  O37  1  0.25742803  0.50200798  0.29004135  1
  O  O38  1  0.40492149  0.73716135  0.66525962  1
  O  O39  1  0.40186543  0.73301254  0.16456141  1
  O  O40  1  0.53677844  0.77314137  0.85241258  1
  O  O41  1  0.53779835  0.77216208  0.35090919  1
  O  O42  1  0.42726435  0.21770291  0.64942266  1
  O  O43  1  0.43123352  0.21730290  0.14794174  1
  O  O44  1  0.57765004  0.23698593  0.85461855  1
  O  O45  1  0.58006793  0.25526018  0.35066064  1
  O  O46  1  0.72069142  0.51750753  0.72640233  1
  O  O47  1  0.69227695  0.53182466  0.50927994  1
  O  O48  1  0.80214277  0.84364593  0.64716674  1
  O  O49  1  0.74671217  0.51453698  0.21178302  1
  O  O50  1  0.70060695  0.53677737  0.02191807  1
  O  O51  1  0.80103710  0.82834251  0.14078187  1
  O  O52  1  0.71270096  0.07579701  0.52151709  1
  O  O53  1  0.78688247  0.16179046  0.70604905  1
  O  O54  1  0.71303857  0.07161813  0.02263844  1
  O  O55  1  0.77648930  0.13428553  0.20958174  1
  O  O56  1  0.96553134  0.86958381  0.89050430  1
  O  O57  1  0.96660090  0.86746824  0.39011686  1
  O  O58  1  0.97867323  0.37569668  0.88844354  1
  O  O59  1  0.97804463  0.37537137  0.38734232  1
