# generated using pymatgen
data_Li2CoSn(PO4)2
_symmetry_space_group_name_H-M   'P 1'
_cell_length_a   11.09730198
_cell_length_b   6.24663435
_cell_length_c   4.88598899
_cell_angle_alpha   90.00000000
_cell_angle_beta   88.80109894
_cell_angle_gamma   90.00000000
_symmetry_Int_Tables_number   1
_chemical_formula_structural   Li2CoSn(PO4)2
_chemical_formula_sum   'Li4 Co2 Sn2 P4 O16'
_cell_volume   338.62645928
_cell_formula_units_Z   2
loop_
 _symmetry_equiv_pos_site_id
 _symmetry_equiv_pos_as_xyz
  1  'x, y, z'
loop_
 _atom_site_type_symbol
 _atom_site_label
 _atom_site_symmetry_multiplicity
 _atom_site_fract_x
 _atom_site_fract_y
 _atom_site_fract_z
 _atom_site_occupancy
  Li  Li0  1  0.00000000  0.00000000  0.00000000  1
  Li  Li1  1  0.00000000  0.50000000  0.00000000  1
  Li  Li2  1  0.50000000  0.00000000  0.50000000  1
  Li  Li3  1  0.50000000  0.50000000  0.50000000  1
  Co  Co4  1  0.29334592  0.25000000  0.97611181  1
  Co  Co5  1  0.70665408  0.75000000  0.02388819  1
  Sn  Sn6  1  0.22134636  0.75000000  0.49137339  1
  Sn  Sn7  1  0.77865364  0.25000000  0.50862661  1
  P  P8  1  0.10323826  0.25000000  0.36828802  1
  P  P9  1  0.42285777  0.75000000  0.92859250  1
  P  P10  1  0.57714223  0.25000000  0.07140750  1
  P  P11  1  0.89676174  0.75000000  0.63171198  1
  O  O12  1  0.02804439  0.75000000  0.73972115  1
  O  O13  1  0.11200997  0.25000000  0.68034653  1
  O  O14  1  0.16791375  0.05526977  0.22195807  1
  O  O15  1  0.16791375  0.44473023  0.22195807  1
  O  O16  1  0.35316658  0.54827625  0.81547250  1
  O  O17  1  0.35316658  0.95172375  0.81547250  1
  O  O18  1  0.42853972  0.75000000  0.24311072  1
  O  O19  1  0.45097003  0.25000000  0.21778190  1
  O  O20  1  0.54902997  0.75000000  0.78221810  1
  O  O21  1  0.57146028  0.25000000  0.75688928  1
  O  O22  1  0.64683342  0.04827625  0.18452750  1
  O  O23  1  0.64683342  0.45172375  0.18452750  1
  O  O24  1  0.83208625  0.55526977  0.77804193  1
  O  O25  1  0.83208625  0.94473023  0.77804193  1
  O  O26  1  0.88799003  0.75000000  0.31965347  1
  O  O27  1  0.97195561  0.25000000  0.26027885  1
