# generated using pymatgen
data_LiFePO4
_symmetry_space_group_name_H-M   'P 1'
_cell_length_a   5.75725015
_cell_length_b   5.75725015
_cell_length_c   8.14199144
_cell_angle_alpha   90.00000000
_cell_angle_beta   90.00000000
_cell_angle_gamma   90.00000000
_symmetry_Int_Tables_number   1
_chemical_formula_structural   LiFePO4
_chemical_formula_sum   'Li4 Fe4 P4 O16'
_cell_volume   269.87387255
_cell_formula_units_Z   4
loop_
 _symmetry_equiv_pos_site_id
 _symmetry_equiv_pos_as_xyz
  1  'x, y, z'
loop_
 _atom_site_type_symbol
 _atom_site_label
 _atom_site_symmetry_multiplicity
 _atom_site_fract_x
 _atom_site_fract_y
 _atom_site_fract_z
 _atom_site_occupancy
  Li  Li0  1  0.00000000  0.22575981  0.00000000  1
  Li  Li1  1  0.00000000  0.77424019  0.50000000  1
  Li  Li2  1  0.22575981  0.00000000  0.25000000  1
  Li  Li3  1  0.77424019  0.00000000  0.75000000  1
  Fe  Fe4  1  0.23867717  0.50000000  0.25000000  1
  Fe  Fe5  1  0.50000000  0.23867717  0.00000000  1
  Fe  Fe6  1  0.50000000  0.76132283  0.50000000  1
  Fe  Fe7  1  0.76132283  0.50000000  0.75000000  1
  P  P8  1  0.24990383  0.24990383  0.62500000  1
  P  P9  1  0.24990383  0.75009617  0.87500000  1
  P  P10  1  0.75009617  0.24990383  0.37500000  1
  P  P11  1  0.75009617  0.75009617  0.12500000  1
  O  O12  1  0.97140463  0.25075254  0.26463365  1
  O  O13  1  0.97140463  0.74924746  0.23536635  1
  O  O14  1  0.25075254  0.97140463  0.98536635  1
  O  O15  1  0.25075254  0.02859537  0.51463365  1
  O  O16  1  0.25245955  0.47486578  0.51260999  1
  O  O17  1  0.25245955  0.52513422  0.98739001  1
  O  O18  1  0.52513422  0.25245955  0.26260999  1
  O  O19  1  0.52513422  0.74754045  0.23739001  1
  O  O20  1  0.47486578  0.25245955  0.73739001  1
  O  O21  1  0.47486578  0.74754045  0.76260999  1
  O  O22  1  0.74754045  0.47486578  0.48739001  1
  O  O23  1  0.74754045  0.52513422  0.01260999  1
  O  O24  1  0.74924746  0.97140463  0.01463365  1
  O  O25  1  0.74924746  0.02859537  0.48536635  1
  O  O26  1  0.02859537  0.25075254  0.73536635  1
  O  O27  1  0.02859537  0.74924746  0.76463365  1
