# generated using pymatgen
data_Li2Cr5(Si2O5)6
_symmetry_space_group_name_H-M   'P 1'
_cell_length_a   10.25432439
_cell_length_b   10.22710591
_cell_length_c   14.69972032
_cell_angle_alpha   90.66670363
_cell_angle_beta   90.81026186
_cell_angle_gamma   119.76923758
_symmetry_Int_Tables_number   1
_chemical_formula_structural   Li2Cr5(Si2O5)6
_chemical_formula_sum   'Li4 Cr10 Si24 O60'
_cell_volume   1337.70670144
_cell_formula_units_Z   2
loop_
 _symmetry_equiv_pos_site_id
 _symmetry_equiv_pos_as_xyz
  1  'x, y, z'
loop_
 _atom_site_type_symbol
 _atom_site_label
 _atom_site_symmetry_multiplicity
 _atom_site_fract_x
 _atom_site_fract_y
 _atom_site_fract_z
 _atom_site_occupancy
  Li  Li0  1  0.33138684  0.66051769  -0.00001374  1
  Li  Li1  1  0.99332644  0.00008059  0.74997302  1
  Li  Li2  1  0.99816382  0.99773367  0.24997163  1
  Li  Li3  1  0.66756046  0.33402300  0.49976084  1
  Cr  Cr4  1  0.00178367  0.49954127  0.75044899  1
  Cr  Cr5  1  0.99967430  0.49823964  0.25011371  1
  Cr  Cr6  1  0.33264833  0.66695843  0.25224168  1
  Cr  Cr7  1  0.33305975  0.66712961  0.74791770  1
  Cr  Cr8  1  0.50073339  0.50352020  0.24822938  1
  Cr  Cr9  1  0.50379152  0.50110487  0.74876223  1
  Cr  Cr10  1  0.66739770  0.33394755  0.24765273  1
  Cr  Cr11  1  0.66632232  0.33257058  0.75223385  1
  Cr  Cr12  1  0.49982589  0.00237413  0.25158743  1
  Cr  Cr13  1  0.49916783  0.99872076  0.75069384  1
  Si  Si14  1  0.11401815  0.76533289  0.61116768  1
  Si  Si15  1  0.11090562  0.76336919  0.39241081  1
  Si  Si16  1  0.23894438  0.88335658  0.10837010  1
  Si  Si17  1  0.23508677  0.88049179  0.88932367  1
  Si  Si18  1  0.11659888  0.34941918  0.11184363  1
  Si  Si19  1  0.11131787  0.34697693  0.89215713  1
  Si  Si20  1  0.23910051  0.35404091  0.39067606  1
  Si  Si21  1  0.23833579  0.35561782  0.60906358  1
  Si  Si22  1  0.64907591  0.88569955  0.38895116  1
  Si  Si23  1  0.65181043  0.89136220  0.60790054  1
  Si  Si24  1  0.35275950  0.23678329  0.10861906  1
  Si  Si25  1  0.34896484  0.23526834  0.88967949  1
  Si  Si26  1  0.65069640  0.76401768  0.10869781  1
  Si  Si27  1  0.64746448  0.76286872  0.88940686  1
  Si  Si28  1  0.35185056  0.11859421  0.61264226  1
  Si  Si29  1  0.35108930  0.11453816  0.39353526  1
  Si  Si30  1  0.76356552  0.64735762  0.38867513  1
  Si  Si31  1  0.76390683  0.65070271  0.60816405  1
  Si  Si32  1  0.89024501  0.65134183  0.10741894  1
  Si  Si33  1  0.88442081  0.64677062  0.88911977  1
  Si  Si34  1  0.76335754  0.11424108  0.11192601  1
  Si  Si35  1  0.76013833  0.11071329  0.89299230  1
  Si  Si36  1  0.88422074  0.23479899  0.38898040  1
  Si  Si37  1  0.88547451  0.23873639  0.60836079  1
  O  O38  1  0.05591556  0.77734752  0.85996100  1
  O  O39  1  0.06228920  0.78746092  0.13741129  1
  O  O40  1  0.22339525  0.94594234  0.63849150  1
  O  O41  1  0.21677546  0.94248803  0.36583360  1
  O  O42  1  0.11682031  0.74620496  0.50170438  1
  O  O43  1  0.15124426  0.65060135  0.34075498  1
  O  O44  1  0.15784252  0.65651098  0.66541597  1
  O  O45  1  0.25581606  0.85644731  0.99886440  1
  O  O46  1  0.16286183  0.50729420  0.16361448  1
  O  O47  1  0.15263387  0.50419085  0.84636622  1
  O  O48  1  0.05774727  0.27882180  0.36477948  1
  O  O49  1  0.05999664  0.28492450  0.63414168  1
  O  O50  1  0.34816169  0.83713726  0.16180714  1
  O  O51  1  0.34426481  0.83566788  0.83604524  1
  O  O52  1  0.13805607  0.38572922  0.00275412  1
  O  O53  1  0.26097129  0.38206361  0.50028493  1
  O  O54  1  0.49968745  0.85092265  0.65765925  1
  O  O55  1  0.49470026  0.84139612  0.33476487  1
  O  O56  1  0.21890356  0.27284369  0.14153579  1
  O  O57  1  0.21283786  0.27103731  0.85891561  1
  O  O58  1  0.34374798  0.50376048  0.33509082  1
  O  O59  1  0.34565367  0.50814274  0.66572191  1
  O  O60  1  0.28107588  0.22194252  0.36148047  1
  O  O61  1  0.27822896  0.22386780  0.64077377  1
  O  O62  1  0.63106789  0.88598685  0.49777064  1
  O  O63  1  0.48938039  0.65043195  0.83843835  1
  O  O64  1  0.49473690  0.64728949  0.15387600  1
  O  O65  1  0.28735057  0.05872817  0.13418614  1
  O  O66  1  0.27876978  0.05387590  0.86441241  1
  O  O67  1  0.61262158  0.75085819  0.99858168  1
  O  O68  1  0.37300513  0.25698172  -0.00025493  1
  O  O69  1  0.72081632  0.94166031  0.14246866  1
  O  O70  1  0.72303943  0.93943585  0.85949639  1
  O  O71  1  0.50610200  0.34650956  0.16391081  1
  O  O72  1  0.49885357  0.34310960  0.83624644  1
  O  O73  1  0.39050320  0.13957673  0.50381137  1
  O  O74  1  0.71328128  0.77178909  0.36122697  1
  O  O75  1  0.72295153  0.78273261  0.63549718  1
  O  O76  1  0.65318097  0.48974391  0.33620306  1
  O  O77  1  0.64945046  0.49486986  0.65501826  1
  O  O78  1  0.78523328  0.72640399  0.13530337  1
  O  O79  1  0.77519826  0.71703177  0.86210130  1
  O  O80  1  0.50698083  0.15360784  0.34735693  1
  O  O81  1  0.50775848  0.16347999  0.66599189  1
  O  O82  1  0.74936887  0.60976422  0.49777708  1
  O  O83  1  0.88095063  0.62391877  0.99794939  1
  O  O84  1  0.65633355  0.16004538  0.16639064  1
  O  O85  1  0.64796475  0.15272918  0.84191345  1
  O  O86  1  0.93996299  0.72707962  0.35927400  1
  O  O87  1  0.94230627  0.72623439  0.64048555  1
  O  O88  1  0.85011612  0.50020249  0.15908350  1
  O  O89  1  0.83921323  0.49359624  0.83299294  1
  O  O90  1  0.74412789  0.11680750  0.00267275  1
  O  O91  1  0.83893737  0.34521414  0.33704190  1
  O  O92  1  0.84028937  0.35105460  0.65833782  1
  O  O93  1  0.85913385  0.25148584  0.49828028  1
  O  O94  1  0.78302015  0.05537315  0.35793525  1
  O  O95  1  0.78802130  0.06270973  0.64027263  1
  O  O96  1  0.94400639  0.22208205  0.13875238  1
  O  O97  1  0.93794876  0.21598732  0.86536683  1
