# generated using pymatgen
data_Li5VO3F2
_symmetry_space_group_name_H-M   'P 1'
_cell_length_a   3.92517726
_cell_length_b   5.35483426
_cell_length_c   6.03919753
_cell_angle_alpha   69.57027966
_cell_angle_beta   90.06650646
_cell_angle_gamma   68.51595995
_symmetry_Int_Tables_number   1
_chemical_formula_structural   Li5VO3F2
_chemical_formula_sum   'Li5 V1 O3 F2'
_cell_volume   109.46904346
_cell_formula_units_Z   1
loop_
 _symmetry_equiv_pos_site_id
 _symmetry_equiv_pos_as_xyz
  1  'x, y, z'
loop_
 _atom_site_type_symbol
 _atom_site_label
 _atom_site_symmetry_multiplicity
 _atom_site_fract_x
 _atom_site_fract_y
 _atom_site_fract_z
 _atom_site_occupancy
  Li  Li0  1  0.68077053  0.63439393  0.85027035  1
  Li  Li1  1  0.68990914  0.61867155  0.34679880  1
  Li  Li2  1  0.28605960  0.42377503  0.68755619  1
  Li  Li3  1  0.31231461  0.37333515  0.12734905  1
  Li  Li4  1  0.96718658  0.05583506  0.53671641  1
  V  V5  1  0.99573514  0.00621356  0.98957045  1
  O  O6  1  0.13667222  0.72240694  0.82418991  1
  O  O7  1  0.49610826  0.00574900  0.06175831  1
  O  O8  1  0.82991844  0.33622007  0.68750670  1
  F  F9  1  0.18157153  0.63515102  0.33115225  1
  F  F10  1  0.84458595  0.30919870  0.20203356  1
