# generated using pymatgen
data_LiMn2O3F
_symmetry_space_group_name_H-M   'P 1'
_cell_length_a   4.93838672
_cell_length_b   10.38303490
_cell_length_c   5.79634815
_cell_angle_alpha   90.00000000
_cell_angle_beta   90.00000000
_cell_angle_gamma   90.00000000
_symmetry_Int_Tables_number   1
_chemical_formula_structural   LiMn2O3F
_chemical_formula_sum   'Li4 Mn8 O12 F4'
_cell_volume   297.21031143
_cell_formula_units_Z   4
loop_
 _symmetry_equiv_pos_site_id
 _symmetry_equiv_pos_as_xyz
  1  'x, y, z'
loop_
 _atom_site_type_symbol
 _atom_site_label
 _atom_site_symmetry_multiplicity
 _atom_site_fract_x
 _atom_site_fract_y
 _atom_site_fract_z
 _atom_site_occupancy
  Li  Li0  1  0.03131575  0.58783516  0.24530741  1
  Li  Li1  1  0.46868425  0.08783516  0.24530741  1
  Li  Li2  1  0.53131575  0.91216484  0.74530741  1
  Li  Li3  1  0.96868425  0.41216484  0.74530741  1
  Mn  Mn4  1  0.01875415  0.00974072  0.99353654  1
  Mn  Mn5  1  0.98124585  0.99025928  0.49353654  1
  Mn  Mn6  1  0.95898825  0.73180455  0.75665871  1
  Mn  Mn7  1  0.54101175  0.23180455  0.75665871  1
  Mn  Mn8  1  0.51875415  0.49025928  0.49353654  1
  Mn  Mn9  1  0.48124585  0.50974072  0.99353654  1
  Mn  Mn10  1  0.45898825  0.76819545  0.25665871  1
  Mn  Mn11  1  0.04101175  0.26819545  0.25665871  1
  O  O12  1  0.26287373  0.42983352  0.25011711  1
  O  O13  1  0.22215613  0.67654468  0.00557332  1
  O  O14  1  0.15669522  0.90302169  0.74709469  1
  O  O15  1  0.34330478  0.40302169  0.74709469  1
  O  O16  1  0.27784387  0.17654468  0.00557332  1
  O  O17  1  0.23712627  0.92983352  0.25011711  1
  O  O18  1  0.76287373  0.07016648  0.75011711  1
  O  O19  1  0.72215613  0.82345532  0.50557332  1
  O  O20  1  0.65669522  0.59697831  0.24709469  1
  O  O21  1  0.84330478  0.09697831  0.24709469  1
  O  O22  1  0.77784387  0.32345532  0.50557332  1
  O  O23  1  0.73712627  0.57016648  0.75011711  1
  F  F24  1  0.21689527  0.65486699  0.50171121  1
  F  F25  1  0.28310473  0.15486699  0.50171121  1
  F  F26  1  0.71689527  0.84513301  0.00171121  1
  F  F27  1  0.78310473  0.34513301  0.00171121  1
