# generated using pymatgen
data_CoBO3
_symmetry_space_group_name_H-M   'P 1'
_cell_length_a   5.16444567
_cell_length_b   5.16444516
_cell_length_c   9.91326224
_cell_angle_alpha   90.03802253
_cell_angle_beta   89.96197262
_cell_angle_gamma   61.30645732
_symmetry_Int_Tables_number   1
_chemical_formula_structural   CoBO3
_chemical_formula_sum   'Co4 B4 O12'
_cell_volume   231.93290721
_cell_formula_units_Z   4
loop_
 _symmetry_equiv_pos_site_id
 _symmetry_equiv_pos_as_xyz
  1  'x, y, z'
loop_
 _atom_site_type_symbol
 _atom_site_label
 _atom_site_symmetry_multiplicity
 _atom_site_fract_x
 _atom_site_fract_y
 _atom_site_fract_z
 _atom_site_occupancy
  Co  Co0  1  0.17678190  0.49806303  0.37804794  1
  Co  Co1  1  0.49714940  0.17651593  0.12650095  1
  Co  Co2  1  0.50193697  0.82321810  0.87804794  1
  Co  Co3  1  0.82348407  0.50285060  0.62650095  1
  B  B4  1  0.16287503  0.49696975  0.87822267  1
  B  B5  1  0.49687903  0.16356224  0.62657309  1
  B  B6  1  0.50303025  0.83712497  0.37822267  1
  B  B7  1  0.83643776  0.50312097  0.12657309  1
  O  O8  1  0.09868966  0.47949442  0.17478771  1
  O  O9  1  0.23014981  0.37885107  0.57605167  1
  O  O10  1  0.20438075  0.73896368  0.87719663  1
  O  O11  1  0.37985386  0.23021637  0.92800729  1
  O  O12  1  0.48075443  0.09888957  0.33011735  1
  O  O13  1  0.26103632  0.79561925  0.37719663  1
  O  O14  1  0.73764188  0.20670970  0.62824569  1
  O  O15  1  0.52050558  0.90131034  0.67478771  1
  O  O16  1  0.62114893  0.76985019  0.07605167  1
  O  O17  1  0.79329030  0.26235812  0.12824569  1
  O  O18  1  0.76978363  0.62014614  0.42800729  1
  O  O19  1  0.90111043  0.51924557  0.83011735  1
