# generated using pymatgen
data_LiNiPO4
_symmetry_space_group_name_H-M   'P 1'
_cell_length_a   13.29775001
_cell_length_b   5.06015346
_cell_length_c   17.57513704
_cell_angle_alpha   90.00000000
_cell_angle_beta   90.26877034
_cell_angle_gamma   90.00000000
_symmetry_Int_Tables_number   1
_chemical_formula_structural   LiNiPO4
_chemical_formula_sum   'Li16 Ni16 P16 O64'
_cell_volume   1182.59433429
_cell_formula_units_Z   16
loop_
 _symmetry_equiv_pos_site_id
 _symmetry_equiv_pos_as_xyz
  1  'x, y, z'
loop_
 _atom_site_type_symbol
 _atom_site_label
 _atom_site_symmetry_multiplicity
 _atom_site_fract_x
 _atom_site_fract_y
 _atom_site_fract_z
 _atom_site_occupancy
  Li  Li0  1  0.13023005  0.23377709  0.93864949  1
  Li  Li1  1  0.16204650  0.77170257  0.71838229  1
  Li  Li2  1  0.26047759  0.17631966  0.63289616  1
  Li  Li3  1  0.26175035  0.25186040  0.12490337  1
  Li  Li4  1  0.23824965  0.75186040  0.37509663  1
  Li  Li5  1  0.23952241  0.67631966  0.86710384  1
  Li  Li6  1  0.33795350  0.27170257  0.78161771  1
  Li  Li7  1  0.36976995  0.73377709  0.56135051  1
  Li  Li8  1  0.63023005  0.26622291  0.43864949  1
  Li  Li9  1  0.66204650  0.72829743  0.21838229  1
  Li  Li10  1  0.76047759  0.32368034  0.13289616  1
  Li  Li11  1  0.76175035  0.24813960  0.62490337  1
  Li  Li12  1  0.73824965  0.74813960  0.87509663  1
  Li  Li13  1  0.73952241  0.82368034  0.36710384  1
  Li  Li14  1  0.83795350  0.22829743  0.28161771  1
  Li  Li15  1  0.86976995  0.76622291  0.06135051  1
  Ni  Ni16  1  0.00359068  0.24854751  0.12553915  1
  Ni  Ni17  1  0.00870297  0.76092768  0.37706852  1
  Ni  Ni18  1  0.10850762  0.74355040  0.19139705  1
  Ni  Ni19  1  0.10961506  0.29941786  0.45592122  1
  Ni  Ni20  1  0.39038494  0.79941786  0.04407878  1
  Ni  Ni21  1  0.39149238  0.24355040  0.30860295  1
  Ni  Ni22  1  0.49129703  0.26092768  0.12293148  1
  Ni  Ni23  1  0.49640932  0.74854751  0.37446085  1
  Ni  Ni24  1  0.50359068  0.25145249  0.62553915  1
  Ni  Ni25  1  0.50870297  0.73907232  0.87706852  1
  Ni  Ni26  1  0.60850762  0.75644960  0.69139705  1
  Ni  Ni27  1  0.60961506  0.20058214  0.95592122  1
  Ni  Ni28  1  0.89038494  0.70058214  0.54407878  1
  Ni  Ni29  1  0.89149238  0.25644960  0.80860295  1
  Ni  Ni30  1  0.99129703  0.23907232  0.62293148  1
  Ni  Ni31  1  0.99640932  0.75145249  0.87446085  1
  P  P32  1  0.11572546  0.23555423  0.78272587  1
  P  P33  1  0.12348473  0.77750646  0.53906357  1
  P  P34  1  0.13325164  0.69445691  0.03706825  1
  P  P35  1  0.13408771  0.26044443  0.29146052  1
  P  P36  1  0.36591229  0.76044443  0.20853948  1
  P  P37  1  0.36674836  0.19445691  0.46293175  1
  P  P38  1  0.37651527  0.27750646  0.96093643  1
  P  P39  1  0.38427454  0.73555423  0.71727413  1
  P  P40  1  0.61572546  0.26444577  0.28272587  1
  P  P41  1  0.62348473  0.72249354  0.03906357  1
  P  P42  1  0.63325164  0.80554309  0.53706825  1
  P  P43  1  0.63408771  0.23955557  0.79146052  1
  P  P44  1  0.86591229  0.73955557  0.70853948  1
  P  P45  1  0.86674836  0.30554309  0.96293175  1
  P  P46  1  0.87651527  0.22249354  0.46093643  1
  P  P47  1  0.88427454  0.76444577  0.21727413  1
  O  O48  1  0.02855336  0.39820833  0.81731836  1
  O  O49  1  0.04317174  0.59708015  0.57625474  1
  O  O50  1  0.06507825  0.90533963  0.07502866  1
  O  O51  1  0.08283143  0.06504280  0.54263493  1
  O  O52  1  0.09188846  0.61061761  0.95797044  1
  O  O53  1  0.09821312  0.14228270  0.69967813  1
  O  O54  1  0.08737843  0.13064818  0.21928068  1
  O  O55  1  0.09711433  0.55166202  0.29985673  1
  O  O56  1  0.09961357  0.09069039  0.36030769  1
  O  O57  1  0.12823538  0.98136156  0.83290359  1
  O  O58  1  0.12901916  0.69833091  0.45231037  1
  O  O59  1  0.13332039  0.44922254  0.09311210  1
  O  O60  1  0.20561770  0.42706746  0.78287551  1
  O  O61  1  0.22527961  0.75798233  0.57690488  1
  O  O62  1  0.24068241  0.79280689  0.02853733  1
  O  O63  1  0.24750519  0.26692127  0.28901098  1
  O  O64  1  0.25249481  0.76692127  0.21098902  1
  O  O65  1  0.25931759  0.29280689  0.47146267  1
  O  O66  1  0.27472039  0.25798233  0.92309512  1
  O  O67  1  0.29438230  0.92706746  0.71712449  1
  O  O68  1  0.36667961  0.94922254  0.40688790  1
  O  O69  1  0.37098084  0.19833091  0.04768963  1
  O  O70  1  0.37176462  0.48136156  0.66709641  1
  O  O71  1  0.40038643  0.59069039  0.13969231  1
  O  O72  1  0.40288567  0.05166202  0.20014327  1
  O  O73  1  0.40178688  0.64228270  0.80032187  1
  O  O74  1  0.41262157  0.63064818  0.28071932  1
  O  O75  1  0.40811154  0.11061761  0.54202956  1
  O  O76  1  0.41716857  0.56504280  0.95736507  1
  O  O77  1  0.43492175  0.40533963  0.42497134  1
  O  O78  1  0.45682826  0.09708015  0.92374526  1
  O  O79  1  0.47144664  0.89820833  0.68268164  1
  O  O80  1  0.52855336  0.10179167  0.31731836  1
  O  O81  1  0.54317174  0.90291985  0.07625474  1
  O  O82  1  0.56507825  0.59466037  0.57502866  1
  O  O83  1  0.58283143  0.43495720  0.04263493  1
  O  O84  1  0.59188846  0.88938239  0.45797044  1
  O  O85  1  0.58737843  0.36935182  0.71928068  1
  O  O86  1  0.59821312  0.35771730  0.19967813  1
  O  O87  1  0.59711433  0.94833798  0.79985673  1
  O  O88  1  0.59961357  0.40930961  0.86030769  1
  O  O89  1  0.62823538  0.51863844  0.33290359  1
  O  O90  1  0.62901916  0.80166909  0.95231037  1
  O  O91  1  0.63332039  0.05077746  0.59311210  1
  O  O92  1  0.70561770  0.07293254  0.28287551  1
  O  O93  1  0.72527961  0.74201767  0.07690488  1
  O  O94  1  0.74068241  0.70719311  0.52853733  1
  O  O95  1  0.74750519  0.23307873  0.78901098  1
  O  O96  1  0.75249481  0.73307873  0.71098902  1
  O  O97  1  0.75931759  0.20719311  0.97146267  1
  O  O98  1  0.77472039  0.24201767  0.42309512  1
  O  O99  1  0.79438230  0.57293254  0.21712449  1
  O  O100  1  0.86667961  0.55077746  0.90688790  1
  O  O101  1  0.87098084  0.30166909  0.54768963  1
  O  O102  1  0.87176462  0.01863844  0.16709641  1
  O  O103  1  0.90038643  0.90930961  0.63969231  1
  O  O104  1  0.90288567  0.44833798  0.70014327  1
  O  O105  1  0.91262157  0.86935182  0.78071932  1
  O  O106  1  0.90178688  0.85771730  0.30032187  1
  O  O107  1  0.90811154  0.38938239  0.04202956  1
  O  O108  1  0.91716857  0.93495720  0.45736507  1
  O  O109  1  0.93492175  0.09466037  0.92497134  1
  O  O110  1  0.95682826  0.40291985  0.42374526  1
  O  O111  1  0.97144664  0.60179167  0.18268164  1
