# generated using pymatgen
data_LiMnOF2
_symmetry_space_group_name_H-M   'P 1'
_cell_length_a   3.75075944
_cell_length_b   9.86363956
_cell_length_c   6.40956034
_cell_angle_alpha   89.98929871
_cell_angle_beta   90.00058448
_cell_angle_gamma   89.99967307
_symmetry_Int_Tables_number   1
_chemical_formula_structural   LiMnOF2
_chemical_formula_sum   'Li4 Mn4 O4 F8'
_cell_volume   237.12898220
_cell_formula_units_Z   4
loop_
 _symmetry_equiv_pos_site_id
 _symmetry_equiv_pos_as_xyz
  1  'x, y, z'
loop_
 _atom_site_type_symbol
 _atom_site_label
 _atom_site_symmetry_multiplicity
 _atom_site_fract_x
 _atom_site_fract_y
 _atom_site_fract_z
 _atom_site_occupancy
  Li  Li0  1  0.24998620  0.76068778  0.41077499  1
  Li  Li1  1  0.24998421  0.73930711  0.91078936  1
  Li  Li2  1  0.75001579  0.26069289  0.08921064  1
  Li  Li3  1  0.75001380  0.23931222  0.58922501  1
  Mn  Mn4  1  0.24999605  0.45688759  0.33816564  1
  Mn  Mn5  1  0.24999356  0.04307927  0.83809310  1
  Mn  Mn6  1  0.75000644  0.95692073  0.16190690  1
  Mn  Mn7  1  0.75000395  0.54311241  0.66183436  1
  O  O8  1  0.25000692  0.92509073  0.08177127  1
  O  O9  1  0.25000168  0.57490906  0.58174966  1
  O  O10  1  0.74999832  0.42509094  0.41825034  1
  O  O11  1  0.74999308  0.07490927  0.91822873  1
  F  F12  1  0.25001773  0.30704196  0.15461063  1
  F  F13  1  0.25000805  0.19292761  0.65463075  1
  F  F14  1  0.24998431  0.62048904  0.15658098  1
  F  F15  1  0.24998298  0.87948945  0.65655030  1
  F  F16  1  0.75001702  0.12051055  0.34344970  1
  F  F17  1  0.75001569  0.37951096  0.84341902  1
  F  F18  1  0.74999195  0.80707239  0.34536925  1
  F  F19  1  0.74998227  0.69295804  0.84538937  1
