# generated using pymatgen
data_LiMn(PO4)2
_symmetry_space_group_name_H-M   'P 1'
_cell_length_a   4.70431201
_cell_length_b   5.05294861
_cell_length_c   13.57982463
_cell_angle_alpha   97.30998432
_cell_angle_beta   90.00000000
_cell_angle_gamma   62.25730611
_symmetry_Int_Tables_number   1
_chemical_formula_structural   LiMn(PO4)2
_chemical_formula_sum   'Li2 Mn2 P4 O16'
_cell_volume   282.72647748
_cell_formula_units_Z   2
loop_
 _symmetry_equiv_pos_site_id
 _symmetry_equiv_pos_as_xyz
  1  'x, y, z'
loop_
 _atom_site_type_symbol
 _atom_site_label
 _atom_site_symmetry_multiplicity
 _atom_site_fract_x
 _atom_site_fract_y
 _atom_site_fract_z
 _atom_site_occupancy
  Li  Li0  1  0.95589253  0.00000000  0.75000000  1
  Li  Li1  1  0.04410747  0.00000000  0.25000000  1
  Mn  Mn2  1  0.00000000  0.00000000  0.00000000  1
  Mn  Mn3  1  0.00000000  0.00000000  0.50000000  1
  P  P4  1  0.67682905  0.69444991  0.11129704  1
  P  P5  1  0.62872105  0.69444991  0.61129704  1
  P  P6  1  0.37127895  0.30555009  0.38870296  1
  P  P7  1  0.32317095  0.30555009  0.88870296  1
  O  O8  1  0.86882839  0.87924217  0.11733403  1
  O  O9  1  0.74624066  0.73024664  0.71521762  1
  O  O10  1  0.77173117  0.79010296  0.52984512  1
  O  O11  1  0.93762192  0.35737533  0.08507270  1
  O  O12  1  0.70500175  0.35737533  0.58507270  1
  O  O13  1  0.43816587  0.79010296  0.02984512  1
  O  O14  1  0.52351270  0.73024664  0.21521762  1
  O  O15  1  0.25193044  0.87924217  0.61733403  1
  O  O16  1  0.74806956  0.12075783  0.38266597  1
  O  O17  1  0.47648730  0.26975336  0.78478238  1
  O  O18  1  0.56183413  0.20989704  0.97015488  1
  O  O19  1  0.29499825  0.64262467  0.41492730  1
  O  O20  1  0.06237808  0.64262467  0.91492730  1
  O  O21  1  0.22826883  0.20989704  0.47015488  1
  O  O22  1  0.25375934  0.26975336  0.28478238  1
  O  O23  1  0.13117161  0.12075783  0.88266597  1
