# generated using pymatgen
data_Li2MnOF3
_symmetry_space_group_name_H-M   'P 1'
_cell_length_a   3.05901345
_cell_length_b   5.19733665
_cell_length_c   10.19742858
_cell_angle_alpha   78.43960623
_cell_angle_beta   90.00000000
_cell_angle_gamma   72.88523399
_symmetry_Int_Tables_number   1
_chemical_formula_structural   Li2MnOF3
_chemical_formula_sum   'Li4 Mn2 O2 F6'
_cell_volume   151.50203099
_cell_formula_units_Z   2
loop_
 _symmetry_equiv_pos_site_id
 _symmetry_equiv_pos_as_xyz
  1  'x, y, z'
loop_
 _atom_site_type_symbol
 _atom_site_label
 _atom_site_symmetry_multiplicity
 _atom_site_fract_x
 _atom_site_fract_y
 _atom_site_fract_z
 _atom_site_occupancy
  Li  Li0  1  0.27177114  0.45645772  0.86279651  1
  Li  Li1  1  0.50000000  0.00000000  0.25000000  1
  Li  Li2  1  0.50000000  0.00000000  0.75000000  1
  Li  Li3  1  0.72822886  0.54354228  0.63720349  1
  Mn  Mn4  1  0.25842841  0.48314318  0.37648210  1
  Mn  Mn5  1  0.74157159  0.51685682  0.12351790  1
  O  O6  1  0.14118289  0.71763421  0.20271771  1
  O  O7  1  0.85881711  0.28236579  0.29728229  1
  F  F8  1  0.12828832  0.74342436  0.70123084  1
  F  F9  1  0.35307863  0.29384273  0.55648145  1
  F  F10  1  0.36356650  0.27286700  0.07047485  1
  F  F11  1  0.63643350  0.72713300  0.42952515  1
  F  F12  1  0.64692137  0.70615727  0.94351855  1
  F  F13  1  0.87171168  0.25657564  0.79876916  1
