# generated using pymatgen
data_LiVF4
_symmetry_space_group_name_H-M   'P 1'
_cell_length_a   6.13738807
_cell_length_b   6.13738747
_cell_length_c   5.64801319
_cell_angle_alpha   62.62022573
_cell_angle_beta   62.62022429
_cell_angle_gamma   60.51031590
_symmetry_Int_Tables_number   1
_chemical_formula_structural   LiVF4
_chemical_formula_sum   'Li2 V2 F8'
_cell_volume   156.75647238
_cell_formula_units_Z   2
loop_
 _symmetry_equiv_pos_site_id
 _symmetry_equiv_pos_as_xyz
  1  'x, y, z'
loop_
 _atom_site_type_symbol
 _atom_site_label
 _atom_site_symmetry_multiplicity
 _atom_site_fract_x
 _atom_site_fract_y
 _atom_site_fract_z
 _atom_site_occupancy
  Li  Li0  1  0.00000000  0.50000000  0.00000000  1
  Li  Li1  1  0.50000000  0.00000000  0.50000000  1
  V  V2  1  0.00000000  0.00000000  0.50000000  1
  V  V3  1  0.50000000  0.50000000  0.50000000  1
  F  F4  1  0.20954100  0.21710982  0.28557068  1
  F  F5  1  0.28289018  0.29045900  0.71442932  1
  F  F6  1  0.25218244  0.75218244  0.28035153  1
  F  F7  1  0.25437731  0.75437731  0.73312773  1
  F  F8  1  0.74562269  0.24562269  0.26687227  1
  F  F9  1  0.74781756  0.24781756  0.71964847  1
  F  F10  1  0.71710982  0.70954100  0.28557068  1
  F  F11  1  0.79045900  0.78289018  0.71442932  1
