# generated using pymatgen
data_Sn4P2O9
_symmetry_space_group_name_H-M   'P 1'
_cell_length_a   9.73016338
_cell_length_b   7.25286656
_cell_length_c   13.69884822
_cell_angle_alpha   90.00000000
_cell_angle_beta   90.00000000
_cell_angle_gamma   90.00000000
_symmetry_Int_Tables_number   1
_chemical_formula_structural   Sn4P2O9
_chemical_formula_sum   'Sn16 P8 O36'
_cell_volume   966.74931652
_cell_formula_units_Z   4
loop_
 _symmetry_equiv_pos_site_id
 _symmetry_equiv_pos_as_xyz
  1  'x, y, z'
loop_
 _atom_site_type_symbol
 _atom_site_label
 _atom_site_symmetry_multiplicity
 _atom_site_fract_x
 _atom_site_fract_y
 _atom_site_fract_z
 _atom_site_occupancy
  Sn  Sn0  1  0.03409823  0.75000000  0.39035679  1
  Sn  Sn1  1  0.19167794  0.25000000  0.09081525  1
  Sn  Sn2  1  0.13543886  0.48504368  0.83640328  1
  Sn  Sn3  1  0.13543886  0.01495632  0.83640328  1
  Sn  Sn4  1  0.36456114  0.98504368  0.33640328  1
  Sn  Sn5  1  0.36456114  0.51495632  0.33640328  1
  Sn  Sn6  1  0.30832206  0.75000000  0.59081525  1
  Sn  Sn7  1  0.46590177  0.25000000  0.89035679  1
  Sn  Sn8  1  0.53409823  0.75000000  0.10964321  1
  Sn  Sn9  1  0.69167794  0.25000000  0.40918475  1
  Sn  Sn10  1  0.63543886  0.48504368  0.66359672  1
  Sn  Sn11  1  0.63543886  0.01495632  0.66359672  1
  Sn  Sn12  1  0.86456114  0.98504368  0.16359672  1
  Sn  Sn13  1  0.86456114  0.51495632  0.16359672  1
  Sn  Sn14  1  0.80832206  0.75000000  0.90918475  1
  Sn  Sn15  1  0.96590177  0.25000000  0.60964321  1
  P  P16  1  0.04352422  0.25000000  0.36333518  1
  P  P17  1  0.14965137  0.75000000  0.05009679  1
  P  P18  1  0.35034863  0.25000000  0.55009679  1
  P  P19  1  0.45647578  0.75000000  0.86333518  1
  P  P20  1  0.54352422  0.25000000  0.13666482  1
  P  P21  1  0.64965137  0.75000000  0.44990321  1
  P  P22  1  0.85034863  0.25000000  0.94990321  1
  P  P23  1  0.95647578  0.75000000  0.63666482  1
  O  O24  1  0.08541771  0.57182028  0.09425578  1
  O  O25  1  0.08541771  0.92817972  0.09425578  1
  O  O26  1  0.10713223  0.75000000  0.93571666  1
  O  O27  1  0.04328717  0.75000000  0.73059225  1
  O  O28  1  0.13154077  0.07183543  0.37068352  1
  O  O29  1  0.13154077  0.42816457  0.37068352  1
  O  O30  1  0.06389387  0.75000000  0.54853169  1
  O  O31  1  0.19474722  0.25000000  0.56343103  1
  O  O32  1  0.20211223  0.25000000  0.93754876  1
  O  O33  1  0.29788777  0.75000000  0.43754876  1
  O  O34  1  0.30525278  0.75000000  0.06343103  1
  O  O35  1  0.43610613  0.25000000  0.04853169  1
  O  O36  1  0.36845923  0.57183543  0.87068352  1
  O  O37  1  0.36845923  0.92816457  0.87068352  1
  O  O38  1  0.45671283  0.25000000  0.23059225  1
  O  O39  1  0.39286777  0.25000000  0.43571666  1
  O  O40  1  0.41458229  0.07182028  0.59425578  1
  O  O41  1  0.41458229  0.42817972  0.59425578  1
  O  O42  1  0.58541771  0.57182028  0.40574422  1
  O  O43  1  0.58541771  0.92817972  0.40574422  1
  O  O44  1  0.60713223  0.75000000  0.56428334  1
  O  O45  1  0.54328717  0.75000000  0.76940775  1
  O  O46  1  0.63154077  0.07183543  0.12931648  1
  O  O47  1  0.63154077  0.42816457  0.12931648  1
  O  O48  1  0.56389387  0.75000000  0.95146831  1
  O  O49  1  0.69474722  0.25000000  0.93656897  1
  O  O50  1  0.70211223  0.25000000  0.56245124  1
  O  O51  1  0.79788777  0.75000000  0.06245124  1
  O  O52  1  0.80525278  0.75000000  0.43656897  1
  O  O53  1  0.93610613  0.25000000  0.45146831  1
  O  O54  1  0.86845923  0.57183543  0.62931648  1
  O  O55  1  0.86845923  0.92816457  0.62931648  1
  O  O56  1  0.95671283  0.25000000  0.26940775  1
  O  O57  1  0.89286777  0.25000000  0.06428334  1
  O  O58  1  0.91458229  0.07182028  0.90574422  1
  O  O59  1  0.91458229  0.42817972  0.90574422  1
