# generated using pymatgen
data_Li6Mn(OF)3
_symmetry_space_group_name_H-M   'P 1'
_cell_length_a   5.14164872
_cell_length_b   5.14907241
_cell_length_c   10.38249406
_cell_angle_alpha   98.99811437
_cell_angle_beta   100.91248568
_cell_angle_gamma   100.23036439
_symmetry_Int_Tables_number   1
_chemical_formula_structural   Li6Mn(OF)3
_chemical_formula_sum   'Li12 Mn2 O6 F6'
_cell_volume   260.42578072
_cell_formula_units_Z   2
loop_
 _symmetry_equiv_pos_site_id
 _symmetry_equiv_pos_as_xyz
  1  'x, y, z'
loop_
 _atom_site_type_symbol
 _atom_site_label
 _atom_site_symmetry_multiplicity
 _atom_site_fract_x
 _atom_site_fract_y
 _atom_site_fract_z
 _atom_site_occupancy
  Li  Li0  1  0.09461135  0.61300260  0.64581731  1
  Li  Li1  1  0.10722849  0.54992801  0.13237131  1
  Li  Li2  1  0.38752823  0.69743355  0.95445342  1
  Li  Li3  1  0.41001266  0.71107025  0.45991566  1
  Li  Li4  1  0.69763593  0.91815347  0.70913735  1
  Li  Li5  1  0.73689214  0.91209979  0.21653005  1
  Li  Li6  1  0.26570073  0.09171073  0.79071000  1
  Li  Li7  1  0.31012677  0.08773150  0.29948360  1
  Li  Li8  1  0.55939435  0.24589490  0.54394652  1
  Li  Li9  1  0.59214249  0.28637829  0.04367224  1
  Li  Li10  1  0.91596769  0.43714669  0.86072385  1
  Li  Li11  1  0.92456721  0.37729384  0.33831701  1
  Mn  Mn12  1  0.01432731  0.02872435  0.49994994  1
  Mn  Mn13  1  0.01381474  0.01992887  0.99854054  1
  O  O14  1  0.05737551  0.79489177  0.84178723  1
  O  O15  1  0.32237260  0.94302713  0.60949825  1
  O  O16  1  0.22725315  0.33457326  0.46314833  1
  O  O17  1  0.22693706  0.33860429  0.97113363  1
  O  O18  1  0.68349818  0.06761615  0.39137047  1
  O  O19  1  0.92866830  0.20409980  0.15464783  1
  F  F20  1  0.07219988  0.74292286  0.31128098  1
  F  F21  1  0.36193218  0.89030737  0.12493979  1
  F  F22  1  0.77577779  0.69260557  0.54775812  1
  F  F23  1  0.77201632  0.66129850  0.03069842  1
  F  F24  1  0.63520851  0.09486599  0.87756070  1
  F  F25  1  0.90680942  0.25869044  0.68260842  1
