# generated using pymatgen
data_LiCr2(PO4)2
_symmetry_space_group_name_H-M   'P 1'
_cell_length_a   6.24437527
_cell_length_b   9.53564509
_cell_length_c   6.36444681
_cell_angle_alpha   94.77427921
_cell_angle_beta   99.28343935
_cell_angle_gamma   73.54280293
_symmetry_Int_Tables_number   1
_chemical_formula_structural   LiCr2(PO4)2
_chemical_formula_sum   'Li2 Cr4 P4 O16'
_cell_volume   358.39768069
_cell_formula_units_Z   2
loop_
 _symmetry_equiv_pos_site_id
 _symmetry_equiv_pos_as_xyz
  1  'x, y, z'
loop_
 _atom_site_type_symbol
 _atom_site_label
 _atom_site_symmetry_multiplicity
 _atom_site_fract_x
 _atom_site_fract_y
 _atom_site_fract_z
 _atom_site_occupancy
  Li  Li0  1  0.32774291  0.67204991  0.42563410  1
  Li  Li1  1  0.67225709  0.32795009  0.57436590  1
  Cr  Cr2  1  0.06736387  0.71523973  0.98326781  1
  Cr  Cr3  1  0.66528503  0.04669943  0.19221164  1
  Cr  Cr4  1  0.33471497  0.95330057  0.80778836  1
  Cr  Cr5  1  0.93263613  0.28476027  0.01673219  1
  P  P6  1  0.19029528  0.98661979  0.27909529  1
  P  P7  1  0.27351302  0.38579169  0.17528791  1
  P  P8  1  0.72648698  0.61420831  0.82471209  1
  P  P9  1  0.80970472  0.01338021  0.72090471  1
  O  O10  1  0.26111987  0.02228300  0.50948216  1
  O  O11  1  0.06582290  0.37862598  0.27785200  1
  O  O12  1  0.22067715  0.30636649  0.95304936  1
  O  O13  1  0.03471659  0.89764243  0.81218872  1
  O  O14  1  0.36764395  0.99229694  0.13612497  1
  O  O15  1  0.26978863  0.54922486  0.15404062  1
  O  O16  1  0.15247569  0.83164336  0.24785433  1
  O  O17  1  0.50757025  0.30974290  0.29377327  1
  O  O18  1  0.49242975  0.69025710  0.70622673  1
  O  O19  1  0.84752431  0.16835664  0.75214567  1
  O  O20  1  0.73021137  0.45077514  0.84595938  1
  O  O21  1  0.63235605  0.00770306  0.86387503  1
  O  O22  1  0.96528341  0.10235757  0.18781128  1
  O  O23  1  0.77932285  0.69363351  0.04695064  1
  O  O24  1  0.93417710  0.62137402  0.72214800  1
  O  O25  1  0.73888013  0.97771700  0.49051784  1
