# generated using pymatgen
data_Li2VSiO4
_symmetry_space_group_name_H-M   'P 1'
_cell_length_a   5.11999450
_cell_length_b   5.00294712
_cell_length_c   11.93175063
_cell_angle_alpha   91.90254376
_cell_angle_beta   89.00013116
_cell_angle_gamma   122.70574248
_symmetry_Int_Tables_number   1
_chemical_formula_structural   Li2VSiO4
_chemical_formula_sum   'Li6 V3 Si3 O12'
_cell_volume   257.03470466
_cell_formula_units_Z   3
loop_
 _symmetry_equiv_pos_site_id
 _symmetry_equiv_pos_as_xyz
  1  'x, y, z'
loop_
 _atom_site_type_symbol
 _atom_site_label
 _atom_site_symmetry_multiplicity
 _atom_site_fract_x
 _atom_site_fract_y
 _atom_site_fract_z
 _atom_site_occupancy
  Li  Li0  1  0.30655295  0.90142784  0.58799305  1
  Li  Li1  1  0.11009268  0.43666631  0.93715944  1
  Li  Li2  1  0.56192362  0.67392268  0.23288066  1
  Li  Li3  1  0.45338293  0.09887850  0.06101665  1
  Li  Li4  1  0.66303751  0.55151245  0.75383836  1
  Li  Li5  1  0.88589493  0.33491516  0.42587754  1
  V  V6  1  0.92628354  0.41371399  0.19772630  1
  V  V7  1  0.51041925  0.61542403  0.47239219  1
  V  V8  1  0.39043390  0.89658219  0.80453669  1
  Si  Si9  1  0.99944104  0.21827707  0.67222058  1
  Si  Si10  1  0.23222675  0.99981200  0.33158739  1
  Si  Si11  1  0.81436432  0.80317829  0.00017466  1
  O  O12  1  0.14432039  0.86214232  0.95365282  1
  O  O13  1  0.09601220  0.43571667  0.56013968  1
  O  O14  1  0.37567353  0.92612184  0.21822790  1
  O  O15  1  0.21021215  0.31922784  0.32494209  1
  O  O16  1  0.27106850  0.15068693  0.69956935  1
  O  O17  1  0.66501881  0.87491025  0.64760314  1
  O  O18  1  0.55933375  0.67018111  0.89783559  1
  O  O19  1  0.67890255  0.54754361  0.10277709  1
  O  O20  1  0.44997042  0.03996902  0.43941246  1
  O  O21  1  0.87452520  0.68357844  0.34702685  1
  O  O22  1  0.87662383  0.14213630  0.05307342  1
  O  O23  1  0.94428528  0.40347716  0.77830310  1
