# generated using pymatgen
data_Ti5PO11
_symmetry_space_group_name_H-M   'P 1'
_cell_length_a   7.74413256
_cell_length_b   13.98367833
_cell_length_c   7.61551138
_cell_angle_alpha   90.00000000
_cell_angle_beta   99.50053130
_cell_angle_gamma   90.00000000
_symmetry_Int_Tables_number   1
_chemical_formula_structural   Ti5PO11
_chemical_formula_sum   'Ti20 P4 O44'
_cell_volume   813.38337960
_cell_formula_units_Z   4
loop_
 _symmetry_equiv_pos_site_id
 _symmetry_equiv_pos_as_xyz
  1  'x, y, z'
loop_
 _atom_site_type_symbol
 _atom_site_label
 _atom_site_symmetry_multiplicity
 _atom_site_fract_x
 _atom_site_fract_y
 _atom_site_fract_z
 _atom_site_occupancy
  Ti  Ti0  1  0.04698488  0.67368455  0.78816780  1
  Ti  Ti1  1  0.08312050  0.16867949  0.55883289  1
  Ti  Ti2  1  0.18939576  0.32696521  0.93462417  1
  Ti  Ti3  1  0.20904809  0.99563835  0.76600384  1
  Ti  Ti4  1  0.15992603  0.84435758  0.13881381  1
  Ti  Ti5  1  0.29095191  0.49563835  0.73399616  1
  Ti  Ti6  1  0.31060424  0.82696521  0.56537583  1
  Ti  Ti7  1  0.34007397  0.34435758  0.36118619  1
  Ti  Ti8  1  0.41687950  0.66867949  0.94116711  1
  Ti  Ti9  1  0.45301512  0.17368455  0.71183220  1
  Ti  Ti10  1  0.54698488  0.82631545  0.28816780  1
  Ti  Ti11  1  0.58312050  0.33132051  0.05883289  1
  Ti  Ti12  1  0.65992603  0.65564242  0.63881381  1
  Ti  Ti13  1  0.68939576  0.17303479  0.43462417  1
  Ti  Ti14  1  0.70904809  0.50436165  0.26600384  1
  Ti  Ti15  1  0.84007397  0.15564242  0.86118619  1
  Ti  Ti16  1  0.79095191  0.00436165  0.23399616  1
  Ti  Ti17  1  0.81060424  0.67303479  0.06537583  1
  Ti  Ti18  1  0.91687950  0.83132051  0.44116711  1
  Ti  Ti19  1  0.95301512  0.32631545  0.21183220  1
  P  P20  1  0.36428379  0.11986089  0.12427300  1
  P  P21  1  0.13571621  0.61986089  0.37572700  1
  P  P22  1  0.86428379  0.38013911  0.62427300  1
  P  P23  1  0.63571621  0.88013911  0.87572700  1
  O  O24  1  0.01313774  0.74398728  0.00572790  1
  O  O25  1  0.02934753  0.09071798  0.76906736  1
  O  O26  1  0.05614738  0.40649711  0.74865731  1
  O  O27  1  0.09631478  0.90574005  0.59576673  1
  O  O28  1  0.10399191  0.58947566  0.57391942  1
  O  O29  1  0.18181353  0.92741756  0.97013872  1
  O  O30  1  0.12574827  0.25914152  0.38363913  1
  O  O31  1  0.12153934  0.74152386  0.38505116  1
  O  O32  1  0.21744449  0.58332788  0.91580647  1
  O  O33  1  0.24661719  0.24341800  0.74852083  1
  O  O34  1  0.16768627  0.39027467  0.15969148  1
  O  O35  1  0.25338281  0.74341800  0.75147917  1
  O  O36  1  0.28255551  0.08332788  0.58419353  1
  O  O37  1  0.31818647  0.42741756  0.52986128  1
  O  O38  1  0.39600809  0.08947566  0.92608058  1
  O  O39  1  0.40368522  0.40574005  0.90423327  1
  O  O40  1  0.33231373  0.89027467  0.34030852  1
  O  O41  1  0.44385262  0.90649711  0.75134269  1
  O  O42  1  0.37846066  0.24152386  0.11494884  1
  O  O43  1  0.37425173  0.75914152  0.11636087  1
  O  O44  1  0.47065247  0.59071798  0.73093264  1
  O  O45  1  0.48686226  0.24398728  0.49427210  1
  O  O46  1  0.51313774  0.75601272  0.50572790  1
  O  O47  1  0.52934753  0.40928202  0.26906736  1
  O  O48  1  0.62574827  0.24085848  0.88363913  1
  O  O49  1  0.62153934  0.75847614  0.88505116  1
  O  O50  1  0.55614738  0.09350289  0.24865731  1
  O  O51  1  0.66768627  0.10972533  0.65969148  1
  O  O52  1  0.59631478  0.59425995  0.09576673  1
  O  O53  1  0.60399191  0.91052434  0.07391942  1
  O  O54  1  0.68181353  0.57258244  0.47013872  1
  O  O55  1  0.71744449  0.91667212  0.41580647  1
  O  O56  1  0.74661719  0.25658200  0.24852083  1
  O  O57  1  0.83231373  0.60972533  0.84030852  1
  O  O58  1  0.75338281  0.75658200  0.25147917  1
  O  O59  1  0.78255551  0.41667212  0.08419353  1
  O  O60  1  0.87846066  0.25847614  0.61494884  1
  O  O61  1  0.87425173  0.74085848  0.61636087  1
  O  O62  1  0.81818647  0.07258244  0.02986128  1
  O  O63  1  0.89600809  0.41052434  0.42608058  1
  O  O64  1  0.90368522  0.09425995  0.40423327  1
  O  O65  1  0.94385262  0.59350289  0.25134269  1
  O  O66  1  0.97065247  0.90928202  0.23093264  1
  O  O67  1  0.98686226  0.25601272  0.99427210  1
