# generated using pymatgen
data_Li4Mn3Sb(PO4)4
_symmetry_space_group_name_H-M   'P 1'
_cell_length_a   4.79943920
_cell_length_b   10.77635710
_cell_length_c   6.40108305
_cell_angle_alpha   90.00000000
_cell_angle_beta   90.00000000
_cell_angle_gamma   91.44388154
_symmetry_Int_Tables_number   1
_chemical_formula_structural   Li4Mn3Sb(PO4)4
_chemical_formula_sum   'Li4 Mn3 Sb1 P4 O16'
_cell_volume   330.96190969
_cell_formula_units_Z   1
loop_
 _symmetry_equiv_pos_site_id
 _symmetry_equiv_pos_as_xyz
  1  'x, y, z'
loop_
 _atom_site_type_symbol
 _atom_site_label
 _atom_site_symmetry_multiplicity
 _atom_site_fract_x
 _atom_site_fract_y
 _atom_site_fract_z
 _atom_site_occupancy
  Li  Li0  1  0.00424440  0.99522243  0.00223871  1
  Li  Li1  1  0.00424440  0.99522243  0.49776129  1
  Li  Li2  1  0.49508749  0.50297213  0.49507391  1
  Li  Li3  1  0.49508749  0.50297213  0.00492609  1
  Mn  Mn4  1  0.03140415  0.72516976  0.75000000  1
  Mn  Mn5  1  0.47314817  0.20846291  0.75000000  1
  Mn  Mn6  1  0.53566096  0.78675605  0.25000000  1
  Sb  Sb7  1  0.91316388  0.28969531  0.25000000  1
  P  P8  1  0.08477091  0.60443767  0.25000000  1
  P  P9  1  0.41441039  0.07955399  0.25000000  1
  P  P10  1  0.59467909  0.90657404  0.75000000  1
  P  P11  1  0.91532812  0.41647656  0.75000000  1
  O  O12  1  0.19444778  0.46816975  0.25000000  1
  O  O13  1  0.21936447  0.66901224  0.05394795  1
  O  O14  1  0.21936447  0.66901224  0.44605205  1
  O  O15  1  0.23402918  0.40625452  0.75000000  1
  O  O16  1  0.27343297  0.90112207  0.75000000  1
  O  O17  1  0.30480256  0.14314458  0.04641227  1
  O  O18  1  0.30480256  0.14314458  0.45358773  1
  O  O19  1  0.27977813  0.94603894  0.25000000  1
  O  O20  1  0.72063342  0.04177561  0.75000000  1
  O  O21  1  0.72200622  0.83863324  0.55561412  1
  O  O22  1  0.72200622  0.83863324  0.94438588  1
  O  O23  1  0.73843122  0.07471444  0.25000000  1
  O  O24  1  0.76329720  0.60526268  0.25000000  1
  O  O25  1  0.76880729  0.34582888  0.56406838  1
  O  O26  1  0.76880729  0.34582888  0.93593162  1
  O  O27  1  0.80475955  0.54991071  0.75000000  1
