# generated using pymatgen
data_Li7(SbS)2
_symmetry_space_group_name_H-M   'P 1'
_cell_length_a   10.37921669
_cell_length_b   8.94165611
_cell_length_c   5.73488624
_cell_angle_alpha   76.46698910
_cell_angle_beta   90.16328494
_cell_angle_gamma   119.89946029
_symmetry_Int_Tables_number   1
_chemical_formula_structural   Li7(SbS)2
_chemical_formula_sum   'Li14 Sb4 S4'
_cell_volume   444.48118276
_cell_formula_units_Z   2
loop_
 _symmetry_equiv_pos_site_id
 _symmetry_equiv_pos_as_xyz
  1  'x, y, z'
loop_
 _atom_site_type_symbol
 _atom_site_label
 _atom_site_symmetry_multiplicity
 _atom_site_fract_x
 _atom_site_fract_y
 _atom_site_fract_z
 _atom_site_occupancy
  Li  Li0  1  0.12386846  0.69517784  0.44050631  1
  Li  Li1  1  0.20800352  0.94737731  0.90762492  1
  Li  Li2  1  0.12476471  0.18143275  0.44843007  1
  Li  Li3  1  0.12988748  0.20361316  0.93303806  1
  Li  Li4  1  0.43663957  0.56045302  0.64034241  1
  Li  Li5  1  0.47276108  0.82795642  0.20337481  1
  Li  Li6  1  0.33081615  0.07466345  0.40359807  1
  Li  Li7  1  0.66918385  0.92533655  0.59640193  1
  Li  Li8  1  0.52723892  0.17204358  0.79662519  1
  Li  Li9  1  0.56336043  0.43954698  0.35965759  1
  Li  Li10  1  0.87011252  0.79638684  0.06696194  1
  Li  Li11  1  0.87523529  0.81856725  0.55156993  1
  Li  Li12  1  0.79199648  0.05262269  0.09237508  1
  Li  Li13  1  0.87613154  0.30482216  0.55949369  1
  Sb  Sb14  1  0.12543995  0.49534186  0.10748323  1
  Sb  Sb15  1  0.36324411  0.80015511  0.74271751  1
  Sb  Sb16  1  0.63675589  0.19984489  0.25728249  1
  Sb  Sb17  1  0.87456005  0.50465814  0.89251677  1
  S  S18  1  0.09368929  0.94577392  0.26485908  1
  S  S19  1  0.34208908  0.25929868  0.66128266  1
  S  S20  1  0.65791092  0.74070132  0.33871734  1
  S  S21  1  0.90631071  0.05422608  0.73514092  1
