# generated using pymatgen
data_Li8TiMn3O12
_symmetry_space_group_name_H-M   'P 1'
_cell_length_a   4.97249809
_cell_length_b   4.94873430
_cell_length_c   8.44396843
_cell_angle_alpha   89.99710544
_cell_angle_beta   90.00533525
_cell_angle_gamma   90.06854448
_symmetry_Int_Tables_number   1
_chemical_formula_structural   Li8TiMn3O12
_chemical_formula_sum   'Li8 Ti1 Mn3 O12'
_cell_volume   207.78541012
_cell_formula_units_Z   1
loop_
 _symmetry_equiv_pos_site_id
 _symmetry_equiv_pos_as_xyz
  1  'x, y, z'
loop_
 _atom_site_type_symbol
 _atom_site_label
 _atom_site_symmetry_multiplicity
 _atom_site_fract_x
 _atom_site_fract_y
 _atom_site_fract_z
 _atom_site_occupancy
  Li  Li0  1  0.50014943  0.00417215  0.91976952  1
  Li  Li1  1  0.50037421  0.00285836  0.23195463  1
  Li  Li2  1  0.00009422  0.00023985  0.56477833  1
  Li  Li3  1  0.00039606  0.00010355  0.25225113  1
  Li  Li4  1  0.49983358  0.50076566  0.75745894  1
  Li  Li5  1  0.99991331  0.49988445  0.72773982  1
  Li  Li6  1  0.00038167  0.50018849  0.41400320  1
  Li  Li7  1  0.50078370  0.50383124  0.07272540  1
  Ti  Ti8  1  0.00007639  0.99997844  0.90134340  1
  Mn  Mn9  1  0.50006311  0.00051275  0.57952234  1
  Mn  Mn10  1  0.50032331  0.50070093  0.40390588  1
  Mn  Mn11  1  0.00065519  0.50030392  0.08491513  1
  O  O12  1  0.25436896  0.13869636  0.74116559  1
  O  O13  1  0.28614304  0.17573589  0.41789802  1
  O  O14  1  0.21731620  0.17963195  0.06986352  1
  O  O15  1  0.71521640  0.32656096  0.56768811  1
  O  O16  1  0.78215121  0.32974698  0.92089489  1
  O  O17  1  0.75204960  0.34996911  0.24524846  1
  O  O18  1  0.24881940  0.65133292  0.24525846  1
  O  O19  1  0.21889041  0.67146814  0.92093418  1
  O  O20  1  0.28510070  0.67430439  0.56763202  1
  O  O21  1  0.78397808  0.82172184  0.07010946  1
  O  O22  1  0.71436487  0.82537028  0.41804194  1
  O  O23  1  0.74579496  0.86245439  0.74141363  1
