# generated using pymatgen
data_Li7Sb2S
_symmetry_space_group_name_H-M   'P 1'
_cell_length_a   9.39702526
_cell_length_b   13.98520956
_cell_length_c   5.94165424
_cell_angle_alpha   90.00000000
_cell_angle_beta   90.11586682
_cell_angle_gamma   90.00000000
_symmetry_Int_Tables_number   1
_chemical_formula_structural   Li7Sb2S
_chemical_formula_sum   'Li28 Sb8 S4'
_cell_volume   780.84684469
_cell_formula_units_Z   4
loop_
 _symmetry_equiv_pos_site_id
 _symmetry_equiv_pos_as_xyz
  1  'x, y, z'
loop_
 _atom_site_type_symbol
 _atom_site_label
 _atom_site_symmetry_multiplicity
 _atom_site_fract_x
 _atom_site_fract_y
 _atom_site_fract_z
 _atom_site_occupancy
  Li  Li0  1  0.04615560  0.14862291  0.72685989  1
  Li  Li1  1  0.08026018  0.39409563  0.99770680  1
  Li  Li2  1  0.09131705  0.39608079  0.50850904  1
  Li  Li3  1  0.13761268  0.91973164  0.84665424  1
  Li  Li4  1  0.18702619  0.74562187  0.49011410  1
  Li  Li5  1  0.18848441  0.73675334  0.00506385  1
  Li  Li6  1  0.23008660  0.05002413  0.27098274  1
  Li  Li7  1  0.26991340  0.55002413  0.72901726  1
  Li  Li8  1  0.31151559  0.23675334  0.99493615  1
  Li  Li9  1  0.31297381  0.24562187  0.50988590  1
  Li  Li10  1  0.36238732  0.41973164  0.15334576  1
  Li  Li11  1  0.40868295  0.89608079  0.49149096  1
  Li  Li12  1  0.41973982  0.89409563  0.00229320  1
  Li  Li13  1  0.45384440  0.64862291  0.27314011  1
  Li  Li14  1  0.54615560  0.35137709  0.72685989  1
  Li  Li15  1  0.58026018  0.10590437  0.99770680  1
  Li  Li16  1  0.59131705  0.10391921  0.50850904  1
  Li  Li17  1  0.63761268  0.58026836  0.84665424  1
  Li  Li18  1  0.68702619  0.75437813  0.49011410  1
  Li  Li19  1  0.68848441  0.76324666  0.00506385  1
  Li  Li20  1  0.73008660  0.44997587  0.27098274  1
  Li  Li21  1  0.76991340  0.94997587  0.72901726  1
  Li  Li22  1  0.81151559  0.26324666  0.99493615  1
  Li  Li23  1  0.81297381  0.25437813  0.50988590  1
  Li  Li24  1  0.86238732  0.08026836  0.15334576  1
  Li  Li25  1  0.90868295  0.60391921  0.49149096  1
  Li  Li26  1  0.91973982  0.60590437  0.00229320  1
  Li  Li27  1  0.95384440  0.85137709  0.27314011  1
  Sb  Sb28  1  0.06268421  0.22189279  0.25526665  1
  Sb  Sb29  1  0.16887118  0.56604354  0.25205997  1
  Sb  Sb30  1  0.33112882  0.06604354  0.74794003  1
  Sb  Sb31  1  0.43731579  0.72189279  0.74473335  1
  Sb  Sb32  1  0.56268421  0.27810721  0.25526665  1
  Sb  Sb33  1  0.66887118  0.93395646  0.25205997  1
  Sb  Sb34  1  0.83112882  0.43395646  0.74794003  1
  Sb  Sb35  1  0.93731579  0.77810721  0.74473335  1
  S  S36  1  0.20575809  0.88021135  0.23205932  1
  S  S37  1  0.29424191  0.38021135  0.76794068  1
  S  S38  1  0.70575809  0.61978865  0.23205932  1
  S  S39  1  0.79424191  0.11978865  0.76794068  1
