# generated using pymatgen
data_K3BiPCO7
_symmetry_space_group_name_H-M   'P 1'
_cell_length_a   10.34140620
_cell_length_b   7.25700096
_cell_length_c   6.04563183
_cell_angle_alpha   90.00000000
_cell_angle_beta   85.44187041
_cell_angle_gamma   90.00000000
_symmetry_Int_Tables_number   1
_chemical_formula_structural   K3BiPCO7
_chemical_formula_sum   'K6 Bi2 P2 C2 O14'
_cell_volume   452.27514219
_cell_formula_units_Z   2
loop_
 _symmetry_equiv_pos_site_id
 _symmetry_equiv_pos_as_xyz
  1  'x, y, z'
loop_
 _atom_site_type_symbol
 _atom_site_label
 _atom_site_symmetry_multiplicity
 _atom_site_fract_x
 _atom_site_fract_y
 _atom_site_fract_z
 _atom_site_occupancy
  K  K0  1  0.07677110  0.25000000  0.75952292  1
  K  K1  1  0.26825840  0.00047868  0.22263691  1
  K  K2  1  0.26825840  0.49952132  0.22263691  1
  K  K3  1  0.73174160  0.50047868  0.77736309  1
  K  K4  1  0.73174160  0.99952132  0.77736309  1
  K  K5  1  0.92322890  0.75000000  0.24047708  1
  Bi  Bi6  1  0.35642520  0.75000000  0.72251228  1
  Bi  Bi7  1  0.64357480  0.25000000  0.27748772  1
  P  P8  1  0.40345800  0.25000000  0.67942428  1
  P  P9  1  0.59654200  0.75000000  0.32057572  1
  C  C10  1  0.05679097  0.75000000  0.72656906  1
  C  C11  1  0.94320903  0.25000000  0.27343094  1
  O  O12  1  0.06770277  0.25000000  0.23241702  1
  O  O13  1  0.13166463  0.75000000  0.89517709  1
  O  O14  1  0.11064158  0.75000000  0.52477659  1
  O  O15  1  0.31842568  0.07820622  0.75613639  1
  O  O16  1  0.31842568  0.42179378  0.75613639  1
  O  O17  1  0.41932928  0.25000000  0.41696793  1
  O  O18  1  0.46366988  0.75000000  0.22636185  1
  O  O19  1  0.53633012  0.25000000  0.77363815  1
  O  O20  1  0.58067072  0.75000000  0.58303207  1
  O  O21  1  0.68157432  0.57820622  0.24386361  1
  O  O22  1  0.68157432  0.92179378  0.24386361  1
  O  O23  1  0.88935842  0.25000000  0.47522341  1
  O  O24  1  0.86833537  0.25000000  0.10482291  1
  O  O25  1  0.93229723  0.75000000  0.76758298  1
