# generated using pymatgen
data_Li9Sb3S
_symmetry_space_group_name_H-M   'P 1'
_cell_length_a   7.76583094
_cell_length_b   9.44982410
_cell_length_c   14.59611473
_cell_angle_alpha   90.00000000
_cell_angle_beta   107.49524928
_cell_angle_gamma   90.00000000
_symmetry_Int_Tables_number   1
_chemical_formula_structural   Li9Sb3S
_chemical_formula_sum   'Li36 Sb12 S4'
_cell_volume   1021.59739912
_cell_formula_units_Z   4
loop_
 _symmetry_equiv_pos_site_id
 _symmetry_equiv_pos_as_xyz
  1  'x, y, z'
loop_
 _atom_site_type_symbol
 _atom_site_label
 _atom_site_symmetry_multiplicity
 _atom_site_fract_x
 _atom_site_fract_y
 _atom_site_fract_z
 _atom_site_occupancy
  Li  Li0  1  0.04440339  0.81431379  0.88067785  1
  Li  Li1  1  0.09778112  0.24819650  0.95147920  1
  Li  Li2  1  0.27125443  0.55723724  0.95964053  1
  Li  Li3  1  0.04440339  0.68568621  0.38067785  1
  Li  Li4  1  0.13259771  0.55886889  0.75923317  1
  Li  Li5  1  0.09778112  0.25180350  0.45147920  1
  Li  Li6  1  0.27125443  0.94276276  0.45964053  1
  Li  Li7  1  0.30430201  0.78891654  0.66836816  1
  Li  Li8  1  0.29868296  0.01408481  0.81445312  1
  Li  Li9  1  0.13259771  0.94113111  0.25923317  1
  Li  Li10  1  0.35531546  0.30920329  0.66057227  1
  Li  Li11  1  0.30430201  0.71108346  0.16836816  1
  Li  Li12  1  0.54187553  0.16114747  0.00122632  1
  Li  Li13  1  0.29868296  0.48591519  0.31445312  1
  Li  Li14  1  0.51236466  0.55255408  0.84890713  1
  Li  Li15  1  0.48763534  0.05255408  0.65109287  1
  Li  Li16  1  0.45812447  0.66114747  0.49877368  1
  Li  Li17  1  0.35531546  0.19079671  0.16057227  1
  Li  Li18  1  0.64468454  0.80920329  0.83942773  1
  Li  Li19  1  0.54187553  0.33885253  0.50122632  1
  Li  Li20  1  0.51236466  0.94744592  0.34890713  1
  Li  Li21  1  0.48763534  0.44744592  0.15109287  1
  Li  Li22  1  0.70131704  0.51408481  0.68554688  1
  Li  Li23  1  0.45812447  0.83885253  0.99877368  1
  Li  Li24  1  0.69569799  0.28891654  0.83163184  1
  Li  Li25  1  0.64468454  0.69079671  0.33942773  1
  Li  Li26  1  0.86740229  0.05886889  0.74076683  1
  Li  Li27  1  0.70131704  0.98591519  0.18554688  1
  Li  Li28  1  0.69569799  0.21108346  0.33163184  1
  Li  Li29  1  0.72874557  0.05723724  0.54035947  1
  Li  Li30  1  0.90221888  0.74819650  0.54852080  1
  Li  Li31  1  0.86740229  0.44113111  0.24076683  1
  Li  Li32  1  0.95559661  0.31431379  0.61932215  1
  Li  Li33  1  0.72874557  0.44276276  0.04035947  1
  Li  Li34  1  0.90221888  0.75180350  0.04852080  1
  Li  Li35  1  0.95559661  0.18568621  0.11932215  1
  Sb  Sb36  1  0.18054521  0.54028921  0.56444709  1
  Sb  Sb37  1  0.11034565  0.05343827  0.60309318  1
  Sb  Sb38  1  0.33346340  0.30346559  0.84560287  1
  Sb  Sb39  1  0.18054521  0.95971079  0.06444709  1
  Sb  Sb40  1  0.11034565  0.44656173  0.10309318  1
  Sb  Sb41  1  0.33346340  0.19653441  0.34560287  1
  Sb  Sb42  1  0.66653660  0.80346559  0.65439713  1
  Sb  Sb43  1  0.88965435  0.55343827  0.89690682  1
  Sb  Sb44  1  0.81945479  0.04028921  0.93555291  1
  Sb  Sb45  1  0.66653660  0.69653441  0.15439713  1
  Sb  Sb46  1  0.88965435  0.94656173  0.39690682  1
  Sb  Sb47  1  0.81945479  0.45971079  0.43555291  1
  S  S48  1  0.32665885  0.75823411  0.83999854  1
  S  S49  1  0.32665885  0.74176589  0.33999854  1
  S  S50  1  0.67334115  0.25823411  0.66000146  1
  S  S51  1  0.67334115  0.24176589  0.16000146  1
