# generated using pymatgen
data_LiMn2OF5
_symmetry_space_group_name_H-M   'P 1'
_cell_length_a   4.67435343
_cell_length_b   17.46189716
_cell_length_c   5.02323210
_cell_angle_alpha   90.00000000
_cell_angle_beta   90.00000000
_cell_angle_gamma   90.00000000
_symmetry_Int_Tables_number   1
_chemical_formula_structural   LiMn2OF5
_chemical_formula_sum   'Li4 Mn8 O4 F20'
_cell_volume   410.01166995
_cell_formula_units_Z   4
loop_
 _symmetry_equiv_pos_site_id
 _symmetry_equiv_pos_as_xyz
  1  'x, y, z'
loop_
 _atom_site_type_symbol
 _atom_site_label
 _atom_site_symmetry_multiplicity
 _atom_site_fract_x
 _atom_site_fract_y
 _atom_site_fract_z
 _atom_site_occupancy
  Li  Li0  1  0.00399545  0.38444949  0.24556543  1
  Li  Li1  1  0.00399545  0.61555051  0.74556543  1
  Li  Li2  1  0.49600455  0.88444949  0.24556543  1
  Li  Li3  1  0.49600455  0.11555051  0.74556543  1
  Mn  Mn4  1  0.02756087  0.27823410  0.75554519  1
  Mn  Mn5  1  0.99417830  0.05552044  0.25174283  1
  Mn  Mn6  1  0.02756087  0.72176590  0.25554519  1
  Mn  Mn7  1  0.99417830  0.94447956  0.75174283  1
  Mn  Mn8  1  0.50582170  0.55552044  0.25174283  1
  Mn  Mn9  1  0.47243913  0.77823410  0.75554519  1
  Mn  Mn10  1  0.50582170  0.44447956  0.75174283  1
  Mn  Mn11  1  0.47243913  0.22176590  0.25554519  1
  O  O12  1  0.24500985  0.28963419  0.06589023  1
  O  O13  1  0.24500985  0.71036581  0.56589023  1
  O  O14  1  0.25499015  0.21036581  0.56589023  1
  O  O15  1  0.25499015  0.78963419  0.06589023  1
  F  F16  1  0.23324296  0.62895367  0.08296578  1
  F  F17  1  0.23324296  0.37104633  0.58296578  1
  F  F18  1  0.22362265  0.04015337  0.57262820  1
  F  F19  1  0.22362265  0.95984663  0.07262820  1
  F  F20  1  0.27637735  0.45984663  0.07262820  1
  F  F21  1  0.27637735  0.54015337  0.57262820  1
  F  F22  1  0.26675704  0.87104633  0.58296578  1
  F  F23  1  0.26675704  0.12895367  0.08296578  1
  F  F24  1  0.73573385  0.79135939  0.44016904  1
  F  F25  1  0.73573385  0.20864061  0.94016904  1
  F  F26  1  0.71234102  0.86606823  0.91242212  1
  F  F27  1  0.71234102  0.13393177  0.41242212  1
  F  F28  1  0.72659387  0.46251330  0.42307018  1
  F  F29  1  0.72659387  0.53748670  0.92307018  1
  F  F30  1  0.77340613  0.03748670  0.92307018  1
  F  F31  1  0.77340613  0.96251330  0.42307018  1
  F  F32  1  0.78765898  0.36606823  0.91242212  1
  F  F33  1  0.78765898  0.63393177  0.41242212  1
  F  F34  1  0.76426615  0.29135939  0.44016904  1
  F  F35  1  0.76426615  0.70864061  0.94016904  1
