# generated using pymatgen
data_Li3VPCO7
_symmetry_space_group_name_H-M   'P 1'
_cell_length_a   8.63005757
_cell_length_b   4.88072057
_cell_length_c   6.53980344
_cell_angle_alpha   90.00000000
_cell_angle_beta   90.00000000
_cell_angle_gamma   88.98331651
_symmetry_Int_Tables_number   1
_chemical_formula_structural   Li3VPCO7
_chemical_formula_sum   'Li6 V2 P2 C2 O14'
_cell_volume   275.41903727
_cell_formula_units_Z   2
loop_
 _symmetry_equiv_pos_site_id
 _symmetry_equiv_pos_as_xyz
  1  'x, y, z'
loop_
 _atom_site_type_symbol
 _atom_site_label
 _atom_site_symmetry_multiplicity
 _atom_site_fract_x
 _atom_site_fract_y
 _atom_site_fract_z
 _atom_site_occupancy
  Li  Li0  1  0.11177450  0.75927030  0.26895512  1
  Li  Li1  1  0.29964668  0.22272636  0.47182822  1
  Li  Li2  1  0.37206413  0.76898332  0.73739335  1
  Li  Li3  1  0.62793587  0.23101668  0.23739335  1
  Li  Li4  1  0.70035332  0.77727364  0.97182822  1
  Li  Li5  1  0.88822550  0.24072970  0.76895512  1
  V  V6  1  0.24626761  0.23277151  0.98102445  1
  V  V7  1  0.75373239  0.76722849  0.48102445  1
  P  P8  1  0.41134397  0.71494226  0.24540633  1
  P  P9  1  0.58865603  0.28505774  0.74540633  1
  C  C10  1  0.05080301  0.73750786  0.77117985  1
  C  C11  1  0.94919699  0.26249214  0.27117985  1
  O  O12  1  0.07103141  0.99915511  0.79825094  1
  O  O13  1  0.09054366  0.34754862  0.23450730  1
  O  O14  1  0.16305223  0.56315239  0.77637249  1
  O  O15  1  0.32248439  0.83381617  0.05948801  1
  O  O16  1  0.31831125  0.81007712  0.43595427  1
  O  O17  1  0.41725065  0.19164564  0.74288311  1
  O  O18  1  0.40985406  0.39497144  0.22675556  1
  O  O19  1  0.59014594  0.60502856  0.72675556  1
  O  O20  1  0.58274935  0.80835436  0.24288311  1
  O  O21  1  0.68168875  0.18992288  0.93595427  1
  O  O22  1  0.67751561  0.16618383  0.55948801  1
  O  O23  1  0.83694777  0.43684761  0.27637249  1
  O  O24  1  0.90945634  0.65245138  0.73450730  1
  O  O25  1  0.92896859  0.00084489  0.29825094  1
