# generated using pymatgen
data_LiVSiO4
_symmetry_space_group_name_H-M   'P 1'
_cell_length_a   8.67607328
_cell_length_b   8.67607293
_cell_length_c   8.67607334
_cell_angle_alpha   107.41838774
_cell_angle_beta   107.41839182
_cell_angle_gamma   107.41839679
_symmetry_Int_Tables_number   1
_chemical_formula_structural   LiVSiO4
_chemical_formula_sum   'Li6 V6 Si6 O24'
_cell_volume   537.56690830
_cell_formula_units_Z   6
loop_
 _symmetry_equiv_pos_site_id
 _symmetry_equiv_pos_as_xyz
  1  'x, y, z'
loop_
 _atom_site_type_symbol
 _atom_site_label
 _atom_site_symmetry_multiplicity
 _atom_site_fract_x
 _atom_site_fract_y
 _atom_site_fract_z
 _atom_site_occupancy
  Li  Li0  1  0.05952536  0.45758858  0.23445077  1
  Li  Li1  1  0.54241142  0.76554923  0.94047464  1
  Li  Li2  1  0.76554923  0.94047464  0.54241142  1
  Li  Li3  1  0.23445077  0.05952536  0.45758858  1
  Li  Li4  1  0.45758858  0.23445077  0.05952536  1
  Li  Li5  1  0.94047464  0.54241142  0.76554923  1
  V  V6  1  0.13066908  0.89317473  0.71191537  1
  V  V7  1  0.28808463  0.86933092  0.10682527  1
  V  V8  1  0.10682527  0.28808463  0.86933092  1
  V  V9  1  0.89317473  0.71191537  0.13066908  1
  V  V10  1  0.71191537  0.13066908  0.89317473  1
  V  V11  1  0.86933092  0.10682527  0.28808463  1
  Si  Si12  1  0.39023111  0.78308053  0.55793547  1
  Si  Si13  1  0.21691947  0.44206453  0.60976889  1
  Si  Si14  1  0.44206453  0.60976889  0.21691947  1
  Si  Si15  1  0.55793547  0.39023111  0.78308053  1
  Si  Si16  1  0.78308053  0.55793547  0.39023111  1
  Si  Si17  1  0.60976889  0.21691947  0.44206453  1
  O  O18  1  0.29421325  0.98116359  0.95215969  1
  O  O19  1  0.04784031  0.70578675  0.01883641  1
  O  O20  1  0.25793388  0.88231168  0.55814419  1
  O  O21  1  0.44185581  0.74206612  0.11768832  1
  O  O22  1  0.59928959  0.92174822  0.65553496  1
  O  O23  1  0.33532298  0.64797678  0.34778276  1
  O  O24  1  0.11768832  0.44185581  0.74206612  1
  O  O25  1  0.35202322  0.65221724  0.66467702  1
  O  O26  1  0.07825178  0.34446504  0.40071041  1
  O  O27  1  0.34446504  0.40071041  0.07825178  1
  O  O28  1  0.65221724  0.66467702  0.35202322  1
  O  O29  1  0.01883641  0.04784031  0.70578675  1
  O  O30  1  0.98116359  0.95215969  0.29421325  1
  O  O31  1  0.34778276  0.33532298  0.64797678  1
  O  O32  1  0.65553496  0.59928959  0.92174822  1
  O  O33  1  0.92174822  0.65553496  0.59928959  1
  O  O34  1  0.64797678  0.34778276  0.33532298  1
  O  O35  1  0.88231168  0.55814419  0.25793388  1
  O  O36  1  0.66467702  0.35202322  0.65221724  1
  O  O37  1  0.40071041  0.07825178  0.34446504  1
  O  O38  1  0.55814419  0.25793388  0.88231168  1
  O  O39  1  0.74206612  0.11768832  0.44185581  1
  O  O40  1  0.95215969  0.29421325  0.98116359  1
  O  O41  1  0.70578675  0.01883641  0.04784031  1
