# generated using pymatgen
data_Li2V(Si2O5)3
_symmetry_space_group_name_H-M   'P 1'
_cell_length_a   7.19219172
_cell_length_b   7.24411522
_cell_length_c   14.93444512
_cell_angle_alpha   78.28704153
_cell_angle_beta   90.00000000
_cell_angle_gamma   60.23682303
_symmetry_Int_Tables_number   1
_chemical_formula_structural   Li2V(Si2O5)3
_chemical_formula_sum   'Li4 V2 Si12 O30'
_cell_volume   656.72716824
_cell_formula_units_Z   2
loop_
 _symmetry_equiv_pos_site_id
 _symmetry_equiv_pos_as_xyz
  1  'x, y, z'
loop_
 _atom_site_type_symbol
 _atom_site_label
 _atom_site_symmetry_multiplicity
 _atom_site_fract_x
 _atom_site_fract_y
 _atom_site_fract_z
 _atom_site_occupancy
  Li  Li0  1  0.84846643  0.64232891  0.94960733  1
  Li  Li1  1  0.38188703  0.56557593  0.83669741  1
  Li  Li2  1  0.50920466  0.64232891  0.44960733  1
  Li  Li3  1  0.05253704  0.56557593  0.33669741  1
  V  V4  1  0.29870054  0.90805855  0.90295682  1
  V  V5  1  0.79324091  0.90805855  0.40295682  1
  Si  Si6  1  0.63811724  0.81755577  0.74537901  1
  Si  Si7  1  0.08383795  0.89683815  0.56830290  1
  Si  Si8  1  0.54432699  0.81755577  0.24537901  1
  Si  Si9  1  0.01932390  0.89683815  0.06830290  1
  Si  Si10  1  0.17865886  0.47033874  0.55131654  1
  Si  Si11  1  0.00919387  0.36321790  0.74745694  1
  Si  Si12  1  0.35100239  0.47033874  0.05131654  1
  Si  Si13  1  0.62758823  0.36321790  0.24745694  1
  Si  Si14  1  0.90614475  0.01598633  0.75502129  1
  Si  Si15  1  0.43712666  0.00857540  0.53962931  1
  Si  Si16  1  0.07786892  0.01598633  0.25502129  1
  Si  Si17  1  0.55429794  0.00857540  0.03962931  1
  O  O18  1  0.56116429  0.88845501  0.95845178  1
  O  O19  1  0.06477480  0.87732114  0.84980567  1
  O  O20  1  0.03586320  0.89462380  0.67461247  1
  O  O21  1  0.46542951  0.78522641  0.80437382  1
  O  O22  1  0.57743977  0.84405974  0.63713375  1
  O  O23  1  0.55037970  0.88845501  0.45845178  1
  O  O24  1  0.42561530  0.57816481  0.96396238  1
  O  O25  1  0.05790306  0.87732114  0.34980567  1
  O  O26  1  0.87383948  0.59048281  0.78389621  1
  O  O27  1  0.06951299  0.89462380  0.17461247  1
  O  O28  1  0.74934408  0.78522641  0.30437382  1
  O  O29  1  0.26378197  0.64424059  0.55956084  1
  O  O30  1  0.57850049  0.84405974  0.13713375  1
  O  O31  1  0.99621988  0.57816481  0.46396238  1
  O  O32  1  0.10055287  0.41155412  0.65083979  1
  O  O33  1  0.53567871  0.59048281  0.28389621  1
  O  O34  1  0.19838926  0.19376989  0.83024678  1
  O  O35  1  0.84310543  0.27463942  0.73003401  1
  O  O36  1  0.09197744  0.64424059  0.05956084  1
  O  O37  1  0.39673296  0.25494588  0.53323701  1
  O  O38  1  0.48789200  0.41155412  0.15083979  1
  O  O39  1  0.67756544  0.01539319  0.75931846  1
  O  O40  1  0.60784086  0.19376989  0.33024678  1
  O  O41  1  0.88225615  0.27463942  0.23003401  1
  O  O42  1  0.19171734  0.04608799  0.53605437  1
  O  O43  1  0.86107812  0.98363852  0.50501411  1
  O  O44  1  0.34832216  0.25494588  0.03323701  1
  O  O45  1  0.30704037  0.01539319  0.25931846  1
  O  O46  1  0.76219468  0.04608799  0.03605437  1
  O  O47  1  0.15528336  0.98363852  0.00501411  1
