# generated using pymatgen
data_Li2V(CO3)2
_symmetry_space_group_name_H-M   'P 1'
_cell_length_a   5.33801463
_cell_length_b   6.41348125
_cell_length_c   8.67139669
_cell_angle_alpha   84.15256408
_cell_angle_beta   73.94421862
_cell_angle_gamma   66.28930773
_symmetry_Int_Tables_number   1
_chemical_formula_structural   Li2V(CO3)2
_chemical_formula_sum   'Li4 V2 C4 O12'
_cell_volume   261.19103070
_cell_formula_units_Z   2
loop_
 _symmetry_equiv_pos_site_id
 _symmetry_equiv_pos_as_xyz
  1  'x, y, z'
loop_
 _atom_site_type_symbol
 _atom_site_label
 _atom_site_symmetry_multiplicity
 _atom_site_fract_x
 _atom_site_fract_y
 _atom_site_fract_z
 _atom_site_occupancy
  Li  Li0  1  0.23128203  0.51254895  0.83821714  1
  Li  Li1  1  0.79654316  0.03609911  0.65392322  1
  Li  Li2  1  0.51979633  0.94670145  0.33131819  1
  Li  Li3  1  0.59433281  0.43678093  0.17343469  1
  V  V4  1  0.86597132  0.50373087  0.50207591  1
  V  V5  1  0.10706400  0.98999859  0.99766010  1
  C  C6  1  0.82697936  0.39062038  0.80240280  1
  C  C7  1  0.39369615  0.90640891  0.69850234  1
  C  C8  1  0.00210853  0.09493469  0.29861512  1
  C  C9  1  0.04408235  0.59385839  0.20084912  1
  O  O10  1  0.47243092  0.96692691  0.80950543  1
  O  O11  1  0.02920765  0.44403793  0.71074056  1
  O  O12  1  0.82388716  0.32956078  0.94897860  1
  O  O13  1  0.14773182  0.89160640  0.73848005  1
  O  O14  1  0.63139145  0.39825825  0.73545664  1
  O  O15  1  0.56584423  0.86103713  0.55493332  1
  O  O16  1  0.19280708  0.54758109  0.30511329  1
  O  O17  1  0.24610488  0.04032753  0.19501464  1
  O  O18  1  0.97082871  0.14957486  0.44427840  1
  O  O19  1  0.79324428  0.09446671  0.24713689  1
  O  O20  1  0.14578563  0.63757974  0.05369065  1
  O  O21  1  0.78728614  0.59689542  0.25458989  1
