# generated using pymatgen
data_Li3SbS3
_symmetry_space_group_name_H-M   'P 1'
_cell_length_a   8.29570208
_cell_length_b   8.29570208
_cell_length_c   8.29570208
_cell_angle_alpha   90.00000000
_cell_angle_beta   90.00000000
_cell_angle_gamma   90.00000000
_symmetry_Int_Tables_number   1
_chemical_formula_structural   Li3SbS3
_chemical_formula_sum   'Li12 Sb4 S12'
_cell_volume   570.89920875
_cell_formula_units_Z   4
loop_
 _symmetry_equiv_pos_site_id
 _symmetry_equiv_pos_as_xyz
  1  'x, y, z'
loop_
 _atom_site_type_symbol
 _atom_site_label
 _atom_site_symmetry_multiplicity
 _atom_site_fract_x
 _atom_site_fract_y
 _atom_site_fract_z
 _atom_site_occupancy
  Li  Li0  1  0.01908592  0.01908592  0.01908592  1
  Li  Li1  1  0.20962690  0.29037310  0.70962690  1
  Li  Li2  1  0.21502471  0.71502471  0.78497529  1
  Li  Li3  1  0.28497529  0.28497529  0.28497529  1
  Li  Li4  1  0.29037310  0.70962690  0.20962690  1
  Li  Li5  1  0.48091408  0.98091408  0.51908592  1
  Li  Li6  1  0.51908592  0.48091408  0.98091408  1
  Li  Li7  1  0.70962690  0.20962690  0.29037310  1
  Li  Li8  1  0.71502471  0.78497529  0.21502471  1
  Li  Li9  1  0.78497529  0.21502471  0.71502471  1
  Li  Li10  1  0.79037310  0.79037310  0.79037310  1
  Li  Li11  1  0.98091408  0.51908592  0.48091408  1
  Sb  Sb12  1  0.03919212  0.96080788  0.46080788  1
  Sb  Sb13  1  0.46080788  0.03919212  0.96080788  1
  Sb  Sb14  1  0.53919212  0.53919212  0.53919212  1
  Sb  Sb15  1  0.96080788  0.46080788  0.03919212  1
  S  S16  1  0.99849163  0.24541956  0.38331896  1
  S  S17  1  0.11668104  0.00150837  0.74541956  1
  S  S18  1  0.24541956  0.38331896  0.99849163  1
  S  S19  1  0.25458044  0.61668104  0.49849163  1
  S  S20  1  0.38331896  0.99849163  0.24541956  1
  S  S21  1  0.50150837  0.75458044  0.88331896  1
  S  S22  1  0.49849163  0.25458044  0.61668104  1
  S  S23  1  0.61668104  0.49849163  0.25458044  1
  S  S24  1  0.74541956  0.11668104  0.00150837  1
  S  S25  1  0.75458044  0.88331896  0.50150837  1
  S  S26  1  0.88331896  0.50150837  0.75458044  1
  S  S27  1  0.00150837  0.74541956  0.11668104  1
