# generated using pymatgen
data_Li3VPCO7
_symmetry_space_group_name_H-M   'P 1'
_cell_length_a   9.73718230
_cell_length_b   9.69253616
_cell_length_c   6.53496390
_cell_angle_alpha   90.00000000
_cell_angle_beta   90.00000000
_cell_angle_gamma   62.33618998
_symmetry_Int_Tables_number   1
_chemical_formula_structural   Li3VPCO7
_chemical_formula_sum   'Li12 V4 P4 C4 O28'
_cell_volume   546.25348755
_cell_formula_units_Z   4
loop_
 _symmetry_equiv_pos_site_id
 _symmetry_equiv_pos_as_xyz
  1  'x, y, z'
loop_
 _atom_site_type_symbol
 _atom_site_label
 _atom_site_symmetry_multiplicity
 _atom_site_fract_x
 _atom_site_fract_y
 _atom_site_fract_z
 _atom_site_occupancy
  Li  Li0  1  0.88967372  0.43721268  0.75194377  1
  Li  Li1  1  0.88967372  0.93721268  0.74805623  1
  Li  Li2  1  0.70317579  0.27186752  0.52134414  1
  Li  Li3  1  0.70317579  0.77186752  0.97865586  1
  Li  Li4  1  0.62893091  0.07185719  0.26524566  1
  Li  Li5  1  0.62893091  0.57185719  0.23475434  1
  Li  Li6  1  0.37106909  0.42814281  0.76524566  1
  Li  Li7  1  0.37106909  0.92814281  0.73475434  1
  Li  Li8  1  0.29682421  0.22813248  0.02134414  1
  Li  Li9  1  0.29682421  0.72813248  0.47865586  1
  Li  Li10  1  0.11032628  0.06278732  0.25194377  1
  Li  Li11  1  0.11032628  0.56278732  0.24805623  1
  V  V12  1  0.75227157  0.23551761  0.01879515  1
  V  V13  1  0.75227157  0.73551761  0.48120485  1
  V  V14  1  0.24772843  0.26448239  0.51879515  1
  V  V15  1  0.24772843  0.76448239  0.98120485  1
  P  P16  1  0.59144685  0.06320825  0.74226040  1
  P  P17  1  0.59144685  0.56320825  0.75773960  1
  P  P18  1  0.40855315  0.43679175  0.24226040  1
  P  P19  1  0.40855315  0.93679175  0.25773960  1
  C  C20  1  0.94634749  0.39406314  0.26087422  1
  C  C21  1  0.94634749  0.89406314  0.23912578  1
  C  C22  1  0.05365351  0.10593686  0.76087422  1
  C  C23  1  0.05365351  0.60593686  0.73912578  1
  O  O24  1  0.92361736  0.03600043  0.21132921  1
  O  O25  1  0.92361736  0.53600043  0.28867079  1
  O  O26  1  0.91091954  0.21982242  0.76941275  1
  O  O27  1  0.83371784  0.36335911  0.22657126  1
  O  O28  1  0.91091954  0.71982242  0.73058725  1
  O  O29  1  0.83371784  0.86335911  0.27342874  1
  O  O30  1  0.68006560  0.06078623  0.94191050  1
  O  O31  1  0.68726952  0.08111810  0.56640680  1
  O  O32  1  0.68726952  0.58111810  0.93359320  1
  O  O33  1  0.68006560  0.56078623  0.55808950  1
  O  O34  1  0.57884120  0.30587695  0.25362979  1
  O  O35  1  0.59072899  0.40263201  0.77917331  1
  O  O36  1  0.57884120  0.80587695  0.24637021  1
  O  O37  1  0.59072899  0.90263201  0.72082669  1
  O  O38  1  0.40927101  0.09736799  0.27917331  1
  O  O39  1  0.42115880  0.19412305  0.75362979  1
  O  O40  1  0.40927101  0.59736799  0.22082669  1
  O  O41  1  0.42115880  0.69412305  0.74637021  1
  O  O42  1  0.31273048  0.41888190  0.06640680  1
  O  O43  1  0.31993440  0.43921377  0.44191050  1
  O  O44  1  0.31993440  0.93921377  0.05808950  1
  O  O45  1  0.31273048  0.91888190  0.43359320  1
  O  O46  1  0.16628216  0.13664089  0.72657126  1
  O  O47  1  0.08908046  0.28017758  0.26941275  1
  O  O48  1  0.16628216  0.63664089  0.77342874  1
  O  O49  1  0.08908046  0.78017758  0.23058725  1
  O  O50  1  0.07638264  0.46399957  0.71132921  1
  O  O51  1  0.07638264  0.96399957  0.78867079  1
