# generated using pymatgen
data_Li2Si4NiO10
_symmetry_space_group_name_H-M   'P 1'
_cell_length_a   9.48770036
_cell_length_b   14.21123396
_cell_length_c   7.01741452
_cell_angle_alpha   90.00000000
_cell_angle_beta   90.00000000
_cell_angle_gamma   90.00000000
_symmetry_Int_Tables_number   1
_chemical_formula_structural   Li2Si4NiO10
_chemical_formula_sum   'Li8 Si16 Ni4 O40'
_cell_volume   946.17154024
_cell_formula_units_Z   4
loop_
 _symmetry_equiv_pos_site_id
 _symmetry_equiv_pos_as_xyz
  1  'x, y, z'
loop_
 _atom_site_type_symbol
 _atom_site_label
 _atom_site_symmetry_multiplicity
 _atom_site_fract_x
 _atom_site_fract_y
 _atom_site_fract_z
 _atom_site_occupancy
  Li  Li0  1  0.08890981  0.83069548  0.65774646  1
  Li  Li1  1  0.15685365  0.53867013  0.06371105  1
  Li  Li2  1  0.34314635  0.46132987  0.56371105  1
  Li  Li3  1  0.41109019  0.16930452  0.15774646  1
  Li  Li4  1  0.58890981  0.66930452  0.34225354  1
  Li  Li5  1  0.65685365  0.96132987  0.93628895  1
  Li  Li6  1  0.84314635  0.03867113  0.43628895  1
  Li  Li7  1  0.91109019  0.33069548  0.84225354  1
  Si  Si8  1  0.02886455  0.56660027  0.46425645  1
  Si  Si9  1  0.06218482  0.89878317  0.24457031  1
  Si  Si10  1  0.09730921  0.21683216  0.31405133  1
  Si  Si11  1  0.13518308  0.17702637  0.74027423  1
  Si  Si12  1  0.36481692  0.82297363  0.24027423  1
  Si  Si13  1  0.40269079  0.78316784  0.81405133  1
  Si  Si14  1  0.43781518  0.10121683  0.74457031  1
  Si  Si15  1  0.47113545  0.43339973  0.96425645  1
  Si  Si16  1  0.52886455  0.93339973  0.53574355  1
  Si  Si17  1  0.56218482  0.60121683  0.75542969  1
  Si  Si18  1  0.59730921  0.28316784  0.68594867  1
  Si  Si19  1  0.63518308  0.32297363  0.25972577  1
  Si  Si20  1  0.86481692  0.67702637  0.75972577  1
  Si  Si21  1  0.90269079  0.71683216  0.18594867  1
  Si  Si22  1  0.93781518  0.39878317  0.25542969  1
  Si  Si23  1  0.97113545  0.06660027  0.03574355  1
  Ni  Ni24  1  0.19786677  0.34842945  0.00778437  1
  Ni  Ni25  1  0.30213323  0.65157055  0.50778437  1
  Ni  Ni26  1  0.69786677  0.15157055  0.99221563  1
  Ni  Ni27  1  0.80213323  0.84842945  0.49221563  1
  O  O28  1  0.98929405  0.81213222  0.12497066  1
  O  O29  1  0.98033956  0.14927106  0.20240170  1
  O  O30  1  0.03240435  0.42944461  0.07340920  1
  O  O31  1  0.01032963  0.10774878  0.82487599  1
  O  O32  1  0.08483989  0.98431545  0.09044274  1
  O  O33  1  0.13667045  0.16021984  0.50929827  1
  O  O34  1  0.10328696  0.28456601  0.79882755  1
  O  O35  1  0.19204449  0.53338016  0.46119210  1
  O  O36  1  0.21475620  0.86297179  0.32508789  1
  O  O37  1  0.23378735  0.24100388  0.18546728  1
  O  O38  1  0.26621265  0.75899612  0.68546728  1
  O  O39  1  0.28524380  0.13702821  0.82508789  1
  O  O40  1  0.30795551  0.46661984  0.96119210  1
  O  O41  1  0.39671304  0.71543399  0.29882755  1
  O  O42  1  0.36332955  0.83978016  0.00929827  1
  O  O43  1  0.41516011  0.01568455  0.59044274  1
  O  O44  1  0.48967037  0.89225122  0.32487599  1
  O  O45  1  0.46759565  0.57055539  0.57340920  1
  O  O46  1  0.51966044  0.85072894  0.70240170  1
  O  O47  1  0.51070595  0.18786778  0.62497066  1
  O  O48  1  0.48929405  0.68786778  0.87502934  1
  O  O49  1  0.48033956  0.35072894  0.79759830  1
  O  O50  1  0.53240435  0.07055539  0.92659080  1
  O  O51  1  0.51032963  0.39225122  0.17512401  1
  O  O52  1  0.58483989  0.51568455  0.90955726  1
  O  O53  1  0.63667045  0.33978016  0.49070173  1
  O  O54  1  0.60328696  0.21543399  0.20117245  1
  O  O55  1  0.69204449  0.96661984  0.53880790  1
  O  O56  1  0.71475620  0.63702821  0.67491211  1
  O  O57  1  0.73378735  0.25899612  0.81453272  1
  O  O58  1  0.76621265  0.74100388  0.31453272  1
  O  O59  1  0.78524380  0.36297179  0.17491211  1
  O  O60  1  0.80795551  0.03338016  0.03880790  1
  O  O61  1  0.89671304  0.78456601  0.70117245  1
  O  O62  1  0.86332955  0.66021984  0.99070173  1
  O  O63  1  0.91516011  0.48431545  0.40955726  1
  O  O64  1  0.98967037  0.60774878  0.67512401  1
  O  O65  1  0.96759565  0.92944461  0.42659080  1
  O  O66  1  0.01966044  0.64927106  0.29759830  1
  O  O67  1  0.01070595  0.31213222  0.37502934  1
