# generated using pymatgen
data_Li2Si2Ni3O8
_symmetry_space_group_name_H-M   'P 1'
_cell_length_a   5.00135203
_cell_length_b   8.69598005
_cell_length_c   13.29445707
_cell_angle_alpha   71.03707561
_cell_angle_beta   78.32952217
_cell_angle_gamma   90.25156348
_symmetry_Int_Tables_number   1
_chemical_formula_structural   Li2Si2Ni3O8
_chemical_formula_sum   'Li6 Si6 Ni9 O24'
_cell_volume   533.97722174
_cell_formula_units_Z   3
loop_
 _symmetry_equiv_pos_site_id
 _symmetry_equiv_pos_as_xyz
  1  'x, y, z'
loop_
 _atom_site_type_symbol
 _atom_site_label
 _atom_site_symmetry_multiplicity
 _atom_site_fract_x
 _atom_site_fract_y
 _atom_site_fract_z
 _atom_site_occupancy
  Li  Li0  1  0.43595644  0.40818413  0.23141865  1
  Li  Li1  1  0.39592505  0.05488623  0.31005871  1
  Li  Li2  1  0.26692483  0.94007069  0.53352027  1
  Li  Li3  1  0.47730634  0.76243437  0.14679448  1
  Li  Li4  1  0.72748041  0.01467023  0.64135588  1
  Li  Li5  1  0.60280049  0.87281759  0.90770100  1
  Si  Si6  1  0.01987445  0.62102180  0.06581386  1
  Si  Si7  1  0.49720381  0.14164408  0.06058567  1
  Si  Si8  1  0.19261038  0.10432574  0.74702762  1
  Si  Si9  1  0.38029419  0.66294780  0.40166191  1
  Si  Si10  1  0.83903566  0.18172183  0.40214050  1
  Si  Si11  1  0.75484047  0.64365913  0.71935663  1
  Ni  Ni12  1  0.01970859  0.99199329  0.99861560  1
  Ni  Ni13  1  0.28007858  0.27593505  0.49992143  1
  Ni  Ni14  1  0.19250052  0.74108468  0.81382412  1
  Ni  Ni15  1  0.28296735  0.48527864  0.65690832  1
  Ni  Ni16  1  0.93934242  0.24482471  0.15703639  1
  Ni  Ni17  1  0.58828129  0.51158941  0.96989297  1
  Ni  Ni18  1  0.68409907  0.26290820  0.80753520  1
  Ni  Ni19  1  0.92083701  0.55735364  0.31387107  1
  Ni  Ni20  1  0.85177014  0.81672128  0.46844388  1
  O  O21  1  0.04713649  0.03526920  0.41273819  1
  O  O22  1  0.04514198  0.34094515  0.38962906  1
  O  O23  1  0.16704387  0.58679195  0.16964970  1
  O  O24  1  0.07100688  0.69890036  0.38119254  1
  O  O25  1  0.37241619  0.98135149  0.03959044  1
  O  O26  1  0.06517507  0.12669740  0.63999238  1
  O  O27  1  0.31345232  0.19049527  0.16152007  1
  O  O28  1  0.37383638  0.49327014  0.50501872  1
  O  O29  1  0.39776227  0.95342501  0.77315064  1
  O  O30  1  0.49354641  0.81969083  0.42983060  1
  O  O31  1  0.56444537  0.63562823  0.29167866  1
  O  O32  1  0.37826912  0.26723214  0.73576308  1
  O  O33  1  0.27961055  0.65302451  0.95918761  1
  O  O34  1  0.42263180  0.62986284  0.72604164  1
  O  O35  1  0.79432946  0.09655447  0.09285407  1
  O  O36  1  0.58144355  0.12697706  0.51010205  1
  O  O37  1  0.69087016  0.22767911  0.29661306  1
  O  O38  1  0.81013250  0.46082657  0.08286820  1
  O  O39  1  0.82824043  0.77484161  0.03890110  1
  O  O40  1  0.53988174  0.30116348  0.94757780  1
  O  O41  1  0.90760724  0.80139732  0.61687155  1
  O  O42  1  0.80460096  0.67121299  0.83300219  1
  O  O43  1  0.87931058  0.47383576  0.71058049  1
  O  O44  1  0.91937520  0.06975563  0.85136399  1
