# generated using pymatgen
data_Li3VPCO7
_symmetry_space_group_name_H-M   'P 1'
_cell_length_a   8.65361966
_cell_length_b   9.69203224
_cell_length_c   6.50960524
_cell_angle_alpha   90.00000000
_cell_angle_beta   90.00000000
_cell_angle_gamma   88.08669730
_symmetry_Int_Tables_number   1
_chemical_formula_structural   Li3VPCO7
_chemical_formula_sum   'Li12 V4 P4 C4 O28'
_cell_volume   545.66376554
_cell_formula_units_Z   4
loop_
 _symmetry_equiv_pos_site_id
 _symmetry_equiv_pos_as_xyz
  1  'x, y, z'
loop_
 _atom_site_type_symbol
 _atom_site_label
 _atom_site_symmetry_multiplicity
 _atom_site_fract_x
 _atom_site_fract_y
 _atom_site_fract_z
 _atom_site_occupancy
  Li  Li0  1  0.11023082  0.38443581  0.24146074  1
  Li  Li1  1  0.11023082  0.88443581  0.25853926  1
  Li  Li2  1  0.29064640  0.12254746  0.48329658  1
  Li  Li3  1  0.29064640  0.62254746  0.01670342  1
  Li  Li4  1  0.37140374  0.38522829  0.75679502  1
  Li  Li5  1  0.37140374  0.88522829  0.74320498  1
  Li  Li6  1  0.62859626  0.11477171  0.24320498  1
  Li  Li7  1  0.62859626  0.61477171  0.25679502  1
  Li  Li8  1  0.70935360  0.37745254  0.51670342  1
  Li  Li9  1  0.70935360  0.87745254  0.98329658  1
  Li  Li10  1  0.88976918  0.11556419  0.75853926  1
  Li  Li11  1  0.88976918  0.61556419  0.74146074  1
  V  V12  1  0.24812414  0.11271431  0.98188474  1
  V  V13  1  0.24812414  0.61271431  0.51811526  1
  V  V14  1  0.75187586  0.38728569  0.01811526  1
  V  V15  1  0.75187586  0.88728569  0.48188474  1
  P  P16  1  0.40780472  0.35908479  0.23920176  1
  P  P17  1  0.40780472  0.85908479  0.26079824  1
  P  P18  1  0.59219528  0.14091521  0.76079824  1
  P  P19  1  0.59219528  0.64091521  0.73920176  1
  C  C20  1  0.05355611  0.36378769  0.74367735  1
  C  C21  1  0.05355611  0.86378769  0.75632265  1
  C  C22  1  0.94644389  0.13621231  0.25632265  1
  C  C23  1  0.94644389  0.63621231  0.24367735  1
  O  O24  1  0.07441933  0.49366977  0.70468975  1
  O  O25  1  0.08876424  0.17659793  0.22885907  1
  O  O26  1  0.07441933  0.99366977  0.79531025  1
  O  O27  1  0.16661286  0.27490791  0.75409664  1
  O  O28  1  0.08876424  0.67659793  0.27114093  1
  O  O29  1  0.16661286  0.77490791  0.74590336  1
  O  O30  1  0.31217982  0.42054338  0.05885261  1
  O  O31  1  0.31837082  0.40490690  0.43662178  1
  O  O32  1  0.31837082  0.90490690  0.06337822  1
  O  O33  1  0.31217982  0.92054338  0.44114739  1
  O  O34  1  0.42254227  0.09417197  0.75002840  1
  O  O35  1  0.40855741  0.19787797  0.22533808  1
  O  O36  1  0.42254227  0.59417197  0.74997160  1
  O  O37  1  0.40855741  0.69787797  0.27466192  1
  O  O38  1  0.59144259  0.30212203  0.77466192  1
  O  O39  1  0.57745773  0.40582803  0.24997160  1
  O  O40  1  0.59144259  0.80212203  0.72533808  1
  O  O41  1  0.57745773  0.90582803  0.25002840  1
  O  O42  1  0.68782018  0.07945662  0.94114739  1
  O  O43  1  0.68162918  0.09509310  0.56337822  1
  O  O44  1  0.68782018  0.57945662  0.55885261  1
  O  O45  1  0.68162918  0.59509310  0.93662178  1
  O  O46  1  0.83338714  0.22509209  0.24590336  1
  O  O47  1  0.91123576  0.32340207  0.77114093  1
  O  O48  1  0.83338714  0.72509209  0.25409664  1
  O  O49  1  0.92558067  0.00633023  0.29531025  1
  O  O50  1  0.91123576  0.82340207  0.72885907  1
  O  O51  1  0.92558067  0.50633023  0.20468975  1
