# generated using pymatgen
data_Li6Mn(OF)3
_symmetry_space_group_name_H-M   'P 1'
_cell_length_a   5.40237415
_cell_length_b   8.27651818
_cell_length_c   6.77154125
_cell_angle_alpha   90.14207823
_cell_angle_beta   105.89562088
_cell_angle_gamma   90.15962327
_symmetry_Int_Tables_number   1
_chemical_formula_structural   Li6Mn(OF)3
_chemical_formula_sum   'Li12 Mn2 O6 F6'
_cell_volume   291.19467651
_cell_formula_units_Z   2
loop_
 _symmetry_equiv_pos_site_id
 _symmetry_equiv_pos_as_xyz
  1  'x, y, z'
loop_
 _atom_site_type_symbol
 _atom_site_label
 _atom_site_symmetry_multiplicity
 _atom_site_fract_x
 _atom_site_fract_y
 _atom_site_fract_z
 _atom_site_occupancy
  Li  Li0  1  0.96508072  0.65365922  0.00640455  1
  Li  Li1  1  0.59690700  0.86617184  0.17691043  1
  Li  Li2  1  0.33334099  0.67535163  0.31728135  1
  Li  Li3  1  0.70452614  0.21062477  0.17286163  1
  Li  Li4  1  0.62282457  0.67019429  0.66798010  1
  Li  Li5  1  0.97812625  0.15031678  0.50872094  1
  Li  Li6  1  0.01911836  0.84713141  0.46999563  1
  Li  Li7  1  0.37854346  0.32068175  0.33430743  1
  Li  Li8  1  0.29434767  0.78174404  0.82934861  1
  Li  Li9  1  0.67027783  0.32962511  0.68523903  1
  Li  Li10  1  0.40707459  0.13964996  0.82544455  1
  Li  Li11  1  0.03218280  0.34929993  0.97458008  1
  Mn  Mn12  1  0.99556217  0.00217916  0.02398834  1
  Mn  Mn13  1  0.99531359  0.50049031  0.52355776  1
  O  O14  1  0.22367588  0.82203329  0.09205061  1
  O  O15  1  0.89541111  0.01209341  0.26887426  1
  O  O16  1  0.90355376  0.51512362  0.77261650  1
  O  O17  1  0.74800848  0.33433933  0.42299431  1
  O  O18  1  0.24904384  0.66711938  0.57436916  1
  O  O19  1  0.77565441  0.17791500  0.90832147  1
  F  F20  1  0.69518618  0.72029135  0.40636288  1
  F  F21  1  0.66524989  0.79235394  0.91804173  1
  F  F22  1  0.32841499  0.21057032  0.07573856  1
  F  F23  1  0.10771705  0.48398591  0.22534380  1
  F  F24  1  0.11344844  0.99007488  0.72919038  1
  F  F25  1  0.30140984  0.27698039  0.58947391  1
