# generated using pymatgen
data_Li3VPCO7
_symmetry_space_group_name_H-M   'P 1'
_cell_length_a   8.51418135
_cell_length_b   9.99486168
_cell_length_c   6.61602792
_cell_angle_alpha   89.73154619
_cell_angle_beta   90.38406172
_cell_angle_gamma   84.73682324
_symmetry_Int_Tables_number   1
_chemical_formula_structural   Li3VPCO7
_chemical_formula_sum   'Li12 V4 P4 C4 O28'
_cell_volume   560.61690089
_cell_formula_units_Z   4
loop_
 _symmetry_equiv_pos_site_id
 _symmetry_equiv_pos_as_xyz
  1  'x, y, z'
loop_
 _atom_site_type_symbol
 _atom_site_label
 _atom_site_symmetry_multiplicity
 _atom_site_fract_x
 _atom_site_fract_y
 _atom_site_fract_z
 _atom_site_occupancy
  Li  Li0  1  0.08995487  0.38412711  0.25930450  1
  Li  Li1  1  0.09770342  0.88283642  0.25598111  1
  Li  Li2  1  0.28417480  0.12245946  0.46852815  1
  Li  Li3  1  0.27946344  0.62529461  0.02819223  1
  Li  Li4  1  0.28177166  0.62533325  0.46768677  1
  Li  Li5  1  0.66308389  0.10593893  0.25069207  1
  Li  Li6  1  0.71957296  0.36561429  0.51900679  1
  Li  Li7  1  0.71905885  0.36532207  0.98153505  1
  Li  Li8  1  0.71975743  0.88731635  0.51408534  1
  Li  Li9  1  0.72173205  0.88721462  0.98932323  1
  Li  Li10  1  0.89368519  0.10808543  0.74813775  1
  Li  Li11  1  0.89992333  0.61571401  0.74862975  1
  V  V12  1  0.27281972  0.13226242  0.01231728  1
  V  V13  1  0.33042222  0.39946452  0.74821216  1
  V  V14  1  0.33190008  0.89035849  0.74536664  1
  V  V15  1  0.67209229  0.60327136  0.24939036  1
  P  P16  1  0.40898745  0.36110830  0.24985013  1
  P  P17  1  0.41696238  0.86053049  0.25099886  1
  P  P18  1  0.59317867  0.13920139  0.75000832  1
  P  P19  1  0.59126764  0.63850718  0.74908036  1
  C  C20  1  0.03490344  0.34686750  0.75390350  1
  C  C21  1  0.03589128  0.84805213  0.75229427  1
  C  C22  1  0.96054656  0.15040625  0.25204730  1
  C  C23  1  0.96487751  0.65312148  0.24944295  1
  O  O24  1  0.07198864  0.46935044  0.74700520  1
  O  O25  1  0.11055623  0.18291604  0.25249345  1
  O  O26  1  0.07690407  0.97138944  0.75314988  1
  O  O27  1  0.15402839  0.25168277  0.76101611  1
  O  O28  1  0.11132372  0.68028155  0.24873310  1
  O  O29  1  0.14940247  0.75075448  0.75106928  1
  O  O30  1  0.30541358  0.41454758  0.06598384  1
  O  O31  1  0.30688820  0.41426293  0.43162046  1
  O  O32  1  0.31345034  0.91618872  0.06540754  1
  O  O33  1  0.30898064  0.91178565  0.42943532  1
  O  O34  1  0.42388393  0.08675022  0.75013186  1
  O  O35  1  0.42598643  0.20381513  0.24698423  1
  O  O36  1  0.42362460  0.58930779  0.74785236  1
  O  O37  1  0.43062046  0.70340514  0.24586378  1
  O  O38  1  0.56642882  0.29674169  0.74951495  1
  O  O39  1  0.57514112  0.41024761  0.25010910  1
  O  O40  1  0.56998050  0.79539710  0.74848838  1
  O  O41  1  0.58030670  0.91189277  0.25307496  1
  O  O42  1  0.69087713  0.09020357  0.93785793  1
  O  O43  1  0.68836935  0.08996480  0.56308238  1
  O  O44  1  0.69303516  0.58504329  0.56731596  1
  O  O45  1  0.69348192  0.58418505  0.93234064  1
  O  O46  1  0.85079068  0.24793502  0.25527873  1
  O  O47  1  0.89263569  0.31455554  0.75173833  1
  O  O48  1  0.85145890  0.74904218  0.24887055  1
  O  O49  1  0.93334727  0.02716484  0.24930525  1
  O  O50  1  0.89049287  0.82279785  0.75122199  1
  O  O51  1  0.92687104  0.52998181  0.25103657  1
