# generated using pymatgen
data_Li3VPCO7
_symmetry_space_group_name_H-M   'P 1'
_cell_length_a   9.77918424
_cell_length_b   9.66911989
_cell_length_c   6.51258824
_cell_angle_alpha   90.00000000
_cell_angle_beta   90.00000000
_cell_angle_gamma   62.30374072
_symmetry_Int_Tables_number   1
_chemical_formula_structural   Li3VPCO7
_chemical_formula_sum   'Li12 V4 P4 C4 O28'
_cell_volume   545.24848830
_cell_formula_units_Z   4
loop_
 _symmetry_equiv_pos_site_id
 _symmetry_equiv_pos_as_xyz
  1  'x, y, z'
loop_
 _atom_site_type_symbol
 _atom_site_label
 _atom_site_symmetry_multiplicity
 _atom_site_fract_x
 _atom_site_fract_y
 _atom_site_fract_z
 _atom_site_occupancy
  Li  Li0  1  0.88902645  0.43804338  0.73380991  1
  Li  Li1  1  0.88902645  0.93804338  0.76619009  1
  Li  Li2  1  0.71128127  0.26908900  0.97802438  1
  Li  Li3  1  0.71128127  0.76908900  0.52197562  1
  Li  Li4  1  0.62588815  0.07139501  0.24861473  1
  Li  Li5  1  0.62588815  0.57139501  0.25138527  1
  Li  Li6  1  0.37411185  0.42860499  0.75138527  1
  Li  Li7  1  0.37411185  0.92860499  0.74861473  1
  Li  Li8  1  0.28871973  0.23091100  0.02197562  1
  Li  Li9  1  0.28871973  0.73091100  0.47802438  1
  Li  Li10  1  0.11097355  0.06195662  0.26619009  1
  Li  Li11  1  0.11097355  0.56195662  0.23380991  1
  V  V12  1  0.75153191  0.23621851  0.47806300  1
  V  V13  1  0.75153191  0.73621851  0.02193700  1
  V  V14  1  0.24846809  0.26378149  0.52193700  1
  V  V15  1  0.24846809  0.76378149  0.97806300  1
  P  P16  1  0.59198866  0.06305843  0.76203895  1
  P  P17  1  0.59198866  0.56305843  0.73796105  1
  P  P18  1  0.40801134  0.43694157  0.23796105  1
  P  P19  1  0.40801134  0.93694157  0.26203895  1
  C  C20  1  0.94623560  0.39307185  0.24369627  1
  C  C21  1  0.94623560  0.89307185  0.25630373  1
  C  C22  1  0.05376440  0.10692815  0.75630373  1
  C  C23  1  0.05376440  0.60692815  0.74369627  1
  O  O24  1  0.92642687  0.03235538  0.30134468  1
  O  O25  1  0.92642687  0.53235538  0.19865532  1
  O  O26  1  0.91204766  0.21772416  0.72452010  1
  O  O27  1  0.83306001  0.36108698  0.25529682  1
  O  O28  1  0.91204766  0.71772416  0.77547990  1
  O  O29  1  0.83306001  0.86108698  0.24470318  1
  O  O30  1  0.68535590  0.07885727  0.94329184  1
  O  O31  1  0.68248430  0.06312435  0.56545577  1
  O  O32  1  0.68248430  0.56312435  0.93454423  1
  O  O33  1  0.68535590  0.57885627  0.55670816  1
  O  O34  1  0.57810863  0.30673595  0.24185948  1
  O  O35  1  0.59289749  0.40099173  0.72293591  1
  O  O36  1  0.57810863  0.80673595  0.25814052  1
  O  O37  1  0.59289749  0.90099173  0.77706409  1
  O  O38  1  0.40710251  0.09900827  0.27706409  1
  O  O39  1  0.42189137  0.19326405  0.75814052  1
  O  O40  1  0.40710251  0.59900827  0.22293591  1
  O  O41  1  0.42189137  0.69326405  0.74185948  1
  O  O42  1  0.31464410  0.42114373  0.05670816  1
  O  O43  1  0.31751570  0.43687565  0.43454423  1
  O  O44  1  0.31751570  0.93687565  0.06545577  1
  O  O45  1  0.31464410  0.92114373  0.44329184  1
  O  O46  1  0.16693999  0.13891302  0.74470318  1
  O  O47  1  0.08795234  0.28227584  0.27547990  1
  O  O48  1  0.16693999  0.63891302  0.75529682  1
  O  O49  1  0.08795234  0.78227584  0.22452010  1
  O  O50  1  0.07357313  0.46764462  0.69865532  1
  O  O51  1  0.07357313  0.96764462  0.80134468  1
