# generated using pymatgen
data_Ti2(SO4)3
_symmetry_space_group_name_H-M   'P 1'
_cell_length_a   8.66975153
_cell_length_b   12.04669784
_cell_length_c   8.71369004
_cell_angle_alpha   90.00000000
_cell_angle_beta   90.00000000
_cell_angle_gamma   90.49468187
_symmetry_Int_Tables_number   1
_chemical_formula_structural   Ti2(SO4)3
_chemical_formula_sum   'Ti8 S12 O48'
_cell_volume   910.04022403
_cell_formula_units_Z   4
loop_
 _symmetry_equiv_pos_site_id
 _symmetry_equiv_pos_as_xyz
  1  'x, y, z'
loop_
 _atom_site_type_symbol
 _atom_site_label
 _atom_site_symmetry_multiplicity
 _atom_site_fract_x
 _atom_site_fract_y
 _atom_site_fract_z
 _atom_site_occupancy
  Ti  Ti0  1  0.24833088  0.61820957  0.53757053  1
  Ti  Ti1  1  0.25166912  0.88179043  0.03757053  1
  Ti  Ti2  1  0.25090853  0.11652309  0.46183161  1
  Ti  Ti3  1  0.24909147  0.38347691  0.96183161  1
  Ti  Ti4  1  0.75090853  0.61652309  0.03816839  1
  Ti  Ti5  1  0.74909147  0.88347691  0.53816839  1
  Ti  Ti6  1  0.74833088  0.11820957  0.96242947  1
  Ti  Ti7  1  0.75166912  0.38179043  0.46242947  1
  S  S8  1  0.03561416  0.49609256  0.24752660  1
  S  S9  1  0.10125252  0.85146864  0.38707150  1
  S  S10  1  0.10340834  0.14590214  0.10788911  1
  S  S11  1  0.39874748  0.64853136  0.88707150  1
  S  S12  1  0.39659266  0.35409786  0.60788911  1
  S  S13  1  0.46438584  0.00390744  0.74752660  1
  S  S14  1  0.53561416  0.99609256  0.25247340  1
  S  S15  1  0.60340834  0.64590214  0.39211089  1
  S  S16  1  0.60125252  0.35146864  0.11292750  1
  S  S17  1  0.89659166  0.85409786  0.89211089  1
  S  S18  1  0.89874748  0.14853136  0.61292850  1
  S  S19  1  0.96438584  0.50390744  0.75247340  1
  O  O20  1  0.05229993  0.43416976  0.86134239  1
  O  O21  1  0.06767695  0.85951956  0.88933466  1
  O  O22  1  0.06780325  0.59006803  0.68469540  1
  O  O23  1  0.06572399  0.16473385  0.58507027  1
  O  O24  1  0.10033480  0.56901752  0.36678816  1
  O  O25  1  0.13112841  0.82265475  0.22407832  1
  O  O26  1  0.14543553  0.96839585  0.41726970  1
  O  O27  1  0.15355512  0.23031547  0.99468609  1
  O  O28  1  0.15916186  0.17660542  0.26337666  1
  O  O29  1  0.16264438  0.43986324  0.16644921  1
  O  O30  1  0.16849746  0.03789002  0.06173798  1
  O  O31  1  0.19029492  0.77965223  0.49222574  1
  O  O32  1  0.30970508  0.72034777  0.99222574  1
  O  O33  1  0.33150254  0.46210998  0.56173798  1
  O  O34  1  0.33735562  0.06013676  0.66644921  1
  O  O35  1  0.34083814  0.32339458  0.76337666  1
  O  O36  1  0.35456447  0.53160415  0.91726970  1
  O  O37  1  0.34644488  0.26968453  0.49468609  1
  O  O38  1  0.36887159  0.67734525  0.72407832  1
  O  O39  1  0.39966520  0.93098248  0.86678816  1
  O  O40  1  0.43219675  0.90993197  0.18469540  1
  O  O41  1  0.43232305  0.64048044  0.38933466  1
  O  O42  1  0.43427601  0.33526615  0.08507027  1
  O  O43  1  0.44770007  0.06583024  0.36134239  1
  O  O44  1  0.55229993  0.93416976  0.63865761  1
  O  O45  1  0.56572399  0.66473385  0.91492973  1
  O  O46  1  0.56767695  0.35951956  0.61066534  1
  O  O47  1  0.56780325  0.09006803  0.81530460  1
  O  O48  1  0.60033480  0.06901752  0.13321184  1
  O  O49  1  0.63112841  0.32265475  0.27592168  1
  O  O50  1  0.65355512  0.73031547  0.50531391  1
  O  O51  1  0.64543553  0.46839585  0.08273030  1
  O  O52  1  0.65916186  0.67660542  0.23662334  1
  O  O53  1  0.66264438  0.93986324  0.33355079  1
  O  O54  1  0.66849746  0.53789002  0.43826202  1
  O  O55  1  0.69029492  0.27965223  0.00777426  1
  O  O56  1  0.80970508  0.22034777  0.50777426  1
  O  O57  1  0.83150254  0.96210998  0.93826202  1
  O  O58  1  0.83735562  0.56013676  0.83355079  1
  O  O59  1  0.84083814  0.82339458  0.73662334  1
  O  O60  1  0.84644488  0.76968453  0.00531391  1
  O  O61  1  0.85456447  0.03160415  0.58273030  1
  O  O62  1  0.86887159  0.17734525  0.77592168  1
  O  O63  1  0.89966520  0.43098248  0.63321184  1
  O  O64  1  0.93427601  0.83526615  0.41492973  1
  O  O65  1  0.93219675  0.40993197  0.31530460  1
  O  O66  1  0.93232305  0.14048044  0.11066534  1
  O  O67  1  0.94770007  0.56583024  0.13865761  1
