# generated using pymatgen
data_Li(BiO2)2
_symmetry_space_group_name_H-M   'P 1'
_cell_length_a   8.20968493
_cell_length_b   8.20974179
_cell_length_c   6.11689823
_cell_angle_alpha   89.99452030
_cell_angle_beta   90.00618669
_cell_angle_gamma   89.99994690
_symmetry_Int_Tables_number   1
_chemical_formula_structural   Li(BiO2)2
_chemical_formula_sum   'Li4 Bi8 O16'
_cell_volume   412.27522602
_cell_formula_units_Z   4
loop_
 _symmetry_equiv_pos_site_id
 _symmetry_equiv_pos_as_xyz
  1  'x, y, z'
loop_
 _atom_site_type_symbol
 _atom_site_label
 _atom_site_symmetry_multiplicity
 _atom_site_fract_x
 _atom_site_fract_y
 _atom_site_fract_z
 _atom_site_occupancy
  Li  Li0  1  -0.00002644  0.50003922  0.05670379  1
  Li  Li1  1  -0.00004446  0.50002070  0.55670313  1
  Li  Li2  1  0.50002857  -0.00004140  0.94329696  1
  Li  Li3  1  0.50004535  -0.00002617  0.44329575  1
  Bi  Bi4  1  0.17572456  0.17572405  0.25000400  1
  Bi  Bi5  1  0.17572070  0.82428445  0.75001735  1
  Bi  Bi6  1  0.32427734  0.32427521  0.74999394  1
  Bi  Bi7  1  0.32427774  0.67571424  0.24998248  1
  Bi  Bi8  1  0.67571920  0.32427783  0.25001492  1
  Bi  Bi9  1  0.67571290  0.67571428  0.75000453  1
  Bi  Bi10  1  0.82428138  0.17572006  0.74998019  1
  Bi  Bi11  1  0.82428636  0.82428658  0.25000167  1
  O  O12  1  0.08570591  0.27165969  0.58921214  1
  O  O13  1  0.08572414  0.72831920  0.08920124  1
  O  O14  1  0.22834880  0.41429412  0.08920050  1
  O  O15  1  0.22834954  0.58568770  0.58923338  1
  O  O16  1  0.27165391  0.08570331  0.91079090  1
  O  O17  1  0.27165675  0.91430861  0.41076343  1
  O  O18  1  0.41429503  0.22835105  0.41080335  1
  O  O19  1  0.41427725  0.77167554  0.91079502  1
  O  O20  1  0.58568340  0.22835050  0.91076989  1
  O  O21  1  0.58570094  0.77168255  0.41076016  1
  O  O22  1  0.72831106  0.08572499  0.41078778  1
  O  O23  1  0.72831337  0.91429275  0.91076117  1
  O  O24  1  0.77167962  0.41427707  0.58920292  1
  O  O25  1  0.77167946  0.58570994  0.08923483  1
  O  O26  1  0.91431872  0.27166043  0.08924388  1
  O  O27  1  0.91429891  0.72831351  0.58924070  1
