# generated using pymatgen
data_Mg14TiCr
_symmetry_space_group_name_H-M   'P 1'
_cell_length_a   6.32233123
_cell_length_b   6.28799285
_cell_length_c   10.08964157
_cell_angle_alpha   90.00000000
_cell_angle_beta   90.00000000
_cell_angle_gamma   119.82050190
_symmetry_Int_Tables_number   1
_chemical_formula_structural   Mg14TiCr
_chemical_formula_sum   'Mg14 Ti1 Cr1'
_cell_volume   347.99927764
_cell_formula_units_Z   1
loop_
 _symmetry_equiv_pos_site_id
 _symmetry_equiv_pos_as_xyz
  1  'x, y, z'
loop_
 _atom_site_type_symbol
 _atom_site_label
 _atom_site_symmetry_multiplicity
 _atom_site_fract_x
 _atom_site_fract_y
 _atom_site_fract_z
 _atom_site_occupancy
  Mg  Mg0  1  0.16726801  0.33363350  0.62500000  1
  Mg  Mg1  1  0.16696740  0.83348320  0.62500000  1
  Mg  Mg2  1  0.66485157  0.32820590  0.12500000  1
  Mg  Mg3  1  0.66570175  0.33305061  0.62500000  1
  Mg  Mg4  1  0.66485157  0.83664467  0.12500000  1
  Mg  Mg5  1  0.66570175  0.83265014  0.62500000  1
  Mg  Mg6  1  0.32744487  0.16427475  0.36661498  1
  Mg  Mg7  1  0.32744487  0.16427475  0.88338502  1
  Mg  Mg8  1  0.32744487  0.66317112  0.36661498  1
  Mg  Mg9  1  0.32744487  0.66317112  0.88338502  1
  Mg  Mg10  1  0.84015730  0.17007915  0.37251006  1
  Mg  Mg11  1  0.84015730  0.17007915  0.87748994  1
  Mg  Mg12  1  0.83956973  0.66978536  0.36888604  1
  Mg  Mg13  1  0.83956973  0.66978536  0.88111396  1
  Ti  Ti14  1  0.16520704  0.33260302  0.12500000  1
  Cr  Cr15  1  0.17021738  0.83510819  0.12500000  1
