# generated using pymatgen
data_Li4Bi2O5
_symmetry_space_group_name_H-M   'P 1'
_cell_length_a   13.91147265
_cell_length_b   5.37481417
_cell_length_c   8.84370020
_cell_angle_alpha   90.00000000
_cell_angle_beta   90.00000000
_cell_angle_gamma   90.00000000
_symmetry_Int_Tables_number   1
_chemical_formula_structural   Li4Bi2O5
_chemical_formula_sum   'Li16 Bi8 O20'
_cell_volume   661.25743987
_cell_formula_units_Z   4
loop_
 _symmetry_equiv_pos_site_id
 _symmetry_equiv_pos_as_xyz
  1  'x, y, z'
loop_
 _atom_site_type_symbol
 _atom_site_label
 _atom_site_symmetry_multiplicity
 _atom_site_fract_x
 _atom_site_fract_y
 _atom_site_fract_z
 _atom_site_occupancy
  Li  Li0  1  0.03514244  0.44026293  0.86134617  1
  Li  Li1  1  0.03514244  0.05973707  0.63865383  1
  Li  Li2  1  0.25231042  0.25000000  0.75000000  1
  Li  Li3  1  0.25000000  0.50000000  0.03682904  1
  Li  Li4  1  0.25000000  0.00000000  0.46317096  1
  Li  Li5  1  0.24768958  0.75000000  0.75000000  1
  Li  Li6  1  0.46485756  0.94026293  0.63865383  1
  Li  Li7  1  0.46485756  0.55973707  0.86134617  1
  Li  Li8  1  0.53514244  0.44026293  0.13865383  1
  Li  Li9  1  0.53514244  0.05973707  0.36134617  1
  Li  Li10  1  0.75231042  0.25000000  0.25000000  1
  Li  Li11  1  0.75000000  0.00000000  0.53682904  1
  Li  Li12  1  0.75000000  0.50000000  0.96317096  1
  Li  Li13  1  0.74768958  0.75000000  0.25000000  1
  Li  Li14  1  0.96485756  0.94026293  0.36134617  1
  Li  Li15  1  0.96485756  0.55973707  0.13865383  1
  Bi  Bi16  1  0.11817532  0.53055146  0.44711332  1
  Bi  Bi17  1  0.11817532  0.96944854  0.05288668  1
  Bi  Bi18  1  0.38182468  0.03055146  0.05288668  1
  Bi  Bi19  1  0.38182468  0.46944854  0.44711332  1
  Bi  Bi20  1  0.61817532  0.53055146  0.55288668  1
  Bi  Bi21  1  0.61817532  0.96944854  0.94711332  1
  Bi  Bi22  1  0.88182468  0.03055146  0.94711332  1
  Bi  Bi23  1  0.88182468  0.46944854  0.55288668  1
  O  O24  1  0.03759463  0.05878589  0.85862016  1
  O  O25  1  0.03759463  0.44121411  0.64137984  1
  O  O26  1  0.11822614  0.92657529  0.47283421  1
  O  O27  1  0.11822614  0.57342471  0.02716579  1
  O  O28  1  0.25000000  0.00000000  0.89139056  1
  O  O29  1  0.25000000  0.50000000  0.60860944  1
  O  O30  1  0.38177386  0.07342471  0.47283421  1
  O  O31  1  0.38177386  0.42657529  0.02716579  1
  O  O32  1  0.46240537  0.55878589  0.64137984  1
  O  O33  1  0.46240537  0.94121411  0.85862016  1
  O  O34  1  0.53759463  0.05878589  0.14137984  1
  O  O35  1  0.53759463  0.44121411  0.35862016  1
  O  O36  1  0.61822614  0.57342471  0.97283421  1
  O  O37  1  0.61822614  0.92657529  0.52716579  1
  O  O38  1  0.75000000  0.00000000  0.10860944  1
  O  O39  1  0.75000000  0.50000000  0.39139056  1
  O  O40  1  0.88177386  0.07342471  0.52716579  1
  O  O41  1  0.88177386  0.42657529  0.97283421  1
  O  O42  1  0.96240537  0.55878589  0.35862016  1
  O  O43  1  0.96240537  0.94121411  0.14137984  1
