# generated using pymatgen
data_Li3VS4
_symmetry_space_group_name_H-M   'P 1'
_cell_length_a   7.13297450
_cell_length_b   6.98974871
_cell_length_c   12.91653465
_cell_angle_alpha   90.00000000
_cell_angle_beta   101.28968101
_cell_angle_gamma   90.00000000
_symmetry_Int_Tables_number   1
_chemical_formula_structural   Li3VS4
_chemical_formula_sum   'Li12 V4 S16'
_cell_volume   631.52747660
_cell_formula_units_Z   4
loop_
 _symmetry_equiv_pos_site_id
 _symmetry_equiv_pos_as_xyz
  1  'x, y, z'
loop_
 _atom_site_type_symbol
 _atom_site_label
 _atom_site_symmetry_multiplicity
 _atom_site_fract_x
 _atom_site_fract_y
 _atom_site_fract_z
 _atom_site_occupancy
  Li  Li0  1  0.06687446  0.65346345  0.89139600  1
  Li  Li1  1  0.29077523  0.08437922  0.88435823  1
  Li  Li2  1  0.06687446  0.84653655  0.39139600  1
  Li  Li3  1  0.51436545  0.49933395  0.86621299  1
  Li  Li4  1  0.29077523  0.41562078  0.38435823  1
  Li  Li5  1  0.48563455  0.99933395  0.63378701  1
  Li  Li6  1  0.51436545  0.00066605  0.36621299  1
  Li  Li7  1  0.70922477  0.58437922  0.61564177  1
  Li  Li8  1  0.48563455  0.50066605  0.13378701  1
  Li  Li9  1  0.93312554  0.15346345  0.60860400  1
  Li  Li10  1  0.70922477  0.91562078  0.11564177  1
  Li  Li11  1  0.93312554  0.34653655  0.10860400  1
  V  V12  1  0.29512029  0.39120605  0.62234798  1
  V  V13  1  0.29512029  0.10879395  0.12234798  1
  V  V14  1  0.70487971  0.89120605  0.87765202  1
  V  V15  1  0.70487971  0.60879395  0.37765202  1
  S  S16  1  0.09741630  0.40507959  0.72910678  1
  S  S17  1  0.21823777  0.15486549  0.51072073  1
  S  S18  1  0.09741630  0.09492041  0.22910678  1
  S  S19  1  0.30089090  0.65223365  0.53677713  1
  S  S20  1  0.42212401  0.82805815  0.78804179  1
  S  S21  1  0.21823777  0.34513451  0.01072073  1
  S  S22  1  0.57787599  0.32805815  0.71195821  1
  S  S23  1  0.69910910  0.15223365  0.96322287  1
  S  S24  1  0.30089090  0.84776635  0.03677713  1
  S  S25  1  0.42212401  0.67194185  0.28804179  1
  S  S26  1  0.78176223  0.65486549  0.98927927  1
  S  S27  1  0.57787599  0.17194185  0.21195821  1
  S  S28  1  0.69910910  0.34776635  0.46322287  1
  S  S29  1  0.90258370  0.90507959  0.77089322  1
  S  S30  1  0.78176223  0.84513451  0.48927927  1
  S  S31  1  0.90258370  0.59492041  0.27089322  1
