# generated using pymatgen
data_Na2Li4Ti3Al(PO4)6
_symmetry_space_group_name_H-M   'P 1'
_cell_length_a   8.76411715
_cell_length_b   8.78179656
_cell_length_c   8.78035317
_cell_angle_alpha   60.31344308
_cell_angle_beta   60.18779307
_cell_angle_gamma   60.12736390
_symmetry_Int_Tables_number   1
_chemical_formula_structural   Na2Li4Ti3Al(PO4)6
_chemical_formula_sum   'Na2 Li4 Ti3 Al1 P6 O24'
_cell_volume   480.11107771
_cell_formula_units_Z   1
loop_
 _symmetry_equiv_pos_site_id
 _symmetry_equiv_pos_as_xyz
  1  'x, y, z'
loop_
 _atom_site_type_symbol
 _atom_site_label
 _atom_site_symmetry_multiplicity
 _atom_site_fract_x
 _atom_site_fract_y
 _atom_site_fract_z
 _atom_site_occupancy
  Na  Na0  1  0.01229290  0.99886835  0.00887629  1
  Na  Na1  1  0.49589345  0.49066111  0.49870742  1
  Li  Li2  1  0.25325517  0.84166127  0.65300116  1
  Li  Li3  1  0.74784044  0.15083324  0.34201569  1
  Li  Li4  1  0.74846884  0.75894421  0.15247446  1
  Li  Li5  1  0.74837323  0.33965883  0.75973280  1
  Ti  Ti6  1  0.06931923  0.63716388  0.64541636  1
  Ti  Ti7  1  0.43444178  0.85302724  0.86130710  1
  Ti  Ti8  1  0.94574848  0.35199578  0.34947898  1
  Al  Al9  1  0.55086159  0.15145042  0.14956499  1
  P  P10  1  0.25284551  0.24745584  0.53985163  1
  P  P11  1  0.25535221  0.95679778  0.25309863  1
  P  P12  1  0.25427469  0.53748607  0.95820503  1
  P  P13  1  0.74756109  0.45193497  0.04000256  1
  P  P14  1  0.75388721  0.03641592  0.75916327  1
  P  P15  1  0.74205367  0.76017307  0.45589083  1
  O  O16  1  0.06754762  0.11576899  0.29741814  1
  O  O17  1  0.06771599  0.51847922  0.11366695  1
  O  O18  1  0.06671631  0.30014421  0.51496796  1
  O  O19  1  0.25476268  0.07176063  0.71573545  1
  O  O20  1  0.25193748  0.40962093  0.56428353  1
  O  O21  1  0.42740972  0.20427798  0.37133088  1
  O  O22  1  0.26171642  0.92425090  0.09264667  1
  O  O23  1  0.25741123  0.78348050  0.43099882  1
  O  O24  1  0.25834189  0.56105204  0.76948606  1
  O  O25  1  0.57459030  0.62022157  0.01246224  1
  O  O26  1  0.73421751  0.26594878  0.07051494  1
  O  O27  1  0.58494462  0.00286595  0.78753741  1
  O  O28  1  0.42821650  0.00240328  0.20072416  1
  O  O29  1  0.25520477  0.72674871  0.92846483  1
  O  O30  1  0.42839370  0.37257456  0.99823874  1
  O  O31  1  0.75533259  0.41886364  0.22921303  1
  O  O32  1  0.75765091  0.22556336  0.59667487  1
  O  O33  1  0.73626232  0.06666763  0.92986197  1
  O  O34  1  0.56234608  0.79031040  0.62265103  1
  O  O35  1  0.75463492  0.59638055  0.41944202  1
  O  O36  1  0.73170221  0.92948412  0.27123719  1
  O  O37  1  0.91292365  0.73073337  0.48721500  1
  O  O38  1  0.92175094  0.47702670  0.87258950  1
  O  O39  1  0.93580414  0.87184401  0.72485040  1
