# generated using pymatgen
data_Si2Sn2O7
_symmetry_space_group_name_H-M   'P 1'
_cell_length_a   6.68387030
_cell_length_b   6.78906259
_cell_length_c   12.88335272
_cell_angle_alpha   99.01064479
_cell_angle_beta   85.38419399
_cell_angle_gamma   97.12872001
_symmetry_Int_Tables_number   1
_chemical_formula_structural   Si2Sn2O7
_chemical_formula_sum   'Si8 Sn8 O28'
_cell_volume   571.82047616
_cell_formula_units_Z   4
loop_
 _symmetry_equiv_pos_site_id
 _symmetry_equiv_pos_as_xyz
  1  'x, y, z'
loop_
 _atom_site_type_symbol
 _atom_site_label
 _atom_site_symmetry_multiplicity
 _atom_site_fract_x
 _atom_site_fract_y
 _atom_site_fract_z
 _atom_site_occupancy
  Si  Si0  1  0.14222206  0.61782709  0.37324800  1
  Si  Si1  1  0.07462199  0.19574923  0.87123378  1
  Si  Si2  1  0.35654926  0.71711328  0.57437564  1
  Si  Si3  1  0.44355964  0.69464336  0.80087505  1
  Si  Si4  1  0.55644036  0.30535664  0.19912495  1
  Si  Si5  1  0.64345074  0.28288672  0.42562436  1
  Si  Si6  1  0.92537801  0.80425077  0.12876622  1
  Si  Si7  1  0.85777794  0.38217291  0.62675200  1
  Sn  Sn8  1  0.07428510  0.32761354  0.13938369  1
  Sn  Sn9  1  0.15241531  0.08870640  0.34843969  1
  Sn  Sn10  1  0.42795806  0.77732913  0.11223837  1
  Sn  Sn11  1  0.34857938  0.23279911  0.64126478  1
  Sn  Sn12  1  0.65142062  0.76720089  0.35873522  1
  Sn  Sn13  1  0.57204194  0.22267087  0.88776163  1
  Sn  Sn14  1  0.84758469  0.91129360  0.65156031  1
  Sn  Sn15  1  0.92571490  0.67238646  0.86061631  1
  O  O16  1  0.96420420  0.97265820  0.82109654  1
  O  O17  1  0.08478708  0.64039492  0.13676413  1
  O  O18  1  0.04697349  0.25071567  0.62567111  1
  O  O19  1  0.09129841  0.39358808  0.30419857  1
  O  O20  1  0.27381937  0.93002139  0.62009156  1
  O  O21  1  0.14406947  0.20751467  0.98982605  1
  O  O22  1  0.34653728  0.74773599  0.32360315  1
  O  O23  1  0.19271716  0.59180484  0.49346028  1
  O  O24  1  0.23162098  0.69651301  0.87133737  1
  O  O25  1  0.28986679  0.24599019  0.80050500  1
  O  O26  1  0.39672185  0.42276309  0.14566668  1
  O  O27  1  0.43650108  0.09138390  0.22265655  1
  O  O28  1  0.38479370  0.57967765  0.67248404  1
  O  O29  1  0.42216446  0.25798654  0.48847026  1
  O  O30  1  0.57783554  0.74201346  0.51152974  1
  O  O31  1  0.61520630  0.42032235  0.32751596  1
  O  O32  1  0.56349892  0.90861610  0.77734345  1
  O  O33  1  0.60327815  0.57723691  0.85433332  1
  O  O34  1  0.71013321  0.75400981  0.19949500  1
  O  O35  1  0.76837902  0.30348699  0.12866263  1
  O  O36  1  0.80728284  0.40819516  0.50653972  1
  O  O37  1  0.65346272  0.25226401  0.67639685  1
  O  O38  1  0.85593053  0.79248533  0.01017395  1
  O  O39  1  0.72618063  0.06997861  0.37990844  1
  O  O40  1  0.90870159  0.60641192  0.69580143  1
  O  O41  1  0.95302651  0.74928433  0.37432889  1
  O  O42  1  0.91521292  0.35960508  0.86323587  1
  O  O43  1  0.03579580  0.02734180  0.17890346  1
