# generated using pymatgen
data_Sr2CaI6
_symmetry_space_group_name_H-M   'P 1'
_cell_length_a   8.06371018
_cell_length_b   8.03297539
_cell_length_c   12.69599671
_cell_angle_alpha   90.00000000
_cell_angle_beta   108.51596999
_cell_angle_gamma   90.00000000
_symmetry_Int_Tables_number   1
_chemical_formula_structural   Sr2CaI6
_chemical_formula_sum   'Sr4 Ca2 I12'
_cell_volume   779.81971414
_cell_formula_units_Z   2
loop_
 _symmetry_equiv_pos_site_id
 _symmetry_equiv_pos_as_xyz
  1  'x, y, z'
loop_
 _atom_site_type_symbol
 _atom_site_label
 _atom_site_symmetry_multiplicity
 _atom_site_fract_x
 _atom_site_fract_y
 _atom_site_fract_z
 _atom_site_occupancy
  Sr  Sr0  1  0.33321402  0.50000000  0.66642803  1
  Sr  Sr1  1  0.16678598  0.00000000  0.33357197  1
  Sr  Sr2  1  0.66678598  0.50000000  0.33357197  1
  Sr  Sr3  1  0.83321402  0.00000000  0.66642803  1
  Ca  Ca4  1  0.00000000  0.50000000  0.00000000  1
  Ca  Ca5  1  0.50000000  0.00000000  0.00000000  1
  I  I6  1  0.11674098  0.29429308  0.82857163  1
  I  I7  1  0.98127987  0.75000000  0.50000000  1
  I  I8  1  0.21183065  0.79429308  0.82857163  1
  I  I9  1  0.61674098  0.20570692  0.82857163  1
  I  I10  1  0.28816935  0.29429308  0.17142837  1
  I  I11  1  0.51872013  0.25000000  0.50000000  1
  I  I12  1  0.48127987  0.75000000  0.50000000  1
  I  I13  1  0.38325902  0.79429308  0.17142837  1
  I  I14  1  0.71183065  0.70570692  0.82857163  1
  I  I15  1  0.78816935  0.20570692  0.17142837  1
  I  I16  1  0.01872013  0.25000000  0.50000000  1
  I  I17  1  0.88325902  0.70570692  0.17142837  1
