# generated using pymatgen
data_Sn2(SO4)3
_symmetry_space_group_name_H-M   'P 1'
_cell_length_a   12.57573605
_cell_length_b   9.22225385
_cell_length_c   9.06119792
_cell_angle_alpha   90.00000000
_cell_angle_beta   90.00000000
_cell_angle_gamma   90.00000000
_symmetry_Int_Tables_number   1
_chemical_formula_structural   Sn2(SO4)3
_chemical_formula_sum   'Sn8 S12 O48'
_cell_volume   1050.88720037
_cell_formula_units_Z   4
loop_
 _symmetry_equiv_pos_site_id
 _symmetry_equiv_pos_as_xyz
  1  'x, y, z'
loop_
 _atom_site_type_symbol
 _atom_site_label
 _atom_site_symmetry_multiplicity
 _atom_site_fract_x
 _atom_site_fract_y
 _atom_site_fract_z
 _atom_site_occupancy
  Sn  Sn0  1  0.12271382  0.25163142  0.96839032  1
  Sn  Sn1  1  0.12271382  0.74836858  0.46839032  1
  Sn  Sn2  1  0.37728618  0.75163142  0.96839032  1
  Sn  Sn3  1  0.37728618  0.24836858  0.46839032  1
  Sn  Sn4  1  0.62271382  0.24836858  0.03160968  1
  Sn  Sn5  1  0.62271382  0.75163142  0.53160968  1
  Sn  Sn6  1  0.87728618  0.25163142  0.53160968  1
  Sn  Sn7  1  0.87728618  0.74836858  0.03160968  1
  S  S8  1  0.00000000  0.45817049  0.25000000  1
  S  S9  1  0.00000000  0.54182951  0.75000000  1
  S  S10  1  0.14480917  0.09970238  0.60624303  1
  S  S11  1  0.14480917  0.90029762  0.10624303  1
  S  S12  1  0.35519083  0.40029762  0.10624303  1
  S  S13  1  0.35519083  0.59970238  0.60624303  1
  S  S14  1  0.50000000  0.04182951  0.75000000  1
  S  S15  1  0.50000000  0.95817049  0.25000000  1
  S  S16  1  0.64480917  0.40029762  0.39375697  1
  S  S17  1  0.64480917  0.59970238  0.89375697  1
  S  S18  1  0.85519083  0.09970238  0.89375697  1
  S  S19  1  0.85519083  0.90029762  0.39375697  1
  O  O20  1  0.03121326  0.13090360  0.57710135  1
  O  O21  1  0.03121326  0.86909640  0.07710135  1
  O  O22  1  0.05633852  0.54761184  0.36162019  1
  O  O23  1  0.05633852  0.45238816  0.86162019  1
  O  O24  1  0.08278910  0.36494250  0.17916916  1
  O  O25  1  0.08278910  0.63505750  0.67916916  1
  O  O26  1  0.16235222  0.06119056  0.11445980  1
  O  O27  1  0.16235222  0.93880944  0.61445980  1
  O  O28  1  0.18050405  0.16198442  0.74965428  1
  O  O29  1  0.18050405  0.83801558  0.24965428  1
  O  O30  1  0.20920163  0.83730298  0.98248668  1
  O  O31  1  0.20920163  0.16269702  0.48248668  1
  O  O32  1  0.29079837  0.33730298  0.98248668  1
  O  O33  1  0.29079837  0.66269702  0.48248668  1
  O  O34  1  0.31949595  0.66198442  0.74965428  1
  O  O35  1  0.31949595  0.33801558  0.24965428  1
  O  O36  1  0.33764778  0.43880944  0.61445980  1
  O  O37  1  0.33764778  0.56119056  0.11445980  1
  O  O38  1  0.41721090  0.13505750  0.67916916  1
  O  O39  1  0.41721090  0.86494250  0.17916916  1
  O  O40  1  0.44366148  0.04761184  0.36162019  1
  O  O41  1  0.44366148  0.95238816  0.86162019  1
  O  O42  1  0.46878674  0.63090360  0.57710135  1
  O  O43  1  0.46878674  0.36909640  0.07710135  1
  O  O44  1  0.53121326  0.36909640  0.42289865  1
  O  O45  1  0.53121326  0.63090360  0.92289865  1
  O  O46  1  0.55633852  0.04761184  0.13837981  1
  O  O47  1  0.55633852  0.95238816  0.63837981  1
  O  O48  1  0.58278910  0.13505750  0.82083084  1
  O  O49  1  0.58278910  0.86494250  0.32083084  1
  O  O50  1  0.66235222  0.43880944  0.88554020  1
  O  O51  1  0.66235222  0.56119056  0.38554020  1
  O  O52  1  0.68050405  0.33801558  0.25034572  1
  O  O53  1  0.68050405  0.66198442  0.75034572  1
  O  O54  1  0.70920063  0.33730298  0.51751332  1
  O  O55  1  0.70920063  0.66269702  0.01751332  1
  O  O56  1  0.79079937  0.16269702  0.01751332  1
  O  O57  1  0.79079937  0.83730298  0.51751332  1
  O  O58  1  0.81949595  0.16198442  0.75034572  1
  O  O59  1  0.81949595  0.83801558  0.25034572  1
  O  O60  1  0.83764778  0.06119056  0.38554020  1
  O  O61  1  0.83764778  0.93880944  0.88554020  1
  O  O62  1  0.91721090  0.36494250  0.32083084  1
  O  O63  1  0.91721090  0.63505750  0.82083084  1
  O  O64  1  0.94366148  0.45238816  0.63837981  1
  O  O65  1  0.94366148  0.54761184  0.13837981  1
  O  O66  1  0.96878674  0.13090360  0.92289865  1
  O  O67  1  0.96878674  0.86909640  0.42289865  1
