# generated using pymatgen
data_YHoO3
_symmetry_space_group_name_H-M   'P 1'
_cell_length_a   6.42500099
_cell_length_b   6.42512806
_cell_length_c   12.76526025
_cell_angle_alpha   90.00015684
_cell_angle_beta   89.99985915
_cell_angle_gamma   119.99951772
_symmetry_Int_Tables_number   1
_chemical_formula_structural   YHoO3
_chemical_formula_sum   'Y6 Ho6 O18'
_cell_volume   456.37033085
_cell_formula_units_Z   6
loop_
 _symmetry_equiv_pos_site_id
 _symmetry_equiv_pos_as_xyz
  1  'x, y, z'
loop_
 _atom_site_type_symbol
 _atom_site_label
 _atom_site_symmetry_multiplicity
 _atom_site_fract_x
 _atom_site_fract_y
 _atom_site_fract_z
 _atom_site_occupancy
  Y  Y0  1  0.33332711  0.66666428  0.23698749  1
  Y  Y1  1  0.99999411  0.00000823  0.26985153  1
  Y  Y2  1  0.00000094  0.00000181  0.76984947  1
  Y  Y3  1  0.33332611  0.66665832  0.73698799  1
  Y  Y4  1  0.66666011  0.33332753  0.73698774  1
  Y  Y5  1  0.66666355  0.33333663  0.23698648  1
  Ho  Ho6  1  0.99997216  0.66685397  0.50145570  1
  Ho  Ho7  1  0.00001379  0.33314553  0.00145573  1
  Ho  Ho8  1  0.33310235  0.33310170  0.50145878  1
  Ho  Ho9  1  0.66688108  0.66689894  0.00145958  1
  Ho  Ho10  1  0.33311543  0.00001641  0.00145657  1
  Ho  Ho11  1  0.66685485  0.99997737  0.50145658  1
  O  O12  1  0.00000220  0.69328929  0.67494535  1
  O  O13  1  0.99999339  0.63776748  0.32953689  1
  O  O14  1  0.00000433  0.36223225  0.82953663  1
  O  O15  1  0.99999017  0.30671006  0.17494460  1
  O  O16  1  0.33333268  0.66669600  0.02903858  1
  O  O17  1  0.99998092  0.99998237  0.46788298  1
  O  O18  1  0.99999605  0.00002174  0.96788264  1
  O  O19  1  0.33330396  0.66664600  0.52903923  1
  O  O20  1  0.30671240  0.30671334  0.67494723  1
  O  O21  1  0.36223980  0.36224265  0.32953980  1
  O  O22  1  0.30673389  0.00000473  0.17494640  1
  O  O23  1  0.63775503  0.63775803  0.82954303  1
  O  O24  1  0.69327993  0.69329055  0.17495153  1
  O  O25  1  0.36222414  0.00000026  0.82953925  1
  O  O26  1  0.66665357  0.33331021  0.52903677  1
  O  O27  1  0.66667291  0.33334623  0.02903760  1
  O  O28  1  0.63775943  0.00000598  0.32953479  1
  O  O29  1  0.69325461  0.99999412  0.67494507  1
