# generated using pymatgen
data_LiSn2(SO4)3
_symmetry_space_group_name_H-M   'P 1'
_cell_length_a   9.36301909
_cell_length_b   9.36301909
_cell_length_c   9.36301899
_cell_angle_alpha   58.90640228
_cell_angle_beta   58.90640228
_cell_angle_gamma   58.90640407
_symmetry_Int_Tables_number   1
_chemical_formula_structural   LiSn2(SO4)3
_chemical_formula_sum   'Li2 Sn4 S6 O24'
_cell_volume   565.92070087
_cell_formula_units_Z   2
loop_
 _symmetry_equiv_pos_site_id
 _symmetry_equiv_pos_as_xyz
  1  'x, y, z'
loop_
 _atom_site_type_symbol
 _atom_site_label
 _atom_site_symmetry_multiplicity
 _atom_site_fract_x
 _atom_site_fract_y
 _atom_site_fract_z
 _atom_site_occupancy
  Li  Li0  1  0.00000000  0.00000000  0.00000000  1
  Li  Li1  1  0.50000000  0.50000000  0.50000000  1
  Sn  Sn2  1  0.35305466  0.35305466  0.35305466  1
  Sn  Sn3  1  0.14694534  0.14694534  0.14694534  1
  Sn  Sn4  1  0.64694534  0.64694534  0.64694534  1
  Sn  Sn5  1  0.85305466  0.85305466  0.85305466  1
  S  S6  1  0.06316407  0.75000000  0.43683593  1
  S  S7  1  0.56316407  0.93683593  0.25000000  1
  S  S8  1  0.25000000  0.56316407  0.93683593  1
  S  S9  1  0.75000000  0.43683593  0.06316407  1
  S  S10  1  0.43683593  0.06316407  0.75000000  1
  S  S11  1  0.93683593  0.25000000  0.56316407  1
  O  O12  1  0.07285063  0.89320030  0.25707651  1
  O  O13  1  0.10679970  0.74292349  0.92714937  1
  O  O14  1  0.48285200  0.93146761  0.67730049  1
  O  O15  1  0.56853239  0.01714800  0.82269951  1
  O  O16  1  0.24292349  0.60679970  0.42714937  1
  O  O17  1  0.57285063  0.75707651  0.39320030  1
  O  O18  1  0.74292349  0.92714937  0.10679970  1
  O  O19  1  0.98285200  0.17730049  0.43146761  1
  O  O20  1  0.32269951  0.51714800  0.06853239  1
  O  O21  1  0.06853239  0.32269951  0.51714800  1
  O  O22  1  0.17730049  0.43146761  0.98285200  1
  O  O23  1  0.39320030  0.57285063  0.75707651  1
  O  O24  1  0.60679970  0.42714937  0.24292349  1
  O  O25  1  0.93146761  0.67730049  0.48285200  1
  O  O26  1  0.82269951  0.56853239  0.01714800  1
  O  O27  1  0.01714800  0.82269951  0.56853239  1
  O  O28  1  0.67730049  0.48285200  0.93146761  1
  O  O29  1  0.25707651  0.07285063  0.89320030  1
  O  O30  1  0.42714937  0.24292349  0.60679970  1
  O  O31  1  0.75707651  0.39320030  0.57285063  1
  O  O32  1  0.51714800  0.06853239  0.32269951  1
  O  O33  1  0.43146761  0.98285200  0.17730049  1
  O  O34  1  0.89320030  0.25707651  0.07285063  1
  O  O35  1  0.92714937  0.10679970  0.74292349  1
