# generated using pymatgen
data_Li4TiV8O18
_symmetry_space_group_name_H-M   'P 1'
_cell_length_a   9.11028207
_cell_length_b   25.10500656
_cell_length_c   2.96818158
_cell_angle_alpha   89.62916265
_cell_angle_beta   90.12710173
_cell_angle_gamma   90.72692723
_symmetry_Int_Tables_number   1
_chemical_formula_structural   Li4TiV8O18
_chemical_formula_sum   'Li8 Ti2 V16 O36'
_cell_volume   678.79336141
_cell_formula_units_Z   2
loop_
 _symmetry_equiv_pos_site_id
 _symmetry_equiv_pos_as_xyz
  1  'x, y, z'
loop_
 _atom_site_type_symbol
 _atom_site_label
 _atom_site_symmetry_multiplicity
 _atom_site_fract_x
 _atom_site_fract_y
 _atom_site_fract_z
 _atom_site_occupancy
  Li  Li0  1  0.18367932  0.99114673  0.99891450  1
  Li  Li1  1  0.16275350  0.20807855  0.00083459  1
  Li  Li2  1  0.32598249  0.69900193  0.99606635  1
  Li  Li3  1  0.31247534  0.48935157  0.00291547  1
  Li  Li4  1  0.69791398  0.51863075  0.00014452  1
  Li  Li5  1  0.70186369  0.31229820  0.00395644  1
  Li  Li6  1  0.80333344  0.80927704  0.99968028  1
  Li  Li7  1  0.81046602  0.01510281  0.98437816  1
  Ti  Ti8  1  0.48524917  0.39692408  0.00206064  1
  Ti  Ti9  1  0.01237450  0.89829040  0.01730510  1
  V  V10  1  0.00393879  0.49939299  0.00089859  1
  V  V11  1  0.99090384  0.10449593  0.00412334  1
  V  V12  1  0.00691837  0.31168006  0.00838215  1
  V  V13  1  0.16108131  0.58482445  0.49934068  1
  V  V14  1  0.15281078  0.80492587  0.51429165  1
  V  V15  1  0.34484220  0.30217583  0.50658940  1
  V  V16  1  0.34234351  0.08424104  0.49135702  1
  V  V17  1  0.49062865  0.80935511  0.99848049  1
  V  V18  1  0.51215644  0.60254730  0.00318114  1
  V  V19  1  0.49892752  0.99625399  0.99706269  1
  V  V20  1  0.51304916  0.18984660  0.00104035  1
  V  V21  1  0.66182693  0.91529882  0.50026226  1
  V  V22  1  0.65483704  0.69515001  0.49944163  1
  V  V23  1  0.84351250  0.19472324  0.49237102  1
  V  V24  1  0.84125045  0.41565348  0.50343986  1
  V  V25  1  0.99509886  0.68758853  0.99483666  1
  O  O26  1  0.99265133  0.42347123  0.00398476  1
  O  O27  1  0.01121651  0.57498298  0.99860916  1
  O  O28  1  0.07267509  0.94212412  0.50485250  1
  O  O29  1  0.04436828  0.15917431  0.50772253  1
  O  O30  1  0.12280488  0.66243147  0.49652181  1
  O  O31  1  0.10368763  0.75615430  0.98309508  1
  O  O32  1  0.15223227  0.50229370  0.50206709  1
  O  O33  1  0.13822669  0.28391545  0.50772611  1
  O  O34  1  0.19532525  0.85515394  0.01835837  1
  O  O35  1  0.20128549  0.07903719  0.98887917  1
  O  O36  1  0.31203692  0.58221789  0.00085835  1
  O  O37  1  0.30310702  0.35239504  0.00272903  1
  O  O38  1  0.36164281  0.78325657  0.49563875  1
  O  O39  1  0.34936112  0.00361932  0.49598982  1
  O  O40  1  0.37902359  0.25225350  0.00775764  1
  O  O41  1  0.38800682  0.15591115  0.49881049  1
  O  O42  1  0.46265631  0.66012943  0.49941225  1
  O  O43  1  0.42958429  0.43956848  0.50051977  1
  O  O44  1  0.48551861  0.07345452  0.99379096  1
  O  O45  1  0.50518227  0.92314450  0.99960810  1
  O  O46  1  0.56947485  0.55754596  0.50568782  1
  O  O47  1  0.53357521  0.33817904  0.50798694  1
  O  O48  1  0.62379840  0.83746726  0.49873850  1
  O  O49  1  0.60850394  0.74268896  0.99726446  1
  O  O50  1  0.64484755  0.99715563  0.49762086  1
  O  O51  1  0.63379622  0.21606393  0.50294513  1
  O  O52  1  0.69044547  0.64278176  0.00172887  1
  O  O53  1  0.68933674  0.41471547  0.00286118  1
  O  O54  1  0.81024587  0.91980386  0.00047532  1
  O  O55  1  0.80164288  0.14420224  0.98296471  1
  O  O56  1  0.85779296  0.71057262  0.49434784  1
  O  O57  1  0.85463949  0.49712253  0.50004178  1
  O  O58  1  0.89579371  0.24394830  0.01826509  1
  O  O59  1  0.87404032  0.33673515  0.50663240  1
  O  O60  1  0.95712991  0.84252692  0.49888705  1
  O  O61  1  0.93412654  0.05755002  0.45526532  1
