# generated using pymatgen
data_Li4Ti2V7O18
_symmetry_space_group_name_H-M   'P 1'
_cell_length_a   9.11047770
_cell_length_b   25.12551821
_cell_length_c   2.96809114
_cell_angle_alpha   89.99774972
_cell_angle_beta   90.00087814
_cell_angle_gamma   89.95746948
_symmetry_Int_Tables_number   1
_chemical_formula_structural   Li4Ti2V7O18
_chemical_formula_sum   'Li8 Ti4 V14 O36'
_cell_volume   679.41211937
_cell_formula_units_Z   2
loop_
 _symmetry_equiv_pos_site_id
 _symmetry_equiv_pos_as_xyz
  1  'x, y, z'
loop_
 _atom_site_type_symbol
 _atom_site_label
 _atom_site_symmetry_multiplicity
 _atom_site_fract_x
 _atom_site_fract_y
 _atom_site_fract_z
 _atom_site_occupancy
  Li  Li0  1  0.19226706  0.98900963  -0.00000004  1
  Li  Li1  1  0.18394863  0.19522757  0.00000130  1
  Li  Li2  1  0.31194045  0.69566610  0.00000081  1
  Li  Li3  1  0.30711853  0.48863300  0.00000049  1
  Li  Li4  1  0.69378274  0.51059284  0.99999662  1
  Li  Li5  1  0.68954354  0.30790976  -0.00000018  1
  Li  Li6  1  0.81174584  0.80730420  0.00000388  1
  Li  Li7  1  0.80586411  0.01122791  -0.00000053  1
  Ti  Ti8  1  -0.01079414  0.10189292  0.99999514  1
  Ti  Ti9  1  0.51023952  0.60185867  0.99999645  1
  Ti  Ti10  1  0.49539884  0.39873910  0.00000787  1
  Ti  Ti11  1  0.00541958  0.89884598  0.00002853  1
  V  V12  1  0.00023083  0.50027635  -0.00000158  1
  V  V13  1  0.01222942  0.30854025  -0.00000062  1
  V  V14  1  0.15512210  0.58552502  0.49999558  1
  V  V15  1  0.15030162  0.80480840  0.50024022  1
  V  V16  1  0.34928445  0.30562819  0.50002374  1
  V  V17  1  0.34480293  0.08556176  0.49999789  1
  V  V18  1  0.48747273  0.80907141  -0.00000281  1
  V  V19  1  0.50007659  -0.00012622  0.00000065  1
  V  V20  1  0.51344299  0.18993977  -0.00000215  1
  V  V21  1  0.65231730  0.91434668  0.50000453  1
  V  V22  1  0.65030297  0.69512553  0.49999970  1
  V  V23  1  0.84878617  0.19512516  0.50000014  1
  V  V24  1  0.84943259  0.41429733  0.50000054  1
  V  V25  1  0.98541387  0.68940460  0.99997993  1
  O  O26  1  0.99690104  0.42440871  0.00000298  1
  O  O27  1  0.00548045  0.57553873  0.99999418  1
  O  O28  1  0.06450057  0.94192698  0.50001207  1
  O  O29  1  0.04113428  0.15914466  0.50000470  1
  O  O30  1  0.11566937  0.66323726  0.49998797  1
  O  O31  1  0.10123935  0.75606387  0.99971734  1
  O  O32  1  0.14932064  0.50378300  0.50000163  1
  O  O33  1  0.14339722  0.28505354  0.49999370  1
  O  O34  1  0.19042393  0.85428729  0.00015559  1
  O  O35  1  0.19522883  0.08387659  0.00000008  1
  O  O36  1  0.30588192  0.58413657  0.99999961  1
  O  O37  1  0.30871022  0.35544180  0.00001604  1
  O  O38  1  0.35738156  0.78524132  0.49990333  1
  O  O39  1  0.35117043  0.00361229  0.50000078  1
  O  O40  1  0.40006417  0.25675397  0.99997323  1
  O  O41  1  0.38385204  0.16320651  0.49999812  1
  O  O42  1  0.45899289  0.65957667  0.49999873  1
  O  O43  1  0.43596705  0.44230206  0.49999528  1
  O  O44  1  0.49436352  0.07523806  0.00000011  1
  O  O45  1  0.50371986  0.92431023  0.00000420  1
  O  O46  1  0.56507423  0.55819687  0.50000773  1
  O  O47  1  0.54411634  0.34235610  0.50000052  1
  O  O48  1  0.61832919  0.83615467  0.49999456  1
  O  O49  1  0.59950149  0.74151212  -0.00000890  1
  O  O50  1  0.64836657  0.99631979  0.50000142  1
  O  O51  1  0.64613590  0.21429993  0.49999635  1
  O  O52  1  0.69142419  0.64394527  0.00000452  1
  O  O53  1  0.69709461  0.41703750  -0.00000166  1
  O  O54  1  0.80361006  0.91718602  0.00000535  1
  O  O55  1  0.80808568  0.14383793  0.00000425  1
  O  O56  1  0.85225311  0.71433160  0.49998444  1
  O  O57  1  0.85221515  0.49646664  0.49999558  1
  O  O58  1  0.90264616  0.24108022  -0.00000319  1
  O  O59  1  0.88043867  0.33560468  0.49999650  1
  O  O60  1  0.95588361  0.84219040  0.49998994  1
  O  O61  1  0.93573442  0.05790825  0.50000681  1
