# generated using pymatgen
data_VBO4
_symmetry_space_group_name_H-M   'P 1'
_cell_length_a   5.03626957
_cell_length_b   5.04700532
_cell_length_c   10.77825943
_cell_angle_alpha   90.00000000
_cell_angle_beta   83.84859371
_cell_angle_gamma   90.00000000
_symmetry_Int_Tables_number   1
_chemical_formula_structural   VBO4
_chemical_formula_sum   'V4 B4 O16'
_cell_volume   272.38523140
_cell_formula_units_Z   4
loop_
 _symmetry_equiv_pos_site_id
 _symmetry_equiv_pos_as_xyz
  1  'x, y, z'
loop_
 _atom_site_type_symbol
 _atom_site_label
 _atom_site_symmetry_multiplicity
 _atom_site_fract_x
 _atom_site_fract_y
 _atom_site_fract_z
 _atom_site_occupancy
  V  V0  1  0.11331232  0.75776318  0.57323767  1
  V  V1  1  0.61331232  0.74223682  0.07323767  1
  V  V2  1  0.38668768  0.25776318  0.92676233  1
  V  V3  1  0.88668768  0.24223682  0.42676233  1
  B  B4  1  0.89832439  0.97121464  0.82843278  1
  B  B5  1  0.60167561  0.47121464  0.67156722  1
  B  B6  1  0.39832439  0.52878536  0.32843278  1
  B  B7  1  0.10167561  0.02878536  0.17156722  1
  O  O8  1  0.10581068  0.15429385  0.28275113  1
  O  O9  1  0.17917479  0.55391221  0.41951387  1
  O  O10  1  0.32082521  0.05391221  0.08048613  1
  O  O11  1  0.23218372  0.04968401  0.52621524  1
  O  O12  1  0.39418932  0.65429385  0.21724887  1
  O  O13  1  0.12295528  0.10780502  0.85547831  1
  O  O14  1  0.37704472  0.60780502  0.64452169  1
  O  O15  1  0.26781628  0.54968401  0.97378476  1
  O  O16  1  0.73218372  0.45031599  0.02621524  1
  O  O17  1  0.62295528  0.39219498  0.35547831  1
  O  O18  1  0.87704472  0.89219498  0.14452169  1
  O  O19  1  0.60581068  0.34570615  0.78275113  1
  O  O20  1  0.76781628  0.95031599  0.47378476  1
  O  O21  1  0.67917479  0.94608779  0.91951387  1
  O  O22  1  0.82082521  0.44608779  0.58048613  1
  O  O23  1  0.89418932  0.84570615  0.71724887  1
