# generated using pymatgen
data_Li4Ti4Cr(Fe2O9)2
_symmetry_space_group_name_H-M   'P 1'
_cell_length_a   9.25280597
_cell_length_b   25.24874194
_cell_length_c   2.94462970
_cell_angle_alpha   90.00000000
_cell_angle_beta   90.00000000
_cell_angle_gamma   90.00000000
_symmetry_Int_Tables_number   1
_chemical_formula_structural   Li4Ti4Cr(Fe2O9)2
_chemical_formula_sum   'Li8 Ti8 Cr2 Fe8 O36'
_cell_volume   687.92942629
_cell_formula_units_Z   2
loop_
 _symmetry_equiv_pos_site_id
 _symmetry_equiv_pos_as_xyz
  1  'x, y, z'
loop_
 _atom_site_type_symbol
 _atom_site_label
 _atom_site_symmetry_multiplicity
 _atom_site_fract_x
 _atom_site_fract_y
 _atom_site_fract_z
 _atom_site_occupancy
  Li  Li0  1  0.19623738  0.98991568  0.00000000  1
  Li  Li1  1  0.19874278  0.18444142  0.00000000  1
  Li  Li2  1  0.30125722  0.68444142  0.00000000  1
  Li  Li3  1  0.30376262  0.48991568  0.00000000  1
  Li  Li4  1  0.69623738  0.51008432  0.00000000  1
  Li  Li5  1  0.69874278  0.31555858  0.00000000  1
  Li  Li6  1  0.80125722  0.81555858  0.00000000  1
  Li  Li7  1  0.80376262  0.01008432  0.00000000  1
  Ti  Ti8  1  -0.00169745  0.09955543  0.00000000  1
  Ti  Ti9  1  0.15757563  0.80905651  0.50000000  1
  Ti  Ti10  1  0.34242437  0.30905651  0.50000000  1
  Ti  Ti11  1  0.50169745  0.59955543  0.00000000  1
  Ti  Ti12  1  0.49830255  0.40044457  0.00000000  1
  Ti  Ti13  1  0.65757563  0.69094349  0.50000000  1
  Ti  Ti14  1  0.84242437  0.19094349  0.50000000  1
  Ti  Ti15  1  0.00169745  0.90044457  0.00000000  1
  Cr  Cr16  1  0.00000000  0.50000000  0.00000000  1
  Cr  Cr17  1  0.50000000  0.00000000  0.00000000  1
  Fe  Fe18  1  -0.00098081  0.30767249  0.00000000  1
  Fe  Fe19  1  0.15071369  0.58651133  0.50000000  1
  Fe  Fe20  1  0.34928631  0.08651133  0.50000000  1
  Fe  Fe21  1  0.50098081  0.80767249  0.00000000  1
  Fe  Fe22  1  0.49901919  0.19232751  0.00000000  1
  Fe  Fe23  1  0.65071369  0.91348867  0.50000000  1
  Fe  Fe24  1  0.84928631  0.41348867  0.50000000  1
  Fe  Fe25  1  0.00098081  0.69232751  0.00000000  1
  O  O26  1  0.99262461  0.42419442  0.00000000  1
  O  O27  1  0.00737539  0.57580558  0.00000000  1
  O  O28  1  0.06138107  0.94387400  0.50000000  1
  O  O29  1  0.04232842  0.15662295  0.50000000  1
  O  O30  1  0.13279742  0.66564072  0.50000000  1
  O  O31  1  0.10566041  0.75981196  0.00000000  1
  O  O32  1  0.14353512  0.50317200  0.50000000  1
  O  O33  1  0.13769120  0.29390730  0.50000000  1
  O  O34  1  0.18555765  0.85842386  0.00000000  1
  O  O35  1  0.19911520  0.08223512  0.00000000  1
  O  O36  1  0.30088480  0.58223512  0.00000000  1
  O  O37  1  0.31444235  0.35842386  0.00000000  1
  O  O38  1  0.36230880  0.79390730  0.50000000  1
  O  O39  1  0.35646488  0.00317200  0.50000000  1
  O  O40  1  0.39433959  0.25981196  0.00000000  1
  O  O41  1  0.36720258  0.16564072  0.50000000  1
  O  O42  1  0.45767158  0.65662295  0.50000000  1
  O  O43  1  0.43861893  0.44387400  0.50000000  1
  O  O44  1  0.49262461  0.07580558  0.00000000  1
  O  O45  1  0.50737539  0.92419442  0.00000000  1
  O  O46  1  0.56138107  0.55612600  0.50000000  1
  O  O47  1  0.54232842  0.34337705  0.50000000  1
  O  O48  1  0.63279742  0.83435928  0.50000000  1
  O  O49  1  0.60566041  0.74018804  0.00000000  1
  O  O50  1  0.64353512  0.99682800  0.50000000  1
  O  O51  1  0.63769120  0.20609270  0.50000000  1
  O  O52  1  0.68555765  0.64157614  0.00000000  1
  O  O53  1  0.69911520  0.41776388  0.00000000  1
  O  O54  1  0.80088480  0.91776488  0.00000000  1
  O  O55  1  0.81444235  0.14157614  0.00000000  1
  O  O56  1  0.86230880  0.70609270  0.50000000  1
  O  O57  1  0.85646488  0.49682800  0.50000000  1
  O  O58  1  0.89433959  0.24018804  0.00000000  1
  O  O59  1  0.86720258  0.33435928  0.50000000  1
  O  O60  1  0.95767158  0.84337705  0.50000000  1
  O  O61  1  0.93861893  0.05612600  0.50000000  1
