# generated using pymatgen
data_Li4Ti4Mn(Co2O9)2
_symmetry_space_group_name_H-M   'P 1'
_cell_length_a   9.00908088
_cell_length_b   24.67093154
_cell_length_c   2.88783965
_cell_angle_alpha   89.97972775
_cell_angle_beta   89.93705518
_cell_angle_gamma   90.01515567
_symmetry_Int_Tables_number   1
_chemical_formula_structural   Li4Ti4Mn(Co2O9)2
_chemical_formula_sum   'Li8 Ti8 Mn2 Co8 O36'
_cell_volume   641.85777163
_cell_formula_units_Z   2
loop_
 _symmetry_equiv_pos_site_id
 _symmetry_equiv_pos_as_xyz
  1  'x, y, z'
loop_
 _atom_site_type_symbol
 _atom_site_label
 _atom_site_symmetry_multiplicity
 _atom_site_fract_x
 _atom_site_fract_y
 _atom_site_fract_z
 _atom_site_occupancy
  Li  Li0  1  0.17827033  0.99408570  0.00005556  1
  Li  Li1  1  0.20354239  0.19789378  0.99990873  1
  Li  Li2  1  0.29498068  0.69787109  0.00005726  1
  Li  Li3  1  0.32183470  0.49414967  0.99996019  1
  Li  Li4  1  0.67820224  0.50589259  0.00003547  1
  Li  Li5  1  0.70419352  0.30210794  0.99993313  1
  Li  Li6  1  0.79623063  0.80199600  0.00000391  1
  Li  Li7  1  0.82173935  0.00588145  0.99994805  1
  Ti  Ti8  1  0.01793735  0.10300124  0.99993927  1
  Ti  Ti9  1  0.15272812  0.80639841  0.50000169  1
  Ti  Ti10  1  0.34705471  0.30662886  0.50005368  1
  Ti  Ti11  1  0.48226595  0.60314676  0.00000159  1
  Ti  Ti12  1  0.51812564  0.39695488  0.00000737  1
  Ti  Ti13  1  0.65263515  0.69355780  0.49996716  1
  Ti  Ti14  1  0.84765921  0.19345339  0.49988895  1
  Ti  Ti15  1  0.98224422  0.89687477  0.00008220  1
  Mn  Mn16  1  0.00007672  0.50003049  0.00000818  1
  Mn  Mn17  1  0.50009989  0.99989889  0.00005857  1
  Co  Co18  1  0.01037983  0.31456140  0.99970261  1
  Co  Co19  1  0.13589109  0.58514669  0.49992566  1
  Co  Co20  1  0.36406898  0.08498833  0.49957183  1
  Co  Co21  1  0.48958901  0.81458596  0.00013430  1
  Co  Co22  1  0.50957143  0.18650524  0.99916234  1
  Co  Co23  1  0.63592738  0.91484693  0.50010630  1
  Co  Co24  1  0.86428110  0.41485724  0.49973744  1
  Co  Co25  1  0.98942769  0.68539103  0.99996877  1
  O  O26  1  0.00209001  0.42220289  0.99952457  1
  O  O27  1  0.99794750  0.57779275  0.00023279  1
  O  O28  1  0.03759046  0.94371552  0.49974489  1
  O  O29  1  0.05637756  0.16147338  0.49989438  1
  O  O30  1  0.11199438  0.66052856  0.49977168  1
  O  O31  1  0.11739772  0.75534540  0.00006688  1
  O  O32  1  0.14552621  0.50581113  0.49975705  1
  O  O33  1  0.13441799  0.29124265  0.50124785  1
  O  O34  1  0.17812873  0.85878896  0.99960735  1
  O  O35  1  0.22240950  0.08536460  0.00027536  1
  O  O36  1  0.27736577  0.58543626  0.99974001  1
  O  O37  1  0.32171732  0.35884292  0.00044362  1
  O  O38  1  0.36550896  0.79118734  0.49961282  1
  O  O39  1  0.35450255  0.00579294  0.50043059  1
  O  O40  1  0.38257283  0.25556161  0.00023496  1
  O  O41  1  0.38879544  0.16034163  0.49622835  1
  O  O42  1  0.44379342  0.66141739  0.50017519  1
  O  O43  1  0.46259932  0.44373114  0.49997188  1
  O  O44  1  0.50172652  0.07737675  0.99961475  1
  O  O45  1  0.49801995  0.92213206  0.00041019  1
  O  O46  1  0.53743910  0.55629108  0.50004368  1
  O  O47  1  0.55630749  0.33859332  0.49992431  1
  O  O48  1  0.61178114  0.83953980  0.50027792  1
  O  O49  1  0.61774555  0.74460618  0.99991849  1
  O  O50  1  0.64555751  0.99417976  0.49968285  1
  O  O51  1  0.63424412  0.20877855  0.50427134  1
  O  O52  1  0.67832927  0.64116666  0.99990610  1
  O  O53  1  0.72266855  0.41455889  0.00009662  1
  O  O54  1  0.77747976  0.91458259  0.99982957  1
  O  O55  1  0.82200603  0.14119762  0.00073168  1
  O  O56  1  0.86565927  0.70871930  0.50007237  1
  O  O57  1  0.85460186  0.49416517  0.50027925  1
  O  O58  1  0.88248151  0.24455087  0.00027970  1
  O  O59  1  0.88813564  0.33949624  0.49902210  1
  O  O60  1  0.94368029  0.83852534  0.50019724  1
  O  O61  1  0.96244348  0.05625619  0.50026142  1
