# generated using pymatgen
data_MnPO4
_symmetry_space_group_name_H-M   'P 1'
_cell_length_a   5.13192919
_cell_length_b   5.13219677
_cell_length_c   11.81022000
_cell_angle_alpha   90.00393501
_cell_angle_beta   89.99631527
_cell_angle_gamma   120.00894663
_symmetry_Int_Tables_number   1
_chemical_formula_structural   MnPO4
_chemical_formula_sum   'Mn3 P3 O12'
_cell_volume   269.36019209
_cell_formula_units_Z   3
loop_
 _symmetry_equiv_pos_site_id
 _symmetry_equiv_pos_as_xyz
  1  'x, y, z'
loop_
 _atom_site_type_symbol
 _atom_site_label
 _atom_site_symmetry_multiplicity
 _atom_site_fract_x
 _atom_site_fract_y
 _atom_site_fract_z
 _atom_site_occupancy
  Mn  Mn0  1  0.99997293  0.45189840  0.66666954  1
  Mn  Mn1  1  0.54833713  0.54835485  0.00002944  1
  Mn  Mn2  1  0.45183612  0.00000831  0.33331262  1
  P  P3  1  0.00000706  0.44918700  0.16665880  1
  P  P4  1  0.55076272  0.55075859  0.49998906  1
  P  P5  1  0.44920186  0.99999573  0.83336280  1
  O  O6  1  0.10492978  0.67421625  0.26684190  1
  O  O7  1  0.14612992  0.73494964  0.79395182  1
  O  O8  1  0.26504051  0.41124904  0.12723227  1
  O  O9  1  0.32572542  0.43068051  0.60017402  1
  O  O10  1  0.56930891  0.89507441  0.93353709  1
  O  O11  1  0.58873336  0.85373458  0.46056532  1
  O  O12  1  0.43067969  0.32571801  0.39980483  1
  O  O13  1  0.41129000  0.26502609  0.87279807  1
  O  O14  1  0.85379127  0.58878547  0.53940762  1
  O  O15  1  0.89507896  0.56929229  0.06648974  1
  O  O16  1  0.67422809  0.10492695  0.73317533  1
  O  O17  1  0.73494727  0.14614390  0.20606774  1
