# generated using pymatgen
data_Li5Nb3OF18
_symmetry_space_group_name_H-M   'P 1'
_cell_length_a   8.25249084
_cell_length_b   10.03120015
_cell_length_c   10.03043328
_cell_angle_alpha   99.71986742
_cell_angle_beta   114.27075904
_cell_angle_gamma   65.70872114
_symmetry_Int_Tables_number   1
_chemical_formula_structural   Li5Nb3OF18
_chemical_formula_sum   'Li10 Nb6 O2 F36'
_cell_volume   689.93573287
_cell_formula_units_Z   2
loop_
 _symmetry_equiv_pos_site_id
 _symmetry_equiv_pos_as_xyz
  1  'x, y, z'
loop_
 _atom_site_type_symbol
 _atom_site_label
 _atom_site_symmetry_multiplicity
 _atom_site_fract_x
 _atom_site_fract_y
 _atom_site_fract_z
 _atom_site_occupancy
  Li  Li0  1  0.90832193  0.32299109  0.15639102  1
  Li  Li1  1  0.57784721  0.15663866  0.32445532  1
  Li  Li2  1  0.73762617  0.67382911  0.15692452  1
  Li  Li3  1  0.75286985  0.15733858  0.67456672  1
  Li  Li4  1  0.36939917  0.50083927  0.50000641  1
  Li  Li5  1  0.86942524  0.49996176  0.49933162  1
  Li  Li6  1  0.23734731  0.84328374  0.32606987  1
  Li  Li7  1  0.25313432  0.32546087  0.84288671  1
  Li  Li8  1  0.40866735  0.84372073  0.67688159  1
  Li  Li9  1  0.07793886  0.67561878  0.84343728  1
  Nb  Nb10  1  0.24547451  0.00024307  0.00004550  1
  Nb  Nb11  1  0.74560038  0.99998851  -0.00010741  1
  Nb  Nb12  1  0.31283163  0.49989912  0.16401301  1
  Nb  Nb13  1  0.14931406  0.16391446  0.50023506  1
  Nb  Nb14  1  0.64930351  0.49970975  0.83600673  1
  Nb  Nb15  1  0.81270585  0.83602652  0.50005942  1
  O  O16  1  0.02838070  0.99980081  0.99979108  1
  O  O17  1  0.52846855  -0.00000914  0.00025735  1
  F  F18  1  0.26025400  0.17135644  0.12484488  1
  F  F19  1  0.80696027  0.12533112  0.17117854  1
  F  F20  1  0.44264596  0.31976197  0.07956103  1
  F  F21  1  0.18254006  0.07912368  0.31967540  1
  F  F22  1  0.13965112  0.50029471  0.94369362  1
  F  F23  1  0.19654129  0.94350781  0.50063447  1
  F  F24  1  0.08009522  0.50129031  0.17390485  1
  F  F25  1  0.90678085  0.17360632  0.50055095  1
  F  F26  1  0.42904695  0.36138261  0.33775765  1
  F  F27  1  0.95268102  0.33747442  0.36109239  1
  F  F28  1  0.56909299  0.50026102  0.26184440  1
  F  F29  1  0.30745521  0.26124611  0.50021037  1
  F  F30  1  0.26231183  0.68092770  0.07927929  1
  F  F31  1  0.36283458  0.07964465  0.68133756  1
  F  F32  1  0.13576795  0.12512102  0.82871300  1
  F  F33  1  0.93189618  0.82843012  0.12488468  1
  F  F34  1  0.29080358  0.63925739  0.33812245  1
  F  F35  1  0.09124433  0.33828508  0.63853943  1
  F  F36  1  0.59093111  0.36173982  0.66158636  1
  F  F37  1  0.79067179  0.66186594  0.36095667  1
  F  F38  1  0.63542282  0.17125635  0.87475467  1
  F  F39  1  0.43173959  0.87508895  0.17153533  1
  F  F40  1  0.76215949  0.92058328  0.31916867  1
  F  F41  1  0.86237156  0.31873522  0.91991272  1
  F  F42  1  0.80731515  0.49988675  0.73857883  1
  F  F43  1  0.06904008  0.73797264  0.49966261  1
  F  F44  1  0.92918882  0.66218760  0.63879759  1
  F  F45  1  0.45253172  0.63915585  0.66248817  1
  F  F46  1  0.40667977  0.49961927  0.82645020  1
  F  F47  1  0.58016014  0.82614195  0.49911356  1
  F  F48  1  0.69662124  0.49939671  0.05643373  1
  F  F49  1  0.63971577  0.05628254  0.49985254  1
  F  F50  1  0.68256697  0.68047538  0.92084553  1
  F  F51  1  0.94279358  0.92041610  0.68032948  1
  F  F52  1  0.76027971  0.87500300  0.82853679  1
  F  F53  1  0.30707672  0.82863546  0.87457777  1
