# generated using pymatgen
data_La4MnO8
_symmetry_space_group_name_H-M   'P 1'
_cell_length_a   5.38733511
_cell_length_b   5.38733511
_cell_length_c   13.31471565
_cell_angle_alpha   78.32806895
_cell_angle_beta   101.67193105
_cell_angle_gamma   90.00000000
_symmetry_Int_Tables_number   1
_chemical_formula_structural   La4MnO8
_chemical_formula_sum   'La8 Mn2 O16'
_cell_volume   370.28414321
_cell_formula_units_Z   2
loop_
 _symmetry_equiv_pos_site_id
 _symmetry_equiv_pos_as_xyz
  1  'x, y, z'
loop_
 _atom_site_type_symbol
 _atom_site_label
 _atom_site_symmetry_multiplicity
 _atom_site_fract_x
 _atom_site_fract_y
 _atom_site_fract_z
 _atom_site_occupancy
  La  La0  1  0.43139228  0.06860772  0.86278455  1
  La  La1  1  0.06860772  0.43139228  0.13721545  1
  La  La2  1  0.68139228  0.31860772  0.36278455  1
  La  La3  1  0.81529926  0.18470074  0.63059852  1
  La  La4  1  0.31860772  0.68139228  0.63721545  1
  La  La5  1  0.18470074  0.81529926  0.36940148  1
  La  La6  1  0.56529926  0.93470074  0.13059852  1
  La  La7  1  0.93470074  0.56529926  0.86940148  1
  Mn  Mn8  1  0.00000000  0.00000000  0.00000000  1
  Mn  Mn9  1  0.75000000  0.75000000  0.50000000  1
  O  O10  1  0.99418938  0.99418938  0.50000000  1
  O  O11  1  0.34346784  0.15653216  0.68693668  1
  O  O12  1  0.24418938  0.24418938  0.00000000  1
  O  O13  1  0.50581062  0.99418938  0.50000000  1
  O  O14  1  0.99418938  0.50581062  0.50000000  1
  O  O15  1  0.15653216  0.34346784  0.31306332  1
  O  O16  1  0.40653216  0.59346784  0.81306332  1
  O  O17  1  0.24418938  0.75581062  0.00000000  1
  O  O18  1  0.50581062  0.50581062  0.50000000  1
  O  O19  1  0.59346784  0.40653216  0.18693668  1
  O  O20  1  0.08148314  0.91851686  0.16296629  1
  O  O21  1  0.91851686  0.08148314  0.83703371  1
  O  O22  1  0.75581062  0.24418938  0.00000000  1
  O  O23  1  0.75581062  0.75581062  0.00000000  1
  O  O24  1  0.66851686  0.83148314  0.33703371  1
  O  O25  1  0.83148314  0.66851686  0.66296629  1
