# generated using pymatgen
data_Li2AlVO4
_symmetry_space_group_name_H-M   'P 1'
_cell_length_a   6.36919559
_cell_length_b   5.56549064
_cell_length_c   4.98766437
_cell_angle_alpha   90.00000000
_cell_angle_beta   90.00000000
_cell_angle_gamma   90.00000000
_symmetry_Int_Tables_number   1
_chemical_formula_structural   Li2AlVO4
_chemical_formula_sum   'Li4 Al2 V2 O8'
_cell_volume   176.80122251
_cell_formula_units_Z   2
loop_
 _symmetry_equiv_pos_site_id
 _symmetry_equiv_pos_as_xyz
  1  'x, y, z'
loop_
 _atom_site_type_symbol
 _atom_site_label
 _atom_site_symmetry_multiplicity
 _atom_site_fract_x
 _atom_site_fract_y
 _atom_site_fract_z
 _atom_site_occupancy
  Li  Li0  1  0.25050002  0.33349319  0.99136379  1
  Li  Li1  1  0.24949998  0.66650681  0.49136379  1
  Li  Li2  1  0.74949998  0.33349319  0.99136379  1
  Li  Li3  1  0.75050002  0.66650681  0.49136379  1
  Al  Al4  1  0.00000000  0.16988111  0.49800634  1
  Al  Al5  1  0.50000000  0.83011889  0.99800634  1
  V  V6  1  0.00000000  0.83247881  0.99040969  1
  V  V7  1  0.50000000  0.16752119  0.49040969  1
  O  O8  1  0.00000000  0.15847798  0.85694275  1
  O  O9  1  0.00000000  0.86474353  0.38329342  1
  O  O10  1  0.26551146  0.68059354  0.89431011  1
  O  O11  1  0.23448854  0.31940646  0.39431011  1
  O  O12  1  0.50000000  0.13525647  0.88329342  1
  O  O13  1  0.50000000  0.84152202  0.35694275  1
  O  O14  1  0.76551146  0.31940646  0.39431011  1
  O  O15  1  0.73448854  0.68059354  0.89431011  1
