# generated using pymatgen
data_LiLa4FeO8
_symmetry_space_group_name_H-M   'P 1'
_cell_length_a   5.37715852
_cell_length_b   7.01006587
_cell_length_c   5.39743925
_cell_angle_alpha   89.77301336
_cell_angle_beta   90.62152151
_cell_angle_gamma   112.58898647
_symmetry_Int_Tables_number   1
_chemical_formula_structural   LiLa4FeO8
_chemical_formula_sum   'Li1 La4 Fe1 O8'
_cell_volume   187.83325341
_cell_formula_units_Z   1
loop_
 _symmetry_equiv_pos_site_id
 _symmetry_equiv_pos_as_xyz
  1  'x, y, z'
loop_
 _atom_site_type_symbol
 _atom_site_label
 _atom_site_symmetry_multiplicity
 _atom_site_fract_x
 _atom_site_fract_y
 _atom_site_fract_z
 _atom_site_occupancy
  Li  Li0  1  0.00135987  0.00471775  0.00159986  1
  La  La1  1  0.13649016  0.27688657  0.50275602  1
  La  La2  1  0.63931127  0.27946081  0.00105433  1
  La  La3  1  0.36231949  0.72510418  0.00195198  1
  La  La4  1  0.86105111  0.72786360  0.49992657  1
  Fe  Fe5  1  0.49980915  0.00239170  0.50150082  1
  O  O6  1  0.25427763  0.00189457  0.25720600  1
  O  O7  1  0.25048837  0.00047253  0.74815371  1
  O  O8  1  0.74896028  0.00434630  0.25412982  1
  O  O9  1  0.74550405  0.00232508  0.74640642  1
  O  O10  1  0.17951340  0.36487195  0.99870337  1
  O  O11  1  0.68459845  0.36243233  0.50434626  1
  O  O12  1  0.32771306  0.64209815  0.49962638  1
  O  O13  1  0.81653373  0.63895548  0.00617846  1
