# generated using pymatgen
data_Cr3TeO8
_symmetry_space_group_name_H-M   'P 1'
_cell_length_a   5.98015418
_cell_length_b   5.98012314
_cell_length_c   9.18019856
_cell_angle_alpha   89.99789609
_cell_angle_beta   90.00177983
_cell_angle_gamma   120.00066663
_symmetry_Int_Tables_number   1
_chemical_formula_structural   Cr3TeO8
_chemical_formula_sum   'Cr6 Te2 O16'
_cell_volume   284.31665214
_cell_formula_units_Z   2
loop_
 _symmetry_equiv_pos_site_id
 _symmetry_equiv_pos_as_xyz
  1  'x, y, z'
loop_
 _atom_site_type_symbol
 _atom_site_label
 _atom_site_symmetry_multiplicity
 _atom_site_fract_x
 _atom_site_fract_y
 _atom_site_fract_z
 _atom_site_occupancy
  Cr  Cr0  1  0.17068695  0.82930125  0.21294729  1
  Cr  Cr1  1  0.17069754  0.34142923  0.21299996  1
  Cr  Cr2  1  0.65854049  0.82926862  0.21299269  1
  Cr  Cr3  1  0.34145943  0.17074157  0.71295437  1
  Cr  Cr4  1  0.82930602  0.65858972  0.71296030  1
  Cr  Cr5  1  0.82931358  0.17073364  0.71295760  1
  Te  Te6  1  0.33333724  0.66668651  0.49055220  1
  Te  Te7  1  0.66666530  0.33334293  0.99054648  1
  O  O8  1  0.17206057  0.82797083  0.59690467  1
  O  O9  1  0.04403240  0.52201482  0.34519280  1
  O  O10  1  0.33332833  0.66663539  0.10884211  1
  O  O11  1  0.99993134  0.00000765  0.29332606  1
  O  O12  1  0.00002360  0.00000579  0.79329819  1
  O  O13  1  0.17205622  0.34408987  0.59689823  1
  O  O14  1  0.47798218  0.95597392  0.34518990  1
  O  O15  1  0.47797859  0.52199901  0.34520290  1
  O  O16  1  0.34407170  0.17206773  0.09689801  1
  O  O17  1  0.65593119  0.82796872  0.59689577  1
  O  O18  1  0.52203677  0.47800452  0.84516771  1
  O  O19  1  0.52203790  0.04404580  0.84518039  1
  O  O20  1  0.66668620  0.33336450  0.60881443  1
  O  O21  1  0.82791767  0.65592615  0.09690282  1
  O  O22  1  0.95598725  0.47799732  0.84518489  1
  O  O23  1  0.82793354  0.17203651  0.09691322  1
