# generated using pymatgen
data_LiFe2O3
_symmetry_space_group_name_H-M   'P 1'
_cell_length_a   3.03070364
_cell_length_b   3.03517413
_cell_length_c   7.45017778
_cell_angle_alpha   89.57171165
_cell_angle_beta   90.00000000
_cell_angle_gamma   119.95127808
_symmetry_Int_Tables_number   1
_chemical_formula_structural   LiFe2O3
_chemical_formula_sum   'Li1 Fe2 O3'
_cell_volume   59.37740286
_cell_formula_units_Z   1
loop_
 _symmetry_equiv_pos_site_id
 _symmetry_equiv_pos_as_xyz
  1  'x, y, z'
loop_
 _atom_site_type_symbol
 _atom_site_label
 _atom_site_symmetry_multiplicity
 _atom_site_fract_x
 _atom_site_fract_y
 _atom_site_fract_z
 _atom_site_occupancy
  Li  Li0  1  0.99836675  0.00000000  0.50000000  1
  Fe  Fe1  1  0.32806811  0.66309554  0.17929775  1
  Fe  Fe2  1  0.66497257  0.33690446  0.82070225  1
  O  O3  1  0.34025419  0.66002499  0.67916211  1
  O  O4  1  0.98809018  0.00000000  0.00000000  1
  O  O5  1  0.68022820  0.33997501  0.32083789  1
