# generated using pymatgen
data_Li3Cr(FeO2)4
_symmetry_space_group_name_H-M   'P 1'
_cell_length_a   6.02251199
_cell_length_b   6.02251214
_cell_length_c   5.99666486
_cell_angle_alpha   90.44073065
_cell_angle_beta   60.66852031
_cell_angle_gamma   59.69640394
_symmetry_Int_Tables_number   1
_chemical_formula_structural   Li3Cr(FeO2)4
_chemical_formula_sum   'Li3 Cr1 Fe4 O8'
_cell_volume   154.03925025
_cell_formula_units_Z   1
loop_
 _symmetry_equiv_pos_site_id
 _symmetry_equiv_pos_as_xyz
  1  'x, y, z'
loop_
 _atom_site_type_symbol
 _atom_site_label
 _atom_site_symmetry_multiplicity
 _atom_site_fract_x
 _atom_site_fract_y
 _atom_site_fract_z
 _atom_site_occupancy
  Li  Li0  1  0.00000000  0.00000000  0.50000000  1
  Li  Li1  1  0.50000000  0.00000000  0.50000000  1
  Li  Li2  1  0.50000000  0.50000000  0.50000000  1
  Cr  Cr3  1  0.50000000  0.50000000  0.00000000  1
  Fe  Fe4  1  0.00000000  0.50000000  0.50000000  1
  Fe  Fe5  1  0.00000000  0.00000000  0.00000000  1
  Fe  Fe6  1  0.50000000  0.00000000  0.00000000  1
  Fe  Fe7  1  0.00000000  0.50000000  0.00000000  1
  O  O8  1  0.48218966  0.26066481  0.77847415  1
  O  O9  1  0.98135660  0.24826970  0.76651163  1
  O  O10  1  0.48175807  0.74786823  0.76651163  1
  O  O11  1  -0.00622230  0.75226580  0.75848810  1
  O  O12  1  0.00622230  0.24773420  0.24151190  1
  O  O13  1  0.51824193  0.25213177  0.23348837  1
  O  O14  1  0.01864340  0.75173030  0.23348837  1
  O  O15  1  0.51781034  0.73933519  0.22152585  1
