# generated using pymatgen
data_LiMn4O8
_symmetry_space_group_name_H-M   'P 1'
_cell_length_a   2.98659167
_cell_length_b   6.98730003
_cell_length_c   7.14870938
_cell_angle_alpha   91.59010336
_cell_angle_beta   77.93326642
_cell_angle_gamma   102.35327024
_symmetry_Int_Tables_number   1
_chemical_formula_structural   LiMn4O8
_chemical_formula_sum   'Li1 Mn4 O8'
_cell_volume   142.48444562
_cell_formula_units_Z   1
loop_
 _symmetry_equiv_pos_site_id
 _symmetry_equiv_pos_as_xyz
  1  'x, y, z'
loop_
 _atom_site_type_symbol
 _atom_site_label
 _atom_site_symmetry_multiplicity
 _atom_site_fract_x
 _atom_site_fract_y
 _atom_site_fract_z
 _atom_site_occupancy
  Li  Li0  1  0.52356329  0.99947108  0.00015745  1
  Mn  Mn1  1  0.65478792  0.48227204  0.18169052  1
  Mn  Mn2  1  0.83253508  0.18138996  0.52387998  1
  Mn  Mn3  1  0.17439877  0.81706129  0.47641233  1
  Mn  Mn4  1  0.35346120  0.51594693  0.81862183  1
  O  O5  1  0.14926743  0.34352250  0.05338665  1
  O  O6  1  0.45918324  0.30126047  0.39084812  1
  O  O7  1  0.19497681  0.03611195  0.65330976  1
  O  O8  1  0.18298122  0.63212957  0.27535065  1
  O  O9  1  0.82531968  0.36629018  0.72496986  1
  O  O10  1  0.81089587  0.96272347  0.34691866  1
  O  O11  1  0.54833960  0.69795094  0.61024226  1
  O  O12  1  0.85776889  0.65421762  0.94729892  1
