# generated using pymatgen
data_Li4Mn5SnO12
_symmetry_space_group_name_H-M   'P 1'
_cell_length_a   5.37967162
_cell_length_b   5.23006697
_cell_length_c   10.30973025
_cell_angle_alpha   89.53023703
_cell_angle_beta   89.08658574
_cell_angle_gamma   59.04916120
_symmetry_Int_Tables_number   1
_chemical_formula_structural   Li4Mn5SnO12
_chemical_formula_sum   'Li4 Mn5 Sn1 O12'
_cell_volume   248.73930006
_cell_formula_units_Z   1
loop_
 _symmetry_equiv_pos_site_id
 _symmetry_equiv_pos_as_xyz
  1  'x, y, z'
loop_
 _atom_site_type_symbol
 _atom_site_label
 _atom_site_symmetry_multiplicity
 _atom_site_fract_x
 _atom_site_fract_y
 _atom_site_fract_z
 _atom_site_occupancy
  Li  Li0  1  0.13826877  0.49043122  0.74772071  1
  Li  Li1  1  0.37130101  0.49043122  0.25227929  1
  Li  Li2  1  0.62869899  0.50956878  0.74772071  1
  Li  Li3  1  0.86173123  0.50956878  0.25227929  1
  Mn  Mn4  1  0.16376326  0.67247249  0.50000000  1
  Mn  Mn5  1  0.66357700  0.67284601  0.00000000  1
  Mn  Mn6  1  0.33642300  0.32715399  1.00000000  1
  Mn  Mn7  1  0.83623674  0.32752751  0.50000000  1
  Mn  Mn8  1  0.50000000  0.00000000  0.50000000  1
  Sn  Sn9  1  0.00000000  0.00000000  0.00000000  1
  O  O10  1  0.04510557  0.64114493  0.11312588  1
  O  O11  1  0.31375050  0.64114493  0.88687412  1
  O  O12  1  0.17095998  0.36185347  0.39409671  1
  O  O13  1  0.53281344  0.63814653  0.39409671  1
  O  O14  1  0.46718656  0.36185347  0.60590329  1
  O  O15  1  0.17431816  0.00000000  0.58723657  1
  O  O16  1  0.82904002  0.63814653  0.60590329  1
  O  O17  1  0.68624950  0.35885507  0.11312588  1
  O  O18  1  0.34007081  0.00000000  0.09568426  1
  O  O19  1  0.95489443  0.35885507  0.88687412  1
  O  O20  1  0.65992919  1.00000000  0.90431574  1
  O  O21  1  0.82568184  1.00000000  0.41276343  1
