# generated using pymatgen
data_Li3VBPO7
_symmetry_space_group_name_H-M   'P 1'
_cell_length_a   8.48537545
_cell_length_b   6.41266178
_cell_length_c   5.05812499
_cell_angle_alpha   90.00000000
_cell_angle_beta   84.41773795
_cell_angle_gamma   90.00000000
_symmetry_Int_Tables_number   1
_chemical_formula_structural   Li3VBPO7
_chemical_formula_sum   'Li6 V2 B2 P2 O14'
_cell_volume   273.92674762
_cell_formula_units_Z   2
loop_
 _symmetry_equiv_pos_site_id
 _symmetry_equiv_pos_as_xyz
  1  'x, y, z'
loop_
 _atom_site_type_symbol
 _atom_site_label
 _atom_site_symmetry_multiplicity
 _atom_site_fract_x
 _atom_site_fract_y
 _atom_site_fract_z
 _atom_site_occupancy
  Li  Li0  1  0.09238618  0.25000000  0.75592411  1
  Li  Li1  1  0.23308352  0.99601095  0.25534367  1
  Li  Li2  1  0.23308352  0.50398905  0.25534367  1
  Li  Li3  1  0.76691648  0.49601095  0.74465633  1
  Li  Li4  1  0.76691648  0.00398905  0.74465633  1
  Li  Li5  1  0.90761382  0.75000000  0.24407589  1
  V  V6  1  0.32338258  0.75000000  0.78986241  1
  V  V7  1  0.67661742  0.25000000  0.21013759  1
  B  B8  1  0.04221958  0.75000000  0.71425695  1
  B  B9  1  0.95778042  0.25000000  0.28574305  1
  P  P10  1  0.41772150  0.25000000  0.73226239  1
  P  P11  1  0.58227850  0.75000000  0.26773761  1
  O  O12  1  0.10723782  0.25000000  0.35782541  1
  O  O13  1  0.08785244  0.75000000  0.97177386  1
  O  O14  1  0.17465377  0.75000000  0.51761455  1
  O  O15  1  0.30962613  0.06243865  0.82776181  1
  O  O16  1  0.30962613  0.43756135  0.82776181  1
  O  O17  1  0.45286693  0.25000000  0.42698895  1
  O  O18  1  0.42447197  0.75000000  0.13979115  1
  O  O19  1  0.57552803  0.25000000  0.86020885  1
  O  O20  1  0.54713307  0.75000000  0.57301105  1
  O  O21  1  0.69037387  0.56243865  0.17223819  1
  O  O22  1  0.69037387  0.93756135  0.17223819  1
  O  O23  1  0.82534623  0.25000000  0.48238545  1
  O  O24  1  0.91214756  0.25000000  0.02822614  1
  O  O25  1  0.89276218  0.75000000  0.64217459  1
