# generated using pymatgen
data_Li2Cr3CuO8
_symmetry_space_group_name_H-M   'P 1'
_cell_length_a   5.84419889
_cell_length_b   5.85129000
_cell_length_c   9.56498245
_cell_angle_alpha   90.43037777
_cell_angle_beta   89.78455850
_cell_angle_gamma   120.04014555
_symmetry_Int_Tables_number   1
_chemical_formula_structural   Li2Cr3CuO8
_chemical_formula_sum   'Li4 Cr6 Cu2 O16'
_cell_volume   283.14137641
_cell_formula_units_Z   2
loop_
 _symmetry_equiv_pos_site_id
 _symmetry_equiv_pos_as_xyz
  1  'x, y, z'
loop_
 _atom_site_type_symbol
 _atom_site_label
 _atom_site_symmetry_multiplicity
 _atom_site_fract_x
 _atom_site_fract_y
 _atom_site_fract_z
 _atom_site_occupancy
  Li  Li0  1  0.33136825  0.66381079  0.89958823  1
  Li  Li1  1  0.99993221  0.00282102  0.99653987  1
  Li  Li2  1  0.00006779  0.00288881  0.49653987  1
  Li  Li3  1  0.66863175  0.33244255  0.39958823  1
  Cr  Cr4  1  0.17262640  0.82831032  0.21555883  1
  Cr  Cr5  1  0.17062011  0.33463751  0.20943820  1
  Cr  Cr6  1  0.66726998  0.82928502  0.20879736  1
  Cr  Cr7  1  0.33273002  0.16201604  0.70879736  1
  Cr  Cr8  1  0.82737360  0.65568392  0.71555883  1
  Cr  Cr9  1  0.82937989  0.16401740  0.70943820  1
  Cu  Cu10  1  0.33789055  0.67472502  0.48309762  1
  Cu  Cu11  1  0.66210945  0.33683448  0.98309762  1
  O  O12  1  0.17062323  0.84736991  0.60563568  1
  O  O13  1  0.04009524  0.51220643  0.33553021  1
  O  O14  1  0.33560736  0.66367437  0.10264999  1
  O  O15  1  0.00101652  0.00153896  0.31325338  1
  O  O16  1  0.99898348  0.00052144  0.81325338  1
  O  O17  1  0.16511989  0.32891772  0.61039883  1
  O  O18  1  0.49013297  0.96283330  0.33437668  1
  O  O19  1  0.48115454  0.52231681  0.33236265  1
  O  O20  1  0.32420454  0.17153420  0.10669446  1
  O  O21  1  0.67579546  0.84732966  0.60669446  1
  O  O22  1  0.50986703  0.47270033  0.83437668  1
  O  O23  1  0.51884546  0.04116227  0.83236265  1
  O  O24  1  0.66439264  0.32806701  0.60264999  1
  O  O25  1  0.82937677  0.67674668  0.10563568  1
  O  O26  1  0.95990476  0.47211119  0.83553021  1
  O  O27  1  0.83488011  0.16379783  0.11039883  1
