# generated using pymatgen
data_LiVCo3(PO4)6
_symmetry_space_group_name_H-M   'P 1'
_cell_length_a   8.64964973
_cell_length_b   8.64964973
_cell_length_c   8.64964928
_cell_angle_alpha   59.26092212
_cell_angle_beta   59.26091762
_cell_angle_gamma   59.26091522
_symmetry_Int_Tables_number   1
_chemical_formula_structural   LiVCo3(PO4)6
_chemical_formula_sum   'Li1 V1 Co3 P6 O24'
_cell_volume   449.89160527
_cell_formula_units_Z   1
loop_
 _symmetry_equiv_pos_site_id
 _symmetry_equiv_pos_as_xyz
  1  'x, y, z'
loop_
 _atom_site_type_symbol
 _atom_site_label
 _atom_site_symmetry_multiplicity
 _atom_site_fract_x
 _atom_site_fract_y
 _atom_site_fract_z
 _atom_site_occupancy
  Li  Li0  1  0.01180811  0.01180811  0.01180811  1
  V  V1  1  0.85698679  0.85698679  0.85698679  1
  Co  Co2  1  0.14388571  0.14388571  0.14388571  1
  Co  Co3  1  0.36254206  0.36254206  0.36254206  1
  Co  Co4  1  0.63668444  0.63668444  0.63668444  1
  P  P5  1  0.03369227  0.75546659  0.45838831  1
  P  P6  1  0.45838831  0.03369227  0.75546659  1
  P  P7  1  0.75546659  0.45838831  0.03369227  1
  P  P8  1  0.24462686  0.53432828  0.97057515  1
  P  P9  1  0.53432828  0.97057515  0.24462686  1
  P  P10  1  0.97057515  0.24462686  0.53432828  1
  O  O11  1  0.14287460  0.27105281  0.51462770  1
  O  O12  1  0.27105281  0.51462770  0.14287460  1
  O  O13  1  0.06430429  0.92296152  0.26549783  1
  O  O14  1  0.51462770  0.14287460  0.27105281  1
  O  O15  1  0.21703448  0.57851818  0.45350786  1
  O  O16  1  0.99134081  0.80762802  0.62771342  1
  O  O17  1  0.26549783  0.06430429  0.92296152  1
  O  O18  1  0.45350786  0.21703448  0.57851818  1
  O  O19  1  0.57851818  0.45350786  0.21703448  1
  O  O20  1  0.20392444  0.36941097  0.99327708  1
  O  O21  1  0.07588421  0.72840711  0.93376590  1
  O  O22  1  0.36941097  0.99327708  0.20392444  1
  O  O23  1  0.62771342  0.99134081  0.80762802  1
  O  O24  1  0.92296152  0.26549783  0.06430429  1
  O  O25  1  0.80762802  0.62771342  0.99134081  1
  O  O26  1  0.41556727  0.55855208  0.78472737  1
  O  O27  1  0.55855208  0.78472737  0.41556727  1
  O  O28  1  0.72840711  0.93376590  0.07588421  1
  O  O29  1  0.99327708  0.20392444  0.36941097  1
  O  O30  1  0.78472737  0.41556727  0.55855208  1
  O  O31  1  0.48615691  0.86578184  0.71849873  1
  O  O32  1  0.93376590  0.07588421  0.72840711  1
  O  O33  1  0.71849873  0.48615691  0.86578184  1
  O  O34  1  0.86578184  0.71849873  0.48615691  1
