# generated using pymatgen
data_Mg6CoNi
_symmetry_space_group_name_H-M   'P 1'
_cell_length_a   5.75873262
_cell_length_b   5.75873217
_cell_length_c   4.53091672
_cell_angle_alpha   90.00000000
_cell_angle_beta   90.00000000
_cell_angle_gamma   110.19273249
_symmetry_Int_Tables_number   1
_chemical_formula_structural   Mg6CoNi
_chemical_formula_sum   'Mg6 Co1 Ni1'
_cell_volume   141.02340206
_cell_formula_units_Z   1
loop_
 _symmetry_equiv_pos_site_id
 _symmetry_equiv_pos_as_xyz
  1  'x, y, z'
loop_
 _atom_site_type_symbol
 _atom_site_label
 _atom_site_symmetry_multiplicity
 _atom_site_fract_x
 _atom_site_fract_y
 _atom_site_fract_z
 _atom_site_occupancy
  Mg  Mg0  1  0.13922444  0.91589698  0.25000000  1
  Mg  Mg1  1  0.58410302  0.36077556  0.25000000  1
  Mg  Mg2  1  0.61483135  0.88516865  0.25000000  1
  Mg  Mg3  1  0.35998948  0.58375120  0.75000000  1
  Mg  Mg4  1  0.91624880  0.14001052  0.75000000  1
  Mg  Mg5  1  0.88731851  0.61268149  0.75000000  1
  Co  Co6  1  0.09994058  0.40005942  0.25000000  1
  Ni  Ni7  1  0.39834382  0.10165618  0.75000000  1
