# generated using pymatgen
data_Ti(FeO2)2
_symmetry_space_group_name_H-M   'P 1'
_cell_length_a   2.94878785
_cell_length_b   9.97048701
_cell_length_c   9.93337573
_cell_angle_alpha   90.00000000
_cell_angle_beta   90.00000000
_cell_angle_gamma   90.00000000
_symmetry_Int_Tables_number   1
_chemical_formula_structural   Ti(FeO2)2
_chemical_formula_sum   'Ti4 Fe8 O16'
_cell_volume   292.04969930
_cell_formula_units_Z   4
loop_
 _symmetry_equiv_pos_site_id
 _symmetry_equiv_pos_as_xyz
  1  'x, y, z'
loop_
 _atom_site_type_symbol
 _atom_site_label
 _atom_site_symmetry_multiplicity
 _atom_site_fract_x
 _atom_site_fract_y
 _atom_site_fract_z
 _atom_site_occupancy
  Ti  Ti0  1  0.50000000  0.56949441  0.36961671  1
  Ti  Ti1  1  0.50000000  0.43050559  0.63038329  1
  Ti  Ti2  1  0.50000000  0.93050559  0.36961671  1
  Ti  Ti3  1  0.50000000  0.06949441  0.63038329  1
  Fe  Fe4  1  0.00000000  0.75000000  0.62393830  1
  Fe  Fe5  1  0.00000000  0.25000000  0.37606170  1
  Fe  Fe6  1  0.50000000  0.75000000  0.10959139  1
  Fe  Fe7  1  0.50000000  0.25000000  0.89040861  1
  Fe  Fe8  1  0.00000000  0.57507052  0.87301103  1
  Fe  Fe9  1  0.00000000  0.42492948  0.12698897  1
  Fe  Fe10  1  0.00000000  0.92492948  0.87301103  1
  Fe  Fe11  1  -0.00000000  0.07507052  0.12698897  1
  O  O12  1  0.00000000  0.50000000  0.50000000  1
  O  O13  1  -0.00000000  -0.00000000  0.50000000  1
  O  O14  1  0.50000000  0.50000000  -0.00000000  1
  O  O15  1  0.50000000  -0.00000000  -0.00000000  1
  O  O16  1  0.50000000  0.75000000  0.45557788  1
  O  O17  1  0.50000000  0.25000000  0.54442212  1
  O  O18  1  0.00000000  0.75000000  0.96506909  1
  O  O19  1  -0.00000000  0.25000000  0.03493091  1
  O  O20  1  0.50000000  0.89005576  0.71031021  1
  O  O21  1  0.50000000  0.10994424  0.28968979  1
  O  O22  1  0.50000000  0.60994424  0.71031021  1
  O  O23  1  0.50000000  0.39005576  0.28968979  1
  O  O24  1  0.00000000  0.88550714  0.24058816  1
  O  O25  1  -0.00000000  0.11449286  0.75941184  1
  O  O26  1  -0.00000000  0.61449286  0.24058816  1
  O  O27  1  -0.00000000  0.38550714  0.75941184  1
