# generated using pymatgen
data_Li3CoBO4
_symmetry_space_group_name_H-M   'P 1'
_cell_length_a   9.56549700
_cell_length_b   9.56549700
_cell_length_c   9.56549700
_cell_angle_alpha   116.38186554
_cell_angle_beta   116.38186554
_cell_angle_gamma   96.39006903
_symmetry_Int_Tables_number   1
_chemical_formula_structural   Li3CoBO4
_chemical_formula_sum   'Li24 Co8 B8 O32'
_cell_volume   648.35974159
_cell_formula_units_Z   8
loop_
 _symmetry_equiv_pos_site_id
 _symmetry_equiv_pos_as_xyz
  1  'x, y, z'
loop_
 _atom_site_type_symbol
 _atom_site_label
 _atom_site_symmetry_multiplicity
 _atom_site_fract_x
 _atom_site_fract_y
 _atom_site_fract_z
 _atom_site_occupancy
  Li  Li0  1  0.91549423  0.09705193  0.13614202  1
  Li  Li1  1  0.83450577  0.15294807  0.36385798  1
  Li  Li2  1  0.90294807  0.03908909  0.81844130  1
  Li  Li3  1  0.52935221  0.16549423  0.31844130  1
  Li  Li4  1  0.41738648  0.26994283  0.10504673  1
  Li  Li5  1  0.72155386  0.56390148  0.14259549  1
  Li  Li6  1  0.22064779  0.08450577  0.18155870  1
  Li  Li7  1  0.84705193  0.21091091  0.68155870  1
  Li  Li8  1  0.73005717  0.83510390  0.14744365  1
  Li  Li9  1  0.43609852  0.57869500  0.15765238  1
  Li  Li10  1  0.78908909  0.47064779  0.63614202  1
  Li  Li11  1  0.96091091  0.77935221  0.86385798  1
  Li  Li12  1  0.42104163  0.27844614  0.84234762  1
  Li  Li13  1  0.31390148  0.67130500  0.34234762  1
  Li  Li14  1  0.01994283  0.41489610  0.35255635  1
  Li  Li15  1  0.68766025  0.58261352  0.85255635  1
  Li  Li16  1  0.02844614  0.68609852  0.35740451  1
  Li  Li17  1  0.42130500  0.57895837  0.85740451  1
  Li  Li18  1  0.58510390  0.93766025  0.60504673  1
  Li  Li19  1  0.33261352  0.98005717  0.39495327  1
  Li  Li20  1  0.16489610  0.31233975  0.89495327  1
  Li  Li21  1  0.32869500  0.67104163  0.64259549  1
  Li  Li22  1  0.06233975  0.66738648  0.64744365  1
  Li  Li23  1  0.32895837  0.97155386  0.65765238  1
  Co  Co24  1  0.46100013  0.91693088  0.99619876  1
  Co  Co25  1  0.53519863  0.53899987  0.45593075  1
  Co  Co26  1  0.66693088  0.17073212  0.95593075  1
  Co  Co27  1  0.82926788  0.78519863  0.49619876  1
  Co  Co28  1  0.28899987  0.33306912  0.50380124  1
  Co  Co29  1  0.08306912  0.07926788  0.54406925  1
  Co  Co30  1  0.21480137  0.71100013  0.04406925  1
  Co  Co31  1  0.92073212  0.46480137  0.00380124  1
  B  B32  1  0.72838731  0.39474441  0.27492599  1
  B  B33  1  0.14474441  0.36981841  0.16635710  1
  B  B34  1  0.54653868  0.27161269  0.66635710  1
  B  B35  1  0.60525559  0.88018159  0.33364290  1
  B  B36  1  0.63018159  0.79653868  0.77492599  1
  B  B37  1  0.02161269  0.85525559  0.22507401  1
  B  B38  1  0.11981841  0.45346132  0.72507401  1
  B  B39  1  0.20346132  0.97838731  0.83364290  1
  O  O40  1  0.79949120  0.25982023  0.22898639  1
  O  O41  1  0.32050481  0.04949120  0.03967097  1
  O  O42  1  0.59914780  0.35556360  0.08504866  1
  O  O43  1  0.88302191  0.68123111  0.11231594  1
  O  O44  1  0.86697809  0.56876889  0.38768406  1
  O  O45  1  0.64411355  0.38363290  0.36993732  1
  O  O46  1  0.42949519  0.20050880  0.46032903  1
  O  O47  1  0.31876889  0.43108483  0.20178980  1
  O  O48  1  0.52070597  0.13302191  0.70178980  1
  O  O49  1  0.95050880  0.99017977  0.27101361  1
  O  O50  1  0.13363290  0.26369558  0.23951935  1
  O  O51  1  0.72582377  0.35588645  0.73951935  1
  O  O52  1  0.64443640  0.72948505  0.24358520  1
  O  O53  1  0.10556360  0.52051495  0.25641480  1
  O  O54  1  0.48589985  0.40085220  0.75641480  1
  O  O55  1  0.61636710  0.98630442  0.26048065  1
  O  O56  1  0.71916616  0.67949519  0.72898639  1
  O  O57  1  0.22929403  0.11697809  0.79821020  1
  O  O58  1  0.43123111  0.81891517  0.29821020  1
  O  O59  1  0.74017977  0.96916616  0.53967097  1
  O  O60  1  0.47948505  0.73589985  0.58504866  1
  O  O61  1  0.10588645  0.86636710  0.13006268  1
  O  O62  1  0.01369558  0.27417623  0.63006268  1
  O  O63  1  0.18108483  0.47929403  0.61231594  1
  O  O64  1  0.56891517  0.77070597  0.88768406  1
  O  O65  1  0.73630442  0.97582377  0.86993732  1
  O  O66  1  0.27051495  0.51410015  0.91495134  1
  O  O67  1  0.15085220  0.89443640  0.41495134  1
  O  O68  1  0.00982023  0.28083384  0.96032903  1
  O  O69  1  0.03083384  0.57050481  0.77101361  1
  O  O70  1  0.26410015  0.84914780  0.74358520  1
  O  O71  1  0.02417623  0.89411355  0.76048065  1
