# generated using pymatgen
data_Li4Ti3Mn3V2O16
_symmetry_space_group_name_H-M   'P 1'
_cell_length_a   5.93313052
_cell_length_b   5.97955771
_cell_length_c   9.64199009
_cell_angle_alpha   89.99972108
_cell_angle_beta   91.10755607
_cell_angle_gamma   120.25897630
_symmetry_Int_Tables_number   1
_chemical_formula_structural   Li4Ti3Mn3V2O16
_chemical_formula_sum   'Li4 Ti3 Mn3 V2 O16'
_cell_volume   295.39440479
_cell_formula_units_Z   1
loop_
 _symmetry_equiv_pos_site_id
 _symmetry_equiv_pos_as_xyz
  1  'x, y, z'
loop_
 _atom_site_type_symbol
 _atom_site_label
 _atom_site_symmetry_multiplicity
 _atom_site_fract_x
 _atom_site_fract_y
 _atom_site_fract_z
 _atom_site_occupancy
  Li  Li0  1  0.33729149  0.66864364  0.89488350  1
  Li  Li1  1  0.99574952  0.99788577  0.99237280  1
  Li  Li2  1  0.99474128  0.99738940  0.49608624  1
  Li  Li3  1  0.66342593  0.33172463  0.39643949  1
  Ti  Ti4  1  0.16971555  0.83408192  0.21549574  1
  Ti  Ti5  1  0.16980764  0.33558780  0.21545398  1
  Ti  Ti6  1  0.34452685  0.17225969  0.71812792  1
  Mn  Mn7  1  0.66095620  0.83051249  0.21110386  1
  Mn  Mn8  1  0.84003468  0.65952125  0.71311096  1
  Mn  Mn9  1  0.84007495  0.18059965  0.71313763  1
  V  V10  1  0.34060663  0.67033904  0.49068545  1
  V  V11  1  0.68235605  0.34120098  0.98463589  1
  O  O12  1  0.16819288  0.83920975  0.59735485  1
  O  O13  1  0.03740943  0.51873357  0.33703485  1
  O  O14  1  0.33275112  0.66638923  0.10789018  1
  O  O15  1  0.99185825  0.99593400  0.30916405  1
  O  O16  1  0.99638938  0.99817666  0.80327687  1
  O  O17  1  0.16806838  0.32899430  0.59739737  1
  O  O18  1  0.46208785  0.95639833  0.34479046  1
  O  O19  1  0.46205343  0.50567828  0.34479457  1
  O  O20  1  0.32324435  0.16163945  0.10957941  1
  O  O21  1  0.64380195  0.82187671  0.58265039  1
  O  O22  1  0.51783540  0.47460599  0.83839754  1
  O  O23  1  0.51800640  0.04325129  0.83833636  1
  O  O24  1  0.66739952  0.33374959  0.60842186  1
  O  O25  1  0.84803528  0.67081989  0.09815821  1
  O  O26  1  0.97551912  0.48784552  0.85090476  1
  O  O27  1  0.84806049  0.17725322  0.09815382  1
