# generated using pymatgen
data_Li3Fe4CuO8
_symmetry_space_group_name_H-M   'P 1'
_cell_length_a   5.99998179
_cell_length_b   5.99998191
_cell_length_c   5.98337721
_cell_angle_alpha   90.08663323
_cell_angle_beta   60.47157799
_cell_angle_gamma   59.53573362
_symmetry_Int_Tables_number   1
_chemical_formula_structural   Li3Fe4CuO8
_chemical_formula_sum   'Li3 Fe4 Cu1 O8'
_cell_volume   152.20218681
_cell_formula_units_Z   1
loop_
 _symmetry_equiv_pos_site_id
 _symmetry_equiv_pos_as_xyz
  1  'x, y, z'
loop_
 _atom_site_type_symbol
 _atom_site_label
 _atom_site_symmetry_multiplicity
 _atom_site_fract_x
 _atom_site_fract_y
 _atom_site_fract_z
 _atom_site_occupancy
  Li  Li0  1  0.00000000  0.00000000  0.50000000  1
  Li  Li1  1  0.50000000  0.00000000  0.50000000  1
  Li  Li2  1  0.50000000  0.50000000  0.50000000  1
  Fe  Fe3  1  0.00000000  0.50000000  0.50000000  1
  Fe  Fe4  1  0.00000000  0.00000000  0.00000000  1
  Fe  Fe5  1  0.50000000  0.00000000  0.00000000  1
  Fe  Fe6  1  0.00000000  0.50000000  0.00000000  1
  Cu  Cu7  1  0.50000000  0.50000000  0.00000000  1
  O  O8  1  0.48108921  0.26251173  0.78142251  1
  O  O9  1  0.01324408  0.25766995  0.74514544  1
  O  O10  1  0.51252450  0.75838852  0.74514544  1
  O  O11  1  0.99037912  0.74307064  0.75269152  1
  O  O12  1  0.00962088  0.25692936  0.24730848  1
  O  O13  1  0.48747550  0.24161148  0.25485456  1
  O  O14  1  0.98675592  0.74233005  0.25485456  1
  O  O15  1  0.51891079  0.73748827  0.21857749  1
