# generated using pymatgen
data_Li2VBO4
_symmetry_space_group_name_H-M   'P 1'
_cell_length_a   6.23912525
_cell_length_b   10.35917002
_cell_length_c   4.75933315
_cell_angle_alpha   90.00000000
_cell_angle_beta   90.00000000
_cell_angle_gamma   90.00000000
_symmetry_Int_Tables_number   1
_chemical_formula_structural   Li2VBO4
_chemical_formula_sum   'Li8 V4 B4 O16'
_cell_volume   307.60597803
_cell_formula_units_Z   4
loop_
 _symmetry_equiv_pos_site_id
 _symmetry_equiv_pos_as_xyz
  1  'x, y, z'
loop_
 _atom_site_type_symbol
 _atom_site_label
 _atom_site_symmetry_multiplicity
 _atom_site_fract_x
 _atom_site_fract_y
 _atom_site_fract_z
 _atom_site_occupancy
  Li  Li0  1  0.00187299  0.84341873  0.75499984  1
  Li  Li1  1  0.22814464  0.07223068  0.75462621  1
  Li  Li2  1  0.27185536  0.57223068  0.75462621  1
  Li  Li3  1  0.49812701  0.34341873  0.75499984  1
  Li  Li4  1  0.50187299  0.65658127  0.25499984  1
  Li  Li5  1  0.72814464  0.42776932  0.25462621  1
  Li  Li6  1  0.77185536  0.92776932  0.25462621  1
  Li  Li7  1  0.99812701  0.15658127  0.25499984  1
  V  V8  1  0.01273200  0.66117157  0.25194923  1
  V  V9  1  0.48726800  0.16117157  0.25194923  1
  V  V10  1  0.51273200  0.83882843  0.75194923  1
  V  V11  1  0.98726800  0.33882843  0.75194923  1
  B  B12  1  0.24580906  0.40979986  0.26640450  1
  B  B13  1  0.25419094  0.90979986  0.26640450  1
  B  B14  1  0.74580906  0.09020014  0.76640450  1
  B  B15  1  0.75419094  0.59020014  0.76640450  1
  O  O16  1  0.04414266  0.34373221  0.16187887  1
  O  O17  1  0.05597605  0.84282982  0.16329941  1
  O  O18  1  0.24879058  0.04800929  0.17058873  1
  O  O19  1  0.24295143  0.40375074  0.57937821  1
  O  O20  1  0.25704857  0.90375074  0.57937821  1
  O  O21  1  0.25120942  0.54800929  0.17058873  1
  O  O22  1  0.44402395  0.34282982  0.16329941  1
  O  O23  1  0.45585734  0.84373221  0.16187887  1
  O  O24  1  0.54414266  0.15626779  0.66187887  1
  O  O25  1  0.55597605  0.65717018  0.66329941  1
  O  O26  1  0.74879058  0.45199071  0.67058873  1
  O  O27  1  0.74295143  0.09624926  0.07937821  1
  O  O28  1  0.75704857  0.59624926  0.07937821  1
  O  O29  1  0.75120942  0.95199071  0.67058873  1
  O  O30  1  0.94402395  0.15717018  0.66329941  1
  O  O31  1  0.95585734  0.65626779  0.66187887  1
