# generated using pymatgen
data_V2Ni3Te3O16
_symmetry_space_group_name_H-M   'P 1'
_cell_length_a   6.08041735
_cell_length_b   6.06236177
_cell_length_c   9.21740632
_cell_angle_alpha   89.99828293
_cell_angle_beta   91.06761725
_cell_angle_gamma   119.90102192
_symmetry_Int_Tables_number   1
_chemical_formula_structural   V2Ni3Te3O16
_chemical_formula_sum   'V2 Ni3 Te3 O16'
_cell_volume   294.47383647
_cell_formula_units_Z   1
loop_
 _symmetry_equiv_pos_site_id
 _symmetry_equiv_pos_as_xyz
  1  'x, y, z'
loop_
 _atom_site_type_symbol
 _atom_site_label
 _atom_site_symmetry_multiplicity
 _atom_site_fract_x
 _atom_site_fract_y
 _atom_site_fract_z
 _atom_site_occupancy
  V  V0  1  0.36271196  0.68136327  0.50498148  1
  V  V1  1  0.72030319  0.36015339  0.96115078  1
  Ni  Ni2  1  0.65450090  0.82725068  0.20741100  1
  Ni  Ni3  1  0.83754937  0.66827587  0.70466790  1
  Ni  Ni4  1  0.83752216  0.16927862  0.70467715  1
  Te  Te5  1  0.15589263  0.82686936  0.21479541  1
  Te  Te6  1  0.15589030  0.32902793  0.21480606  1
  Te  Te7  1  0.33886223  0.16944721  0.71160236  1
  O  O8  1  0.18633469  0.83968124  0.59994507  1
  O  O9  1  0.02651279  0.51325946  0.33945475  1
  O  O10  1  0.30140438  0.65070814  0.09597378  1
  O  O11  1  0.00178288  0.00088550  0.32454383  1
  O  O12  1  0.02025952  0.01012677  0.80691793  1
  O  O13  1  0.18632588  0.34668967  0.59994813  1
  O  O14  1  0.45192937  0.94716841  0.33522742  1
  O  O15  1  0.45192133  0.50476566  0.33524457  1
  O  O16  1  0.31594757  0.15799784  0.10925330  1
  O  O17  1  0.64910735  0.82456404  0.59209332  1
  O  O18  1  0.51831769  0.46757473  0.84853418  1
  O  O19  1  0.51830429  0.05075744  0.84854332  1
  O  O20  1  0.64665118  0.32334196  0.60195353  1
  O  O21  1  0.84676921  0.67199785  0.10316081  1
  O  O22  1  0.96843033  0.48422494  0.84767087  1
  O  O23  1  0.84676779  0.17479101  0.10316304  1
