# generated using pymatgen
data_Li2AlVO4
_symmetry_space_group_name_H-M   'P 1'
_cell_length_a   6.47097469
_cell_length_b   11.03472049
_cell_length_c   5.12523526
_cell_angle_alpha   90.00000000
_cell_angle_beta   90.32560967
_cell_angle_gamma   90.00000000
_symmetry_Int_Tables_number   1
_chemical_formula_structural   Li2AlVO4
_chemical_formula_sum   'Li8 Al4 V4 O16'
_cell_volume   365.96354892
_cell_formula_units_Z   4
loop_
 _symmetry_equiv_pos_site_id
 _symmetry_equiv_pos_as_xyz
  1  'x, y, z'
loop_
 _atom_site_type_symbol
 _atom_site_label
 _atom_site_symmetry_multiplicity
 _atom_site_fract_x
 _atom_site_fract_y
 _atom_site_fract_z
 _atom_site_occupancy
  Li  Li0  1  0.00592169  0.83585012  0.68985240  1
  Li  Li1  1  0.23822146  0.07724384  0.70369236  1
  Li  Li2  1  0.26177854  0.57724384  0.79630764  1
  Li  Li3  1  0.49407831  0.33585012  0.81014760  1
  Li  Li4  1  0.50592169  0.66414988  0.18985240  1
  Li  Li5  1  0.73822146  0.42275616  0.20369236  1
  Li  Li6  1  0.76177854  0.92275616  0.29630764  1
  Li  Li7  1  0.99407831  0.16414988  0.31014760  1
  Al  Al8  1  0.24606336  0.41427894  0.31344394  1
  Al  Al9  1  0.25393664  0.91427894  0.18655606  1
  Al  Al10  1  0.74606336  0.08572106  0.81344394  1
  Al  Al11  1  0.75393664  0.58572106  0.68655606  1
  V  V12  1  0.00372530  0.66631617  0.18812780  1
  V  V13  1  0.49627470  0.16631617  0.31187220  1
  V  V14  1  0.50372530  0.83368383  0.68812780  1
  V  V15  1  0.99627470  0.33368383  0.81187220  1
  O  O16  1  0.02043266  0.33785659  0.19562810  1
  O  O17  1  0.03018322  0.83373778  0.29195203  1
  O  O18  1  0.24948086  0.06689371  0.29373469  1
  O  O19  1  0.23803149  0.40959800  0.66228590  1
  O  O20  1  0.26196851  0.90959800  0.83771410  1
  O  O21  1  0.25051914  0.56689371  0.20626531  1
  O  O22  1  0.46981678  0.33373778  0.20804797  1
  O  O23  1  0.47956734  0.83785659  0.30437190  1
  O  O24  1  0.52043266  0.16214341  0.69562810  1
  O  O25  1  0.53018322  0.66626222  0.79195203  1
  O  O26  1  0.74948086  0.43310629  0.79373469  1
  O  O27  1  0.73803149  0.09040200  0.16228590  1
  O  O28  1  0.76196851  0.59040200  0.33771410  1
  O  O29  1  0.75051914  0.93310629  0.70626531  1
  O  O30  1  0.96981678  0.16626222  0.70804797  1
  O  O31  1  0.97956734  0.66214341  0.80437190  1
