# generated using pymatgen
data_Mn2P4O13
_symmetry_space_group_name_H-M   'P 1'
_cell_length_a   6.20440040
_cell_length_b   7.04551509
_cell_length_c   14.37349529
_cell_angle_alpha   67.98791145
_cell_angle_beta   90.00000000
_cell_angle_gamma   63.87643804
_symmetry_Int_Tables_number   1
_chemical_formula_structural   Mn2P4O13
_chemical_formula_sum   'Mn4 P8 O26'
_cell_volume   512.62349785
_cell_formula_units_Z   2
loop_
 _symmetry_equiv_pos_site_id
 _symmetry_equiv_pos_as_xyz
  1  'x, y, z'
loop_
 _atom_site_type_symbol
 _atom_site_label
 _atom_site_symmetry_multiplicity
 _atom_site_fract_x
 _atom_site_fract_y
 _atom_site_fract_z
 _atom_site_occupancy
  Mn  Mn0  1  0.30573221  0.44505498  0.89419175  1
  Mn  Mn1  1  0.75078719  0.55494502  0.60580825  1
  Mn  Mn2  1  0.24921281  0.44505498  0.39419175  1
  Mn  Mn3  1  0.69426779  0.55494502  0.10580825  1
  P  P4  1  0.19154159  0.95298335  0.86180959  1
  P  P5  1  0.85547507  0.95298335  0.36180959  1
  P  P6  1  0.81670977  0.42531317  0.84285763  1
  P  P7  1  0.24202294  0.57468683  0.65714237  1
  P  P8  1  0.75797706  0.42531317  0.34285763  1
  P  P9  1  0.18329023  0.57468683  0.15714237  1
  P  P10  1  0.14452493  0.04701665  0.63819041  1
  P  P11  1  0.80845841  0.04701665  0.13819041  1
  O  O12  1  0.38030715  0.93584737  0.93283775  1
  O  O13  1  0.12274494  0.75902802  0.88943765  1
  O  O14  1  0.68384449  0.93584737  0.43283775  1
  O  O15  1  0.09991635  0.82491650  0.65988193  1
  O  O16  1  0.00957342  0.42919925  0.90678569  1
  O  O17  1  0.60337635  0.45859566  0.89967564  1
  O  O18  1  0.73143666  0.60468187  0.73163616  1
  O  O19  1  0.11822704  0.75902802  0.38943765  1
  O  O20  1  0.07516615  0.82491650  0.15988193  1
  O  O21  1  0.33611952  0.39531813  0.76836384  1
  O  O22  1  0.06197201  0.54140434  0.60032436  1
  O  O23  1  0.43877267  0.57080075  0.59321431  1
  O  O24  1  0.56122733  0.42919925  0.40678569  1
  O  O25  1  0.93802799  0.45859566  0.39967564  1
  O  O26  1  0.66388048  0.60468187  0.23163616  1
  O  O27  1  0.92483385  0.17508350  0.84011807  1
  O  O28  1  0.88177296  0.24097198  0.61056235  1
  O  O29  1  0.26856334  0.39531813  0.26836384  1
  O  O30  1  0.39662365  0.54140434  0.10032436  1
  O  O31  1  0.99042658  0.57080075  0.09321431  1
  O  O32  1  0.26292202  0.00000000  0.75000000  1
  O  O33  1  0.90008365  0.17508350  0.34011807  1
  O  O34  1  0.31615551  0.06415263  0.56716225  1
  O  O35  1  0.87725506  0.24097198  0.11056235  1
  O  O36  1  0.73707798  0.00000000  0.25000000  1
  O  O37  1  0.61969285  0.06415263  0.06716225  1
