# generated using pymatgen
data_Li4Fe2O5
_symmetry_space_group_name_H-M   'P 1'
_cell_length_a   11.26547789
_cell_length_b   5.59099856
_cell_length_c   7.76355145
_cell_angle_alpha   90.00000000
_cell_angle_beta   103.50209955
_cell_angle_gamma   90.00000000
_symmetry_Int_Tables_number   1
_chemical_formula_structural   Li4Fe2O5
_chemical_formula_sum   'Li16 Fe8 O20'
_cell_volume   475.47439052
_cell_formula_units_Z   4
loop_
 _symmetry_equiv_pos_site_id
 _symmetry_equiv_pos_as_xyz
  1  'x, y, z'
loop_
 _atom_site_type_symbol
 _atom_site_label
 _atom_site_symmetry_multiplicity
 _atom_site_fract_x
 _atom_site_fract_y
 _atom_site_fract_z
 _atom_site_occupancy
  Li  Li0  1  0.01289056  0.06316882  0.84298756  1
  Li  Li1  1  0.02006841  0.45081096  0.32063428  1
  Li  Li2  1  0.10272261  0.89318574  0.52631331  1
  Li  Li3  1  0.11504623  0.56728020  0.97238156  1
  Li  Li4  1  0.39727739  0.39318574  0.97368669  1
  Li  Li5  1  0.38495377  0.06728020  0.52761844  1
  Li  Li6  1  0.48710944  0.56316882  0.65701244  1
  Li  Li7  1  0.52006841  0.04918904  0.82063428  1
  Li  Li8  1  0.47993159  0.95081096  0.17936572  1
  Li  Li9  1  0.51289056  0.43683118  0.34298756  1
  Li  Li10  1  0.61504623  0.93271980  0.47238156  1
  Li  Li11  1  0.60272261  0.60681426  0.02631331  1
  Li  Li12  1  0.88495377  0.43271980  0.02761844  1
  Li  Li13  1  0.89727739  0.10681426  0.47368669  1
  Li  Li14  1  0.97993159  0.54918904  0.67936572  1
  Li  Li15  1  0.98710944  0.93683118  0.15701244  1
  Fe  Fe16  1  0.19887585  0.37136459  0.63927855  1
  Fe  Fe17  1  0.30112415  0.87136459  0.86072145  1
  Fe  Fe18  1  0.20542894  0.21696020  0.20114608  1
  Fe  Fe19  1  0.29457106  0.71696020  0.29885392  1
  Fe  Fe20  1  0.70542794  0.28303980  0.70114608  1
  Fe  Fe21  1  0.79457206  0.78303980  0.79885392  1
  Fe  Fe22  1  0.69887585  0.12863541  0.13927855  1
  Fe  Fe23  1  0.80112415  0.62863541  0.36072145  1
  O  O24  1  0.04989207  0.22004222  0.63121323  1
  O  O25  1  0.16238231  0.67888812  0.74263947  1
  O  O26  1  0.04139231  0.25206212  0.06825952  1
  O  O27  1  0.21454306  0.98038019  0.38838670  1
  O  O28  1  0.20074885  0.46685873  0.40230088  1
  O  O29  1  0.33761769  0.17888812  0.75736053  1
  O  O30  1  0.29925115  0.96685873  0.09769912  1
  O  O31  1  0.28545694  0.48038019  0.11161330  1
  O  O32  1  0.45010793  0.72004222  0.86878677  1
  O  O33  1  0.45860769  0.75206212  0.43174048  1
  O  O34  1  0.54139231  0.24793788  0.56825952  1
  O  O35  1  0.54989207  0.27995778  0.13121323  1
  O  O36  1  0.71454306  0.51961981  0.88838670  1
  O  O37  1  0.70074885  0.03314127  0.90230088  1
  O  O38  1  0.66238231  0.82111188  0.24263947  1
  O  O39  1  0.79925115  0.53314127  0.59769912  1
  O  O40  1  0.78545694  0.01961981  0.61161330  1
  O  O41  1  0.95860769  0.74793788  0.93174048  1
  O  O42  1  0.83761769  0.32111188  0.25736053  1
  O  O43  1  0.95010793  0.77995778  0.36878677  1
