# generated using pymatgen
data_Li2VBO4
_symmetry_space_group_name_H-M   'P 1'
_cell_length_a   6.24825665
_cell_length_b   5.18346749
_cell_length_c   4.75028427
_cell_angle_alpha   89.95149141
_cell_angle_beta   89.98911387
_cell_angle_gamma   89.96637902
_symmetry_Int_Tables_number   1
_chemical_formula_structural   Li2VBO4
_chemical_formula_sum   'Li4 V2 B2 O8'
_cell_volume   153.85038984
_cell_formula_units_Z   2
loop_
 _symmetry_equiv_pos_site_id
 _symmetry_equiv_pos_as_xyz
  1  'x, y, z'
loop_
 _atom_site_type_symbol
 _atom_site_label
 _atom_site_symmetry_multiplicity
 _atom_site_fract_x
 _atom_site_fract_y
 _atom_site_fract_z
 _atom_site_occupancy
  Li  Li0  1  0.24688313  0.35185679  0.49236579  1
  Li  Li1  1  0.49554162  0.19017621  0.99558081  1
  Li  Li2  1  0.74638396  0.64815680  0.99084451  1
  Li  Li3  1  0.99475034  0.80983716  0.49428685  1
  V  V4  1  0.00568357  0.17559978  0.99043942  1
  V  V5  1  0.50510789  0.82418614  0.48997860  1
  B  B6  1  0.24767609  0.67893205  0.00612469  1
  B  B7  1  0.74771456  0.32099263  0.50614366  1
  O  O8  1  0.04851058  0.81403113  0.90364749  1
  O  O9  1  0.24289519  0.40298171  0.91056716  1
  O  O10  1  0.25077552  0.69188904  0.31949357  1
  O  O11  1  0.44840554  0.81003765  0.90022198  1
  O  O12  1  0.54859313  0.18602276  0.40448895  1
  O  O13  1  0.74243594  0.59683630  0.40948380  1
  O  O14  1  0.75113980  0.30827433  0.81943242  1
  O  O15  1  0.94844914  0.19006653  0.40029230  1
