# generated using pymatgen
data_Li3FeBAsO7
_symmetry_space_group_name_H-M   'P 1'
_cell_length_a   8.57681369
_cell_length_b   6.59841847
_cell_length_c   5.09451204
_cell_angle_alpha   90.00000000
_cell_angle_beta   86.18171424
_cell_angle_gamma   90.00000000
_symmetry_Int_Tables_number   1
_chemical_formula_structural   Li3FeBAsO7
_chemical_formula_sum   'Li6 Fe2 B2 As2 O14'
_cell_volume   287.67580360
_cell_formula_units_Z   2
loop_
 _symmetry_equiv_pos_site_id
 _symmetry_equiv_pos_as_xyz
  1  'x, y, z'
loop_
 _atom_site_type_symbol
 _atom_site_label
 _atom_site_symmetry_multiplicity
 _atom_site_fract_x
 _atom_site_fract_y
 _atom_site_fract_z
 _atom_site_occupancy
  Li  Li0  1  0.08492677  0.25000000  0.73780796  1
  Li  Li1  1  0.22140393  0.98617043  0.23667608  1
  Li  Li2  1  0.22140393  0.51382957  0.23667608  1
  Li  Li3  1  0.77859607  0.48617043  0.76332392  1
  Li  Li4  1  0.77859607  0.01382957  0.76332392  1
  Li  Li5  1  0.91507323  0.75000000  0.26219204  1
  Fe  Fe6  1  0.31901939  0.75000000  0.78058281  1
  Fe  Fe7  1  0.68098061  0.25000000  0.21941719  1
  B  B8  1  0.03588073  0.75000000  0.72309091  1
  B  B9  1  0.96411927  0.25000000  0.27690909  1
  As  As10  1  0.42118726  0.25000000  0.72251523  1
  As  As11  1  0.57881274  0.75000000  0.27748477  1
  O  O12  1  0.11559775  0.25000000  0.33913509  1
  O  O13  1  0.08994780  0.75000000  0.97787404  1
  O  O14  1  0.15757228  0.75000000  0.52049198  1
  O  O15  1  0.29856763  0.05345131  0.81779233  1
  O  O16  1  0.29856763  0.44654869  0.81779233  1
  O  O17  1  0.46178456  0.25000000  0.38658700  1
  O  O18  1  0.39910210  0.75000000  0.14867959  1
  O  O19  1  0.60089790  0.25000000  0.85132041  1
  O  O20  1  0.53821544  0.75000000  0.61341300  1
  O  O21  1  0.70143237  0.55345131  0.18220767  1
  O  O22  1  0.70143237  0.94654869  0.18220767  1
  O  O23  1  0.84242772  0.25000000  0.47950802  1
  O  O24  1  0.91005220  0.25000000  0.02212596  1
  O  O25  1  0.88440225  0.75000000  0.66086491  1
