# generated using pymatgen
data_Li4Ti3MnO8
_symmetry_space_group_name_H-M   'P 1'
_cell_length_a   10.44723516
_cell_length_b   10.44715973
_cell_length_c   14.78389128
_cell_angle_alpha   19.35159775
_cell_angle_beta   19.35230487
_cell_angle_gamma   33.35129936
_symmetry_Int_Tables_number   1
_chemical_formula_structural   Li4Ti3MnO8
_chemical_formula_sum   'Li4 Ti3 Mn1 O8'
_cell_volume   153.46532585
_cell_formula_units_Z   1
loop_
 _symmetry_equiv_pos_site_id
 _symmetry_equiv_pos_as_xyz
  1  'x, y, z'
loop_
 _atom_site_type_symbol
 _atom_site_label
 _atom_site_symmetry_multiplicity
 _atom_site_fract_x
 _atom_site_fract_y
 _atom_site_fract_z
 _atom_site_occupancy
  Li  Li0  1  0.00000334  -0.00000083  0.49999798  1
  Li  Li1  1  0.00000282  0.50000157  0.49999714  1
  Li  Li2  1  0.50000336  0.00000030  0.49999714  1
  Li  Li3  1  0.50000288  0.49999919  0.49999786  1
  Ti  Ti4  1  0.99999717  0.49999496  0.00000602  1
  Ti  Ti5  1  0.50000055  0.00000074  -0.00000043  1
  Ti  Ti6  1  0.49999494  0.50000181  0.00000341  1
  Mn  Mn7  1  0.99997774  0.99999261  0.00002146  1
  O  O8  1  0.99960934  0.99955704  0.25590971  1
  O  O9  1  0.00010155  0.47437575  0.27288688  1
  O  O10  1  0.47437212  0.00009327  0.27287750  1
  O  O11  1  0.00039436  0.00044637  0.74408439  1
  O  O12  1  0.52537556  0.52536530  0.22193583  1
  O  O13  1  0.99990271  0.52562206  0.72711113  1
  O  O14  1  0.52563025  0.99991160  0.72711617  1
  O  O15  1  0.47463231  0.47463626  0.77805779  1
