# generated using pymatgen
data_Li3SiSbCO7
_symmetry_space_group_name_H-M   'P 1'
_cell_length_a   9.07251978
_cell_length_b   6.87162295
_cell_length_c   5.04498712
_cell_angle_alpha   90.00000000
_cell_angle_beta   93.34798441
_cell_angle_gamma   90.00000000
_symmetry_Int_Tables_number   1
_chemical_formula_structural   Li3SiSbCO7
_chemical_formula_sum   'Li6 Si2 Sb2 C2 O14'
_cell_volume   313.98250114
_cell_formula_units_Z   2
loop_
 _symmetry_equiv_pos_site_id
 _symmetry_equiv_pos_as_xyz
  1  'x, y, z'
loop_
 _atom_site_type_symbol
 _atom_site_label
 _atom_site_symmetry_multiplicity
 _atom_site_fract_x
 _atom_site_fract_y
 _atom_site_fract_z
 _atom_site_occupancy
  Li  Li0  1  0.08015623  0.25000000  0.83305776  1
  Li  Li1  1  0.28291204  0.05238289  0.22380368  1
  Li  Li2  1  0.28291204  0.44761711  0.22380368  1
  Li  Li3  1  0.71708796  0.55238289  0.77619632  1
  Li  Li4  1  0.71708796  0.94761711  0.77619632  1
  Li  Li5  1  0.91984377  0.75000000  0.16694224  1
  Si  Si6  1  0.40503966  0.25000000  0.73045682  1
  Si  Si7  1  0.59496034  0.75000000  0.26954318  1
  Sb  Sb8  1  0.33912939  0.75000000  0.75295898  1
  Sb  Sb9  1  0.66087061  0.25000000  0.24704102  1
  C  C10  1  0.02063605  0.75000000  0.70853081  1
  C  C11  1  0.97936395  0.25000000  0.29146919  1
  O  O12  1  0.11689412  0.25000000  0.23524482  1
  O  O13  1  0.11777279  0.75000000  0.91539683  1
  O  O14  1  0.06316632  0.75000000  0.47077637  1
  O  O15  1  0.31069090  0.06345110  0.83683300  1
  O  O16  1  0.31069090  0.43654890  0.83683300  1
  O  O17  1  0.41257526  0.25000000  0.40564170  1
  O  O18  1  0.41890746  0.75000000  0.14536604  1
  O  O19  1  0.58109254  0.25000000  0.85463396  1
  O  O20  1  0.58742474  0.75000000  0.59435830  1
  O  O21  1  0.68930910  0.56345110  0.16316700  1
  O  O22  1  0.68930910  0.93654890  0.16316700  1
  O  O23  1  0.93683368  0.25000000  0.52922363  1
  O  O24  1  0.88222721  0.25000000  0.08460317  1
  O  O25  1  0.88310588  0.75000000  0.76475518  1
