# generated using pymatgen
data_LiMnB2O5
_symmetry_space_group_name_H-M   'P 1'
_cell_length_a   6.74102459
_cell_length_b   9.47510230
_cell_length_c   6.49295069
_cell_angle_alpha   90.00000000
_cell_angle_beta   73.75706712
_cell_angle_gamma   90.00000000
_symmetry_Int_Tables_number   1
_chemical_formula_structural   LiMnB2O5
_chemical_formula_sum   'Li4 Mn4 B8 O20'
_cell_volume   398.16338481
_cell_formula_units_Z   4
loop_
 _symmetry_equiv_pos_site_id
 _symmetry_equiv_pos_as_xyz
  1  'x, y, z'
loop_
 _atom_site_type_symbol
 _atom_site_label
 _atom_site_symmetry_multiplicity
 _atom_site_fract_x
 _atom_site_fract_y
 _atom_site_fract_z
 _atom_site_occupancy
  Li  Li0  1  0.24509269  0.81242661  0.20043702  1
  Li  Li1  1  0.24509269  0.68757339  0.70043702  1
  Li  Li2  1  0.75490731  0.31242661  0.29956298  1
  Li  Li3  1  0.75490731  0.18757339  0.79956298  1
  Mn  Mn4  1  0.18060561  0.43893161  0.31809536  1
  Mn  Mn5  1  0.18060561  0.06106839  0.81809536  1
  Mn  Mn6  1  0.81939439  0.93893161  0.18190464  1
  Mn  Mn7  1  0.81939439  0.56106839  0.68190464  1
  B  B8  1  0.14078002  0.13120827  0.29383388  1
  B  B9  1  0.14078002  0.36879173  0.79383388  1
  B  B10  1  0.49420200  0.04759579  0.27736203  1
  B  B11  1  0.50579800  0.54759579  0.22263797  1
  B  B12  1  0.49420200  0.45240421  0.77736203  1
  B  B13  1  0.50579800  0.95240421  0.72263797  1
  B  B14  1  0.85921998  0.63120827  0.20616612  1
  B  B15  1  0.85921998  0.86879173  0.70616612  1
  O  O16  1  0.95751045  0.75737174  0.17562582  1
  O  O17  1  0.09091472  0.01815198  0.18122613  1
  O  O18  1  0.95751045  0.74262826  0.67562582  1
  O  O19  1  0.09091472  0.48184802  0.68122613  1
  O  O20  1  0.30878663  0.11267616  0.37910864  1
  O  O21  1  0.32074415  0.61870368  0.25600688  1
  O  O22  1  0.30878663  0.38732384  0.87910864  1
  O  O23  1  0.51968959  0.90800154  0.21734219  1
  O  O24  1  0.32074415  0.88129632  0.75600688  1
  O  O25  1  0.48031041  0.40800154  0.28265781  1
  O  O26  1  0.51968959  0.59199846  0.71734219  1
  O  O27  1  0.67925585  0.11870368  0.24399312  1
  O  O28  1  0.48031041  0.09199846  0.78265781  1
  O  O29  1  0.69121337  0.61267616  0.12089136  1
  O  O30  1  0.67925585  0.38129632  0.74399312  1
  O  O31  1  0.69121337  0.88732384  0.62089136  1
  O  O32  1  0.90908528  0.51815198  0.31877387  1
  O  O33  1  0.04248955  0.25737174  0.32437418  1
  O  O34  1  0.90908528  0.98184802  0.81877387  1
  O  O35  1  0.04248955  0.24262826  0.82437418  1
