# generated using pymatgen
data_Li2CoBO4
_symmetry_space_group_name_H-M   'P 1'
_cell_length_a   5.79388056
_cell_length_b   10.34494683
_cell_length_c   5.00254898
_cell_angle_alpha   89.97910600
_cell_angle_beta   89.99997263
_cell_angle_gamma   89.99983224
_symmetry_Int_Tables_number   1
_chemical_formula_structural   Li2CoBO4
_chemical_formula_sum   'Li8 Co4 B4 O16'
_cell_volume   299.83969117
_cell_formula_units_Z   4
loop_
 _symmetry_equiv_pos_site_id
 _symmetry_equiv_pos_as_xyz
  1  'x, y, z'
loop_
 _atom_site_type_symbol
 _atom_site_label
 _atom_site_symmetry_multiplicity
 _atom_site_fract_x
 _atom_site_fract_y
 _atom_site_fract_z
 _atom_site_occupancy
  Li  Li0  1  0.00349522  0.33342632  0.17595685  1
  Li  Li1  1  0.00345632  0.83338769  0.32409405  1
  Li  Li2  1  0.49650557  0.33342640  0.17595724  1
  Li  Li3  1  0.49654386  0.83338734  0.32409405  1
  Li  Li4  1  0.50343733  0.16660991  0.67588637  1
  Li  Li5  1  0.50347081  0.66657943  0.82405857  1
  Li  Li6  1  0.99652845  0.66657918  0.82405854  1
  Li  Li7  1  0.99656302  0.16660961  0.67588642  1
  Co  Co8  1  0.24999920  0.41770757  0.68115823  1
  Co  Co9  1  0.24999956  0.91774890  0.81893032  1
  Co  Co10  1  0.75000034  0.08224541  0.18106148  1
  Co  Co11  1  0.75000022  0.58228964  0.31885403  1
  B  B12  1  0.25000076  0.08459093  0.16505441  1
  B  B13  1  0.24999968  0.58459702  0.33494264  1
  B  B14  1  0.74999954  0.41540034  0.66507489  1
  B  B15  1  0.74999987  0.91540779  0.83493605  1
  O  O16  1  0.03774110  0.14604955  0.28200597  1
  O  O17  1  0.03775261  0.64607903  0.21792910  1
  O  O18  1  0.25000186  0.09959869  0.86939344  1
  O  O19  1  0.25000068  0.44197552  0.29803131  1
  O  O20  1  0.25000023  0.94195972  0.20205218  1
  O  O21  1  0.25000024  0.59956167  0.63059076  1
  O  O22  1  0.46225897  0.14604875  0.28200644  1
  O  O23  1  0.46224648  0.64607937  0.21792737  1
  O  O24  1  0.53773979  0.85395357  0.71798233  1
  O  O25  1  0.53775513  0.35392336  0.78207939  1
  O  O26  1  0.74999982  0.05804022  0.79794331  1
  O  O27  1  0.75000059  0.40043696  0.36941738  1
  O  O28  1  0.74999984  0.55802821  0.70197838  1
  O  O29  1  0.74999890  0.90039653  0.13059598  1
  O  O30  1  0.96224365  0.35392278  0.78208010  1
  O  O31  1  0.96226035  0.85395257  0.71798242  1
