# generated using pymatgen
data_MnFeBO4
_symmetry_space_group_name_H-M   'P 1'
_cell_length_a   9.50826151
_cell_length_b   3.22477456
_cell_length_c   9.53667814
_cell_angle_alpha   90.06305454
_cell_angle_beta   90.58207075
_cell_angle_gamma   90.16040626
_symmetry_Int_Tables_number   1
_chemical_formula_structural   MnFeBO4
_chemical_formula_sum   'Mn4 Fe4 B4 O16'
_cell_volume   292.39720171
_cell_formula_units_Z   4
loop_
 _symmetry_equiv_pos_site_id
 _symmetry_equiv_pos_as_xyz
  1  'x, y, z'
loop_
 _atom_site_type_symbol
 _atom_site_label
 _atom_site_symmetry_multiplicity
 _atom_site_fract_x
 _atom_site_fract_y
 _atom_site_fract_z
 _atom_site_occupancy
  Mn  Mn0  1  0.10194145  0.25047265  0.18611170  1
  Mn  Mn1  1  0.40213469  0.75000859  0.69411059  1
  Mn  Mn2  1  0.60227506  0.25186130  0.30915466  1
  Mn  Mn3  1  0.89452880  0.75006343  0.81231946  1
  Fe  Fe4  1  0.11755007  0.25104827  0.56809254  1
  Fe  Fe5  1  0.38711410  0.74704379  0.06403662  1
  Fe  Fe6  1  0.62152414  0.25085696  0.93602173  1
  Fe  Fe7  1  0.88348085  0.74714902  0.43006190  1
  B  B8  1  0.16740008  0.25041216  0.87422981  1
  B  B9  1  0.33598367  0.75182503  0.37258612  1
  B  B10  1  0.66574335  0.25167053  0.62379893  1
  B  B11  1  0.82885118  0.74739053  0.12532825  1
  O  O12  1  0.00465008  0.24861360  0.38845800  1
  O  O13  1  0.02524254  0.25019291  0.87527512  1
  O  O14  1  0.24510546  0.25033094  0.00058146  1
  O  O15  1  0.23981387  0.25067285  0.74580474  1
  O  O16  1  0.26202575  0.74984143  0.24613595  1
  O  O17  1  0.26149820  0.74932636  0.50152150  1
  O  O18  1  0.47866980  0.75533582  0.37403889  1
  O  O19  1  0.48925033  0.75070344  0.88827694  1
  O  O20  1  0.50512865  0.24929241  0.12161611  1
  O  O21  1  0.52307122  0.25076333  0.62489017  1
  O  O22  1  0.73559556  0.25297764  0.49187106  1
  O  O23  1  0.74422076  0.25004419  0.74695180  1
  O  O24  1  0.75261247  0.74425913  0.25249496  1
  O  O25  1  0.75896452  0.74876459  0.99735866  1
  O  O26  1  0.97057330  0.74954741  0.13574747  1
  O  O27  1  0.99505006  0.74953171  0.61312488  1
