# generated using pymatgen
data_Na2BSbSO7
_symmetry_space_group_name_H-M   'P 1'
_cell_length_a   9.50845879
_cell_length_b   6.90616480
_cell_length_c   5.57077091
_cell_angle_alpha   90.00000000
_cell_angle_beta   92.27868991
_cell_angle_gamma   90.00000000
_symmetry_Int_Tables_number   1
_chemical_formula_structural   Na2BSbSO7
_chemical_formula_sum   'Na4 B2 Sb2 S2 O14'
_cell_volume   365.52645281
_cell_formula_units_Z   2
loop_
 _symmetry_equiv_pos_site_id
 _symmetry_equiv_pos_as_xyz
  1  'x, y, z'
loop_
 _atom_site_type_symbol
 _atom_site_label
 _atom_site_symmetry_multiplicity
 _atom_site_fract_x
 _atom_site_fract_y
 _atom_site_fract_z
 _atom_site_occupancy
  Na  Na0  1  0.19700292  0.49772442  0.24412168  1
  Na  Na1  1  0.19700292  0.00227558  0.24412168  1
  Na  Na2  1  0.80299708  0.50227558  0.75587832  1
  Na  Na3  1  0.80299708  0.99772442  0.75587832  1
  B  B4  1  0.08731905  0.75000000  0.74126519  1
  B  B5  1  0.91268095  0.25000000  0.25873481  1
  Sb  Sb6  1  0.35513630  0.75000000  0.77262842  1
  Sb  Sb7  1  0.64486370  0.25000000  0.22737158  1
  S  S8  1  0.39534733  0.25000000  0.72318652  1
  S  S9  1  0.60465267  0.75000000  0.27681348  1
  O  O10  1  0.04958678  0.25000000  0.26867081  1
  O  O11  1  0.17703519  0.75000000  0.95916450  1
  O  O12  1  0.18164436  0.75000000  0.54191810  1
  O  O13  1  0.33455552  0.07732112  0.85007019  1
  O  O14  1  0.33455552  0.42267888  0.85007019  1
  O  O15  1  0.44769665  0.75000000  0.24401814  1
  O  O16  1  0.35301107  0.25000000  0.46705889  1
  O  O17  1  0.64698893  0.75000000  0.53294111  1
  O  O18  1  0.55230335  0.25000000  0.75598186  1
  O  O19  1  0.66544448  0.57732112  0.14992981  1
  O  O20  1  0.66544448  0.92267888  0.14992981  1
  O  O21  1  0.81835564  0.25000000  0.45808190  1
  O  O22  1  0.82296481  0.25000000  0.04083550  1
  O  O23  1  0.95041322  0.75000000  0.73132919  1
