# generated using pymatgen
data_Co5Te3O16
_symmetry_space_group_name_H-M   'P 1'
_cell_length_a   5.95578715
_cell_length_b   5.97582042
_cell_length_c   8.95469731
_cell_angle_alpha   89.84350725
_cell_angle_beta   90.84680259
_cell_angle_gamma   120.13667163
_symmetry_Int_Tables_number   1
_chemical_formula_structural   Co5Te3O16
_chemical_formula_sum   'Co5 Te3 O16'
_cell_volume   275.59077342
_cell_formula_units_Z   1
loop_
 _symmetry_equiv_pos_site_id
 _symmetry_equiv_pos_as_xyz
  1  'x, y, z'
loop_
 _atom_site_type_symbol
 _atom_site_label
 _atom_site_symmetry_multiplicity
 _atom_site_fract_x
 _atom_site_fract_y
 _atom_site_fract_z
 _atom_site_occupancy
  Co  Co0  1  0.36528578  0.68095637  0.50654661  1
  Co  Co1  1  0.65949025  0.82929063  0.20378205  1
  Co  Co2  1  0.69632025  0.34799645  0.97245514  1
  Co  Co3  1  0.82963713  0.66056346  0.71460487  1
  Co  Co4  1  0.83070312  0.17164271  0.71379826  1
  Te  Te5  1  0.16183211  0.82801507  0.21072148  1
  Te  Te6  1  0.16184217  0.33366309  0.21029561  1
  Te  Te7  1  0.32728488  0.16339728  0.71142114  1
  O  O8  1  0.16041465  0.83392567  0.60612757  1
  O  O9  1  0.02433045  0.51146988  0.33876321  1
  O  O10  1  0.30584304  0.65346791  0.08507111  1
  O  O11  1  0.00997281  0.00451776  0.32429499  1
  O  O12  1  0.99637775  0.99916546  0.81873900  1
  O  O13  1  0.16312875  0.33048252  0.60546063  1
  O  O14  1  0.46359655  0.95630783  0.33409452  1
  O  O15  1  0.46298678  0.50264894  0.33443757  1
  O  O16  1  0.32674341  0.16358435  0.09558174  1
  O  O17  1  0.67251508  0.83748614  0.61081441  1
  O  O18  1  0.53634321  0.48125420  0.84412024  1
  O  O19  1  0.53786174  0.05532296  0.84405653  1
  O  O20  1  0.66504824  0.33355814  0.60358303  1
  O  O21  1  0.84396194  0.66904700  0.09770140  1
  O  O22  1  0.95466088  0.47740026  0.83156181  1
  O  O23  1  0.84382102  0.17503491  0.09768609  1
