# generated using pymatgen
data_Li4Ti2V3(Fe2O9)2
_symmetry_space_group_name_H-M   'P 1'
_cell_length_a   9.13239903
_cell_length_b   25.56661385
_cell_length_c   2.96500481
_cell_angle_alpha   90.00000342
_cell_angle_beta   90.00008503
_cell_angle_gamma   90.00781054
_symmetry_Int_Tables_number   1
_chemical_formula_structural   Li4Ti2V3(Fe2O9)2
_chemical_formula_sum   'Li8 Ti4 V6 Fe8 O36'
_cell_volume   692.28271737
_cell_formula_units_Z   2
loop_
 _symmetry_equiv_pos_site_id
 _symmetry_equiv_pos_as_xyz
  1  'x, y, z'
loop_
 _atom_site_type_symbol
 _atom_site_label
 _atom_site_symmetry_multiplicity
 _atom_site_fract_x
 _atom_site_fract_y
 _atom_site_fract_z
 _atom_site_occupancy
  Li  Li0  1  0.19620744  0.99062155  0.00000088  1
  Li  Li1  1  0.19410640  0.18514617  0.00000263  1
  Li  Li2  1  0.30548764  0.68497723  0.99999519  1
  Li  Li3  1  0.30395341  0.49069043  0.00000017  1
  Li  Li4  1  0.69613149  0.50927502  0.00000003  1
  Li  Li5  1  0.69540903  0.31546321  0.00000219  1
  Li  Li6  1  0.80458216  0.81529010  0.99999331  1
  Li  Li7  1  0.80394561  0.00927434  0.00000143  1
  Ti  Ti8  1  0.99600694  0.09969826  0.99999897  1
  Ti  Ti9  1  0.50406200  0.59972312  0.00000137  1
  Ti  Ti10  1  0.49602015  0.40027859  0.99999832  1
  Ti  Ti11  1  0.00400640  0.90024802  0.00000215  1
  V  V12  1  0.00009205  0.50001215  0.99999896  1
  V  V13  1  0.14988345  0.80910685  0.50000096  1
  V  V14  1  0.34997994  0.30915260  0.49999951  1
  V  V15  1  0.50000458  0.00000311  0.00000008  1
  V  V16  1  0.65013341  0.69087414  0.49999943  1
  V  V17  1  0.84983489  0.19083730  0.49999975  1
  Fe  Fe18  1  0.00752081  0.30456999  0.00000274  1
  Fe  Fe19  1  0.14767918  0.58750745  0.50000062  1
  Fe  Fe20  1  0.35233400  0.08749302  0.49999797  1
  Fe  Fe21  1  0.49234712  0.80457782  0.00000141  1
  Fe  Fe22  1  0.50736467  0.19538683  0.00000143  1
  Fe  Fe23  1  0.64752065  0.91252560  0.50000405  1
  Fe  Fe24  1  0.85258478  0.41252079  0.49999333  1
  Fe  Fe25  1  0.99256268  0.69534351  -0.00000085  1
  O  O26  1  0.99743323  0.42577183  -0.00000191  1
  O  O27  1  0.00277253  0.57423481  0.00000117  1
  O  O28  1  0.05837868  0.94351635  0.50000076  1
  O  O29  1  0.04421755  0.15674467  0.50000089  1
  O  O30  1  0.11803962  0.66617422  0.50000300  1
  O  O31  1  0.08895787  0.76278794  -0.00000108  1
  O  O32  1  0.14948419  0.50463862  0.49999766  1
  O  O33  1  0.15090041  0.28969287  0.49999883  1
  O  O34  1  0.18455206  0.85864974  -0.00000064  1
  O  O35  1  0.20203646  0.08583159  0.00000088  1
  O  O36  1  0.29794555  0.58590941  -0.00000091  1
  O  O37  1  0.31542290  0.35870134  -0.00000079  1
  O  O38  1  0.34898215  0.78965739  0.49999933  1
  O  O39  1  0.35062050  0.00460379  0.50000049  1
  O  O40  1  0.41086656  0.26282297  0.00000023  1
  O  O41  1  0.38196431  0.16617900  0.50000032  1
  O  O42  1  0.45581686  0.65676061  0.49999854  1
  O  O43  1  0.44177480  0.44356568  0.50000046  1
  O  O44  1  0.49722580  0.07422666  0.99999851  1
  O  O45  1  0.50267493  0.92576282  0.00000069  1
  O  O46  1  0.55841916  0.55644917  0.49999955  1
  O  O47  1  0.54423106  0.34325706  0.50000098  1
  O  O48  1  0.61783672  0.83381818  0.50000003  1
  O  O49  1  0.58900666  0.73718862  0.00000132  1
  O  O50  1  0.64945132  0.99535826  0.49999879  1
  O  O51  1  0.65084078  0.21024351  0.50000259  1
  O  O52  1  0.68462465  0.64134426  0.00000119  1
  O  O53  1  0.70227248  0.41398377  0.00000109  1
  O  O54  1  0.79785457  0.91404119  0.00000227  1
  O  O55  1  0.81535910  0.14131274  0.99999933  1
  O  O56  1  0.84917957  0.71023531  0.49999938  1
  O  O57  1  0.85062653  0.49534678  0.50000098  1
  O  O58  1  0.91118136  0.23713496  0.99999965  1
  O  O59  1  0.88206971  0.33380740  0.50000091  1
  O  O60  1  0.95568992  0.84321331  0.49999930  1
  O  O61  1  0.94152862  0.05643597  0.50000018  1
