# generated using pymatgen
data_La2Ga4O9
_symmetry_space_group_name_H-M   'P 1'
_cell_length_a   7.80302857
_cell_length_b   8.77391487
_cell_length_c   5.97288576
_cell_angle_alpha   90.00000000
_cell_angle_beta   90.00000000
_cell_angle_gamma   90.00000000
_symmetry_Int_Tables_number   1
_chemical_formula_structural   La2Ga4O9
_chemical_formula_sum   'La4 Ga8 O18'
_cell_volume   408.92232526
_cell_formula_units_Z   2
loop_
 _symmetry_equiv_pos_site_id
 _symmetry_equiv_pos_as_xyz
  1  'x, y, z'
loop_
 _atom_site_type_symbol
 _atom_site_label
 _atom_site_symmetry_multiplicity
 _atom_site_fract_x
 _atom_site_fract_y
 _atom_site_fract_z
 _atom_site_occupancy
  La  La0  1  0.15446001  0.18487991  0.00000000  1
  La  La1  1  0.34553999  0.68487991  0.00000000  1
  La  La2  1  0.65446001  0.31512009  0.00000000  1
  La  La3  1  0.84553999  0.81512009  0.00000000  1
  Ga  Ga4  1  0.00000000  0.50000000  0.25637248  1
  Ga  Ga5  1  0.00000000  0.50000000  0.74362752  1
  Ga  Ga6  1  0.13861490  0.83369397  0.50000000  1
  Ga  Ga7  1  0.36138510  0.33369397  0.50000000  1
  Ga  Ga8  1  0.50000000  0.00000000  0.25637248  1
  Ga  Ga9  1  0.50000000  0.00000000  0.74362752  1
  Ga  Ga10  1  0.63861490  0.66630603  0.50000000  1
  Ga  Ga11  1  0.86138510  0.16630603  0.50000000  1
  O  O12  1  0.00000000  0.00000000  0.50000000  1
  O  O13  1  0.10215627  0.72158635  0.23781474  1
  O  O14  1  0.10215627  0.72158635  0.76218526  1
  O  O15  1  0.14334718  0.42222965  0.50000000  1
  O  O16  1  0.16328126  0.45146073  0.00000000  1
  O  O17  1  0.33671874  0.95146073  0.00000000  1
  O  O18  1  0.35665282  0.92222965  0.50000000  1
  O  O19  1  0.39784373  0.22158635  0.23781474  1
  O  O20  1  0.39784373  0.22158635  0.76218526  1
  O  O21  1  0.50000000  0.50000000  0.50000000  1
  O  O22  1  0.60215627  0.77841365  0.23781474  1
  O  O23  1  0.60215627  0.77841365  0.76218526  1
  O  O24  1  0.64334718  0.07777035  0.50000000  1
  O  O25  1  0.66328126  0.04853927  0.00000000  1
  O  O26  1  0.83671874  0.54853927  0.00000000  1
  O  O27  1  0.85665282  0.57777035  0.50000000  1
  O  O28  1  0.89784373  0.27841365  0.23781474  1
  O  O29  1  0.89784373  0.27841365  0.76218526  1
