# generated using pymatgen
data_Li2SiBSbO7
_symmetry_space_group_name_H-M   'P 1'
_cell_length_a   9.01038631
_cell_length_b   6.46768873
_cell_length_c   5.20318019
_cell_angle_alpha   90.00000000
_cell_angle_beta   86.60508343
_cell_angle_gamma   90.00000000
_symmetry_Int_Tables_number   1
_chemical_formula_structural   Li2SiBSbO7
_chemical_formula_sum   'Li4 Si2 B2 Sb2 O14'
_cell_volume   302.69034524
_cell_formula_units_Z   2
loop_
 _symmetry_equiv_pos_site_id
 _symmetry_equiv_pos_as_xyz
  1  'x, y, z'
loop_
 _atom_site_type_symbol
 _atom_site_label
 _atom_site_symmetry_multiplicity
 _atom_site_fract_x
 _atom_site_fract_y
 _atom_site_fract_z
 _atom_site_occupancy
  Li  Li0  1  0.17625013  0.51933332  0.23833301  1
  Li  Li1  1  0.17625013  0.98066668  0.23833301  1
  Li  Li2  1  0.82374987  0.48066668  0.76166699  1
  Li  Li3  1  0.82374987  0.01933332  0.76166699  1
  Si  Si4  1  0.43004049  0.25000000  0.72709672  1
  Si  Si5  1  0.56995951  0.75000000  0.27290328  1
  B  B6  1  0.05648664  0.75000000  0.73462001  1
  B  B7  1  0.94351336  0.25000000  0.26537999  1
  Sb  Sb8  1  0.33549181  0.75000000  0.78708772  1
  Sb  Sb9  1  0.66450819  0.25000000  0.21291228  1
  O  O10  1  0.08807024  0.25000000  0.29499903  1
  O  O11  1  0.12887551  0.75000000  0.97332395  1
  O  O12  1  0.17264825  0.75000000  0.52748149  1
  O  O13  1  0.32448092  0.05393303  0.81331569  1
  O  O14  1  0.32448092  0.44606697  0.81331569  1
  O  O15  1  0.40877442  0.75000000  0.14023533  1
  O  O16  1  0.47108785  0.25000000  0.41247569  1
  O  O17  1  0.52891115  0.75000000  0.58752431  1
  O  O18  1  0.59122558  0.25000000  0.85976467  1
  O  O19  1  0.67551908  0.55393303  0.18668431  1
  O  O20  1  0.67551908  0.94606697  0.18668431  1
  O  O21  1  0.82735175  0.25000000  0.47251851  1
  O  O22  1  0.87112449  0.25000000  0.02667605  1
  O  O23  1  0.91192976  0.75000000  0.70500097  1
