# generated using pymatgen
data_Li3CuSiCO7
_symmetry_space_group_name_H-M   'P 1'
_cell_length_a   8.41111304
_cell_length_b   6.36880138
_cell_length_c   4.95133569
_cell_angle_alpha   90.00000000
_cell_angle_beta   86.51432535
_cell_angle_gamma   90.00000000
_symmetry_Int_Tables_number   1
_chemical_formula_structural   Li3CuSiCO7
_chemical_formula_sum   'Li6 Cu2 Si2 C2 O14'
_cell_volume   264.74597791
_cell_formula_units_Z   2
loop_
 _symmetry_equiv_pos_site_id
 _symmetry_equiv_pos_as_xyz
  1  'x, y, z'
loop_
 _atom_site_type_symbol
 _atom_site_label
 _atom_site_symmetry_multiplicity
 _atom_site_fract_x
 _atom_site_fract_y
 _atom_site_fract_z
 _atom_site_occupancy
  Li  Li0  1  0.10641045  0.25000000  0.75899343  1
  Li  Li1  1  0.27939171  0.02023933  0.22926477  1
  Li  Li2  1  0.27939171  0.47976067  0.22926477  1
  Li  Li3  1  0.72060829  0.52023933  0.77073523  1
  Li  Li4  1  0.72060829  0.97976067  0.77073523  1
  Li  Li5  1  0.89358955  0.75000000  0.24100657  1
  Cu  Cu6  1  0.33292659  0.75000000  0.79875201  1
  Cu  Cu7  1  0.66707341  0.25000000  0.20124799  1
  Si  Si8  1  0.42084029  0.25000000  0.70698382  1
  Si  Si9  1  0.57915971  0.75000000  0.29301618  1
  C  C10  1  0.03582999  0.75000000  0.72083015  1
  C  C11  1  0.96417001  0.25000000  0.27916985  1
  O  O12  1  0.11215241  0.25000000  0.33495250  1
  O  O13  1  0.07899328  0.75000000  0.96688641  1
  O  O14  1  0.14620229  0.75000000  0.52644555  1
  O  O15  1  0.30310050  0.05577722  0.81205730  1
  O  O16  1  0.30310050  0.44422278  0.81205730  1
  O  O17  1  0.44536273  0.25000000  0.37218351  1
  O  O18  1  0.40190660  0.75000000  0.17669297  1
  O  O19  1  0.59809340  0.25000000  0.82330703  1
  O  O20  1  0.55463727  0.75000000  0.62781649  1
  O  O21  1  0.69689950  0.55577722  0.18794270  1
  O  O22  1  0.69689950  0.94422278  0.18794270  1
  O  O23  1  0.85379771  0.25000000  0.47355445  1
  O  O24  1  0.92100672  0.25000000  0.03311359  1
  O  O25  1  0.88784759  0.75000000  0.66504750  1
