# generated using pymatgen
data_BaLaCl5
_symmetry_space_group_name_H-M   'P 1'
_cell_length_a   15.53248072
_cell_length_b   7.28437185
_cell_length_c   14.64532093
_cell_angle_alpha   90.00000000
_cell_angle_beta   90.00000000
_cell_angle_gamma   90.00000000
_symmetry_Int_Tables_number   1
_chemical_formula_structural   BaLaCl5
_chemical_formula_sum   'Ba8 La8 Cl40'
_cell_volume   1657.03554150
_cell_formula_units_Z   8
loop_
 _symmetry_equiv_pos_site_id
 _symmetry_equiv_pos_as_xyz
  1  'x, y, z'
loop_
 _atom_site_type_symbol
 _atom_site_label
 _atom_site_symmetry_multiplicity
 _atom_site_fract_x
 _atom_site_fract_y
 _atom_site_fract_z
 _atom_site_occupancy
  Ba  Ba0  1  0.10196210  0.75000000  0.51991219  1
  Ba  Ba1  1  0.09469388  0.25000000  0.81479539  1
  Ba  Ba2  1  0.40530612  0.75000000  0.31479539  1
  Ba  Ba3  1  0.39803790  0.25000000  0.01991219  1
  Ba  Ba4  1  0.60196210  0.75000000  0.98008781  1
  Ba  Ba5  1  0.59469388  0.25000000  0.68520461  1
  Ba  Ba6  1  0.90530612  0.75000000  0.18520461  1
  Ba  Ba7  1  0.89803790  0.25000000  0.48008781  1
  La  La8  1  0.10420596  0.25000000  0.21498785  1
  La  La9  1  0.22043359  0.75000000  0.03476998  1
  La  La10  1  0.27956641  0.25000000  0.53476998  1
  La  La11  1  0.39579404  0.75000000  0.71498785  1
  La  La12  1  0.60420596  0.25000000  0.28501215  1
  La  La13  1  0.72043359  0.75000000  0.46523002  1
  La  La14  1  0.77956641  0.25000000  0.96523002  1
  La  La15  1  0.89579404  0.75000000  0.78501215  1
  Cl  Cl16  1  0.02517019  0.98801826  0.32780561  1
  Cl  Cl17  1  0.02517019  0.51198174  0.32780561  1
  Cl  Cl18  1  0.07306760  0.75000000  0.83836982  1
  Cl  Cl19  1  0.07816152  0.98244748  0.07749205  1
  Cl  Cl20  1  0.07816152  0.51755252  0.07749205  1
  Cl  Cl21  1  0.09635093  0.25000000  0.51646805  1
  Cl  Cl22  1  0.22384773  0.98696132  0.67165587  1
  Cl  Cl23  1  0.22384773  0.51303868  0.67165587  1
  Cl  Cl24  1  0.24597868  0.97584160  0.40661516  1
  Cl  Cl25  1  0.24597868  0.52415840  0.40661516  1
  Cl  Cl26  1  0.25402132  0.47584160  0.90661516  1
  Cl  Cl27  1  0.25402132  0.02415840  0.90661516  1
  Cl  Cl28  1  0.27615227  0.48696132  0.17165587  1
  Cl  Cl29  1  0.27615227  0.01303868  0.17165587  1
  Cl  Cl30  1  0.40364907  0.75000000  0.01646705  1
  Cl  Cl31  1  0.42183848  0.48244748  0.57749205  1
  Cl  Cl32  1  0.42183848  0.01755252  0.57749205  1
  Cl  Cl33  1  0.42693240  0.25000000  0.33836982  1
  Cl  Cl34  1  0.47482981  0.48801826  0.82780561  1
  Cl  Cl35  1  0.47482981  0.01198174  0.82780561  1
  Cl  Cl36  1  0.52517019  0.98801826  0.17219439  1
  Cl  Cl37  1  0.52517019  0.51198174  0.17219439  1
  Cl  Cl38  1  0.57306760  0.75000000  0.66163018  1
  Cl  Cl39  1  0.57816152  0.98244748  0.42250795  1
  Cl  Cl40  1  0.57816152  0.51755252  0.42250795  1
  Cl  Cl41  1  0.59635093  0.25000000  0.98353195  1
  Cl  Cl42  1  0.72384773  0.98696132  0.82834413  1
  Cl  Cl43  1  0.72384773  0.51303868  0.82834413  1
  Cl  Cl44  1  0.74597868  0.97584160  0.09338484  1
  Cl  Cl45  1  0.74597868  0.52415840  0.09338484  1
  Cl  Cl46  1  0.75402132  0.47584160  0.59338484  1
  Cl  Cl47  1  0.75402132  0.02415840  0.59338484  1
  Cl  Cl48  1  0.77615227  0.48696132  0.32834413  1
  Cl  Cl49  1  0.77615227  0.01303868  0.32834413  1
  Cl  Cl50  1  0.90364907  0.75000000  0.48353195  1
  Cl  Cl51  1  0.92183848  0.48244748  0.92250795  1
  Cl  Cl52  1  0.92183848  0.01755252  0.92250795  1
  Cl  Cl53  1  0.92693240  0.25000000  0.16163018  1
  Cl  Cl54  1  0.97482981  0.48801826  0.67219439  1
  Cl  Cl55  1  0.97482981  0.01198174  0.67219439  1
