# generated using pymatgen
data_Li6Mn2P(CO4)4
_symmetry_space_group_name_H-M   'P 1'
_cell_length_a   9.51563153
_cell_length_b   9.51563213
_cell_length_c   9.51563184
_cell_angle_alpha   90.00000009
_cell_angle_beta   59.99999758
_cell_angle_gamma   59.99999858
_symmetry_Int_Tables_number   1
_chemical_formula_structural   Li6Mn2P(CO4)4
_chemical_formula_sum   'Li12 Mn4 P2 C8 O32'
_cell_volume   609.25326938
_cell_formula_units_Z   2
loop_
 _symmetry_equiv_pos_site_id
 _symmetry_equiv_pos_as_xyz
  1  'x, y, z'
loop_
 _atom_site_type_symbol
 _atom_site_label
 _atom_site_symmetry_multiplicity
 _atom_site_fract_x
 _atom_site_fract_y
 _atom_site_fract_z
 _atom_site_occupancy
  Li  Li0  1  0.75000000  0.67635156  0.92635156  1
  Li  Li1  1  0.64729687  0.92635156  0.67635156  1
  Li  Li2  1  0.75000000  0.07364844  0.92635156  1
  Li  Li3  1  0.75000000  0.67635156  0.32364844  1
  Li  Li4  1  0.85270313  0.32364844  0.07364844  1
  Li  Li5  1  0.25000000  0.92635156  0.67635156  1
  Li  Li6  1  0.14729687  0.67635156  0.92635156  1
  Li  Li7  1  0.75000000  0.07364844  0.32364844  1
  Li  Li8  1  0.25000000  0.92635156  0.07364844  1
  Li  Li9  1  0.25000000  0.32364844  0.67635156  1
  Li  Li10  1  0.35270313  0.07364844  0.32364844  1
  Li  Li11  1  0.25000000  0.32364844  0.07364844  1
  Mn  Mn12  1  0.50000000  0.50000000  0.50000000  1
  Mn  Mn13  1  0.50000000  0.50000000  0.00000000  1
  Mn  Mn14  1  0.00000000  0.50000000  0.50000000  1
  Mn  Mn15  1  0.00000000  0.00000000  0.50000000  1
  P  P16  1  0.75000000  0.87500000  0.12500000  1
  P  P17  1  0.25000000  0.12500000  0.87500000  1
  C  C18  1  0.94666802  0.27666599  0.72333401  1
  C  C19  1  0.94666802  0.27666599  0.32999796  1
  C  C20  1  0.55333198  0.67000204  0.72333401  1
  C  C21  1  0.55333198  0.27666599  0.72333401  1
  C  C22  1  0.44666802  0.72333401  0.27666599  1
  C  C23  1  0.44666802  0.32999796  0.27666599  1
  C  C24  1  0.05333198  0.72333401  0.67000204  1
  C  C25  1  0.05333198  0.72333401  0.27666599  1
  O  O26  1  0.92118249  0.86415428  0.67069930  1
  O  O27  1  0.92118249  0.71466322  0.40811721  1
  O  O28  1  0.80654602  0.40811721  0.86415428  1
  O  O29  1  0.69345398  0.67069930  0.71466322  1
  O  O30  1  0.95603608  0.13584572  0.71466322  1
  O  O31  1  0.88343858  0.94171929  0.05828071  1
  O  O32  1  0.95603608  0.40811721  0.32930070  1
  O  O33  1  0.61656142  0.94171929  0.32515787  1
  O  O34  1  0.88343858  0.67484213  0.05828071  1
  O  O35  1  0.42118249  0.67069930  0.86415428  1
  O  O36  1  0.54396392  0.67069930  0.59188279  1
  O  O37  1  0.61656142  0.94171929  0.05828071  1
  O  O38  1  0.54396392  0.28533678  0.86415428  1
  O  O39  1  0.80654602  0.28533678  0.32930070  1
  O  O40  1  0.69345398  0.13584572  0.59188279  1
  O  O41  1  0.57881751  0.59188279  0.28533678  1
  O  O42  1  0.42118249  0.40811721  0.71466322  1
  O  O43  1  0.30654602  0.86415428  0.40811721  1
  O  O44  1  0.19345398  0.71466322  0.67069930  1
  O  O45  1  0.45603608  0.71466322  0.13584572  1
  O  O46  1  0.38343858  0.05828071  0.94171929  1
  O  O47  1  0.45603608  0.32930070  0.40811721  1
  O  O48  1  0.57881751  0.32930070  0.13584572  1
  O  O49  1  0.38343858  0.05828071  0.67484213  1
  O  O50  1  0.11656142  0.32515787  0.94171929  1
  O  O51  1  0.04396392  0.59188279  0.67069930  1
  O  O52  1  0.11656142  0.05828071  0.94171929  1
  O  O53  1  0.04396392  0.86415428  0.28533678  1
  O  O54  1  0.30654602  0.32930070  0.28533678  1
  O  O55  1  0.19345398  0.59188279  0.13584572  1
  O  O56  1  0.07881751  0.28533678  0.59188279  1
  O  O57  1  0.07881751  0.13584572  0.32930070  1
