# generated using pymatgen
data_SrHfMg14
_symmetry_space_group_name_H-M   'P 1'
_cell_length_a   6.54776326
_cell_length_b   6.59529825
_cell_length_c   10.44613613
_cell_angle_alpha   90.00000000
_cell_angle_beta   90.00000000
_cell_angle_gamma   120.24044766
_symmetry_Int_Tables_number   1
_chemical_formula_structural   SrHfMg14
_chemical_formula_sum   'Sr1 Hf1 Mg14'
_cell_volume   389.72328769
_cell_formula_units_Z   1
loop_
 _symmetry_equiv_pos_site_id
 _symmetry_equiv_pos_as_xyz
  1  'x, y, z'
loop_
 _atom_site_type_symbol
 _atom_site_label
 _atom_site_symmetry_multiplicity
 _atom_site_fract_x
 _atom_site_fract_y
 _atom_site_fract_z
 _atom_site_occupancy
  Sr  Sr0  1  0.16432798  0.33216349  0.12500000  1
  Hf  Hf1  1  0.18928091  0.84463996  0.12500000  1
  Mg  Mg2  1  0.16732892  0.33366396  0.62500000  1
  Mg  Mg3  1  0.16426853  0.83213377  0.62500000  1
  Mg  Mg4  1  0.66520149  0.33255425  0.12500000  1
  Mg  Mg5  1  0.66720566  0.33696827  0.62500000  1
  Mg  Mg6  1  0.66520149  0.83264624  0.12500000  1
  Mg  Mg7  1  0.66720566  0.83023639  0.62500000  1
  Mg  Mg8  1  0.33373029  0.15700068  0.38293643  1
  Mg  Mg9  1  0.33373029  0.15700068  0.86706357  1
  Mg  Mg10  1  0.33373029  0.67673061  0.38293643  1
  Mg  Mg11  1  0.33373029  0.67673061  0.86706357  1
  Mg  Mg12  1  0.82010467  0.16005283  0.38621685  1
  Mg  Mg13  1  0.82010467  0.16005283  0.86378315  1
  Mg  Mg14  1  0.83742444  0.66871272  0.36903352  1
  Mg  Mg15  1  0.83742444  0.66871272  0.88096648  1
