# generated using pymatgen
data_Li6Ti2O7
_symmetry_space_group_name_H-M   'P 1'
_cell_length_a   5.10468995
_cell_length_b   8.98256024
_cell_length_c   15.68959561
_cell_angle_alpha   90.00000000
_cell_angle_beta   89.63880023
_cell_angle_gamma   90.00000000
_symmetry_Int_Tables_number   1
_chemical_formula_structural   Li6Ti2O7
_chemical_formula_sum   'Li24 Ti8 O28'
_cell_volume   719.40363490
_cell_formula_units_Z   4
loop_
 _symmetry_equiv_pos_site_id
 _symmetry_equiv_pos_as_xyz
  1  'x, y, z'
loop_
 _atom_site_type_symbol
 _atom_site_label
 _atom_site_symmetry_multiplicity
 _atom_site_fract_x
 _atom_site_fract_y
 _atom_site_fract_z
 _atom_site_occupancy
  Li  Li0  1  0.25329659  0.52672578  0.04807670  1
  Li  Li1  1  0.24148000  0.57411848  0.79846829  1
  Li  Li2  1  0.26217148  0.75104555  0.94668273  1
  Li  Li3  1  0.22761800  0.80219059  0.67675709  1
  Li  Li4  1  0.17144400  0.56567313  0.57444393  1
  Li  Li5  1  0.14320126  0.57754270  0.32068634  1
  Li  Li6  1  0.18827577  0.73324442  0.43925019  1
  Li  Li7  1  0.16731537  0.26724243  0.91598153  1
  Li  Li8  1  0.25226247  0.00981229  0.32067132  1
  Li  Li9  1  0.18859902  0.77031874  0.19357311  1
  Li  Li10  1  0.23589490  0.01438719  0.84350268  1
  Li  Li11  1  0.19275669  0.31848174  0.42380360  1
  Li  Li12  1  0.80724331  0.81848174  0.57619640  1
  Li  Li13  1  0.76410510  0.51438719  0.15649732  1
  Li  Li14  1  0.81140098  0.27031874  0.80642689  1
  Li  Li15  1  0.74773753  0.50981229  0.67932868  1
  Li  Li16  1  0.83268463  0.76724243  0.08401847  1
  Li  Li17  1  0.81172423  0.23324442  0.56074981  1
  Li  Li18  1  0.85679874  0.07754270  0.67931366  1
  Li  Li19  1  0.82855600  0.06567313  0.42555607  1
  Li  Li20  1  0.77238200  0.30219059  0.32324291  1
  Li  Li21  1  0.73782852  0.25104555  0.05331727  1
  Li  Li22  1  0.75852000  0.07411848  0.20153171  1
  Li  Li23  1  0.74670341  0.02672578  0.95192330  1
  Ti  Ti24  1  0.29456188  0.28574595  0.69691879  1
  Ti  Ti25  1  0.31568863  0.02253568  0.53432676  1
  Ti  Ti26  1  0.25960509  0.01529947  0.06089959  1
  Ti  Ti27  1  0.27998547  0.28884220  0.19959323  1
  Ti  Ti28  1  0.72001453  0.78884220  0.80040677  1
  Ti  Ti29  1  0.74039491  0.51529947  0.93910041  1
  Ti  Ti30  1  0.68431137  0.52253568  0.46567324  1
  Ti  Ti31  1  0.70543812  0.78574595  0.30308121  1
  O  O32  1  0.05327488  0.39941293  0.26392974  1
  O  O33  1  0.12334903  0.06496417  0.95895495  1
  O  O34  1  0.17962191  0.21159861  0.79719735  1
  O  O35  1  0.19836530  0.83145290  0.55196617  1
  O  O36  1  0.15761778  0.46873300  0.68703820  1
  O  O37  1  0.15692855  0.16010902  0.61100531  1
  O  O38  1  0.08530279  0.13715951  0.14422380  1
  O  O39  1  0.20940423  0.81570612  0.07355666  1
  O  O40  1  0.21843392  0.09462293  0.43291088  1
  O  O41  1  0.39060537  0.54590089  0.93136862  1
  O  O42  1  0.32746257  0.52300657  0.45626903  1
  O  O43  1  0.34427755  0.78228046  0.30741871  1
  O  O44  1  0.46209340  0.39679175  0.12069918  1
  O  O45  1  0.50385040  0.19532181  0.26844791  1
  O  O46  1  0.49614960  0.69532181  0.73155209  1
  O  O47  1  0.53790660  0.89679175  0.87930082  1
  O  O48  1  0.65572245  0.28228046  0.69258129  1
  O  O49  1  0.67253743  0.02300657  0.54373097  1
  O  O50  1  0.60939463  0.04590089  0.06863138  1
  O  O51  1  0.78156608  0.59462293  0.56708912  1
  O  O52  1  0.79059577  0.31570612  0.92644334  1
  O  O53  1  0.91469721  0.63715951  0.85577620  1
  O  O54  1  0.84307145  0.66010902  0.38899469  1
  O  O55  1  0.84238222  0.96873300  0.31296180  1
  O  O56  1  0.80163470  0.33145290  0.44803383  1
  O  O57  1  0.82037809  0.71159861  0.20280265  1
  O  O58  1  0.87665097  0.56496417  0.04104505  1
  O  O59  1  0.94672512  0.89941293  0.73607026  1
