# generated using pymatgen
data_Er2Sb2O7
_symmetry_space_group_name_H-M   'P 1'
_cell_length_a   7.51700002
_cell_length_b   7.51718245
_cell_length_c   18.42524164
_cell_angle_alpha   89.98934321
_cell_angle_beta   90.00946214
_cell_angle_gamma   120.00615598
_symmetry_Int_Tables_number   1
_chemical_formula_structural   Er2Sb2O7
_chemical_formula_sum   'Er12 Sb12 O42'
_cell_volume   901.60542105
_cell_formula_units_Z   6
loop_
 _symmetry_equiv_pos_site_id
 _symmetry_equiv_pos_as_xyz
  1  'x, y, z'
loop_
 _atom_site_type_symbol
 _atom_site_label
 _atom_site_symmetry_multiplicity
 _atom_site_fract_x
 _atom_site_fract_y
 _atom_site_fract_z
 _atom_site_occupancy
  Er  Er0  1  0.00002730  0.83451075  0.66672158  1
  Er  Er1  1  0.00060241  0.83482022  0.16672798  1
  Er  Er2  1  0.17548521  0.67596997  0.01117880  1
  Er  Er3  1  0.16616023  0.16617613  0.99999914  1
  Er  Er4  1  0.50043858  0.82415604  0.67795363  1
  Er  Er5  1  0.16501641  0.16508003  0.50000595  1
  Er  Er6  1  0.32374662  0.49943883  0.34449076  1
  Er  Er7  1  0.49936927  0.32365556  0.65553234  1
  Er  Er8  1  0.67619592  0.17574092  0.98878721  1
  Er  Er9  1  0.82418362  0.50054631  0.32205876  1
  Er  Er10  1  0.83490614  0.00060787  0.83329422  1
  Er  Er11  1  0.83446204  0.99983456  0.33329633  1
  Sb  Sb12  1  0.99961149  0.32609949  0.16660194  1
  Sb  Sb13  1  0.99970099  0.30469561  0.66638557  1
  Sb  Sb14  1  0.16929454  0.67032565  0.50164032  1
  Sb  Sb15  1  0.50096853  0.83078792  0.16834380  1
  Sb  Sb16  1  0.32985257  0.49898431  0.83494662  1
  Sb  Sb17  1  0.30481536  0.99986728  0.33360628  1
  Sb  Sb18  1  0.67306663  0.67297263  0.50005067  1
  Sb  Sb19  1  0.32631798  0.99985289  0.83347221  1
  Sb  Sb20  1  0.69539746  0.69572787  0.00009006  1
  Sb  Sb21  1  0.49891439  0.32978151  0.16505961  1
  Sb  Sb22  1  0.67032945  0.16926129  0.49836122  1
  Sb  Sb23  1  0.83089749  0.50108623  0.83168694  1
  O  O24  1  0.01877576  0.85162588  0.28402630  1
  O  O25  1  0.99325846  0.80040169  0.80213970  1
  O  O26  1  0.11447842  0.66479028  0.39375845  1
  O  O27  1  0.04021021  0.41868014  0.81406544  1
  O  O28  1  0.32465052  0.98822141  0.95807496  1
  O  O29  1  0.22881945  0.68430119  0.60758080  1
  O  O30  1  0.01172968  0.33627252  0.29123800  1
  O  O31  1  0.20038218  0.67163561  0.13853462  1
  O  O32  1  0.37876304  0.95988101  0.48040986  1
  O  O33  1  0.45524479  0.77181320  0.27437055  1
  O  O34  1  0.47150876  0.79954441  0.80525060  1
  O  O35  1  0.33505237  0.44946656  0.72710578  1
  O  O36  1  0.14842314  0.16681723  0.61724835  1
  O  O37  1  0.32813127  0.52853597  0.47190493  1
  O  O38  1  0.19956613  0.19330235  0.13562164  1
  O  O39  1  0.16683326  0.14849694  0.38276383  1
  O  O40  1  0.31624266  0.54429623  0.94102712  1
  O  O41  1  0.19324946  0.19968628  0.86448438  1
  O  O42  1  0.55082450  0.88568350  0.06047034  1
  O  O43  1  0.58067125  0.62121040  0.14736672  1
  O  O44  1  0.80690361  0.00661922  0.46894018  1
  O  O45  1  0.66341254  0.67524960  0.62465590  1
  O  O46  1  0.44937715  0.33488120  0.27290333  1
  O  O47  1  0.62134680  0.58088083  0.85256849  1
  O  O48  1  0.33620509  0.01156753  0.70860052  1
  O  O49  1  0.83308368  0.98167016  0.95056233  1
  O  O50  1  0.54400149  0.31594485  0.05897830  1
  O  O51  1  0.67521472  0.66349314  0.37519035  1
  O  O52  1  0.52849794  0.32804623  0.52812496  1
  O  O53  1  0.41859793  0.04012290  0.18591832  1
  O  O54  1  0.68442091  0.22889837  0.39242789  1
  O  O55  1  0.67187163  0.20049339  0.86150925  1
  O  O56  1  0.88573122  0.55080853  0.93952872  1
  O  O57  1  0.98171997  0.83325116  0.04945984  1
  O  O58  1  0.79944762  0.47163478  0.19477698  1
  O  O59  1  0.00669838  0.80695953  0.53107249  1
  O  O60  1  0.77181968  0.45536936  0.72564064  1
  O  O61  1  0.66495345  0.11448838  0.60625523  1
  O  O62  1  0.95991940  0.37870982  0.51960398  1
  O  O63  1  0.80028835  0.99299087  0.19789995  1
  O  O64  1  0.98836949  0.32463406  0.04179015  1
  O  O65  1  0.85154204  0.01864046  0.71598787  1
