# generated using pymatgen
data_MgSiO3
_symmetry_space_group_name_H-M   'P 1'
_cell_length_a   10.05101110
_cell_length_b   10.05101110
_cell_length_c   10.05101110
_cell_angle_alpha   109.24861485
_cell_angle_beta   109.24861485
_cell_angle_gamma   109.91735546
_symmetry_Int_Tables_number   1
_chemical_formula_structural   MgSiO3
_chemical_formula_sum   'Mg16 Si16 O48'
_cell_volume   781.60548894
_cell_formula_units_Z   16
loop_
 _symmetry_equiv_pos_site_id
 _symmetry_equiv_pos_as_xyz
  1  'x, y, z'
loop_
 _atom_site_type_symbol
 _atom_site_label
 _atom_site_symmetry_multiplicity
 _atom_site_fract_x
 _atom_site_fract_y
 _atom_site_fract_z
 _atom_site_occupancy
  Mg  Mg0  1  0.62734307  0.37734307  0.25000000  1
  Mg  Mg1  1  0.87734307  0.12734307  0.75000000  1
  Mg  Mg2  1  0.50000000  0.50000000  0.00000000  1
  Mg  Mg3  1  0.74947628  0.86307715  0.14185545  1
  Mg  Mg4  1  0.77877829  0.39237917  0.64185545  1
  Mg  Mg5  1  0.36307715  0.72122171  0.11360088  1
  Mg  Mg6  1  0.89237917  0.75052372  0.61360088  1
  Mg  Mg7  1  0.00000000  0.50000000  0.00000000  1
  Mg  Mg8  1  0.00000000  0.00000000  0.50000000  1
  Mg  Mg9  1  0.10762083  0.24947628  0.38639912  1
  Mg  Mg10  1  0.63692285  0.27877829  0.88639912  1
  Mg  Mg11  1  0.22122171  0.60762083  0.35814455  1
  Mg  Mg12  1  0.25052372  0.13692285  0.85814455  1
  Mg  Mg13  1  0.12265693  0.87265693  0.25000000  1
  Mg  Mg14  1  0.00000000  0.50000000  0.50000000  1
  Mg  Mg15  1  0.37265693  0.62265693  0.75000000  1
  Si  Si16  1  0.87026487  0.23436159  0.11437179  1
  Si  Si17  1  0.50000000  0.00000000  0.00000000  1
  Si  Si18  1  0.73436159  0.11998980  0.36409772  1
  Si  Si19  1  0.00000000  0.00000000  0.00000000  1
  Si  Si20  1  0.37500000  0.12500000  0.25000000  1
  Si  Si21  1  0.87500000  0.62500000  0.25000000  1
  Si  Si22  1  0.50000000  0.00000000  0.50000000  1
  Si  Si23  1  0.25589208  0.37026487  0.13590228  1
  Si  Si24  1  0.38001020  0.24410792  0.61437179  1
  Si  Si25  1  0.50000000  0.50000000  0.50000000  1
  Si  Si26  1  0.61998980  0.75589208  0.38562821  1
  Si  Si27  1  0.74410792  0.62973513  0.86409772  1
  Si  Si28  1  0.12500000  0.37500000  0.75000000  1
  Si  Si29  1  0.62500000  0.87500000  0.75000000  1
  Si  Si30  1  0.26563841  0.88001020  0.63590228  1
  Si  Si31  1  0.12973513  0.76563841  0.88562821  1
  O  O32  1  0.91900223  0.08909939  0.11710695  1
  O  O33  1  0.88359501  0.08572526  0.37147614  1
  O  O34  1  0.68342127  0.18541793  0.08750409  1
  O  O35  1  0.43108352  0.11517331  0.11129624  1
  O  O36  1  0.69424938  0.46877585  0.10022471  1
  O  O37  1  0.90408282  0.81657873  0.00199565  1
  O  O38  1  0.68541793  0.09791383  0.50199565  1
  O  O39  1  0.77402031  0.30702422  0.41528689  1
  O  O40  1  0.39173733  0.35873242  0.08471311  1
  O  O41  1  0.18021272  0.06891648  0.18408979  1
  O  O42  1  0.61517331  0.00387707  0.68408979  1
  O  O43  1  0.86855114  0.59402467  0.39977529  1
  O  O44  1  0.96877585  0.36855114  0.77452647  1
  O  O45  1  0.90597533  0.80575062  0.27452647  1
  O  O46  1  0.50387707  0.31978728  0.38870376  1
  O  O47  1  0.52800656  0.19810471  0.61710695  1
  O  O48  1  0.58572526  0.71424912  0.20213025  1
  O  O49  1  0.98788113  0.61640499  0.70213025  1
  O  O50  1  0.19297578  0.10826267  0.46699610  1
  O  O51  1  0.85873342  0.27402031  0.96699610  1
  O  O52  1  0.59791383  0.59591718  0.41249591  1
  O  O53  1  0.21424912  0.51211887  0.12852386  1
  O  O54  1  0.30189529  0.41900223  0.32990185  1
  O  O55  1  0.41090061  0.02800656  0.82990185  1
  O  O56  1  0.69810471  0.58099777  0.67009815  1
  O  O57  1  0.58909939  0.97199344  0.17009815  1
  O  O58  1  0.78575088  0.48788113  0.87147614  1
  O  O59  1  0.40208617  0.40408182  0.58750409  1
  O  O60  1  0.80702422  0.89173733  0.53300390  1
  O  O61  1  0.14126758  0.72597969  0.03300390  1
  O  O62  1  0.01211887  0.38359501  0.29786975  1
  O  O63  1  0.41427474  0.28575088  0.79786975  1
  O  O64  1  0.47199344  0.80189529  0.38289305  1
  O  O65  1  0.49612293  0.68021272  0.61129624  1
  O  O66  1  0.03122415  0.63144886  0.22547353  1
  O  O67  1  0.09402467  0.19424938  0.72547353  1
  O  O68  1  0.13144886  0.40597533  0.60022471  1
  O  O69  1  0.81978728  0.93108352  0.81591021  1
  O  O70  1  0.38482669  0.99612293  0.31591021  1
  O  O71  1  0.60826267  0.64126658  0.91528689  1
  O  O72  1  0.22597969  0.69297578  0.58471311  1
  O  O73  1  0.31458207  0.90208617  0.49800435  1
  O  O74  1  0.09591818  0.18342127  0.99800435  1
  O  O75  1  0.30575062  0.53122415  0.89977529  1
  O  O76  1  0.56891648  0.88482669  0.88870376  1
  O  O77  1  0.31657873  0.81458207  0.91249591  1
  O  O78  1  0.11640499  0.91427474  0.62852386  1
  O  O79  1  0.08099777  0.91090061  0.88289305  1
