# generated using pymatgen
data_Na3CuCSO7
_symmetry_space_group_name_H-M   'P 1'
_cell_length_a   8.99811969
_cell_length_b   6.96921524
_cell_length_c   5.14909199
_cell_angle_alpha   90.00000000
_cell_angle_beta   89.88161773
_cell_angle_gamma   90.00000000
_symmetry_Int_Tables_number   1
_chemical_formula_structural   Na3CuCSO7
_chemical_formula_sum   'Na6 Cu2 C2 S2 O14'
_cell_volume   322.89800917
_cell_formula_units_Z   2
loop_
 _symmetry_equiv_pos_site_id
 _symmetry_equiv_pos_as_xyz
  1  'x, y, z'
loop_
 _atom_site_type_symbol
 _atom_site_label
 _atom_site_symmetry_multiplicity
 _atom_site_fract_x
 _atom_site_fract_y
 _atom_site_fract_z
 _atom_site_occupancy
  Na  Na0  1  0.07864646  0.25000000  0.75724872  1
  Na  Na1  1  0.25760810  0.99164035  0.24688829  1
  Na  Na2  1  0.25760810  0.50835965  0.24688829  1
  Na  Na3  1  0.74239190  0.49164035  0.75311171  1
  Na  Na4  1  0.74239190  0.00835965  0.75311171  1
  Na  Na5  1  0.92135354  0.75000000  0.24275128  1
  Cu  Cu6  1  0.36417678  0.75000000  0.76359648  1
  Cu  Cu7  1  0.63582322  0.25000000  0.23640352  1
  C  C8  1  0.05910676  0.75000000  0.73600015  1
  C  C9  1  0.94089324  0.25000000  0.26399985  1
  S  S10  1  0.40890182  0.25000000  0.70196467  1
  S  S11  1  0.59109818  0.75000000  0.29803533  1
  O  O12  1  0.08577412  0.25000000  0.28326346  1
  O  O13  1  0.12159019  0.75000000  0.96329609  1
  O  O14  1  0.14078253  0.75000000  0.52758500  1
  O  O15  1  0.32205221  0.07712628  0.78456037  1
  O  O16  1  0.32205221  0.42287372  0.78456037  1
  O  O17  1  0.42357816  0.25000000  0.40949058  1
  O  O18  1  0.43922985  0.75000000  0.18353697  1
  O  O19  1  0.56077015  0.25000000  0.81646303  1
  O  O20  1  0.57642184  0.75000000  0.59050942  1
  O  O21  1  0.67794779  0.57712628  0.21543963  1
  O  O22  1  0.67794779  0.92287372  0.21543963  1
  O  O23  1  0.85921747  0.25000000  0.47241500  1
  O  O24  1  0.87840981  0.25000000  0.03670391  1
  O  O25  1  0.91422588  0.75000000  0.71673654  1
