# generated using pymatgen
data_CrPO5
_symmetry_space_group_name_H-M   'P 1'
_cell_length_a   12.78012134
_cell_length_b   5.04246620
_cell_length_c   12.68238441
_cell_angle_alpha   90.00000000
_cell_angle_beta   60.37623475
_cell_angle_gamma   90.00000000
_symmetry_Int_Tables_number   1
_chemical_formula_structural   CrPO5
_chemical_formula_sum   'Cr8 P8 O40'
_cell_volume   710.46642277
_cell_formula_units_Z   8
loop_
 _symmetry_equiv_pos_site_id
 _symmetry_equiv_pos_as_xyz
  1  'x, y, z'
loop_
 _atom_site_type_symbol
 _atom_site_label
 _atom_site_symmetry_multiplicity
 _atom_site_fract_x
 _atom_site_fract_y
 _atom_site_fract_z
 _atom_site_occupancy
  Cr  Cr0  1  0.12875004  0.73224063  0.30813537  1
  Cr  Cr1  1  0.37124996  0.23224063  0.19186463  1
  Cr  Cr2  1  0.30718186  0.73647283  0.62884147  1
  Cr  Cr3  1  0.19281814  0.23647283  0.87115853  1
  Cr  Cr4  1  0.80718186  0.76352717  0.12884147  1
  Cr  Cr5  1  0.69281814  0.26352717  0.37115853  1
  Cr  Cr6  1  0.62875004  0.76775937  0.80813537  1
  Cr  Cr7  1  0.87124996  0.26775937  0.69186463  1
  P  P8  1  0.09036714  0.76183692  0.06514676  1
  P  P9  1  0.06338352  0.74708365  0.59264762  1
  P  P10  1  0.56338352  0.75291635  0.09264762  1
  P  P11  1  0.40963286  0.26183692  0.43485324  1
  P  P12  1  0.59036714  0.73816308  0.56514676  1
  P  P13  1  0.43661648  0.24708365  0.90735238  1
  P  P14  1  0.93661648  0.25291635  0.40735238  1
  P  P15  1  0.90963286  0.23816308  0.93485324  1
  O  O16  1  0.12108182  0.05133554  0.01638961  1
  O  O17  1  0.04181831  0.06085557  0.33409245  1
  O  O18  1  0.14072145  0.71640837  0.15040750  1
  O  O19  1  0.01416944  0.45817887  0.61252997  1
  O  O20  1  0.12973743  0.81042085  0.45614054  1
  O  O21  1  0.22488869  0.48343272  0.27232346  1
  O  O22  1  0.27511131  0.98343272  0.22767654  1
  O  O23  1  0.37026257  0.31042085  0.04385946  1
  O  O24  1  0.15126754  0.77017050  0.64107496  1
  O  O25  1  0.04668893  0.27655547  0.86406792  1
  O  O26  1  0.35927855  0.21640837  0.34959250  1
  O  O27  1  0.45818169  0.56085557  0.16590755  1
  O  O28  1  0.51416944  0.04182113  0.11252997  1
  O  O29  1  0.37891818  0.55133554  0.48361039  1
  O  O30  1  0.34772170  0.07000474  0.54297801  1
  O  O31  1  0.23624881  0.97880927  0.77856421  1
  O  O32  1  0.26375119  0.47880927  0.72143579  1
  O  O33  1  0.15227830  0.57000474  0.95702199  1
  O  O34  1  0.65126754  0.72982950  0.14107496  1
  O  O35  1  0.54668893  0.22344453  0.36406792  1
  O  O36  1  0.45331107  0.77655547  0.63593208  1
  O  O37  1  0.34873246  0.27017050  0.85892504  1
  O  O38  1  0.84772170  0.42999526  0.04297801  1
  O  O39  1  0.73624881  0.52119073  0.27856421  1
  O  O40  1  0.76375119  0.02119073  0.22143579  1
  O  O41  1  0.65227830  0.92999526  0.45702199  1
  O  O42  1  0.62108182  0.44866446  0.51638961  1
  O  O43  1  0.48583056  0.95817887  0.88747003  1
  O  O44  1  0.54181831  0.43914443  0.83409245  1
  O  O45  1  0.64072145  0.78359163  0.65040750  1
  O  O46  1  0.95331107  0.72344453  0.13593208  1
  O  O47  1  0.84873246  0.22982950  0.35892504  1
  O  O48  1  0.62973743  0.68957915  0.95614054  1
  O  O49  1  0.72488869  0.01656728  0.77232346  1
  O  O50  1  0.77511131  0.51656728  0.72767654  1
  O  O51  1  0.87026257  0.18957915  0.54385946  1
  O  O52  1  0.98583056  0.54182113  0.38747003  1
  O  O53  1  0.85927855  0.28359163  0.84959250  1
  O  O54  1  0.95818169  0.93914443  0.66590755  1
  O  O55  1  0.87891818  0.94866446  0.98361039  1
