# generated using pymatgen
data_Li8Ti2O7
_symmetry_space_group_name_H-M   'P 1'
_cell_length_a   7.74287926
_cell_length_b   10.24250228
_cell_length_c   9.43577017
_cell_angle_alpha   90.00000000
_cell_angle_beta   109.17460307
_cell_angle_gamma   90.00000000
_symmetry_Int_Tables_number   1
_chemical_formula_structural   Li8Ti2O7
_chemical_formula_sum   'Li32 Ti8 O28'
_cell_volume   706.80239402
_cell_formula_units_Z   4
loop_
 _symmetry_equiv_pos_site_id
 _symmetry_equiv_pos_as_xyz
  1  'x, y, z'
loop_
 _atom_site_type_symbol
 _atom_site_label
 _atom_site_symmetry_multiplicity
 _atom_site_fract_x
 _atom_site_fract_y
 _atom_site_fract_z
 _atom_site_occupancy
  Li  Li0  1  0.14661846  0.46024024  0.92859604  1
  Li  Li1  1  0.07741981  0.45712655  0.64079942  1
  Li  Li2  1  0.08116482  0.79932610  0.52449712  1
  Li  Li3  1  0.14661846  0.03975976  0.42859604  1
  Li  Li4  1  0.27079049  0.95499611  0.71649988  1
  Li  Li5  1  0.07741981  0.04287345  0.14079942  1
  Li  Li6  1  0.30507215  0.27459358  0.60494111  1
  Li  Li7  1  0.08116482  0.70067390  0.02449712  1
  Li  Li8  1  0.44653627  0.46058019  0.84862162  1
  Li  Li9  1  0.35820308  0.50664923  0.53308445  1
  Li  Li10  1  0.27079049  0.54500389  0.21649988  1
  Li  Li11  1  0.49566543  0.22567153  0.88723248  1
  Li  Li12  1  0.30507215  0.22540642  0.10494111  1
  Li  Li13  1  0.50433457  0.72567153  0.61276752  1
  Li  Li14  1  0.44653627  0.03941981  0.34862162  1
  Li  Li15  1  0.64179692  0.00664923  0.96691555  1
  Li  Li16  1  0.35820308  0.99335077  0.03308445  1
  Li  Li17  1  0.55346373  0.96058019  0.65137838  1
  Li  Li18  1  0.49566543  0.27432847  0.38723248  1
  Li  Li19  1  0.69492785  0.77459358  0.89505889  1
  Li  Li20  1  0.50433457  0.77432847  0.11276752  1
  Li  Li21  1  0.72920951  0.45499611  0.78350012  1
  Li  Li22  1  0.64179692  0.49335077  0.46691555  1
  Li  Li23  1  0.55346373  0.53941981  0.15137838  1
  Li  Li24  1  0.91883518  0.29932610  0.97550288  1
  Li  Li25  1  0.69492785  0.72540642  0.39505889  1
  Li  Li26  1  0.92258019  0.95712655  0.85920058  1
  Li  Li27  1  0.72920951  0.04500389  0.28350012  1
  Li  Li28  1  0.85338154  0.96024024  0.57140396  1
  Li  Li29  1  0.91883518  0.20067390  0.47550288  1
  Li  Li30  1  0.92258019  0.54287345  0.35920058  1
  Li  Li31  1  0.85338154  0.53975976  0.07140396  1
  Ti  Ti32  1  0.09164258  0.19321249  0.78042096  1
  Ti  Ti33  1  0.09164258  0.30678751  0.28042096  1
  Ti  Ti34  1  0.29333678  0.70919808  0.83800348  1
  Ti  Ti35  1  0.29333678  0.79080192  0.33800348  1
  Ti  Ti36  1  0.70666322  0.20919808  0.66199652  1
  Ti  Ti37  1  0.70666322  0.29080192  0.16199652  1
  Ti  Ti38  1  0.90835742  0.69321249  0.71957904  1
  Ti  Ti39  1  0.90835742  0.80678751  0.21957904  1
  O  O40  1  0.12439014  0.09813015  0.95430271  1
  O  O41  1  0.08889263  0.83110974  0.72535768  1
  O  O42  1  0.14354759  0.11556632  0.61745162  1
  O  O43  1  0.12439014  0.40186985  0.45430271  1
  O  O44  1  0.26360256  0.33705848  0.80111737  1
  O  O45  1  0.08889263  0.66889026  0.22535768  1
  O  O46  1  0.14354759  0.38443368  0.11745162  1
  O  O47  1  0.38324861  0.61026203  0.71854425  1
  O  O48  1  0.26360256  0.16294152  0.30111737  1
  O  O49  1  0.44875942  0.86474337  0.90958804  1
  O  O50  1  0.32880369  0.87899204  0.52332942  1
  O  O51  1  0.38324861  0.88973797  0.21854425  1
  O  O52  1  0.44875942  0.63525663  0.40958804  1
  O  O53  1  0.67119631  0.37899204  0.97667058  1
  O  O54  1  0.32880369  0.62100796  0.02332942  1
  O  O55  1  0.55124058  0.36474337  0.59041196  1
  O  O56  1  0.61675139  0.11026203  0.78145575  1
  O  O57  1  0.67119631  0.12100796  0.47667058  1
  O  O58  1  0.55124058  0.13525663  0.09041196  1
  O  O59  1  0.73639744  0.83705848  0.69888263  1
  O  O60  1  0.61675139  0.38973797  0.28145575  1
  O  O61  1  0.85645241  0.61556632  0.88254838  1
  O  O62  1  0.91110737  0.33110974  0.77464232  1
  O  O63  1  0.73639744  0.66294152  0.19888263  1
  O  O64  1  0.87560986  0.59813015  0.54569729  1
  O  O65  1  0.85645241  0.88443368  0.38254838  1
  O  O66  1  0.91110737  0.16889026  0.27464232  1
  O  O67  1  0.87560986  0.90186985  0.04569729  1
