# generated using pymatgen
data_Li4Mn5NbO12
_symmetry_space_group_name_H-M   'P 1'
_cell_length_a   5.25587330
_cell_length_b   5.25587382
_cell_length_c   10.57842141
_cell_angle_alpha   86.14303877
_cell_angle_beta   86.14303794
_cell_angle_gamma   116.38161813
_symmetry_Int_Tables_number   1
_chemical_formula_structural   Li4Mn5NbO12
_chemical_formula_sum   'Li4 Mn5 Nb1 O12'
_cell_volume   259.64652048
_cell_formula_units_Z   1
loop_
 _symmetry_equiv_pos_site_id
 _symmetry_equiv_pos_as_xyz
  1  'x, y, z'
loop_
 _atom_site_type_symbol
 _atom_site_label
 _atom_site_symmetry_multiplicity
 _atom_site_fract_x
 _atom_site_fract_y
 _atom_site_fract_z
 _atom_site_occupancy
  Li  Li0  1  0.08854765  0.44475893  0.71209157  1
  Li  Li1  1  0.55524107  0.91145235  0.28790843  1
  Li  Li2  1  0.44475893  0.08854765  0.71209157  1
  Li  Li3  1  0.91145235  0.55524107  0.28790843  1
  Mn  Mn4  1  0.16446872  0.83553128  0.50000000  1
  Mn  Mn5  1  0.33438459  0.66561541  1.00000000  1
  Mn  Mn6  1  0.50000000  0.50000000  0.50000000  1
  Mn  Mn7  1  0.66561541  0.33438459  0.00000000  1
  Mn  Mn8  1  0.83553128  0.16446872  0.50000000  1
  Nb  Nb9  1  0.00000000  0.00000000  0.00000000  1
  O  O10  1  0.01169410  0.67362012  0.10511464  1
  O  O11  1  0.32637988  0.98830590  0.89488536  1
  O  O12  1  0.22266927  0.58590684  0.38989012  1
  O  O13  1  0.41409316  0.77733073  0.61010988  1
  O  O14  1  0.16440232  0.16440232  0.58903272  1
  O  O15  1  0.31131005  0.31131005  0.08777562  1
  O  O16  1  0.68868995  0.68868995  0.91222438  1
  O  O17  1  0.83559768  0.83559768  0.41096728  1
  O  O18  1  0.58590684  0.22266927  0.38989012  1
  O  O19  1  0.77733073  0.41409316  0.61010988  1
  O  O20  1  0.67362012  0.01169410  0.10511464  1
  O  O21  1  0.98830590  0.32637988  0.89488536  1
