# generated using pymatgen
data_Ho2(SeO4)3
_symmetry_space_group_name_H-M   'P 1'
_cell_length_a   6.79596161
_cell_length_b   6.79596161
_cell_length_c   11.31822914
_cell_angle_alpha   80.53081108
_cell_angle_beta   99.46918892
_cell_angle_gamma   62.92570162
_symmetry_Int_Tables_number   1
_chemical_formula_structural   Ho2(SeO4)3
_chemical_formula_sum   'Ho4 Se6 O24'
_cell_volume   441.72459615
_cell_formula_units_Z   2
loop_
 _symmetry_equiv_pos_site_id
 _symmetry_equiv_pos_as_xyz
  1  'x, y, z'
loop_
 _atom_site_type_symbol
 _atom_site_label
 _atom_site_symmetry_multiplicity
 _atom_site_fract_x
 _atom_site_fract_y
 _atom_site_fract_z
 _atom_site_occupancy
  Ho  Ho0  1  0.30265381  0.94785369  0.59453181  1
  Ho  Ho1  1  0.05214631  0.69734619  0.09453181  1
  Ho  Ho2  1  0.94785369  0.30265381  0.90546819  1
  Ho  Ho3  1  0.69734619  0.05214631  0.40546819  1
  Se  Se4  1  0.45296247  0.78947561  0.92454676  1
  Se  Se5  1  0.21052439  0.54703753  0.42454676  1
  Se  Se6  1  0.86977456  0.86977456  0.75000000  1
  Se  Se7  1  0.13022544  0.13022544  0.25000000  1
  Se  Se8  1  0.78947561  0.45296247  0.57545324  1
  Se  Se9  1  0.54703753  0.21052439  0.07545324  1
  O  O10  1  0.37645561  0.73849060  0.78943181  1
  O  O11  1  0.58549115  0.00197640  0.71165215  1
  O  O12  1  0.95732300  0.94359813  0.87750604  1
  O  O13  1  0.31101670  0.61925950  0.54364543  1
  O  O14  1  0.74720183  0.65361378  0.95778667  1
  O  O15  1  0.07542316  0.31848717  0.60553012  1
  O  O16  1  0.26150940  0.62354439  0.28943181  1
  O  O17  1  0.31848717  0.07542316  0.89446988  1
  O  O18  1  0.65361378  0.74720183  0.54221333  1
  O  O19  1  0.61925950  0.31101670  0.95635457  1
  O  O20  1  0.94359813  0.95732300  0.62249396  1
  O  O21  1  0.99802360  0.41450885  0.21165215  1
  O  O22  1  0.00197640  0.58549115  0.78834785  1
  O  O23  1  0.05640187  0.04267700  0.37750604  1
  O  O24  1  0.38074050  0.68898330  0.04364543  1
  O  O25  1  0.34638622  0.25279817  0.45778667  1
  O  O26  1  0.68151283  0.92457684  0.10553012  1
  O  O27  1  0.73849060  0.37645561  0.71056819  1
  O  O28  1  0.92457684  0.68151283  0.39446988  1
  O  O29  1  0.25279817  0.34638622  0.04221333  1
  O  O30  1  0.68898330  0.38074050  0.45635457  1
  O  O31  1  0.04267700  0.05640187  0.12249396  1
  O  O32  1  0.41450885  0.99802360  0.28834785  1
  O  O33  1  0.62354439  0.26150940  0.21056819  1
