# generated using pymatgen
data_Dy2Zr2O7
_symmetry_space_group_name_H-M   'P 1'
_cell_length_a   7.87998343
_cell_length_b   13.82668000
_cell_length_c   5.53596720
_cell_angle_alpha   90.00000000
_cell_angle_beta   90.00000000
_cell_angle_gamma   98.45593789
_symmetry_Int_Tables_number   1
_chemical_formula_structural   Dy2Zr2O7
_chemical_formula_sum   'Dy8 Zr8 O28'
_cell_volume   596.60895141
_cell_formula_units_Z   4
loop_
 _symmetry_equiv_pos_site_id
 _symmetry_equiv_pos_as_xyz
  1  'x, y, z'
loop_
 _atom_site_type_symbol
 _atom_site_label
 _atom_site_symmetry_multiplicity
 _atom_site_fract_x
 _atom_site_fract_y
 _atom_site_fract_z
 _atom_site_occupancy
  Dy  Dy0  1  0.13666889  0.55911860  0.32731632  1
  Dy  Dy1  1  0.23724743  0.92769007  0.77922558  1
  Dy  Dy2  1  0.28652752  0.13399392  0.24297124  1
  Dy  Dy3  1  0.36198168  0.39898040  0.75958189  1
  Dy  Dy4  1  0.63801832  0.60101960  0.25958189  1
  Dy  Dy5  1  0.71347248  0.86600608  0.74297124  1
  Dy  Dy6  1  0.76275257  0.07230993  0.27922558  1
  Dy  Dy7  1  0.86333111  0.44088140  0.82731632  1
  Zr  Zr8  1  0.07438603  0.31968509  0.26536522  1
  Zr  Zr9  1  0.02694133  0.11866239  0.76292203  1
  Zr  Zr10  1  0.41058178  0.67298781  0.77714262  1
  Zr  Zr11  1  0.46769960  0.87482998  0.26482271  1
  Zr  Zr12  1  0.53230040  0.12517002  0.76482271  1
  Zr  Zr13  1  0.58941822  0.32701219  0.27714262  1
  Zr  Zr14  1  0.97305867  0.88133761  0.26292203  1
  Zr  Zr15  1  0.92561397  0.68031491  0.76536522  1
  O  O16  1  0.07767912  0.41733645  0.55218520  1
  O  O17  1  0.99631680  0.17404985  0.41906924  1
  O  O18  1  0.16967711  0.67418175  0.63396744  1
  O  O19  1  0.22177930  0.88291903  0.38600512  1
  O  O20  1  0.15378608  0.43445261  0.04347926  1
  O  O21  1  0.07507149  0.02154766  0.05026760  1
  O  O22  1  0.13881658  0.22982090  0.96656615  1
  O  O23  1  0.36499351  0.62217140  0.11179135  1
  O  O24  1  0.41567678  0.82713098  0.91415231  1
  O  O25  1  0.27141863  0.08444045  0.63453838  1
  O  O26  1  0.32357234  0.29828984  0.40380622  1
  O  O27  1  0.42226073  0.54693644  0.57599350  1
  O  O28  1  0.56087450  0.97682561  0.54631628  1
  O  O29  1  0.52606753  0.76636371  0.47500234  1
  O  O30  1  0.47393247  0.23363629  0.97500234  1
  O  O31  1  0.43912550  0.02317439  0.04631628  1
  O  O32  1  0.57773927  0.45306356  0.07599350  1
  O  O33  1  0.67642766  0.70171016  0.90380622  1
  O  O34  1  0.72858137  0.91555955  0.13453838  1
  O  O35  1  0.58432322  0.17286902  0.41415231  1
  O  O36  1  0.63500649  0.37782860  0.61179135  1
  O  O37  1  0.86118342  0.77017910  0.46656615  1
  O  O38  1  0.92492851  0.97845234  0.55026760  1
  O  O39  1  0.84621392  0.56554739  0.54347926  1
  O  O40  1  0.77822070  0.11708097  0.88600512  1
  O  O41  1  0.83032289  0.32581825  0.13396744  1
  O  O42  1  0.00368320  0.82595015  0.91906924  1
  O  O43  1  0.92232088  0.58266355  0.05218520  1
