# generated using pymatgen
data_NaVSiCO7
_symmetry_space_group_name_H-M   'P 1'
_cell_length_a   9.06236742
_cell_length_b   6.42612941
_cell_length_c   5.40774080
_cell_angle_alpha   90.00000000
_cell_angle_beta   86.73632075
_cell_angle_gamma   90.00000000
_symmetry_Int_Tables_number   1
_chemical_formula_structural   NaVSiCO7
_chemical_formula_sum   'Na2 V2 Si2 C2 O14'
_cell_volume   314.41412597
_cell_formula_units_Z   2
loop_
 _symmetry_equiv_pos_site_id
 _symmetry_equiv_pos_as_xyz
  1  'x, y, z'
loop_
 _atom_site_type_symbol
 _atom_site_label
 _atom_site_symmetry_multiplicity
 _atom_site_fract_x
 _atom_site_fract_y
 _atom_site_fract_z
 _atom_site_occupancy
  Na  Na0  1  0.22387873  0.48581368  0.23518338  1
  Na  Na1  1  0.77612127  0.98581368  0.76481662  1
  V  V2  1  0.34377634  0.76591522  0.79819679  1
  V  V3  1  0.65622366  0.26591522  0.20180321  1
  Si  Si4  1  0.43804481  0.25984200  0.72476479  1
  Si  Si5  1  0.56195519  0.75984200  0.27523521  1
  C  C6  1  0.08011402  0.74346024  0.72235869  1
  C  C7  1  0.91988598  0.24346024  0.27764131  1
  O  O8  1  0.05313742  0.24451130  0.31018006  1
  O  O9  1  0.14017179  0.74958214  0.94312351  1
  O  O10  1  0.18883885  0.74047126  0.54665992  1
  O  O11  1  0.34136421  0.04689673  0.78635580  1
  O  O12  1  0.33766743  0.45987544  0.79485146  1
  O  O13  1  0.41649774  0.74563282  0.10517934  1
  O  O14  1  0.49809825  0.25585116  0.43100117  1
  O  O15  1  0.50190175  0.75585116  0.56899883  1
  O  O16  1  0.58350226  0.24563282  0.89482066  1
  O  O17  1  0.66233257  0.95987544  0.20514854  1
  O  O18  1  0.65863579  0.54689673  0.21364420  1
  O  O19  1  0.81116115  0.24047126  0.45334008  1
  O  O20  1  0.85982821  0.24958214  0.05687649  1
  O  O21  1  0.94686258  0.74451130  0.68981994  1
