# generated using pymatgen
data_Li2Fe5B3O13
_symmetry_space_group_name_H-M   'P 1'
_cell_length_a   9.62085773
_cell_length_b   3.16669581
_cell_length_c   15.82880869
_cell_angle_alpha   90.00000000
_cell_angle_beta   108.50026005
_cell_angle_gamma   90.00000000
_symmetry_Int_Tables_number   1
_chemical_formula_structural   Li2Fe5B3O13
_chemical_formula_sum   'Li4 Fe10 B6 O26'
_cell_volume   457.32431713
_cell_formula_units_Z   2
loop_
 _symmetry_equiv_pos_site_id
 _symmetry_equiv_pos_as_xyz
  1  'x, y, z'
loop_
 _atom_site_type_symbol
 _atom_site_label
 _atom_site_symmetry_multiplicity
 _atom_site_fract_x
 _atom_site_fract_y
 _atom_site_fract_z
 _atom_site_occupancy
  Li  Li0  1  0.27387058  0.25000000  0.76094600  1
  Li  Li1  1  0.38486132  0.75000000  0.95130195  1
  Li  Li2  1  0.61513868  0.25000000  0.04869805  1
  Li  Li3  1  0.72612942  0.75000000  0.23905400  1
  Fe  Fe4  1  0.14332883  0.25000000  0.00058784  1
  Fe  Fe5  1  0.04027512  0.25000000  0.37459877  1
  Fe  Fe6  1  0.19379872  0.75000000  0.19499141  1
  Fe  Fe7  1  0.35593981  0.75000000  0.43744718  1
  Fe  Fe8  1  0.48276016  0.75000000  0.68900690  1
  Fe  Fe9  1  0.51723884  0.25000000  0.31099310  1
  Fe  Fe10  1  0.64406019  0.25000000  0.56255282  1
  Fe  Fe11  1  0.80620128  0.25000000  0.80500859  1
  Fe  Fe12  1  0.95972488  0.75000000  0.62540123  1
  Fe  Fe13  1  0.85667117  0.75000000  0.99941216  1
  B  B14  1  0.07969695  0.75000000  0.81833153  1
  B  B15  1  0.20629207  0.25000000  0.57465353  1
  B  B16  1  0.58229891  0.75000000  0.88008404  1
  B  B17  1  0.41770109  0.25000000  0.11991596  1
  B  B18  1  0.79370793  0.75000000  0.42534647  1
  B  B19  1  0.92030305  0.25000000  0.18166847  1
  O  O20  1  0.16885152  0.75000000  0.90742147  1
  O  O21  1  0.06809765  0.25000000  0.58381338  1
  O  O22  1  0.13220338  0.75000000  0.74776002  1
  O  O23  1  0.07195705  0.25000000  0.20115720  1
  O  O24  1  0.15436242  0.75000000  0.35122657  1
  O  O25  1  0.22768089  0.25000000  0.49204106  1
  O  O26  1  0.32867890  0.25000000  0.65187329  1
  O  O27  1  0.08153251  0.75000000  0.05893776  1
  O  O28  1  0.44732758  0.75000000  0.81656464  1
  O  O29  1  0.61039028  0.75000000  0.97156331  1
  O  O30  1  0.28932966  0.25000000  0.14305540  1
  O  O31  1  0.38406765  0.75000000  0.28953331  1
  O  O32  1  0.51683571  0.75000000  0.56770708  1
  O  O33  1  0.48316429  0.25000000  0.43229292  1
  O  O34  1  0.61593235  0.25000000  0.71046669  1
  O  O35  1  0.71067034  0.75000000  0.85694460  1
  O  O36  1  0.38960972  0.25000000  0.02843669  1
  O  O37  1  0.55267242  0.25000000  0.18343536  1
  O  O38  1  0.91846749  0.25000000  0.94106224  1
  O  O39  1  0.67132110  0.75000000  0.34812671  1
  O  O40  1  0.77231911  0.75000000  0.50795894  1
  O  O41  1  0.84563758  0.25000000  0.64877343  1
  O  O42  1  0.92804295  0.75000000  0.79884280  1
  O  O43  1  0.86779662  0.25000000  0.25223998  1
  O  O44  1  0.93190235  0.75000000  0.41618662  1
  O  O45  1  0.83114848  0.25000000  0.09257853  1
