# generated using pymatgen
data_Li3MnV3O8
_symmetry_space_group_name_H-M   'P 1'
_cell_length_a   10.38436203
_cell_length_b   10.38466515
_cell_length_c   14.69486482
_cell_angle_alpha   19.34720335
_cell_angle_beta   19.34774784
_cell_angle_gamma   33.35447822
_symmetry_Int_Tables_number   1
_chemical_formula_structural   Li3MnV3O8
_chemical_formula_sum   'Li3 Mn1 V3 O8'
_cell_volume   150.55413246
_cell_formula_units_Z   1
loop_
 _symmetry_equiv_pos_site_id
 _symmetry_equiv_pos_as_xyz
  1  'x, y, z'
loop_
 _atom_site_type_symbol
 _atom_site_label
 _atom_site_symmetry_multiplicity
 _atom_site_fract_x
 _atom_site_fract_y
 _atom_site_fract_z
 _atom_site_occupancy
  Li  Li0  1  0.99999865  0.50001087  0.49999770  1
  Li  Li1  1  0.50001666  0.99997686  0.50001067  1
  Li  Li2  1  0.49998165  0.49995971  0.50004528  1
  Mn  Mn3  1  0.00001026  0.00003686  -0.00009208  1
  V  V4  1  0.00000214  0.49996279  0.00003991  1
  V  V5  1  0.50001228  0.00002943  -0.00001398  1
  V  V6  1  0.49999590  0.50002331  0.00000205  1
  O  O7  1  0.00040672  0.00043190  0.25712928  1
  O  O8  1  0.00007258  0.52373897  0.24587778  1
  O  O9  1  0.52371465  0.00007826  0.24588204  1
  O  O10  1  0.99959408  0.99954643  0.74290421  1
  O  O11  1  0.47648076  0.47651088  0.29298096  1
  O  O12  1  0.99992668  0.47623216  0.75414021  1
  O  O13  1  0.47621250  0.99991825  0.75415987  1
  O  O14  1  0.52357550  0.52354331  0.70693711  1
