# generated using pymatgen
data_K3LiNb6O15
_symmetry_space_group_name_H-M   'P 1'
_cell_length_a   12.97189774
_cell_length_b   12.96533290
_cell_length_c   4.08855020
_cell_angle_alpha   89.66034683
_cell_angle_beta   90.00000000
_cell_angle_gamma   90.00000000
_symmetry_Int_Tables_number   1
_chemical_formula_structural   K3LiNb6O15
_chemical_formula_sum   'K6 Li2 Nb12 O30'
_cell_volume   687.62062114
_cell_formula_units_Z   2
loop_
 _symmetry_equiv_pos_site_id
 _symmetry_equiv_pos_as_xyz
  1  'x, y, z'
loop_
 _atom_site_type_symbol
 _atom_site_label
 _atom_site_symmetry_multiplicity
 _atom_site_fract_x
 _atom_site_fract_y
 _atom_site_fract_z
 _atom_site_occupancy
  K  K0  1  0.99416432  0.99773860  0.46747928  1
  K  K1  1  0.16530145  0.67604843  0.47948708  1
  K  K2  1  0.33469855  0.17604843  0.47948708  1
  K  K3  1  0.50583568  0.49773860  0.46747928  1
  K  K4  1  0.68094953  0.82887073  0.48411169  1
  K  K5  1  0.81905047  0.32887073  0.48411169  1
  Li  Li6  1  0.63652368  0.13671792  0.49500990  1
  Li  Li7  1  0.86347632  0.63671792  0.49500990  1
  Nb  Nb8  1  0.99466047  0.50547861  0.98598267  1
  Nb  Nb9  1  0.07222886  0.20436621  0.97361744  1
  Nb  Nb10  1  0.12348453  0.37421583  0.63073244  1
  Nb  Nb11  1  0.20112054  0.92712557  0.97804391  1
  Nb  Nb12  1  0.29887946  0.42712557  0.97804391  1
  Nb  Nb13  1  0.37651547  0.87421583  0.63073244  1
  Nb  Nb14  1  0.42777114  0.70436621  0.97361744  1
  Nb  Nb15  1  0.50533953  0.00547861  0.98598267  1
  Nb  Nb16  1  0.57695542  0.29546467  0.97467107  1
  Nb  Nb17  1  0.70672997  0.57682445  0.97488922  1
  Nb  Nb18  1  0.79327003  0.07682445  0.97488922  1
  Nb  Nb19  1  0.92304458  0.79546467  0.97467107  1
  O  O20  1  0.00618565  0.49418124  0.47003758  1
  O  O21  1  0.99669624  0.34407678  0.96401210  1
  O  O22  1  0.06430568  0.85785985  0.97286618  1
  O  O23  1  0.08181202  0.21811637  0.45725923  1
  O  O24  1  0.13873030  0.06416295  0.95832858  1
  O  O25  1  0.15507849  0.49892796  0.96716474  1
  O  O26  1  0.21554658  0.28388692  0.95876089  1
  O  O27  1  0.21850858  0.91474626  0.46210148  1
  O  O28  1  0.28149142  0.41474626  0.46210148  1
  O  O29  1  0.28445342  0.78388692  0.95876089  1
  O  O30  1  0.34492151  0.99892796  0.96716474  1
  O  O31  1  0.36126970  0.56416295  0.95832858  1
  O  O32  1  0.41818798  0.71811637  0.45725923  1
  O  O33  1  0.43569432  0.35785985  0.97286618  1
  O  O34  1  0.50330376  0.84407678  0.96401210  1
  O  O35  1  0.49381435  0.99418124  0.47003758  1
  O  O36  1  0.50339140  0.15412121  0.96704434  1
  O  O37  1  0.56868477  0.63945633  0.96843794  1
  O  O38  1  0.58173218  0.28594148  0.47368029  1
  O  O39  1  0.64382587  0.43128288  0.97695144  1
  O  O40  1  0.65456471  0.00271055  0.96713375  1
  O  O41  1  0.70969722  0.20822545  0.97391204  1
  O  O42  1  0.71435775  0.57945376  0.47316174  1
  O  O43  1  0.78564225  0.07945376  0.47316174  1
  O  O44  1  0.79030278  0.70822545  0.97391204  1
  O  O45  1  0.84543529  0.50271055  0.96713375  1
  O  O46  1  0.85617413  0.93128288  0.97695144  1
  O  O47  1  0.91826782  0.78594148  0.47368029  1
  O  O48  1  0.93131523  0.13945633  0.96843794  1
  O  O49  1  0.99660860  0.65412121  0.96704434  1
