# generated using pymatgen
data_Li3Ti2CrO6
_symmetry_space_group_name_H-M   'P 1'
_cell_length_a   15.68188920
_cell_length_b   10.01404424
_cell_length_c   10.01404421
_cell_angle_alpha   16.90271159
_cell_angle_beta   16.37806103
_cell_angle_gamma   16.37805993
_symmetry_Int_Tables_number   1
_chemical_formula_structural   Li3Ti2CrO6
_chemical_formula_sum   'Li3 Ti2 Cr1 O6'
_cell_volume   111.23701259
_cell_formula_units_Z   1
loop_
 _symmetry_equiv_pos_site_id
 _symmetry_equiv_pos_as_xyz
  1  'x, y, z'
loop_
 _atom_site_type_symbol
 _atom_site_label
 _atom_site_symmetry_multiplicity
 _atom_site_fract_x
 _atom_site_fract_y
 _atom_site_fract_z
 _atom_site_occupancy
  Li  Li0  1  0.16666700  0.50000000  0.50000000  1
  Li  Li1  1  0.50195236  0.50147216  0.50147216  1
  Li  Li2  1  0.83138164  0.49852784  0.49852784  1
  Ti  Ti3  1  0.97803923  0.01681765  0.01681765  1
  Ti  Ti4  1  0.35529377  0.98318235  0.98318235  1
  Cr  Cr5  1  0.66666700  0.00000000  0.00000000  1
  O  O6  1  0.24592789  0.25932320  0.25932320  1
  O  O7  1  0.57802486  0.25421281  0.25421281  1
  O  O8  1  0.08740611  0.74067680  0.74067680  1
  O  O9  1  0.91749666  0.25612075  0.25612075  1
  O  O10  1  0.41583634  0.74387925  0.74387925  1
  O  O11  1  0.75530814  0.74578719  0.74578719  1
