# generated using pymatgen
data_Li5Cr2Cu5O12
_symmetry_space_group_name_H-M   'P 1'
_cell_length_a   5.05698281
_cell_length_b   5.05698249
_cell_length_c   9.65998008
_cell_angle_alpha   88.77644556
_cell_angle_beta   91.22354990
_cell_angle_gamma   65.69831595
_symmetry_Int_Tables_number   1
_chemical_formula_structural   Li5Cr2Cu5O12
_chemical_formula_sum   'Li5 Cr2 Cu5 O12'
_cell_volume   224.97134583
_cell_formula_units_Z   1
loop_
 _symmetry_equiv_pos_site_id
 _symmetry_equiv_pos_as_xyz
  1  'x, y, z'
loop_
 _atom_site_type_symbol
 _atom_site_label
 _atom_site_symmetry_multiplicity
 _atom_site_fract_x
 _atom_site_fract_y
 _atom_site_fract_z
 _atom_site_occupancy
  Li  Li0  1  0.15993888  0.67360560  0.50369457  1
  Li  Li1  1  0.32354715  0.84598942  0.99350767  1
  Li  Li2  1  0.67360560  0.15993888  0.99630543  1
  Li  Li3  1  0.84598942  0.32354715  0.50649233  1
  Li  Li4  1  0.91559630  0.91559630  0.75000000  1
  Cr  Cr5  1  0.24711390  0.24711390  0.75000000  1
  Cr  Cr6  1  0.74745122  0.74745122  0.25000000  1
  Cu  Cu7  1  0.07865173  0.07865173  0.25000000  1
  Cu  Cu8  1  0.99945233  0.50675238  0.99895726  1
  Cu  Cu9  1  0.50675238  0.99945233  0.50104274  1
  Cu  Cu10  1  0.41663670  0.41663670  0.25000000  1
  Cu  Cu11  1  0.58498418  0.58498418  0.75000000  1
  O  O12  1  0.98905808  0.20948928  0.88432850  1
  O  O13  1  0.20948928  0.98905808  0.61567150  1
  O  O14  1  0.08156915  0.41595421  0.34673600  1
  O  O15  1  0.41595421  0.08156915  0.15326400  1
  O  O16  1  0.30501719  0.52448723  0.87338168  1
  O  O17  1  0.52448723  0.30501719  0.62661832  1
  O  O18  1  0.47307213  0.69432181  0.37862407  1
  O  O19  1  0.69432181  0.47307213  0.12137593  1
  O  O20  1  0.56895540  0.92124339  0.84668732  1
  O  O21  1  0.92124339  0.56895540  0.65331268  1
  O  O22  1  0.80625050  0.01086386  0.38393357  1
  O  O23  1  0.01086386  0.80625050  0.11606643  1
