# generated using pymatgen
data_Li4V3Sb5O16
_symmetry_space_group_name_H-M   'P 1'
_cell_length_a   6.22209009
_cell_length_b   6.50643455
_cell_length_c   10.37564522
_cell_angle_alpha   88.65863059
_cell_angle_beta   90.03913925
_cell_angle_gamma   120.63555510
_symmetry_Int_Tables_number   1
_chemical_formula_structural   Li4V3Sb5O16
_chemical_formula_sum   'Li4 V3 Sb5 O16'
_cell_volume   361.28659019
_cell_formula_units_Z   1
loop_
 _symmetry_equiv_pos_site_id
 _symmetry_equiv_pos_as_xyz
  1  'x, y, z'
loop_
 _atom_site_type_symbol
 _atom_site_label
 _atom_site_symmetry_multiplicity
 _atom_site_fract_x
 _atom_site_fract_y
 _atom_site_fract_z
 _atom_site_occupancy
  Li  Li0  1  0.32382805  0.66240156  0.88008118  1
  Li  Li1  1  0.98783986  0.98873502  0.99398286  1
  Li  Li2  1  -0.00001467  0.99171605  0.50080650  1
  Li  Li3  1  0.66405294  0.34798556  0.40228824  1
  V  V4  1  0.66844141  0.83935200  0.21977159  1
  V  V5  1  0.83540391  0.66115582  0.71772030  1
  V  V6  1  0.83781337  0.17746380  0.71268614  1
  Sb  Sb7  1  0.16254198  0.83130957  0.21621221  1
  Sb  Sb8  1  0.36599831  0.67730062  0.50573211  1
  Sb  Sb9  1  0.17953563  0.35502252  0.21902401  1
  Sb  Sb10  1  0.33535172  0.17399380  0.71597118  1
  Sb  Sb11  1  0.66445135  0.29671215  0.99217545  1
  O  O12  1  0.16172359  0.86941698  0.61794867  1
  O  O13  1  0.00852223  0.51222370  0.31745374  1
  O  O14  1  0.32734599  0.68497293  0.10961076  1
  O  O15  1  0.00171994  0.97172657  0.32388461  1
  O  O16  1  0.00384829  0.01013559  0.81399086  1
  O  O17  1  0.16198813  0.30015516  0.59837599  1
  O  O18  1  0.47966871  0.96943633  0.32313857  1
  O  O19  1  0.50728927  0.55832842  0.35457573  1
  O  O20  1  0.31385398  0.10323043  0.08385831  1
  O  O21  1  0.69577083  0.85104457  0.60826412  1
  O  O22  1  0.50293692  0.47911475  0.81427006  1
  O  O23  1  0.51604461  0.04330583  0.83316868  1
  O  O24  1  0.65784121  0.32692150  0.60917316  1
  O  O25  1  0.84347016  0.71195329  0.11829051  1
  O  O26  1  0.97194460  0.47737311  0.81159594  1
  O  O27  1  0.82078571  0.12781337  0.09378652  1
