# generated using pymatgen
data_Li2Fe3SnO8
_symmetry_space_group_name_H-M   'P 1'
_cell_length_a   6.01507068
_cell_length_b   6.01507054
_cell_length_c   6.01507095
_cell_angle_alpha   60.42547960
_cell_angle_beta   60.42547662
_cell_angle_gamma   60.42547665
_symmetry_Int_Tables_number   1
_chemical_formula_structural   Li2Fe3SnO8
_chemical_formula_sum   'Li2 Fe3 Sn1 O8'
_cell_volume   155.36934728
_cell_formula_units_Z   1
loop_
 _symmetry_equiv_pos_site_id
 _symmetry_equiv_pos_as_xyz
  1  'x, y, z'
loop_
 _atom_site_type_symbol
 _atom_site_label
 _atom_site_symmetry_multiplicity
 _atom_site_fract_x
 _atom_site_fract_y
 _atom_site_fract_z
 _atom_site_occupancy
  Li  Li0  1  0.11972954  0.11972954  0.11972954  1
  Li  Li1  1  0.49755652  0.49755652  0.49755652  1
  Fe  Fe2  1  0.01830793  0.49437226  0.49437226  1
  Fe  Fe3  1  0.49437226  0.01830793  0.49437226  1
  Fe  Fe4  1  0.49437226  0.49437226  0.01830793  1
  Sn  Sn5  1  0.88330643  0.88330643  0.88330643  1
  O  O6  1  0.25631116  0.25631116  0.25631116  1
  O  O7  1  0.25154442  0.25154442  0.71372432  1
  O  O8  1  0.25154442  0.71372432  0.25154442  1
  O  O9  1  0.71372432  0.25154442  0.25154442  1
  O  O10  1  0.28596792  0.74378251  0.74378251  1
  O  O11  1  0.74378251  0.28596792  0.74378251  1
  O  O12  1  0.74378251  0.74378251  0.28596792  1
  O  O13  1  0.74569682  0.74569682  0.74569682  1
