# generated using pymatgen
data_TiFeO4
_symmetry_space_group_name_H-M   'P 1'
_cell_length_a   5.49196590
_cell_length_b   5.49196591
_cell_length_c   5.49196617
_cell_angle_alpha   139.20885153
_cell_angle_beta   139.20884479
_cell_angle_gamma   59.05654458
_symmetry_Int_Tables_number   1
_chemical_formula_structural   TiFeO4
_chemical_formula_sum   'Ti1 Fe1 O4'
_cell_volume   70.02026071
_cell_formula_units_Z   1
loop_
 _symmetry_equiv_pos_site_id
 _symmetry_equiv_pos_as_xyz
  1  'x, y, z'
loop_
 _atom_site_type_symbol
 _atom_site_label
 _atom_site_symmetry_multiplicity
 _atom_site_fract_x
 _atom_site_fract_y
 _atom_site_fract_z
 _atom_site_occupancy
  Ti  Ti0  1  0.75000000  0.25000000  0.50000000  1
  Fe  Fe1  1  0.00000000  0.00000000  0.00000000  1
  O  O2  1  0.54195658  0.04195658  0.50000000  1
  O  O3  1  0.20645241  0.20645241  1.00000000  1
  O  O4  1  0.95804342  0.45804342  0.50000000  1
  O  O5  1  0.79354759  0.79354759  0.00000000  1
