# generated using pymatgen
data_Ge2N2O
_symmetry_space_group_name_H-M   'P 1'
_cell_length_a   5.86317519
_cell_length_b   13.14723507
_cell_length_c   5.86317519
_cell_angle_alpha   77.11579798
_cell_angle_beta   90.00000000
_cell_angle_gamma   102.88420202
_symmetry_Int_Tables_number   1
_chemical_formula_structural   Ge2N2O
_chemical_formula_sum   'Ge16 N16 O8'
_cell_volume   428.90012176
_cell_formula_units_Z   8
loop_
 _symmetry_equiv_pos_site_id
 _symmetry_equiv_pos_as_xyz
  1  'x, y, z'
loop_
 _atom_site_type_symbol
 _atom_site_label
 _atom_site_symmetry_multiplicity
 _atom_site_fract_x
 _atom_site_fract_y
 _atom_site_fract_z
 _atom_site_occupancy
  Ge  Ge0  1  0.50000000  0.00000000  0.00000000  1
  Ge  Ge1  1  0.00000000  0.00000000  0.00000000  1
  Ge  Ge2  1  0.00000000  0.50000000  0.00000000  1
  Ge  Ge3  1  0.33175063  0.16350126  0.16950294  1
  Ge  Ge4  1  0.54409282  0.58818563  0.20590718  1
  Ge  Ge5  1  0.66699581  0.33649874  0.33175063  1
  Ge  Ge6  1  0.79409282  0.08818563  0.45590718  1
  Ge  Ge7  1  0.16950294  0.33649874  0.33175063  1
  Ge  Ge8  1  0.33175063  0.16350126  0.66699581  1
  Ge  Ge9  1  0.00000000  0.50000000  0.50000000  1
  Ge  Ge10  1  0.66824937  0.83649874  0.33300419  1
  Ge  Ge11  1  0.20590718  0.91181437  0.54409282  1
  Ge  Ge12  1  0.45590718  0.41181437  0.79409282  1
  Ge  Ge13  1  0.33300419  0.66350126  0.66824937  1
  Ge  Ge14  1  0.83049706  0.66350126  0.66824937  1
  Ge  Ge15  1  0.66824937  0.83649874  0.83049706  1
  N  N16  1  0.25080347  0.00160794  0.23491795  1
  N  N17  1  0.41238366  0.32476731  0.10244847  1
  N  N18  1  0.10244847  0.17523269  0.41238366  1
  N  N19  1  0.57278422  0.17523269  0.41238366  1
  N  N20  1  0.76347411  0.49839206  0.25080347  1
  N  N21  1  0.23491795  0.49839206  0.25080347  1
  N  N22  1  0.41238366  0.32476731  0.57278422  1
  N  N23  1  0.74919653  0.99839206  0.23652589  1
  N  N24  1  0.25080347  0.00160794  0.76347411  1
  N  N25  1  0.58761634  0.67523269  0.42721578  1
  N  N26  1  0.23652589  0.50160794  0.74919653  1
  N  N27  1  0.42721578  0.82476731  0.58761634  1
  N  N28  1  0.89755153  0.82476731  0.58761634  1
  N  N29  1  0.76508205  0.50160794  0.74919653  1
  N  N30  1  0.58761634  0.67523269  0.89755153  1
  N  N31  1  0.74919653  0.99839206  0.76508205  1
  O  O32  1  0.92329329  0.34658659  0.11075584  1
  O  O33  1  0.45734243  0.84658659  0.07670671  1
  O  O34  1  0.88924416  0.84658659  0.07670671  1
  O  O35  1  0.92329329  0.34658659  0.54265757  1
  O  O36  1  0.07670671  0.65341341  0.45734243  1
  O  O37  1  0.11075584  0.15341341  0.92329329  1
  O  O38  1  0.54265757  0.15341341  0.92329329  1
  O  O39  1  0.07670671  0.65341341  0.88924416  1
