# generated using pymatgen
data_Fe6O5F7
_symmetry_space_group_name_H-M   'P 1'
_cell_length_a   7.35642229
_cell_length_b   5.69441483
_cell_length_c   5.68737912
_cell_angle_alpha   73.28287577
_cell_angle_beta   72.32930938
_cell_angle_gamma   72.35136358
_symmetry_Int_Tables_number   1
_chemical_formula_structural   Fe6O5F7
_chemical_formula_sum   'Fe6 O5 F7'
_cell_volume   211.24155994
_cell_formula_units_Z   1
loop_
 _symmetry_equiv_pos_site_id
 _symmetry_equiv_pos_as_xyz
  1  'x, y, z'
loop_
 _atom_site_type_symbol
 _atom_site_label
 _atom_site_symmetry_multiplicity
 _atom_site_fract_x
 _atom_site_fract_y
 _atom_site_fract_z
 _atom_site_occupancy
  Fe  Fe0  1  0.83864004  0.67774898  0.69430807  1
  Fe  Fe1  1  0.66765738  0.35788083  0.32097264  1
  Fe  Fe2  1  0.30988726  0.66987625  0.62407184  1
  Fe  Fe3  1  0.17334641  0.30942618  0.33213684  1
  Fe  Fe4  1  0.50328647  0.97137956  0.01683675  1
  Fe  Fe5  1  0.00723699  0.99730115  0.01163766  1
  O  O6  1  0.96218036  0.22711153  0.23166734  1
  O  O7  1  0.04108523  0.78230571  0.78567892  1
  O  O8  1  0.36837798  0.42661422  0.42317481  1
  O  O9  1  0.33444644  0.96880166  0.35008807  1
  O  O10  1  0.65778457  0.64141365  0.04522595  1
  F  F11  1  0.65420265  0.05363817  0.63908690  1
  F  F12  1  0.33773058  0.35739451  0.95850594  1
  F  F13  1  0.30416160  0.90173460  0.89047595  1
  F  F14  1  0.62437483  0.57213307  0.57240431  1
  F  F15  1  0.70444882  0.10037736  0.09749826  1
  F  F16  1  0.00612601  0.29527809  0.69941731  1
  F  F17  1  0.00502536  0.68958448  0.30681345  1
