# generated using pymatgen
data_Li3Fe2OF5
_symmetry_space_group_name_H-M   'P 1'
_cell_length_a   5.26299442
_cell_length_b   5.25228521
_cell_length_c   9.50036620
_cell_angle_alpha   101.02172301
_cell_angle_beta   78.96457725
_cell_angle_gamma   70.84586117
_symmetry_Int_Tables_number   1
_chemical_formula_structural   Li3Fe2OF5
_chemical_formula_sum   'Li6 Fe4 O2 F10'
_cell_volume   234.17632884
_cell_formula_units_Z   2
loop_
 _symmetry_equiv_pos_site_id
 _symmetry_equiv_pos_as_xyz
  1  'x, y, z'
loop_
 _atom_site_type_symbol
 _atom_site_label
 _atom_site_symmetry_multiplicity
 _atom_site_fract_x
 _atom_site_fract_y
 _atom_site_fract_z
 _atom_site_occupancy
  Li  Li0  1  0.45470678  0.28756381  0.08337945  1
  Li  Li1  1  0.88132552  0.36620717  0.24090602  1
  Li  Li2  1  0.20524803  0.04262403  0.58272572  1
  Li  Li3  1  0.78022862  0.96996831  0.43702426  1
  Li  Li4  1  0.13304757  0.61551846  0.72937376  1
  Li  Li5  1  0.53605238  0.71016574  0.92663678  1
  Fe  Fe6  1  0.96152762  0.79167316  0.08264680  1
  Fe  Fe7  1  0.70730519  0.54381704  0.58329076  1
  Fe  Fe8  1  0.38558875  0.86800092  0.23788662  1
  Fe  Fe9  1  0.03499320  0.21902086  0.92864167  1
  O  O10  1  0.21006524  0.04084884  0.08536970  1
  O  O11  1  0.71182410  0.53711149  0.08298396  1
  F  F12  1  0.63540547  0.12456749  0.25274843  1
  F  F13  1  0.94152869  0.77844385  0.58326019  1
  F  F14  1  0.10923764  0.63156302  0.24857503  1
  F  F15  1  0.54892390  0.74372070  0.42221433  1
  F  F16  1  0.90819157  0.38473756  0.74299787  1
  F  F17  1  0.03083184  0.17700313  0.42145255  1
  F  F18  1  0.47261156  0.30989165  0.58373869  1
  F  F19  1  0.29579776  0.46481559  0.91337416  1
  F  F20  1  0.33786567  0.87026660  0.74681693  1
  F  F21  1  0.80102489  0.93913660  0.91728729  1
