# generated using pymatgen
data_Li3FeOF3
_symmetry_space_group_name_H-M   'P 1'
_cell_length_a   2.99541891
_cell_length_b   5.18514311
_cell_length_c   10.37706041
_cell_angle_alpha   79.71706367
_cell_angle_beta   89.87635864
_cell_angle_gamma   106.96419974
_symmetry_Int_Tables_number   1
_chemical_formula_structural   Li3FeOF3
_chemical_formula_sum   'Li6 Fe2 O2 F6'
_cell_volume   151.43182375
_cell_formula_units_Z   2
loop_
 _symmetry_equiv_pos_site_id
 _symmetry_equiv_pos_as_xyz
  1  'x, y, z'
loop_
 _atom_site_type_symbol
 _atom_site_label
 _atom_site_symmetry_multiplicity
 _atom_site_fract_x
 _atom_site_fract_y
 _atom_site_fract_z
 _atom_site_occupancy
  Li  Li0  1  0.75520639  0.50368664  0.86703687  1
  Li  Li1  1  0.50469358  0.00018891  0.74982361  1
  Li  Li2  1  0.50468147  0.00242741  0.24968902  1
  Li  Li3  1  0.00924967  0.00546295  0.49912325  1
  Li  Li4  1  0.25305990  0.49756090  0.63314659  1
  Li  Li5  1  0.99552947  0.99775622  0.00065819  1
  Fe  Fe6  1  0.75182518  0.48551410  0.36711238  1
  Fe  Fe7  1  0.25513584  0.51870676  0.13297097  1
  O  O8  1  0.87997064  0.76370298  0.18267924  1
  O  O9  1  0.12884343  0.24063630  0.31731374  1
  F  F10  1  0.87857954  0.75010721  0.68846770  1
  F  F11  1  0.62753075  0.24803289  0.57383231  1
  F  F12  1  0.63140895  0.26624344  0.04690362  1
  F  F13  1  0.12610977  0.25173251  0.81171784  1
  F  F14  1  0.37754150  0.75419629  0.92628670  1
  F  F15  1  0.37272092  0.73708051  0.45338698  1
