# generated using pymatgen
data_Li4Mn2CrNi3(PO4)6
_symmetry_space_group_name_H-M   'P 1'
_cell_length_a   8.47354431
_cell_length_b   8.55419360
_cell_length_c   8.55289707
_cell_angle_alpha   62.11794246
_cell_angle_beta   62.38150510
_cell_angle_gamma   62.43420858
_symmetry_Int_Tables_number   1
_chemical_formula_structural   Li4Mn2CrNi3(PO4)6
_chemical_formula_sum   'Li4 Mn2 Cr1 Ni3 P6 O24'
_cell_volume   460.97469541
_cell_formula_units_Z   1
loop_
 _symmetry_equiv_pos_site_id
 _symmetry_equiv_pos_as_xyz
  1  'x, y, z'
loop_
 _atom_site_type_symbol
 _atom_site_label
 _atom_site_symmetry_multiplicity
 _atom_site_fract_x
 _atom_site_fract_y
 _atom_site_fract_z
 _atom_site_occupancy
  Li  Li0  1  0.74824702  0.14530437  0.35534751  1
  Li  Li1  1  0.26451615  0.85697581  0.64050644  1
  Li  Li2  1  0.64059534  0.26394773  0.85673482  1
  Li  Li3  1  0.85637749  0.64078684  0.26503739  1
  Mn  Mn4  1  0.01527087  0.00383549  0.99713419  1
  Mn  Mn5  1  0.48827618  0.50425920  0.49885393  1
  Cr  Cr6  1  0.85510400  0.85133773  0.85547354  1
  Ni  Ni7  1  0.14423768  0.14635995  0.14523084  1
  Ni  Ni8  1  0.35525866  0.35576697  0.35405700  1
  Ni  Ni9  1  0.64618724  0.64597082  0.65006575  1
  P  P10  1  0.04751739  0.74829028  0.45232725  1
  P  P11  1  0.45138197  0.04688338  0.74963366  1
  P  P12  1  0.74898333  0.45057672  0.04837161  1
  P  P13  1  0.24817739  0.54214602  0.95661512  1
  P  P14  1  0.54776231  0.95683265  0.24913572  1
  P  P15  1  0.95150877  0.24732612  0.54254050  1
  O  O16  1  0.11450710  0.30060919  0.50644595  1
  O  O17  1  0.30680616  0.51508731  0.11172324  1
  O  O18  1  0.04840299  0.91715966  0.26780995  1
  O  O19  1  0.53656345  0.10795765  0.30502878  1
  O  O20  1  0.01279401  0.80875321  0.61375651  1
  O  O21  1  0.24170182  0.59487019  0.43479955  1
  O  O22  1  0.26070422  0.06909345  0.90592949  1
  O  O23  1  0.45561273  0.23353561  0.58314327  1
  O  O24  1  0.18822602  0.38809047  0.98560467  1
  O  O25  1  0.59760025  0.43045172  0.24638773  1
  O  O26  1  0.09042148  0.74276831  0.93094775  1
  O  O27  1  0.38524939  0.99723736  0.19420977  1
  O  O28  1  0.61354022  0.00941498  0.81305807  1
  O  O29  1  0.90263005  0.25503107  0.07338790  1
  O  O30  1  0.40389998  0.56824720  0.75728964  1
  O  O31  1  0.81130433  0.61029146  0.01423745  1
  O  O32  1  0.56781131  0.75813697  0.40536674  1
  O  O33  1  0.74675540  0.92832410  0.08904850  1
  O  O34  1  0.75368304  0.40491400  0.57056379  1
  O  O35  1  0.96649732  0.18958122  0.39179185  1
  O  O36  1  0.47680949  0.89254955  0.68750616  1
  O  O37  1  0.93129175  0.08824325  0.74267808  1
  O  O38  1  0.68564481  0.47635523  0.89499878  1
  O  O39  1  0.89214191  0.68369676  0.48021609  1
