# generated using pymatgen
data_LiFeOF
_symmetry_space_group_name_H-M   'P 1'
_cell_length_a   4.50499140
_cell_length_b   5.41504071
_cell_length_c   6.20069199
_cell_angle_alpha   28.29614481
_cell_angle_beta   43.44390775
_cell_angle_gamma   33.70544543
_symmetry_Int_Tables_number   1
_chemical_formula_structural   LiFeOF
_chemical_formula_sum   'Li1 Fe1 O1 F1'
_cell_volume   39.77803173
_cell_formula_units_Z   1
loop_
 _symmetry_equiv_pos_site_id
 _symmetry_equiv_pos_as_xyz
  1  'x, y, z'
loop_
 _atom_site_type_symbol
 _atom_site_label
 _atom_site_symmetry_multiplicity
 _atom_site_fract_x
 _atom_site_fract_y
 _atom_site_fract_z
 _atom_site_occupancy
  Li  Li0  1  0.73530289  0.51511076  0.49991877  1
  Fe  Fe1  1  0.73122739  0.51539660  0.99987925  1
  O  O2  1  0.22772621  0.51536871  0.49989010  1
  F  F3  1  0.22967850  0.51522592  -0.00001312  1
