# generated using pymatgen
data_LiFePO5
_symmetry_space_group_name_H-M   'P 1'
_cell_length_a   7.14821081
_cell_length_b   6.45769868
_cell_length_c   7.49504584
_cell_angle_alpha   90.00013257
_cell_angle_beta   89.99905780
_cell_angle_gamma   89.99993997
_symmetry_Int_Tables_number   1
_chemical_formula_structural   LiFePO5
_chemical_formula_sum   'Li4 Fe4 P4 O20'
_cell_volume   345.97874738
_cell_formula_units_Z   4
loop_
 _symmetry_equiv_pos_site_id
 _symmetry_equiv_pos_as_xyz
  1  'x, y, z'
loop_
 _atom_site_type_symbol
 _atom_site_label
 _atom_site_symmetry_multiplicity
 _atom_site_fract_x
 _atom_site_fract_y
 _atom_site_fract_z
 _atom_site_occupancy
  Li  Li0  1  0.99997701  0.00002246  0.99997389  1
  Li  Li1  1  0.99997690  0.49997709  0.99997412  1
  Li  Li2  1  0.50004646  0.00002778  0.50004248  1
  Li  Li3  1  0.50004615  0.49997171  0.50004219  1
  Fe  Fe4  1  0.14328776  0.25000084  0.72834302  1
  Fe  Fe5  1  0.35673597  0.75000048  0.22837514  1
  Fe  Fe6  1  0.64328382  0.25000002  0.77167375  1
  Fe  Fe7  1  0.85675902  0.74999846  0.27164139  1
  P  P8  1  0.12507123  0.75000051  0.62693484  1
  P  P9  1  0.37493051  0.25000121  0.12696735  1
  P  P10  1  0.62504492  0.74999882  0.87303818  1
  P  P11  1  0.87492210  0.24999726  0.37303313  1
  O  O12  1  0.05619541  0.25000143  0.48286000  1
  O  O13  1  0.10466905  0.75000020  0.16633321  1
  O  O14  1  0.13008885  0.56045388  0.75387450  1
  O  O15  1  0.13008852  0.93954716  0.75387462  1
  O  O16  1  0.19936363  0.24999934  0.00383158  1
  O  O17  1  0.30061740  0.75000120  0.50382088  1
  O  O18  1  0.36990382  0.06046818  0.25389293  1
  O  O19  1  0.36990258  0.43953086  0.25389201  1
  O  O20  1  0.39534637  0.25000019  0.66635365  1
  O  O21  1  0.44377739  0.74999844  0.98287111  1
  O  O22  1  0.55618442  0.25000181  0.01717118  1
  O  O23  1  0.60466388  0.75000003  0.33364417  1
  O  O24  1  0.63004181  0.56046230  0.74612833  1
  O  O25  1  0.63003978  0.93953938  0.74612775  1
  O  O26  1  0.69937515  0.24999946  0.49613779  1
  O  O27  1  0.80063012  0.74999832  0.99616028  1
  O  O28  1  0.86994235  0.06046988  0.24610397  1
  O  O29  1  0.86994205  0.43953277  0.24610003  1
  O  O30  1  0.89535188  0.24999937  0.83362416  1
  O  O31  1  0.94379370  0.74999915  0.51715840  1
