# generated using pymatgen
data_KZnP2O7
_symmetry_space_group_name_H-M   'P 1'
_cell_length_a   12.84886608
_cell_length_b   5.13334847
_cell_length_c   10.37671081
_cell_angle_alpha   90.00000000
_cell_angle_beta   90.00000000
_cell_angle_gamma   90.00000000
_symmetry_Int_Tables_number   1
_chemical_formula_structural   KZnP2O7
_chemical_formula_sum   'K4 Zn4 P8 O28'
_cell_volume   684.42405157
_cell_formula_units_Z   4
loop_
 _symmetry_equiv_pos_site_id
 _symmetry_equiv_pos_as_xyz
  1  'x, y, z'
loop_
 _atom_site_type_symbol
 _atom_site_label
 _atom_site_symmetry_multiplicity
 _atom_site_fract_x
 _atom_site_fract_y
 _atom_site_fract_z
 _atom_site_occupancy
  K  K0  1  0.00000000  0.99386812  0.26688760  1
  K  K1  1  0.00000000  0.00613188  0.76688760  1
  K  K2  1  0.50000000  0.50110965  0.48699733  1
  K  K3  1  0.50000000  0.49889035  0.98699733  1
  Zn  Zn4  1  0.25180435  0.52481210  0.27266473  1
  Zn  Zn5  1  0.25180435  0.47518790  0.77266473  1
  Zn  Zn6  1  0.74819565  0.47518790  0.77266473  1
  Zn  Zn7  1  0.74819565  0.52481210  0.27266473  1
  P  P8  1  0.11449681  0.47166153  0.02438916  1
  P  P9  1  0.11449681  0.52833847  0.52438916  1
  P  P10  1  0.38665790  0.01586538  0.22270462  1
  P  P11  1  0.38665790  0.98413462  0.72270462  1
  P  P12  1  0.61334210  0.01586538  0.22270462  1
  P  P13  1  0.61334210  0.98413462  0.72270462  1
  P  P14  1  0.88550319  0.47166153  0.02438916  1
  P  P15  1  0.88550319  0.52833847  0.52438916  1
  O  O16  1  0.00000000  0.41953082  0.47958373  1
  O  O17  1  0.00000000  0.58046918  0.97958373  1
  O  O18  1  0.12735729  0.56710522  0.16439215  1
  O  O19  1  0.12735729  0.43289478  0.66439215  1
  O  O20  1  0.11592497  0.17600541  0.01304314  1
  O  O21  1  0.11592497  0.82399459  0.51304314  1
  O  O22  1  0.19129041  0.39622659  0.43302675  1
  O  O23  1  0.19129041  0.60377341  0.93302675  1
  O  O24  1  0.30866183  0.12854415  0.80806932  1
  O  O25  1  0.30866183  0.87145585  0.30806932  1
  O  O26  1  0.38794055  0.08714147  0.58555932  1
  O  O27  1  0.38794055  0.91285853  0.08555932  1
  O  O28  1  0.37422815  0.31479831  0.23025676  1
  O  O29  1  0.37422815  0.68520169  0.73025676  1
  O  O30  1  0.50000000  0.95765275  0.28974848  1
  O  O31  1  0.50000000  0.04234725  0.78974948  1
  O  O32  1  0.62577185  0.31479831  0.23025676  1
  O  O33  1  0.62577185  0.68520169  0.73025676  1
  O  O34  1  0.61205945  0.08714147  0.58555932  1
  O  O35  1  0.61205945  0.91285853  0.08555932  1
  O  O36  1  0.69133817  0.12854415  0.80806932  1
  O  O37  1  0.69133817  0.87145585  0.30806932  1
  O  O38  1  0.80870959  0.39622659  0.43302675  1
  O  O39  1  0.80870959  0.60377341  0.93302675  1
  O  O40  1  0.88407503  0.17600541  0.01304314  1
  O  O41  1  0.88407503  0.82399459  0.51304314  1
  O  O42  1  0.87264271  0.43289478  0.66439215  1
  O  O43  1  0.87264271  0.56710522  0.16439215  1
