# generated using pymatgen
data_Li8Fe3Sn(PO4)6
_symmetry_space_group_name_H-M   'P 1'
_cell_length_a   9.08991380
_cell_length_b   9.05341669
_cell_length_c   8.83706460
_cell_angle_alpha   89.89211041
_cell_angle_beta   120.64097588
_cell_angle_gamma   59.89649286
_symmetry_Int_Tables_number   1
_chemical_formula_structural   Li8Fe3Sn(PO4)6
_chemical_formula_sum   'Li8 Fe3 Sn1 P6 O24'
_cell_volume   507.88393505
_cell_formula_units_Z   1
loop_
 _symmetry_equiv_pos_site_id
 _symmetry_equiv_pos_as_xyz
  1  'x, y, z'
loop_
 _atom_site_type_symbol
 _atom_site_label
 _atom_site_symmetry_multiplicity
 _atom_site_fract_x
 _atom_site_fract_y
 _atom_site_fract_z
 _atom_site_occupancy
  Li  Li0  1  0.03599348  0.20195196  0.68060384  1
  Li  Li1  1  0.93787474  0.03003605  0.90862960  1
  Li  Li2  1  0.44321197  0.35694792  0.68205602  1
  Li  Li3  1  0.88391666  0.75848909  0.68225589  1
  Li  Li4  1  0.02930716  0.27998596  0.17266879  1
  Li  Li5  1  0.95167104  0.52429470  0.42613726  1
  Li  Li6  1  0.45404841  0.69098586  0.17225200  1
  Li  Li7  1  0.86428445  0.85600138  0.17215289  1
  Fe  Fe8  1  0.69130374  0.15413055  0.53598999  1
  Fe  Fe9  1  0.69174030  0.65410372  0.03865383  1
  Fe  Fe10  1  0.29277778  0.35446350  0.94002100  1
  Sn  Sn11  1  0.29042293  0.85500814  0.43575214  1
  P  P12  1  0.20080754  0.74961449  0.75019934  1
  P  P13  1  0.50008171  0.04936701  0.75141130  1
  P  P14  1  0.79861514  0.45083611  0.75049689  1
  P  P15  1  0.20361199  0.54704567  0.25540047  1
  P  P16  1  0.50498816  0.94814949  0.25522692  1
  P  P17  1  0.80217431  0.25002924  0.25345022  1
  O  O18  1  0.01528774  0.90692046  0.74737160  1
  O  O19  1  0.40622210  0.69843704  0.93276610  1
  O  O20  1  0.17287118  0.59343690  0.73223346  1
  O  O21  1  0.63054520  0.89516010  0.93566420  1
  O  O22  1  0.32674565  0.23499241  0.73295684  1
  O  O23  1  0.82851631  0.47397195  0.93448005  1
  O  O24  1  0.18990174  0.80528154  0.57579621  1
  O  O25  1  0.65534045  0.07567170  0.74891572  1
  O  O26  1  0.38258630  0.00368413  0.57866058  1
  O  O27  1  0.82376965  0.26788862  0.74847825  1
  O  O28  1  0.57916273  0.61411640  0.57786170  1
  O  O29  1  0.96229378  0.44135433  0.72992729  1
  O  O30  1  0.01686044  0.58020632  0.25331824  1
  O  O31  1  0.40884680  0.39868199  0.44321812  1
  O  O32  1  0.16839437  0.74086315  0.24150142  1
  O  O33  1  0.63733812  0.96391016  0.44339951  1
  O  O34  1  0.33638106  0.92402889  0.24455953  1
  O  O35  1  0.84169022  0.19370341  0.44219497  1
  O  O36  1  0.19702993  0.50860292  0.08532212  1
  O  O37  1  0.65601029  0.76339546  0.25066830  1
  O  O38  1  0.37631272  0.11325414  0.08582143  1
  O  O39  1  0.83206131  0.40547054  0.25076552  1
  O  O40  1  0.59812851  0.29192588  0.08446149  1
  O  O41  1  0.98495487  0.09155771  0.24241092  1
