# generated using pymatgen
data_Ba2LaCl7
_symmetry_space_group_name_H-M   'P 1'
_cell_length_a   11.56658650
_cell_length_b   11.69939913
_cell_length_c   11.69939920
_cell_angle_alpha   68.69923395
_cell_angle_beta   66.84275224
_cell_angle_gamma   66.84274956
_symmetry_Int_Tables_number   1
_chemical_formula_structural   Ba2LaCl7
_chemical_formula_sum   'Ba8 La4 Cl28'
_cell_volume   1296.95481861
_cell_formula_units_Z   4
loop_
 _symmetry_equiv_pos_site_id
 _symmetry_equiv_pos_as_xyz
  1  'x, y, z'
loop_
 _atom_site_type_symbol
 _atom_site_label
 _atom_site_symmetry_multiplicity
 _atom_site_fract_x
 _atom_site_fract_y
 _atom_site_fract_z
 _atom_site_occupancy
  Ba  Ba0  1  0.46389760  0.93137852  0.33085688  1
  Ba  Ba1  1  0.04425497  0.23947114  0.10199251  1
  Ba  Ba2  1  0.03610240  0.16914312  0.56862148  1
  Ba  Ba3  1  0.54425497  0.60199251  0.73947114  1
  Ba  Ba4  1  0.45574503  0.39800749  0.26052886  1
  Ba  Ba5  1  0.96389760  0.83085688  0.43137852  1
  Ba  Ba6  1  0.95574503  0.76052886  0.89800749  1
  Ba  Ba7  1  0.53610240  0.06862148  0.66914312  1
  La  La8  1  0.32196162  0.83735413  0.01378630  1
  La  La9  1  0.17803838  0.48621370  0.66264587  1
  La  La10  1  0.82196162  0.51378630  0.33735413  1
  La  La11  1  0.67803838  0.16264587  0.98621370  1
  Cl  Cl12  1  0.06028543  0.95396363  0.13245557  1
  Cl  Cl13  1  0.28999289  0.87612973  0.77625806  1
  Cl  Cl14  1  0.21000711  0.72374194  0.62387027  1
  Cl  Cl15  1  0.39012313  0.73465493  0.23775058  1
  Cl  Cl16  1  0.15955174  0.55107410  0.41340059  1
  Cl  Cl17  1  0.08118086  0.35914799  0.28351764  1
  Cl  Cl18  1  0.33216080  0.58877633  0.03206206  1
  Cl  Cl19  1  0.65955174  0.91340059  0.05107410  1
  Cl  Cl20  1  0.64634661  0.85306971  0.52310518  1
  Cl  Cl21  1  0.58118086  0.78351764  0.85914799  1
  Cl  Cl22  1  0.16783920  0.46793794  0.91122367  1
  Cl  Cl23  1  0.85365339  0.97689482  0.64693029  1
  Cl  Cl24  1  0.10987687  0.26224942  0.76534507  1
  Cl  Cl25  1  0.56028543  0.63245557  0.45396363  1
  Cl  Cl26  1  0.43971457  0.36754443  0.54603637  1
  Cl  Cl27  1  0.89012313  0.73775058  0.23465493  1
  Cl  Cl28  1  0.14634661  0.02310518  0.35306971  1
  Cl  Cl29  1  0.83216080  0.53206206  0.08877633  1
  Cl  Cl30  1  0.41881914  0.21648236  0.14085201  1
  Cl  Cl31  1  0.35365339  0.14693029  0.47689482  1
  Cl  Cl32  1  0.34044826  0.08659941  0.94892590  1
  Cl  Cl33  1  0.66783920  0.41122367  0.96793794  1
  Cl  Cl34  1  0.91881914  0.64085201  0.71648236  1
  Cl  Cl35  1  0.84044826  0.44892590  0.58659941  1
  Cl  Cl36  1  0.60987687  0.26534507  0.76224942  1
  Cl  Cl37  1  0.78999289  0.27625806  0.37612973  1
  Cl  Cl38  1  0.71000711  0.12387027  0.22374194  1
  Cl  Cl39  1  0.93971457  0.04603637  0.86754443  1
