# generated using pymatgen
data_Li3Mn2(SiO4)2
_symmetry_space_group_name_H-M   'P 1'
_cell_length_a   10.61038136
_cell_length_b   5.09422723
_cell_length_c   6.68952453
_cell_angle_alpha   90.00000000
_cell_angle_beta   90.82497168
_cell_angle_gamma   90.00000000
_symmetry_Int_Tables_number   1
_chemical_formula_structural   Li3Mn2(SiO4)2
_chemical_formula_sum   'Li6 Mn4 Si4 O16'
_cell_volume   361.54265012
_cell_formula_units_Z   2
loop_
 _symmetry_equiv_pos_site_id
 _symmetry_equiv_pos_as_xyz
  1  'x, y, z'
loop_
 _atom_site_type_symbol
 _atom_site_label
 _atom_site_symmetry_multiplicity
 _atom_site_fract_x
 _atom_site_fract_y
 _atom_site_fract_z
 _atom_site_occupancy
  Li  Li0  1  0.15669196  0.18249886  0.11553401  1
  Li  Li1  1  0.34162182  0.68136889  0.62028990  1
  Li  Li2  1  0.42127389  0.28677274  0.37072012  1
  Li  Li3  1  0.65669196  0.31750114  0.11553401  1
  Li  Li4  1  0.84162182  0.81863111  0.62028990  1
  Li  Li5  1  0.92127389  0.21322726  0.37072012  1
  Mn  Mn6  1  0.15978692  0.17732151  0.62951783  1
  Mn  Mn7  1  0.33856809  0.69412209  0.11116456  1
  Mn  Mn8  1  0.65978692  0.32267849  0.62951783  1
  Mn  Mn9  1  0.83856809  0.80587791  0.11116456  1
  Si  Si10  1  0.09069597  0.68698687  0.36776521  1
  Si  Si11  1  0.41195786  0.17945755  0.86522328  1
  Si  Si12  1  0.59069597  0.81301313  0.36776521  1
  Si  Si13  1  0.91195786  0.32054245  0.86522328  1
  O  O14  1  0.06056273  0.24919593  0.87178805  1
  O  O15  1  0.09142698  0.36225043  0.37036022  1
  O  O16  1  0.16411893  0.79991185  0.16954576  1
  O  O17  1  0.16625121  0.79403713  0.56594778  1
  O  O18  1  0.34486196  0.29204105  0.07291454  1
  O  O19  1  0.34509858  0.29557616  0.65732045  1
  O  O20  1  0.38905299  0.85875035  0.86285956  1
  O  O21  1  0.44280311  0.69983356  0.36535573  1
  O  O22  1  0.56056273  0.25080407  0.87178805  1
  O  O23  1  0.59142698  0.13774957  0.37036022  1
  O  O24  1  0.66411893  0.70008815  0.16954576  1
  O  O25  1  0.66625121  0.70596287  0.56594778  1
  O  O26  1  0.84486196  0.20795895  0.07291454  1
  O  O27  1  0.84509858  0.20442384  0.65732045  1
  O  O28  1  0.88905299  0.64124965  0.86285956  1
  O  O29  1  0.94280311  0.80016644  0.36535573  1
