# generated using pymatgen
data_Li4Fe5P6WO24
_symmetry_space_group_name_H-M   'P 1'
_cell_length_a   8.49226781
_cell_length_b   9.04148785
_cell_length_c   9.04716283
_cell_angle_alpha   59.93504212
_cell_angle_beta   59.22252371
_cell_angle_gamma   59.08132608
_symmetry_Int_Tables_number   1
_chemical_formula_structural   Li4Fe5P6WO24
_chemical_formula_sum   'Li4 Fe5 P6 W1 O24'
_cell_volume   484.57833865
_cell_formula_units_Z   1
loop_
 _symmetry_equiv_pos_site_id
 _symmetry_equiv_pos_as_xyz
  1  'x, y, z'
loop_
 _atom_site_type_symbol
 _atom_site_label
 _atom_site_symmetry_multiplicity
 _atom_site_fract_x
 _atom_site_fract_y
 _atom_site_fract_z
 _atom_site_occupancy
  Li  Li0  1  0.25108090  0.84743223  0.64628113  1
  Li  Li1  1  0.77694906  0.15901732  0.35780098  1
  Li  Li2  1  0.77980529  0.70261817  0.15268195  1
  Li  Li3  1  0.78595340  0.35657650  0.70326796  1
  Fe  Fe4  1  0.02576966  0.99534431  0.99589574  1
  Fe  Fe5  1  0.05513217  0.64556747  0.65030016  1
  Fe  Fe6  1  0.49099734  0.49559212  0.50201714  1
  Fe  Fe7  1  0.44865183  0.84900123  0.85078865  1
  Fe  Fe8  1  0.96044719  0.34676925  0.34515409  1
  P  P9  1  0.24532079  0.25419814  0.55670146  1
  P  P10  1  0.23971726  0.94749316  0.25421096  1
  P  P11  1  0.24013133  0.55975179  0.94657151  1
  P  P12  1  0.74660529  0.45329081  0.04995247  1
  P  P13  1  0.76108304  0.04761815  0.74829520  1
  P  P14  1  0.73020389  0.75388723  0.45534149  1
  W  W15  1  0.55891588  0.14980685  0.14466185  1
  O  O16  1  0.05178934  0.10006579  0.31659054  1
  O  O17  1  0.05131115  0.53062604  0.09798860  1
  O  O18  1  0.05303399  0.32799231  0.52345281  1
  O  O19  1  0.22841549  0.09035954  0.73580388  1
  O  O20  1  0.42470197  0.19226272  0.39430165  1
  O  O21  1  0.28005837  0.39921742  0.56900951  1
  O  O22  1  0.22335282  0.92215501  0.10647459  1
  O  O23  1  0.27850042  0.76859971  0.41361823  1
  O  O24  1  0.56285151  0.59358031  0.01081529  1
  O  O25  1  0.27698631  0.57111707  0.75475820  1
  O  O26  1  0.76741217  0.24853195  0.08768101  1
  O  O27  1  0.58859034  0.99466141  0.81853101  1
  O  O28  1  0.42229167  0.00412435  0.17318612  1
  O  O29  1  0.22620243  0.74830049  0.92244469  1
  O  O30  1  0.72638139  0.43669181  0.24144134  1
  O  O31  1  0.42213429  0.39506392  0.99458241  1
  O  O32  1  0.73273745  0.23909570  0.59342319  1
  O  O33  1  0.77218593  0.08893400  0.89772617  1
  O  O34  1  0.72250496  0.59792212  0.42888770  1
  O  O35  1  0.53378760  0.82214400  0.59458731  1
  O  O36  1  0.75793389  0.90460303  0.25366646  1
  O  O37  1  0.90614971  0.70463704  0.49548830  1
  O  O38  1  0.93456739  0.47644762  0.89885319  1
  O  O39  1  0.95935306  0.90190292  0.69376405  1
