# generated using pymatgen
data_Li4V2Ni3Sb3O16
_symmetry_space_group_name_H-M   'P 1'
_cell_length_a   6.09500301
_cell_length_b   6.10273205
_cell_length_c   9.73503578
_cell_angle_alpha   89.73869051
_cell_angle_beta   91.43115587
_cell_angle_gamma   120.21121487
_symmetry_Int_Tables_number   1
_chemical_formula_structural   Li4V2Ni3Sb3O16
_chemical_formula_sum   'Li4 V2 Ni3 Sb3 O16'
_cell_volume   312.81242373
_cell_formula_units_Z   1
loop_
 _symmetry_equiv_pos_site_id
 _symmetry_equiv_pos_as_xyz
  1  'x, y, z'
loop_
 _atom_site_type_symbol
 _atom_site_label
 _atom_site_symmetry_multiplicity
 _atom_site_fract_x
 _atom_site_fract_y
 _atom_site_fract_z
 _atom_site_occupancy
  Li  Li0  1  0.35303695  0.67664235  0.88728827  1
  Li  Li1  1  0.95166003  0.97585670  0.98512982  1
  Li  Li2  1  0.97941030  0.98896294  0.50437302  1
  Li  Li3  1  0.65080862  0.32573594  0.40448393  1
  V  V4  1  0.34992771  0.67187751  0.49828078  1
  V  V5  1  0.71809479  0.35920364  0.96487245  1
  Ni  Ni6  1  0.65602771  0.82762229  0.21572352  1
  Ni  Ni7  1  0.83571492  0.67097313  0.70663770  1
  Ni  Ni8  1  0.83451602  0.16426193  0.70685923  1
  Sb  Sb9  1  0.16480045  0.82984378  0.21377774  1
  Sb  Sb10  1  0.16570754  0.33551926  0.21394596  1
  Sb  Sb11  1  0.34376227  0.17091490  0.71321955  1
  O  O12  1  0.17755401  0.85008092  0.59954095  1
  O  O13  1  0.02582989  0.51334649  0.33497157  1
  O  O14  1  0.32019127  0.66074191  0.10147573  1
  O  O15  1  0.00069354  0.00007927  0.31537987  1
  O  O16  1  0.01493993  0.00832919  0.80693444  1
  O  O17  1  0.17740266  0.33232953  0.59721872  1
  O  O18  1  0.46509854  0.95797557  0.33769862  1
  O  O19  1  0.46884446  0.50490593  0.33627012  1
  O  O20  1  0.30748215  0.15372554  0.10132726  1
  O  O21  1  0.66636140  0.83515500  0.59422272  1
  O  O22  1  0.52155638  0.47270306  0.85183498  1
  O  O23  1  0.52232628  0.04883144  0.85266097  1
  O  O24  1  0.66212724  0.33158374  0.60828293  1
  O  O25  1  0.84540169  0.67243065  0.09812280  1
  O  O26  1  0.97505381  0.48782541  0.85899136  1
  O  O27  1  0.84566845  0.17284100  0.09831801  1
