# generated using pymatgen
data_Hf2N2O
_symmetry_space_group_name_H-M   'P 1'
_cell_length_a   6.42994180
_cell_length_b   6.42987356
_cell_length_c   15.73057215
_cell_angle_alpha   90.00016726
_cell_angle_beta   89.99919894
_cell_angle_gamma   120.00049258
_symmetry_Int_Tables_number   1
_chemical_formula_structural   Hf2N2O
_chemical_formula_sum   'Hf16 N16 O8'
_cell_volume   563.22570873
_cell_formula_units_Z   8
loop_
 _symmetry_equiv_pos_site_id
 _symmetry_equiv_pos_as_xyz
  1  'x, y, z'
loop_
 _atom_site_type_symbol
 _atom_site_label
 _atom_site_symmetry_multiplicity
 _atom_site_fract_x
 _atom_site_fract_y
 _atom_site_fract_z
 _atom_site_occupancy
  Hf  Hf0  1  0.16664604  0.83334869  0.95539477  1
  Hf  Hf1  1  0.16668473  0.83331096  0.33175593  1
  Hf  Hf2  1  0.00000000  0.50000000  0.50000000  1
  Hf  Hf3  1  0.33278555  0.66721655  0.16551406  1
  Hf  Hf4  1  0.16552477  0.33278123  0.83448920  1
  Hf  Hf5  1  0.66721457  0.83447243  0.83448901  1
  Hf  Hf6  1  0.49998947  0.50001601  0.62759549  1
  Hf  Hf7  1  0.00000000  0.00000000  0.50000000  1
  Hf  Hf8  1  0.50001053  0.49998399  0.37240451  1
  Hf  Hf9  1  0.50000000  0.50000000  0.00000000  1
  Hf  Hf10  1  0.83447523  0.66721877  0.16551080  1
  Hf  Hf11  1  0.33278543  0.16552757  0.16551099  1
  Hf  Hf12  1  0.66721445  0.33278345  0.83448594  1
  Hf  Hf13  1  0.50000000  0.00000000  0.50000000  1
  Hf  Hf14  1  0.83331527  0.16668904  0.66824407  1
  Hf  Hf15  1  0.83335396  0.16665131  0.04460523  1
  N  N16  1  0.16668209  0.83331971  0.08709454  1
  N  N17  1  0.32279038  0.67721129  0.41708176  1
  N  N18  1  0.34418576  0.65581538  0.91308610  1
  N  N19  1  0.14553187  0.32277040  0.58292572  1
  N  N20  1  0.67722852  0.85446619  0.58292542  1
  N  N21  1  0.65582433  0.81158117  0.08691788  1
  N  N22  1  0.18841616  0.34417279  0.08691789  1
  N  N23  1  0.49998770  0.50001257  0.75952336  1
  N  N24  1  0.50001230  0.49998743  0.24047664  1
  N  N25  1  0.34417567  0.18841883  0.91308212  1
  N  N26  1  0.81158384  0.65582721  0.91308211  1
  N  N27  1  0.32277148  0.14553381  0.41707458  1
  N  N28  1  0.85446813  0.67722960  0.41707428  1
  N  N29  1  0.65581424  0.34418462  0.08691390  1
  N  N30  1  0.67720962  0.32278871  0.58291824  1
  N  N31  1  0.83331791  0.16668029  0.91290546  1
  O  O32  1  0.02655192  0.97343051  0.24153740  1
  O  O33  1  0.16666746  0.83332856  0.56049764  1
  O  O34  1  0.02654825  0.55306476  0.24153261  1
  O  O35  1  0.44692775  0.97343236  0.24153333  1
  O  O36  1  0.55307225  0.02656764  0.75846667  1
  O  O37  1  0.97345175  0.44693524  0.75846739  1
  O  O38  1  0.83333254  0.16667144  0.43950236  1
  O  O39  1  0.97344808  0.02656949  0.75846260  1
