# generated using pymatgen
data_Ni3Sb(PO4)4
_symmetry_space_group_name_H-M   'P 1'
_cell_length_a   4.85610050
_cell_length_b   9.96260723
_cell_length_c   5.87642391
_cell_angle_alpha   90.00000000
_cell_angle_beta   90.00000000
_cell_angle_gamma   90.14012549
_symmetry_Int_Tables_number   1
_chemical_formula_structural   Ni3Sb(PO4)4
_chemical_formula_sum   'Ni3 Sb1 P4 O16'
_cell_volume   284.29714154
_cell_formula_units_Z   1
loop_
 _symmetry_equiv_pos_site_id
 _symmetry_equiv_pos_as_xyz
  1  'x, y, z'
loop_
 _atom_site_type_symbol
 _atom_site_label
 _atom_site_symmetry_multiplicity
 _atom_site_fract_x
 _atom_site_fract_y
 _atom_site_fract_z
 _atom_site_occupancy
  Ni  Ni0  1  0.03521393  0.72963615  0.75000000  1
  Ni  Ni1  1  0.45494168  0.22435850  0.75000000  1
  Ni  Ni2  1  0.54533119  0.76519332  0.25000000  1
  Sb  Sb3  1  0.96674381  0.28027011  0.25000000  1
  P  P4  1  0.08998774  0.60098173  0.25000000  1
  P  P5  1  0.39950778  0.09009615  0.25000000  1
  P  P6  1  0.59585065  0.90139028  0.75000000  1
  P  P7  1  0.92137416  0.41321879  0.75000000  1
  O  O8  1  0.18704340  0.44388372  0.25000000  1
  O  O9  1  0.23408365  0.66694565  0.04307590  1
  O  O10  1  0.23408365  0.66694565  0.45692410  1
  O  O11  1  0.22520569  0.38688423  0.75000000  1
  O  O12  1  0.27987385  0.89015619  0.75000000  1
  O  O13  1  0.24812022  0.17229884  0.05095714  1
  O  O14  1  0.24812022  0.17229884  0.44904286  1
  O  O15  1  0.34035377  0.94468769  0.25000000  1
  O  O16  1  0.65786793  0.05292576  0.75000000  1
  O  O17  1  0.73677776  0.83084919  0.54416734  1
  O  O18  1  0.73677776  0.83084919  0.95583266  1
  O  O19  1  0.71538723  0.12062996  0.25000000  1
  O  O20  1  0.77978179  0.59989144  0.25000000  1
  O  O21  1  0.77084969  0.33011964  0.54350711  1
  O  O22  1  0.77084969  0.33011964  0.95649289  1
  O  O23  1  0.82587174  0.55536735  0.75000000  1
