# generated using pymatgen
data_Na3VO3
_symmetry_space_group_name_H-M   'P 1'
_cell_length_a   6.21801814
_cell_length_b   6.21757937
_cell_length_c   10.71551806
_cell_angle_alpha   90.00000000
_cell_angle_beta   90.00000000
_cell_angle_gamma   88.74544805
_symmetry_Int_Tables_number   1
_chemical_formula_structural   Na3VO3
_chemical_formula_sum   'Na12 V4 O12'
_cell_volume   414.17356714
_cell_formula_units_Z   4
loop_
 _symmetry_equiv_pos_site_id
 _symmetry_equiv_pos_as_xyz
  1  'x, y, z'
loop_
 _atom_site_type_symbol
 _atom_site_label
 _atom_site_symmetry_multiplicity
 _atom_site_fract_x
 _atom_site_fract_y
 _atom_site_fract_z
 _atom_site_occupancy
  Na  Na0  1  0.03522838  0.91007901  0.77730163  1
  Na  Na1  1  0.34969972  0.86131966  0.00724522  1
  Na  Na2  1  0.52491960  0.98752154  0.28395864  1
  Na  Na3  1  0.03522838  0.41007901  0.72269837  1
  Na  Na4  1  0.47508040  0.51247846  0.78395864  1
  Na  Na5  1  0.34969972  0.36131966  0.49275478  1
  Na  Na6  1  0.65030028  0.63868034  0.50724522  1
  Na  Na7  1  0.52491960  0.48752154  0.21604136  1
  Na  Na8  1  0.96477162  0.58992099  0.27730163  1
  Na  Na9  1  0.47508040  0.01247846  0.71604136  1
  Na  Na10  1  0.65030028  0.13868034  0.99275478  1
  Na  Na11  1  0.96477162  0.08992099  0.22269837  1
  V  V12  1  0.17147175  0.82717011  0.49449396  1
  V  V13  1  0.17147175  0.32717011  0.00550604  1
  V  V14  1  0.82852825  0.67282989  0.99449396  1
  V  V15  1  0.82852825  0.17282989  0.50550604  1
  O  O16  1  0.12435848  0.61897296  0.93084824  1
  O  O17  1  0.31753048  0.69755711  0.35960574  1
  O  O18  1  0.27286001  0.67194556  0.63185411  1
  O  O19  1  0.72713999  0.82805444  0.13185411  1
  O  O20  1  0.68246952  0.80244289  0.85960574  1
  O  O21  1  0.87564152  0.88102704  0.43084824  1
  O  O22  1  0.12435848  0.11897196  0.56915176  1
  O  O23  1  0.31753048  0.19755711  0.14039426  1
  O  O24  1  0.27286001  0.17194556  0.86814589  1
  O  O25  1  0.72713999  0.32805444  0.36814589  1
  O  O26  1  0.68246952  0.30244289  0.64039426  1
  O  O27  1  0.87564152  0.38102704  0.06915176  1
