# generated using pymatgen
data_Li4V3Sn3(TeO8)2
_symmetry_space_group_name_H-M   'P 1'
_cell_length_a   6.28544839
_cell_length_b   6.23973599
_cell_length_c   10.14692799
_cell_angle_alpha   89.99810737
_cell_angle_beta   89.89233223
_cell_angle_gamma   119.77067478
_symmetry_Int_Tables_number   1
_chemical_formula_structural   Li4V3Sn3(TeO8)2
_chemical_formula_sum   'Li4 V3 Sn3 Te2 O16'
_cell_volume   345.43441552
_cell_formula_units_Z   1
loop_
 _symmetry_equiv_pos_site_id
 _symmetry_equiv_pos_as_xyz
  1  'x, y, z'
loop_
 _atom_site_type_symbol
 _atom_site_label
 _atom_site_symmetry_multiplicity
 _atom_site_fract_x
 _atom_site_fract_y
 _atom_site_fract_z
 _atom_site_occupancy
  Li  Li0  1  0.33707366  0.66862414  0.90097131  1
  Li  Li1  1  0.98708602  0.99353526  0.98722303  1
  Li  Li2  1  0.99043988  0.99514426  0.49906899  1
  Li  Li3  1  0.66599189  0.33301571  0.39775290  1
  V  V4  1  0.66483862  0.83254828  0.21293237  1
  V  V5  1  0.83482857  0.65179123  0.71350454  1
  V  V6  1  0.83480956  0.18294669  0.71342730  1
  Sn  Sn7  1  0.16626528  0.83123851  0.21464118  1
  Sn  Sn8  1  0.16635711  0.33509422  0.21458250  1
  Sn  Sn9  1  0.33356823  0.16669197  0.71478116  1
  Te  Te10  1  0.35619729  0.67782056  0.49920511  1
  Te  Te11  1  0.67604176  0.33804922  0.98048479  1
  O  O12  1  0.16698841  0.84129450  0.59904815  1
  O  O13  1  0.02280032  0.51131409  0.33214097  1
  O  O14  1  0.33019287  0.66515487  0.10429712  1
  O  O15  1  0.00003432  0.00003968  0.31829156  1
  O  O16  1  0.99652285  0.99800770  0.80494221  1
  O  O17  1  0.16729237  0.32579992  0.59890553  1
  O  O18  1  0.48996376  0.96911728  0.33010536  1
  O  O19  1  0.48981730  0.52094104  0.33032109  1
  O  O20  1  0.29823547  0.14918786  0.09736623  1
  O  O21  1  0.67856960  0.83894729  0.59944732  1
  O  O22  1  0.52024375  0.47905057  0.84390805  1
  O  O23  1  0.52015879  0.04123916  0.84394741  1
  O  O24  1  0.65437873  0.32761673  0.60516487  1
  O  O25  1  0.84348411  0.69801565  0.10187714  1
  O  O26  1  0.96421240  0.48251271  0.84775030  1
  O  O27  1  0.84360508  0.14556191  0.10175050  1
