# generated using pymatgen
data_Li2TiV5O12
_symmetry_space_group_name_H-M   'P 1'
_cell_length_a   6.91649504
_cell_length_b   6.91649434
_cell_length_c   5.66274130
_cell_angle_alpha   71.39198481
_cell_angle_beta   108.60800845
_cell_angle_gamma   105.86460993
_symmetry_Int_Tables_number   1
_chemical_formula_structural   Li2TiV5O12
_chemical_formula_sum   'Li2 Ti1 V5 O12'
_cell_volume   238.83237494
_cell_formula_units_Z   1
loop_
 _symmetry_equiv_pos_site_id
 _symmetry_equiv_pos_as_xyz
  1  'x, y, z'
loop_
 _atom_site_type_symbol
 _atom_site_label
 _atom_site_symmetry_multiplicity
 _atom_site_fract_x
 _atom_site_fract_y
 _atom_site_fract_z
 _atom_site_occupancy
  Li  Li0  1  0.30474673  0.30474673  0.25000000  1
  Li  Li1  1  0.69598026  0.69598026  0.75000000  1
  Ti  Ti2  1  0.91931264  0.91931264  0.25000000  1
  V  V3  1  0.07847298  0.07847298  0.75000000  1
  V  V4  1  0.17610504  0.63273336  0.68682200  1
  V  V5  1  0.36632559  0.83489776  0.17811100  1
  V  V6  1  0.63273336  0.17610504  0.81317800  1
  V  V7  1  0.83489776  0.36632559  0.32188900  1
  O  O8  1  0.98720317  0.80782661  0.64809264  1
  O  O9  1  0.03819355  0.35739130  0.70137515  1
  O  O10  1  0.18507844  0.02684287  0.12860576  1
  O  O11  1  0.38951767  0.69279990  0.54957281  1
  O  O12  1  0.35739130  0.03819355  0.79862485  1
  O  O13  1  0.29447353  0.60143455  0.03694057  1
  O  O14  1  0.69279990  0.38951767  0.95042719  1
  O  O15  1  0.65660071  0.95406432  0.22018484  1
  O  O16  1  0.60143455  0.29447353  0.46305943  1
  O  O17  1  0.80782661  0.98720317  0.85190736  1
  O  O18  1  0.95406432  0.65660071  0.27981516  1
  O  O19  1  0.02684287  0.18507844  0.37139424  1
