# generated using pymatgen
data_Li4Nb2V3Cu3O16
_symmetry_space_group_name_H-M   'P 1'
_cell_length_a   6.06580629
_cell_length_b   5.87845479
_cell_length_c   9.84113647
_cell_angle_alpha   89.96598063
_cell_angle_beta   88.56158513
_cell_angle_gamma   119.00641818
_symmetry_Int_Tables_number   1
_chemical_formula_structural   Li4Nb2V3Cu3O16
_chemical_formula_sum   'Li4 Nb2 V3 Cu3 O16'
_cell_volume   306.76519606
_cell_formula_units_Z   1
loop_
 _symmetry_equiv_pos_site_id
 _symmetry_equiv_pos_as_xyz
  1  'x, y, z'
loop_
 _atom_site_type_symbol
 _atom_site_label
 _atom_site_symmetry_multiplicity
 _atom_site_fract_x
 _atom_site_fract_y
 _atom_site_fract_z
 _atom_site_occupancy
  Li  Li0  1  0.32989914  0.66458839  0.90762415  1
  Li  Li1  1  0.98146193  0.99065001  0.99572640  1
  Li  Li2  1  0.00401635  0.00185949  0.48301171  1
  Li  Li3  1  0.70938776  0.35529759  0.40339782  1
  Nb  Nb4  1  0.31523069  0.65795303  0.49999246  1
  Nb  Nb5  1  0.65123915  0.32532177  0.99817218  1
  V  V6  1  0.64644511  0.82320728  0.23858427  1
  V  V7  1  0.80714158  0.64907080  0.71863755  1
  V  V8  1  0.80721280  0.15827208  0.71845681  1
  Cu  Cu9  1  0.16573328  0.82574944  0.20421015  1
  Cu  Cu10  1  0.16555743  0.34010728  0.20433160  1
  Cu  Cu11  1  0.32638040  0.16343430  0.72259852  1
  O  O12  1  0.16408977  0.83400202  0.59252238  1
  O  O13  1  0.07631654  0.53891813  0.35006497  1
  O  O14  1  0.36720870  0.68356380  0.11923287  1
  O  O15  1  0.98461195  0.99227744  0.28781905  1
  O  O16  1  0.96328687  0.98181908  0.80646388  1
  O  O17  1  0.16371619  0.33019223  0.59254222  1
  O  O18  1  0.53873221  0.98691855  0.35195976  1
  O  O19  1  0.53762294  0.55143361  0.35204877  1
  O  O20  1  0.31540171  0.15700260  0.07573395  1
  O  O21  1  0.66985542  0.83470926  0.59757434  1
  O  O22  1  0.52496715  0.49533000  0.83536618  1
  O  O23  1  0.52448884  0.02912222  0.83525685  1
  O  O24  1  0.72446861  0.36217229  0.60110537  1
  O  O25  1  0.79217352  0.64949269  0.08913723  1
  O  O26  1  0.95024404  0.47497362  0.83723855  1
  O  O27  1  0.79310993  0.14285899  0.08902901  1
