# generated using pymatgen
data_LiCr4(PO4)3
_symmetry_space_group_name_H-M   'P 1'
_cell_length_a   6.86538628
_cell_length_b   10.72749344
_cell_length_c   6.86538628
_cell_angle_alpha   71.33766851
_cell_angle_beta   90.00000000
_cell_angle_gamma   108.66233149
_symmetry_Int_Tables_number   1
_chemical_formula_structural   LiCr4(PO4)3
_chemical_formula_sum   'Li2 Cr8 P6 O24'
_cell_volume   450.88919517
_cell_formula_units_Z   2
loop_
 _symmetry_equiv_pos_site_id
 _symmetry_equiv_pos_as_xyz
  1  'x, y, z'
loop_
 _atom_site_type_symbol
 _atom_site_label
 _atom_site_symmetry_multiplicity
 _atom_site_fract_x
 _atom_site_fract_y
 _atom_site_fract_z
 _atom_site_occupancy
  Li  Li0  1  0.25000000  0.50000000  0.25000000  1
  Li  Li1  1  0.50000000  0.00000000  0.50000000  1
  Cr  Cr2  1  0.37500000  0.25000000  0.12241708  1
  Cr  Cr3  1  0.77529777  0.55059653  0.22470223  1
  Cr  Cr4  1  0.62758292  0.75000000  0.37500000  1
  Cr  Cr5  1  0.87500000  0.25000000  0.62758292  1
  Cr  Cr6  1  0.22470223  0.44940347  0.77529777  1
  Cr  Cr7  1  0.52529777  0.05059653  0.97470223  1
  Cr  Cr8  1  0.97470223  0.94940347  0.52529777  1
  Cr  Cr9  1  0.12241708  0.75000000  0.87500000  1
  P  P10  1  0.00000000  0.00000000  0.00000000  1
  P  P11  1  0.87500000  0.25000000  0.23086657  1
  P  P12  1  0.37500000  0.25000000  0.51913343  1
  P  P13  1  0.23086657  0.75000000  0.37500000  1
  P  P14  1  0.75000000  0.50000000  0.75000000  1
  P  P15  1  0.51913343  0.75000000  0.87500000  1
  O  O16  1  0.23126443  0.08366488  0.00923443  1
  O  O17  1  0.67485184  0.20993187  0.13194807  1
  O  O18  1  0.07514816  0.29006813  0.09187994  1
  O  O19  1  0.61805193  0.70993187  0.07514816  1
  O  O20  1  0.27874769  0.12288161  0.43697362  1
  O  O21  1  0.47125231  0.37711839  0.30985523  1
  O  O22  1  0.90586508  0.37711839  0.31302638  1
  O  O23  1  0.84413492  0.12288161  0.44014477  1
  O  O24  1  0.09187994  0.70993187  0.21491997  1
  O  O25  1  0.90710169  0.91633512  0.23126443  1
  O  O26  1  0.44014477  0.87711839  0.27874769  1
  O  O27  1  0.21491997  0.29006813  0.61805193  1
  O  O28  1  0.53508003  0.20993187  0.65812006  1
  O  O29  1  0.31302638  0.62288161  0.47125231  1
  O  O30  1  0.74076557  0.58366488  0.51873557  1
  O  O31  1  0.89760056  0.41633512  0.74076557  1
  O  O32  1  0.85239944  0.08366488  0.90710169  1
  O  O33  1  0.13194807  0.79006813  0.53508003  1
  O  O34  1  0.65812006  0.79006813  0.67485184  1
  O  O35  1  0.51873557  0.41633512  0.84289831  1
  O  O36  1  0.84289831  0.58366488  0.89760056  1
  O  O37  1  0.30985523  0.62288161  0.90586508  1
  O  O38  1  0.43697362  0.87711839  0.84413492  1
  O  O39  1  0.00923443  0.91633512  0.85239944  1
