# generated using pymatgen
data_Li2Mn2SbO6
_symmetry_space_group_name_H-M   'P 1'
_cell_length_a   5.36401882
_cell_length_b   5.36401913
_cell_length_c   10.29111780
_cell_angle_alpha   90.00000000
_cell_angle_beta   90.00000000
_cell_angle_gamma   117.33436094
_symmetry_Int_Tables_number   1
_chemical_formula_structural   Li2Mn2SbO6
_chemical_formula_sum   'Li4 Mn4 Sb2 O12'
_cell_volume   263.04094977
_cell_formula_units_Z   2
loop_
 _symmetry_equiv_pos_site_id
 _symmetry_equiv_pos_as_xyz
  1  'x, y, z'
loop_
 _atom_site_type_symbol
 _atom_site_label
 _atom_site_symmetry_multiplicity
 _atom_site_fract_x
 _atom_site_fract_y
 _atom_site_fract_z
 _atom_site_occupancy
  Li  Li0  1  0.10720363  0.60720363  0.75000000  1
  Li  Li1  1  0.39279637  0.89279637  0.25000000  1
  Li  Li2  1  0.60720363  0.10720363  0.75000000  1
  Li  Li3  1  0.89279637  0.39279637  0.25000000  1
  Mn  Mn4  1  0.16573735  0.83426265  0.50000000  1
  Mn  Mn5  1  0.33426265  0.66573735  0.00000000  1
  Mn  Mn6  1  0.66573735  0.33426265  0.00000000  1
  Mn  Mn7  1  0.83426265  0.16573735  0.50000000  1
  Sb  Sb8  1  0.00000000  0.00000000  0.00000000  1
  Sb  Sb9  1  0.50000000  0.50000000  0.50000000  1
  O  O10  1  0.04457052  0.70869315  0.11381505  1
  O  O11  1  0.95542948  0.29130685  0.88618495  1
  O  O12  1  0.20869315  0.54457052  0.38618495  1
  O  O13  1  0.45542948  0.79130685  0.61381505  1
  O  O14  1  0.18177388  0.18177388  0.58871672  1
  O  O15  1  0.31822612  0.31822612  0.08871672  1
  O  O16  1  0.68177388  0.68177388  0.91128328  1
  O  O17  1  0.29130685  0.95542948  0.88618495  1
  O  O18  1  0.81822612  0.81822612  0.41128328  1
  O  O19  1  0.54457052  0.20869315  0.38618495  1
  O  O20  1  0.79130685  0.45542948  0.61381505  1
  O  O21  1  0.70869315  0.04457052  0.11381505  1
