# generated using pymatgen
data_ZrO2
_symmetry_space_group_name_H-M   'P 1'
_cell_length_a   5.89370928
_cell_length_b   9.21843994
_cell_length_c   6.23271894
_cell_angle_alpha   46.64919809
_cell_angle_beta   57.14208155
_cell_angle_gamma   34.47651653
_symmetry_Int_Tables_number   1
_chemical_formula_structural   ZrO2
_chemical_formula_sum   'Zr3 O6'
_cell_volume   139.16379814
_cell_formula_units_Z   3
loop_
 _symmetry_equiv_pos_site_id
 _symmetry_equiv_pos_as_xyz
  1  'x, y, z'
loop_
 _atom_site_type_symbol
 _atom_site_label
 _atom_site_symmetry_multiplicity
 _atom_site_fract_x
 _atom_site_fract_y
 _atom_site_fract_z
 _atom_site_occupancy
  Zr  Zr0  1  0.88209727  0.13706967  0.17119644  1
  Zr  Zr1  1  0.15158901  0.86872758  0.80558403  1
  Zr  Zr2  1  0.01682207  0.50295009  0.48848287  1
  O  O3  1  0.24785443  0.50322654  0.08449802  1
  O  O4  1  0.06247790  0.16681217  0.73926713  1
  O  O5  1  0.64532754  0.15727097  0.57911074  1
  O  O6  1  0.96489075  0.84241381  0.23606561  1
  O  O7  1  0.38851842  0.84654160  0.39905190  1
  O  O8  1  0.78706660  0.50249057  0.89264727  1
