# generated using pymatgen
data_AlVO3
_symmetry_space_group_name_H-M   'P 1'
_cell_length_a   5.06389034
_cell_length_b   5.23768514
_cell_length_c   6.97586060
_cell_angle_alpha   89.99984909
_cell_angle_beta   89.99994066
_cell_angle_gamma   89.99955549
_symmetry_Int_Tables_number   1
_chemical_formula_structural   AlVO3
_chemical_formula_sum   'Al4 V4 O12'
_cell_volume   185.02119146
_cell_formula_units_Z   4
loop_
 _symmetry_equiv_pos_site_id
 _symmetry_equiv_pos_as_xyz
  1  'x, y, z'
loop_
 _atom_site_type_symbol
 _atom_site_label
 _atom_site_symmetry_multiplicity
 _atom_site_fract_x
 _atom_site_fract_y
 _atom_site_fract_z
 _atom_site_occupancy
  Al  Al0  1  0.99999798  0.50000065  0.99999880  1
  Al  Al1  1  0.99999740  0.50000153  0.50000174  1
  Al  Al2  1  0.50000198  0.99999777  0.00000005  1
  Al  Al3  1  0.50000116  0.99999679  0.50000001  1
  V  V4  1  0.99265469  0.94168609  0.74999929  1
  V  V5  1  0.50736080  0.44170328  0.74998323  1
  V  V6  1  0.49263839  0.55829748  0.25000885  1
  V  V7  1  0.00735155  0.05831342  0.25000875  1
  O  O8  1  0.11170741  0.43658096  0.24999965  1
  O  O9  1  0.16840346  0.17476810  0.55396406  1
  O  O10  1  0.16840647  0.17476998  0.94603361  1
  O  O11  1  0.33159392  0.67476966  0.94603567  1
  O  O12  1  0.33159242  0.67476898  0.55396855  1
  O  O13  1  0.38828265  0.93658139  0.24999937  1
  O  O14  1  0.61172168  0.06341314  0.75000099  1
  O  O15  1  0.66840248  0.32523250  0.44603247  1
  O  O16  1  0.66840358  0.32523206  0.05396300  1
  O  O17  1  0.83159920  0.82523379  0.05396594  1
  O  O18  1  0.83159866  0.82523277  0.44603562  1
  O  O19  1  0.88828412  0.56341965  0.75000034  1
