# generated using pymatgen
data_Hf2N2O
_symmetry_space_group_name_H-M   'P 1'
_cell_length_a   6.42228471
_cell_length_b   14.39928109
_cell_length_c   6.42228471
_cell_angle_alpha   77.11428214
_cell_angle_beta   90.00000000
_cell_angle_gamma   102.88571786
_symmetry_Int_Tables_number   1
_chemical_formula_structural   Hf2N2O
_chemical_formula_sum   'Hf16 N16 O8'
_cell_volume   563.59920477
_cell_formula_units_Z   8
loop_
 _symmetry_equiv_pos_site_id
 _symmetry_equiv_pos_as_xyz
  1  'x, y, z'
loop_
 _atom_site_type_symbol
 _atom_site_label
 _atom_site_symmetry_multiplicity
 _atom_site_fract_x
 _atom_site_fract_y
 _atom_site_fract_z
 _atom_site_occupancy
  Hf  Hf0  1  0.00000000  0.00000000  0.00000000  1
  Hf  Hf1  1  0.50000000  0.00000000  0.00000000  1
  Hf  Hf2  1  0.00000000  0.50000000  0.00000000  1
  Hf  Hf3  1  0.33256058  0.16512117  0.16840784  1
  Hf  Hf4  1  0.66646999  0.33487883  0.33256058  1
  Hf  Hf5  1  0.54332283  0.58664465  0.20667717  1
  Hf  Hf6  1  0.16840784  0.33487883  0.33256058  1
  Hf  Hf7  1  0.79332283  0.08664465  0.45667717  1
  Hf  Hf8  1  0.33256058  0.16512117  0.66646999  1
  Hf  Hf9  1  0.00000000  0.50000000  0.50000000  1
  Hf  Hf10  1  0.66743942  0.83487883  0.33353001  1
  Hf  Hf11  1  0.20667717  0.91335535  0.54332283  1
  Hf  Hf12  1  0.45667717  0.41335535  0.79332283  1
  Hf  Hf13  1  0.33353001  0.66512117  0.66743942  1
  Hf  Hf14  1  0.83159216  0.66512117  0.66743942  1
  Hf  Hf15  1  0.66743942  0.83487883  0.83159216  1
  N  N16  1  0.25103592  0.00207284  0.23546938  1
  N  N17  1  0.41278091  0.32556181  0.10304079  1
  N  N18  1  0.10304079  0.17443819  0.41278091  1
  N  N19  1  0.57139740  0.17443819  0.41278091  1
  N  N20  1  0.23546938  0.49792716  0.25103592  1
  N  N21  1  0.76245778  0.49792716  0.25103592  1
  N  N22  1  0.41278091  0.32556181  0.57139740  1
  N  N23  1  0.74896408  0.99792716  0.23754222  1
  N  N24  1  0.25103592  0.00207284  0.76245778  1
  N  N25  1  0.58721909  0.67443819  0.42860260  1
  N  N26  1  0.23754222  0.50207284  0.74896408  1
  N  N27  1  0.42860260  0.82556181  0.58721909  1
  N  N28  1  0.89695921  0.82556181  0.58721909  1
  N  N29  1  0.76453062  0.50207284  0.74896408  1
  N  N30  1  0.58721909  0.67443819  0.89695921  1
  N  N31  1  0.74896408  0.99792716  0.76453062  1
  O  O32  1  0.92448032  0.34896063  0.11776719  1
  O  O33  1  0.46672882  0.84896063  0.07551968  1
  O  O34  1  0.88223281  0.84896063  0.07551968  1
  O  O35  1  0.92448032  0.34896063  0.53327118  1
  O  O36  1  0.07551968  0.65103937  0.46672882  1
  O  O37  1  0.11776719  0.15103937  0.92448032  1
  O  O38  1  0.53327118  0.15103937  0.92448032  1
  O  O39  1  0.07551968  0.65103937  0.88223281  1
