# generated using pymatgen
data_Li4Cu2C4SO16
_symmetry_space_group_name_H-M   'P 1'
_cell_length_a   9.50113313
_cell_length_b   9.21782444
_cell_length_c   9.21782372
_cell_angle_alpha   88.66165576
_cell_angle_beta   60.23651818
_cell_angle_gamma   60.23652049
_symmetry_Int_Tables_number   1
_chemical_formula_structural   Li4Cu2C4SO16
_chemical_formula_sum   'Li8 Cu4 C8 S2 O32'
_cell_volume   581.08355214
_cell_formula_units_Z   2
loop_
 _symmetry_equiv_pos_site_id
 _symmetry_equiv_pos_as_xyz
  1  'x, y, z'
loop_
 _atom_site_type_symbol
 _atom_site_label
 _atom_site_symmetry_multiplicity
 _atom_site_fract_x
 _atom_site_fract_y
 _atom_site_fract_z
 _atom_site_occupancy
  Li  Li0  1  0.25000000  0.08704620  0.41295380  1
  Li  Li1  1  0.25000000  0.08908516  0.83908516  1
  Li  Li2  1  0.25000000  0.66091484  0.41091484  1
  Li  Li3  1  0.25000000  0.66295380  0.83704620  1
  Li  Li4  1  0.75000000  0.33704620  0.16295380  1
  Li  Li5  1  0.75000000  0.33908516  0.58908516  1
  Li  Li6  1  0.75000000  0.91091484  0.16091484  1
  Li  Li7  1  0.75000000  0.91295380  0.58704620  1
  Cu  Cu8  1  0.00000000  0.50000000  0.00000000  1
  Cu  Cu9  1  0.00000000  0.50000000  0.50000000  1
  Cu  Cu10  1  0.50000000  0.00000000  0.00000000  1
  Cu  Cu11  1  0.50000000  0.50000000  0.00000000  1
  C  C12  1  0.06499850  0.27504813  0.21912655  1
  C  C13  1  0.06499850  0.65995337  0.21587494  1
  C  C14  1  0.43500150  0.28087345  0.22495187  1
  C  C15  1  0.43500150  0.28412506  0.84004663  1
  C  C16  1  0.56499850  0.71587494  0.15995337  1
  C  C17  1  0.56499850  0.71912655  0.77504813  1
  C  C18  1  0.93500150  0.34004663  0.78412506  1
  C  C19  1  0.93500150  0.72495187  0.78087345  1
  S  S20  1  0.25000000  0.87500000  0.62500000  1
  S  S21  1  0.75000000  0.12500000  0.37500000  1
  O  O22  1  0.04756810  0.28662417  0.08737247  1
  O  O23  1  0.21270139  0.13863031  0.20568999  1
  O  O24  1  0.04756810  0.66580773  0.36505943  1
  O  O25  1  0.21270139  0.64866930  0.08160862  1
  O  O26  1  0.28729861  0.29431001  0.36136969  1
  O  O27  1  0.06886322  0.33110309  0.79552863  1
  O  O28  1  0.06886322  0.60003370  0.63560816  1
  O  O29  1  0.56886322  0.13560816  0.10003370  1
  O  O30  1  0.45243190  0.41262753  0.21337583  1
  O  O31  1  0.43113678  0.70447137  0.16889691  1
  O  O32  1  0.13127690  0.93609025  0.54877639  1
  O  O33  1  0.63127690  0.04877639  0.43609025  1
  O  O34  1  0.28729861  0.41839138  0.85133070  1
  O  O35  1  0.45243190  0.13494057  0.83419227  1
  O  O36  1  0.13127690  0.93263286  0.81994671  1
  O  O37  1  0.36872310  0.68005329  0.56736714  1
  O  O38  1  0.63127690  0.31994671  0.43263286  1
  O  O39  1  0.86872310  0.06736714  0.18005329  1
  O  O40  1  0.54756810  0.86505943  0.16580773  1
  O  O41  1  0.71270139  0.58160862  0.14866930  1
  O  O42  1  0.36872310  0.95122361  0.56390975  1
  O  O43  1  0.86872310  0.06390975  0.45122361  1
  O  O44  1  0.56886322  0.29552863  0.83110309  1
  O  O45  1  0.54756810  0.58737247  0.78662417  1
  O  O46  1  0.43113678  0.86439184  0.89996630  1
  O  O47  1  0.93113678  0.39996630  0.36439184  1
  O  O48  1  0.93113678  0.66889691  0.20447137  1
  O  O49  1  0.71270139  0.70568999  0.63863031  1
  O  O50  1  0.78729861  0.35133070  0.91839138  1
  O  O51  1  0.95243190  0.33419227  0.63494057  1
  O  O52  1  0.78729861  0.86136969  0.79431001  1
  O  O53  1  0.95243190  0.71337583  0.91262753  1
