# generated using pymatgen
data_V2NiO6
_symmetry_space_group_name_H-M   'P 1'
_cell_length_a   5.27871562
_cell_length_b   5.43232510
_cell_length_c   5.63462288
_cell_angle_alpha   53.08804486
_cell_angle_beta   55.94221947
_cell_angle_gamma   57.25101300
_symmetry_Int_Tables_number   1
_chemical_formula_structural   V2NiO6
_chemical_formula_sum   'V2 Ni1 O6'
_cell_volume   101.79655192
_cell_formula_units_Z   1
loop_
 _symmetry_equiv_pos_site_id
 _symmetry_equiv_pos_as_xyz
  1  'x, y, z'
loop_
 _atom_site_type_symbol
 _atom_site_label
 _atom_site_symmetry_multiplicity
 _atom_site_fract_x
 _atom_site_fract_y
 _atom_site_fract_z
 _atom_site_occupancy
  V  V0  1  0.01841983  0.97220786  0.97578194  1
  V  V1  1  0.50332940  0.49970229  0.45593633  1
  Ni  Ni2  1  0.69757590  0.70046786  0.69906388  1
  O  O3  1  0.14037708  0.75675167  0.38299691  1
  O  O4  1  0.39479566  0.12652906  0.75144607  1
  O  O5  1  0.74362758  0.42222835  0.13011869  1
  O  O6  1  0.24400357  0.65395836  0.88067369  1
  O  O7  1  0.66054124  0.84868517  0.29154957  1
  O  O8  1  0.84812974  0.27027036  0.68243291  1
