# generated using pymatgen
data_K2O
_symmetry_space_group_name_H-M   'P 1'
_cell_length_a   4.10796418
_cell_length_b   7.98977204
_cell_length_c   4.34260135
_cell_angle_alpha   90.00000000
_cell_angle_beta   68.07330259
_cell_angle_gamma   90.00000000
_symmetry_Int_Tables_number   1
_chemical_formula_structural   K2O
_chemical_formula_sum   'K4 O2'
_cell_volume   132.22115100
_cell_formula_units_Z   2
loop_
 _symmetry_equiv_pos_site_id
 _symmetry_equiv_pos_as_xyz
  1  'x, y, z'
loop_
 _atom_site_type_symbol
 _atom_site_label
 _atom_site_symmetry_multiplicity
 _atom_site_fract_x
 _atom_site_fract_y
 _atom_site_fract_z
 _atom_site_occupancy
  K  K0  1  0.08257451  0.88342922  0.03751862  1
  K  K1  1  0.35759292  0.62879508  0.40796531  1
  K  K2  1  0.64240708  0.12879508  0.59203469  1
  K  K3  1  0.91742549  0.38342922  0.96248138  1
  O  O4  1  0.29007438  0.23777570  0.24208358  1
  O  O5  1  0.70992562  0.73777570  0.75791642  1
