# generated using pymatgen
data_CaGd2O4
_symmetry_space_group_name_H-M   'P 1'
_cell_length_a   10.05990395
_cell_length_b   11.93909027
_cell_length_c   3.43029543
_cell_angle_alpha   89.99996025
_cell_angle_beta   89.99968011
_cell_angle_gamma   89.98040267
_symmetry_Int_Tables_number   1
_chemical_formula_structural   CaGd2O4
_chemical_formula_sum   'Ca4 Gd8 O16'
_cell_volume   411.99938657
_cell_formula_units_Z   4
loop_
 _symmetry_equiv_pos_site_id
 _symmetry_equiv_pos_as_xyz
  1  'x, y, z'
loop_
 _atom_site_type_symbol
 _atom_site_label
 _atom_site_symmetry_multiplicity
 _atom_site_fract_x
 _atom_site_fract_y
 _atom_site_fract_z
 _atom_site_occupancy
  Ca  Ca0  1  0.24979350  0.35158657  0.75000249  1
  Ca  Ca1  1  0.25013059  0.85153058  0.25000141  1
  Ca  Ca2  1  0.74986864  0.14838958  0.75000367  1
  Ca  Ca3  1  0.75024707  0.64842128  0.25000311  1
  Gd  Gd4  1  0.07919443  0.61208824  0.74999997  1
  Gd  Gd5  1  0.07910122  0.11380824  0.74999603  1
  Gd  Gd6  1  0.42094590  0.61376499  0.25000010  1
  Gd  Gd7  1  0.42077637  0.11219803  0.25000219  1
  Gd  Gd8  1  0.57927237  0.88781657  0.74999766  1
  Gd  Gd9  1  0.57905284  0.38624220  0.75000050  1
  Gd  Gd10  1  0.92094623  0.88617858  0.25000062  1
  Gd  Gd11  1  0.92076524  0.38794453  0.25000072  1
  O  O12  1  0.02280627  0.71882756  0.24999905  1
  O  O13  1  0.07927808  0.92021639  0.75000062  1
  O  O14  1  0.13351954  0.47626686  0.24999800  1
  O  O15  1  0.21070154  0.19161880  0.24999697  1
  O  O16  1  0.28945706  0.69130966  0.74999997  1
  O  O17  1  0.36641834  0.97624858  0.75000003  1
  O  O18  1  0.42080891  0.42049527  0.24999797  1
  O  O19  1  0.47723465  0.21888031  0.74999797  1
  O  O20  1  0.52277880  0.78107683  0.25000151  1
  O  O21  1  0.57920588  0.57950583  0.74999847  1
  O  O22  1  0.63351457  0.02377095  0.24999654  1
  O  O23  1  0.71051060  0.30868131  0.25000170  1
  O  O24  1  0.78952569  0.80854634  0.75000298  1
  O  O25  1  0.86650548  0.52382275  0.75000214  1
  O  O26  1  0.92049519  0.07955706  0.24999721  1
  O  O27  1  0.97714498  0.28120612  0.75000042  1
