# generated using pymatgen
data_Mn3CrSn2(PO4)6
_symmetry_space_group_name_H-M   'P 1'
_cell_length_a   8.59513948
_cell_length_b   8.59513964
_cell_length_c   8.59514015
_cell_angle_alpha   61.53151001
_cell_angle_beta   61.53151630
_cell_angle_gamma   61.53151346
_symmetry_Int_Tables_number   1
_chemical_formula_structural   Mn3CrSn2(PO4)6
_chemical_formula_sum   'Mn3 Cr1 Sn2 P6 O24'
_cell_volume   464.42986952
_cell_formula_units_Z   1
loop_
 _symmetry_equiv_pos_site_id
 _symmetry_equiv_pos_as_xyz
  1  'x, y, z'
loop_
 _atom_site_type_symbol
 _atom_site_label
 _atom_site_symmetry_multiplicity
 _atom_site_fract_x
 _atom_site_fract_y
 _atom_site_fract_z
 _atom_site_occupancy
  Mn  Mn0  1  0.15191953  0.15191953  0.15191953  1
  Mn  Mn1  1  0.34681021  0.34681021  0.34681021  1
  Mn  Mn2  1  0.65043489  0.65043489  0.65043489  1
  Cr  Cr3  1  0.85450367  0.85450367  0.85450367  1
  Sn  Sn4  1  0.00229458  0.00229458  0.00229458  1
  Sn  Sn5  1  0.49921031  0.49921031  0.49921031  1
  P  P6  1  0.75051376  0.45475765  0.04735977  1
  P  P7  1  0.24868760  0.55392882  0.94441690  1
  P  P8  1  0.55392882  0.94441690  0.24868760  1
  P  P9  1  0.94441690  0.24868760  0.55392882  1
  P  P10  1  0.04735977  0.75051376  0.45475765  1
  P  P11  1  0.45475765  0.04735977  0.75051376  1
  O  O12  1  0.09065753  0.31729940  0.52473386  1
  O  O13  1  0.31729940  0.52473386  0.09065753  1
  O  O14  1  0.06626771  0.90510090  0.25165721  1
  O  O15  1  0.52473386  0.09065753  0.31729940  1
  O  O16  1  0.99979158  0.82403923  0.60652428  1
  O  O17  1  0.25080853  0.60161532  0.43704163  1
  O  O18  1  0.25165721  0.06626771  0.90510090  1
  O  O19  1  0.43704163  0.25080853  0.60161532  1
  O  O20  1  0.17839270  0.40432020  0.98239820  1
  O  O21  1  0.60161532  0.43704163  0.25080853  1
  O  O22  1  0.09073001  0.75718683  0.92500476  1
  O  O23  1  0.40432020  0.98239820  0.17839270  1
  O  O24  1  0.60652428  0.99979158  0.82403923  1
  O  O25  1  0.90510090  0.25165721  0.06626771  1
  O  O26  1  0.39860477  0.57620812  0.74107462  1
  O  O27  1  0.82403923  0.60652428  0.99979158  1
  O  O28  1  0.57620812  0.74107462  0.39860477  1
  O  O29  1  0.75718683  0.92500476  0.09073001  1
  O  O30  1  0.74107462  0.39860477  0.57620812  1
  O  O31  1  0.98239820  0.17839270  0.40432020  1
  O  O32  1  0.48555445  0.90397043  0.67618202  1
  O  O33  1  0.92500476  0.09073001  0.75718683  1
  O  O34  1  0.67618202  0.48555445  0.90397043  1
  O  O35  1  0.90397043  0.67618202  0.48555445  1
