# generated using pymatgen
data_Li5SbS4
_symmetry_space_group_name_H-M   'P 1'
_cell_length_a   16.50530459
_cell_length_b   16.50530459
_cell_length_c   5.93388554
_cell_angle_alpha   90.00000000
_cell_angle_beta   90.00000000
_cell_angle_gamma   90.00000000
_symmetry_Int_Tables_number   1
_chemical_formula_structural   Li5SbS4
_chemical_formula_sum   'Li40 Sb8 S32'
_cell_volume   1616.53924062
_cell_formula_units_Z   8
loop_
 _symmetry_equiv_pos_site_id
 _symmetry_equiv_pos_as_xyz
  1  'x, y, z'
loop_
 _atom_site_type_symbol
 _atom_site_label
 _atom_site_symmetry_multiplicity
 _atom_site_fract_x
 _atom_site_fract_y
 _atom_site_fract_z
 _atom_site_occupancy
  Li  Li0  1  0.98869330  0.01130670  0.25000000  1
  Li  Li1  1  0.01130670  0.98869330  0.75000000  1
  Li  Li2  1  0.98869330  0.48869330  0.25000000  1
  Li  Li3  1  0.01130670  0.51130670  0.75000000  1
  Li  Li4  1  0.11157102  0.36319426  0.81269887  1
  Li  Li5  1  0.11157102  0.13680574  0.81269887  1
  Li  Li6  1  0.12192585  0.62192585  0.25000000  1
  Li  Li7  1  0.12192585  0.87807415  0.25000000  1
  Li  Li8  1  0.13680574  0.11157102  0.31269887  1
  Li  Li9  1  0.13680574  0.38842898  0.31269887  1
  Li  Li10  1  0.25000000  0.25000000  0.33976162  1
  Li  Li11  1  0.25000000  0.75000000  0.75000000  1
  Li  Li12  1  0.25000000  0.75000000  0.25000000  1
  Li  Li13  1  0.25000000  0.25000000  0.83976162  1
  Li  Li14  1  0.36319426  0.11157102  0.31269887  1
  Li  Li15  1  0.36319426  0.38842898  0.31269887  1
  Li  Li16  1  0.37807415  0.62192585  0.25000000  1
  Li  Li17  1  0.37807415  0.87807415  0.25000000  1
  Li  Li18  1  0.38842898  0.13680574  0.81269887  1
  Li  Li19  1  0.38842898  0.36319426  0.81269887  1
  Li  Li20  1  0.51130670  0.48869330  0.25000000  1
  Li  Li21  1  0.48869330  0.51130670  0.75000000  1
  Li  Li22  1  0.51130670  0.01130670  0.25000000  1
  Li  Li23  1  0.48869330  0.98869330  0.75000000  1
  Li  Li24  1  0.61157102  0.63680574  0.18730113  1
  Li  Li25  1  0.61157102  0.86319426  0.18730113  1
  Li  Li26  1  0.62192585  0.12192585  0.75000000  1
  Li  Li27  1  0.62192585  0.37807415  0.75000000  1
  Li  Li28  1  0.63680574  0.61157102  0.68730113  1
  Li  Li29  1  0.63680574  0.88842898  0.68730113  1
  Li  Li30  1  0.75000000  0.25000000  0.75000000  1
  Li  Li31  1  0.75000000  0.25000000  0.25000000  1
  Li  Li32  1  0.75000000  0.75000000  0.16023838  1
  Li  Li33  1  0.75000000  0.75000000  0.66023838  1
  Li  Li34  1  0.86319426  0.61157102  0.68730113  1
  Li  Li35  1  0.86319426  0.88842898  0.68730113  1
  Li  Li36  1  0.87807415  0.12192585  0.75000000  1
  Li  Li37  1  0.87807415  0.37807415  0.75000000  1
  Li  Li38  1  0.88842898  0.63680574  0.18730113  1
  Li  Li39  1  0.88842898  0.86319426  0.18730113  1
  Sb  Sb40  1  0.01817977  0.75000000  0.71435017  1
  Sb  Sb41  1  0.25000000  0.51817977  0.78564983  1
  Sb  Sb42  1  0.25000000  0.98182023  0.78564983  1
  Sb  Sb43  1  0.48182023  0.75000000  0.71435017  1
  Sb  Sb44  1  0.51817977  0.25000000  0.28564983  1
  Sb  Sb45  1  0.75000000  0.01817977  0.21435017  1
  Sb  Sb46  1  0.75000000  0.48182023  0.21435017  1
  Sb  Sb47  1  0.98182023  0.25000000  0.28564983  1
  S  S48  1  0.00872036  0.11626243  0.52692040  1
  S  S49  1  0.00872036  0.38373757  0.52692040  1
  S  S50  1  0.11626243  0.00872036  0.02692040  1
  S  S51  1  0.11626243  0.49127964  0.02692040  1
  S  S52  1  0.13042788  0.25000000  0.09189046  1
  S  S53  1  0.12982131  0.75000000  0.02147797  1
  S  S54  1  0.25000000  0.13042788  0.59189046  1
  S  S55  1  0.25000000  0.62982131  0.47852203  1
  S  S56  1  0.25000000  0.36957212  0.59189046  1
  S  S57  1  0.25000000  0.87017869  0.47852203  1
  S  S58  1  0.37017869  0.75000000  0.02147797  1
  S  S59  1  0.36957212  0.25000000  0.09189046  1
  S  S60  1  0.38373757  0.49127964  0.02692040  1
  S  S61  1  0.38373757  0.00872036  0.02692040  1
  S  S62  1  0.49127964  0.11626243  0.52692040  1
  S  S63  1  0.49127964  0.38373757  0.52692040  1
  S  S64  1  0.50872036  0.61626243  0.47307960  1
  S  S65  1  0.50872036  0.88373757  0.47307960  1
  S  S66  1  0.61626243  0.50872036  0.97307960  1
  S  S67  1  0.61626243  0.99127964  0.97307960  1
  S  S68  1  0.63042788  0.75000000  0.90810954  1
  S  S69  1  0.62982131  0.25000000  0.97852203  1
  S  S70  1  0.75000000  0.12982131  0.52147797  1
  S  S71  1  0.75000000  0.37017869  0.52147797  1
  S  S72  1  0.75000000  0.63042788  0.40810954  1
  S  S73  1  0.75000000  0.86957212  0.40810954  1
  S  S74  1  0.87017869  0.25000000  0.97852203  1
  S  S75  1  0.86957212  0.75000000  0.90810954  1
  S  S76  1  0.88373757  0.50872036  0.97307960  1
  S  S77  1  0.88373757  0.99127964  0.97307960  1
  S  S78  1  0.99127964  0.61626243  0.47307960  1
  S  S79  1  0.99127964  0.88373757  0.47307960  1
