# generated using pymatgen
data_Li2SbP(OF3)2
_symmetry_space_group_name_H-M   'P 1'
_cell_length_a   6.08697380
_cell_length_b   8.17248625
_cell_length_c   7.87126387
_cell_angle_alpha   88.15737708
_cell_angle_beta   102.21270134
_cell_angle_gamma   94.38284557
_symmetry_Int_Tables_number   1
_chemical_formula_structural   Li2SbP(OF3)2
_chemical_formula_sum   'Li4 Sb2 P2 O4 F12'
_cell_volume   381.52968903
_cell_formula_units_Z   2
loop_
 _symmetry_equiv_pos_site_id
 _symmetry_equiv_pos_as_xyz
  1  'x, y, z'
loop_
 _atom_site_type_symbol
 _atom_site_label
 _atom_site_symmetry_multiplicity
 _atom_site_fract_x
 _atom_site_fract_y
 _atom_site_fract_z
 _atom_site_occupancy
  Li  Li0  1  0.07275688  0.95580082  0.38597586  1
  Li  Li1  1  0.29277771  0.41887549  0.06414758  1
  Li  Li2  1  0.69948571  0.59007983  0.91477752  1
  Li  Li3  1  0.89742196  0.41458633  0.64743606  1
  Sb  Sb4  1  0.41237386  0.21424716  0.74005186  1
  Sb  Sb5  1  0.56998317  0.76808029  0.24121143  1
  P  P6  1  0.24289877  0.79104924  0.81263746  1
  P  P7  1  0.77664630  0.23132086  0.19669435  1
  O  O8  1  0.26305542  0.97307161  0.83322506  1
  O  O9  1  0.41464624  0.68624023  0.91699934  1
  O  O10  1  0.56737791  0.28028298  0.07544610  1
  O  O11  1  0.82739046  0.05595543  0.22697625  1
  F  F12  1  0.13544051  0.39243611  0.82553252  1
  F  F13  1  0.21430596  0.74780476  0.61634157  1
  F  F14  1  0.98935306  0.32608200  0.14273093  1
  F  F15  1  0.23540662  0.15244254  0.49693463  1
  F  F16  1  0.27370569  0.85885973  0.29443754  1
  F  F17  1  0.41009918  0.54698028  0.27172049  1
  F  F18  1  0.64355143  0.44495079  0.72531716  1
  F  F19  1  0.67521954  0.10113850  0.70538305  1
  F  F20  1  0.77589105  0.76279058  0.47642630  1
  F  F21  1  0.00286415  0.72738173  0.84440967  1
  F  F22  1  0.79398092  0.31494042  0.37969395  1
  F  F23  1  0.79967349  0.62231929  0.15015030  1
