# generated using pymatgen
data_Cr3(NiO6)2
_symmetry_space_group_name_H-M   'P 1'
_cell_length_a   8.68092390
_cell_length_b   12.31392675
_cell_length_c   9.03662110
_cell_angle_alpha   90.00000000
_cell_angle_beta   90.00000000
_cell_angle_gamma   90.89589712
_symmetry_Int_Tables_number   1
_chemical_formula_structural   Cr3(NiO6)2
_chemical_formula_sum   'Cr12 Ni8 O48'
_cell_volume   965.86292082
_cell_formula_units_Z   4
loop_
 _symmetry_equiv_pos_site_id
 _symmetry_equiv_pos_as_xyz
  1  'x, y, z'
loop_
 _atom_site_type_symbol
 _atom_site_label
 _atom_site_symmetry_multiplicity
 _atom_site_fract_x
 _atom_site_fract_y
 _atom_site_fract_z
 _atom_site_occupancy
  Cr  Cr0  1  0.03491450  0.48937577  0.25393288  1
  Cr  Cr1  1  0.10867038  0.84838249  0.37845679  1
  Cr  Cr2  1  0.10848368  0.14110164  0.11156926  1
  Cr  Cr3  1  0.39132962  0.65161751  0.87845679  1
  Cr  Cr4  1  0.39151632  0.35889836  0.61156926  1
  Cr  Cr5  1  0.46508550  0.01062423  0.75393288  1
  Cr  Cr6  1  0.53491450  0.98937577  0.24606712  1
  Cr  Cr7  1  0.60848368  0.64110164  0.38843074  1
  Cr  Cr8  1  0.60867038  0.34838249  0.12154321  1
  Cr  Cr9  1  0.89151632  0.85889836  0.88843074  1
  Cr  Cr10  1  0.89132962  0.15161751  0.62154321  1
  Cr  Cr11  1  0.96508550  0.51062423  0.74606712  1
  Ni  Ni12  1  0.25316065  0.88588120  0.02837770  1
  Ni  Ni13  1  0.24683935  0.61411880  0.52837770  1
  Ni  Ni14  1  0.25257799  0.38126199  0.97066030  1
  Ni  Ni15  1  0.24742201  0.11873801  0.47066030  1
  Ni  Ni16  1  0.75257799  0.88126199  0.52933970  1
  Ni  Ni17  1  0.74742201  0.61873801  0.02933970  1
  Ni  Ni18  1  0.75316065  0.38588120  0.47162230  1
  Ni  Ni19  1  0.74683935  0.11411880  0.97162230  1
  O  O20  1  0.07025228  0.44935408  0.87082081  1
  O  O21  1  0.07672350  0.90111089  0.88562801  1
  O  O22  1  0.06781791  0.61253909  0.66371710  1
  O  O23  1  0.06849237  0.18962857  0.57663771  1
  O  O24  1  0.09346363  0.58579912  0.37257311  1
  O  O25  1  0.12010957  0.83958525  0.19164091  1
  O  O26  1  0.13902820  0.97528629  0.43019740  1
  O  O27  1  0.12821979  0.24325065  0.99474394  1
  O  O28  1  0.15845482  0.17914206  0.28001452  1
  O  O29  1  0.18454824  0.43214658  0.17471853  1
  O  O30  1  0.23631010  0.77105480  0.46712938  1
  O  O31  1  0.26368990  0.72894520  0.96712938  1
  O  O32  1  0.22930942  0.04240842  0.05898232  1
  O  O33  1  0.27069058  0.45759158  0.55898232  1
  O  O34  1  0.31545176  0.06785342  0.67471853  1
  O  O35  1  0.34154518  0.32085794  0.78001452  1
  O  O36  1  0.36097180  0.52471371  0.93019740  1
  O  O37  1  0.37178021  0.25674935  0.49474394  1
  O  O38  1  0.37989043  0.66041475  0.69164091  1
  O  O39  1  0.40653637  0.91420088  0.87257311  1
  O  O40  1  0.43218209  0.88746091  0.16371710  1
  O  O41  1  0.42327650  0.59888911  0.38562801  1
  O  O42  1  0.43150763  0.31037143  0.07663771  1
  O  O43  1  0.42974772  0.05064592  0.37082081  1
  O  O44  1  0.57025228  0.94935408  0.62917919  1
  O  O45  1  0.56849237  0.68962857  0.92336229  1
  O  O46  1  0.57672350  0.40111089  0.61437199  1
  O  O47  1  0.56781791  0.11253909  0.83628290  1
  O  O48  1  0.59346363  0.08579912  0.12742689  1
  O  O49  1  0.62010957  0.33958525  0.30835909  1
  O  O50  1  0.62821979  0.74325065  0.50525606  1
  O  O51  1  0.63902820  0.47528629  0.06980260  1
  O  O52  1  0.65845482  0.67914206  0.21998548  1
  O  O53  1  0.68454824  0.93214658  0.32528147  1
  O  O54  1  0.72930942  0.54240842  0.44101768  1
  O  O55  1  0.77069058  0.95759158  0.94101768  1
  O  O56  1  0.73631010  0.27105480  0.03287062  1
  O  O57  1  0.76368990  0.22894520  0.53287062  1
  O  O58  1  0.81545176  0.56785342  0.82528147  1
  O  O59  1  0.84154518  0.82085794  0.71998548  1
  O  O60  1  0.87178021  0.75674935  0.00525606  1
  O  O61  1  0.86097180  0.02471371  0.56980260  1
  O  O62  1  0.87989043  0.16041475  0.80835909  1
  O  O63  1  0.90653637  0.41420088  0.62742689  1
  O  O64  1  0.93150763  0.81037143  0.42336229  1
  O  O65  1  0.93218209  0.38746091  0.33628290  1
  O  O66  1  0.92327650  0.09888911  0.11437199  1
  O  O67  1  0.92974772  0.55064592  0.12917919  1
