# generated using pymatgen
data_Li2FeF5
_symmetry_space_group_name_H-M   'P 1'
_cell_length_a   7.22456197
_cell_length_b   19.19966866
_cell_length_c   5.49040572
_cell_angle_alpha   90.00000000
_cell_angle_beta   90.00000000
_cell_angle_gamma   90.00000000
_symmetry_Int_Tables_number   1
_chemical_formula_structural   Li2FeF5
_chemical_formula_sum   'Li16 Fe8 F40'
_cell_volume   761.56976334
_cell_formula_units_Z   8
loop_
 _symmetry_equiv_pos_site_id
 _symmetry_equiv_pos_as_xyz
  1  'x, y, z'
loop_
 _atom_site_type_symbol
 _atom_site_label
 _atom_site_symmetry_multiplicity
 _atom_site_fract_x
 _atom_site_fract_y
 _atom_site_fract_z
 _atom_site_occupancy
  Li  Li0  1  0.10261776  0.65332358  0.50000000  1
  Li  Li1  1  0.19355076  0.08289029  0.00000000  1
  Li  Li2  1  0.26493842  0.73551865  0.00000000  1
  Li  Li3  1  0.20104066  0.51600314  0.50000000  1
  Li  Li4  1  0.29895934  0.01600314  0.50000000  1
  Li  Li5  1  0.23506158  0.23551865  0.00000000  1
  Li  Li6  1  0.30644924  0.58289029  0.00000000  1
  Li  Li7  1  0.39738224  0.15332358  0.50000000  1
  Li  Li8  1  0.60261776  0.84667642  0.50000000  1
  Li  Li9  1  0.69355076  0.41710971  0.00000000  1
  Li  Li10  1  0.76493842  0.76448135  0.00000000  1
  Li  Li11  1  0.70104066  0.98399686  0.50000000  1
  Li  Li12  1  0.79895934  0.48399686  0.50000000  1
  Li  Li13  1  0.73506158  0.26448135  0.00000000  1
  Li  Li14  1  0.80644924  0.91710971  0.00000000  1
  Li  Li15  1  0.89738224  0.34667642  0.50000000  1
  Fe  Fe16  1  0.01011296  0.84312443  0.50000000  1
  Fe  Fe17  1  0.12732083  0.39725577  0.00000000  1
  Fe  Fe18  1  0.37267917  0.89725577  0.00000000  1
  Fe  Fe19  1  0.48988704  0.34312443  0.50000000  1
  Fe  Fe20  1  0.51011296  0.65687557  0.50000000  1
  Fe  Fe21  1  0.62732083  0.10274423  0.00000000  1
  Fe  Fe22  1  0.87267917  0.60274423  0.00000000  1
  Fe  Fe23  1  0.98988704  0.15687557  0.50000000  1
  F  F24  1  0.01916469  0.30342669  0.00000000  1
  F  F25  1  0.04265760  0.57289735  0.26019567  1
  F  F26  1  0.04265760  0.57289735  0.73980433  1
  F  F27  1  0.06994871  0.06106755  0.50000000  1
  F  F28  1  0.17755008  0.16501355  0.75821005  1
  F  F29  1  0.17755008  0.16501355  0.24178995  1
  F  F30  1  0.05232989  0.74657924  0.50000000  1
  F  F31  1  0.20460891  0.85851458  0.25115986  1
  F  F32  1  0.20460891  0.85851458  0.74884014  1
  F  F33  1  0.22754087  0.98158162  0.00000000  1
  F  F34  1  0.27245913  0.48158162  0.00000000  1
  F  F35  1  0.29539109  0.35851458  0.25115986  1
  F  F36  1  0.29539109  0.35851458  0.74884014  1
  F  F37  1  0.44767011  0.24657924  0.50000000  1
  F  F38  1  0.32244992  0.66501355  0.24178995  1
  F  F39  1  0.32244992  0.66501355  0.75821005  1
  F  F40  1  0.43005129  0.56106755  0.50000000  1
  F  F41  1  0.45734240  0.07289735  0.26019567  1
  F  F42  1  0.45734240  0.07289735  0.73980433  1
  F  F43  1  0.48083531  0.80342669  0.00000000  1
  F  F44  1  0.51916469  0.19657331  0.00000000  1
  F  F45  1  0.54265760  0.92710265  0.26019567  1
  F  F46  1  0.54265760  0.92710265  0.73980433  1
  F  F47  1  0.56994871  0.43893245  0.50000000  1
  F  F48  1  0.67755008  0.33498645  0.24178995  1
  F  F49  1  0.67755008  0.33498645  0.75821005  1
  F  F50  1  0.55232989  0.75342076  0.50000000  1
  F  F51  1  0.70460891  0.64148542  0.25115986  1
  F  F52  1  0.70460891  0.64148542  0.74884014  1
  F  F53  1  0.72754087  0.51841838  0.00000000  1
  F  F54  1  0.77245913  0.01841838  0.00000000  1
  F  F55  1  0.79539109  0.14148542  0.25115986  1
  F  F56  1  0.79539109  0.14148542  0.74884014  1
  F  F57  1  0.94767011  0.25342076  0.50000000  1
  F  F58  1  0.82244992  0.83498645  0.24178995  1
  F  F59  1  0.82244992  0.83498645  0.75821005  1
  F  F60  1  0.93005129  0.93893245  0.50000000  1
  F  F61  1  0.95734240  0.42710265  0.26019567  1
  F  F62  1  0.95734240  0.42710265  0.73980433  1
  F  F63  1  0.98083531  0.69657331  0.00000000  1
