# generated using pymatgen
data_Li2Mn3F8
_symmetry_space_group_name_H-M   'P 1'
_cell_length_a   5.78363292
_cell_length_b   10.28835121
_cell_length_c   6.37557579
_cell_angle_alpha   90.00000000
_cell_angle_beta   90.00000000
_cell_angle_gamma   90.00000000
_symmetry_Int_Tables_number   1
_chemical_formula_structural   Li2Mn3F8
_chemical_formula_sum   'Li4 Mn6 F16'
_cell_volume   379.37255987
_cell_formula_units_Z   2
loop_
 _symmetry_equiv_pos_site_id
 _symmetry_equiv_pos_as_xyz
  1  'x, y, z'
loop_
 _atom_site_type_symbol
 _atom_site_label
 _atom_site_symmetry_multiplicity
 _atom_site_fract_x
 _atom_site_fract_y
 _atom_site_fract_z
 _atom_site_occupancy
  Li  Li0  1  0.72546908  0.77565666  0.50000000  1
  Li  Li1  1  0.74351748  0.72031031  0.00000000  1
  Li  Li2  1  0.25648252  0.22031031  0.50000000  1
  Li  Li3  1  0.27453092  0.27565666  0.00000000  1
  Mn  Mn4  1  0.02030791  0.50215190  0.24703917  1
  Mn  Mn5  1  0.02030791  0.50215190  0.75296083  1
  Mn  Mn6  1  0.52003690  0.49334841  0.50000000  1
  Mn  Mn7  1  0.47996310  0.99334841  0.00000000  1
  Mn  Mn8  1  0.97969209  0.00215190  0.25296083  1
  Mn  Mn9  1  0.97969209  0.00215190  0.74703917  1
  F  F10  1  0.19683649  0.59800240  0.50000000  1
  F  F11  1  0.14695728  0.90205387  0.00000000  1
  F  F12  1  0.30304497  0.11647241  0.22185398  1
  F  F13  1  0.30304497  0.11647241  0.77814602  1
  F  F14  1  0.33218999  0.37771093  0.27855776  1
  F  F15  1  0.33218999  0.37771093  0.72144224  1
  F  F16  1  0.05559565  0.63389278  0.00000000  1
  F  F17  1  0.02349817  0.86924511  0.50000000  1
  F  F18  1  0.97650183  0.36924511  0.00000000  1
  F  F19  1  0.94440435  0.13389278  0.50000000  1
  F  F20  1  0.66781001  0.87771093  0.22144224  1
  F  F21  1  0.66781001  0.87771093  0.77855776  1
  F  F22  1  0.69695503  0.61647241  0.27814602  1
  F  F23  1  0.69695503  0.61647241  0.72185398  1
  F  F24  1  0.85304272  0.40205387  0.50000000  1
  F  F25  1  0.80316351  0.09800240  0.00000000  1
