# generated using pymatgen
data_Mn2Fe(PO4)3
_symmetry_space_group_name_H-M   'P 1'
_cell_length_a   8.45490061
_cell_length_b   8.45490100
_cell_length_c   8.45490119
_cell_angle_alpha   61.83909749
_cell_angle_beta   61.83910062
_cell_angle_gamma   61.83910027
_symmetry_Int_Tables_number   1
_chemical_formula_structural   Mn2Fe(PO4)3
_chemical_formula_sum   'Mn4 Fe2 P6 O24'
_cell_volume   444.97747878
_cell_formula_units_Z   2
loop_
 _symmetry_equiv_pos_site_id
 _symmetry_equiv_pos_as_xyz
  1  'x, y, z'
loop_
 _atom_site_type_symbol
 _atom_site_label
 _atom_site_symmetry_multiplicity
 _atom_site_fract_x
 _atom_site_fract_y
 _atom_site_fract_z
 _atom_site_occupancy
  Mn  Mn0  1  0.14508242  0.14508242  0.14508242  1
  Mn  Mn1  1  0.35491758  0.35491758  0.35491758  1
  Mn  Mn2  1  0.64508242  0.64508242  0.64508242  1
  Mn  Mn3  1  0.85491758  0.85491758  0.85491758  1
  Fe  Fe4  1  0.00000000  0.00000000  0.00000000  1
  Fe  Fe5  1  0.50000000  0.50000000  0.50000000  1
  P  P6  1  0.04796868  0.75000000  0.45203132  1
  P  P7  1  0.45203132  0.04796868  0.75000000  1
  P  P8  1  0.75000000  0.45203132  0.04796868  1
  P  P9  1  0.25000000  0.54796868  0.95203132  1
  P  P10  1  0.54796868  0.95203132  0.25000000  1
  P  P11  1  0.95203132  0.25000000  0.54796868  1
  O  O12  1  0.10487909  0.32103708  0.51108072  1
  O  O13  1  0.32103708  0.51108072  0.10487909  1
  O  O14  1  0.06241000  0.90377727  0.24885343  1
  O  O15  1  0.51108072  0.10487909  0.32103708  1
  O  O16  1  0.01108072  0.82103708  0.60487909  1
  O  O17  1  0.25114657  0.59622273  0.43759000  1
  O  O18  1  0.24885343  0.06241000  0.90377727  1
  O  O19  1  0.43759000  0.25114657  0.59622273  1
  O  O20  1  0.17896292  0.39512091  0.98891928  1
  O  O21  1  0.59622273  0.43759000  0.25114657  1
  O  O22  1  0.09622273  0.75114657  0.93759000  1
  O  O23  1  0.39512091  0.98891928  0.17896292  1
  O  O24  1  0.60487909  0.01108072  0.82103708  1
  O  O25  1  0.90377727  0.24885343  0.06241000  1
  O  O26  1  0.40377727  0.56241000  0.74885343  1
  O  O27  1  0.82103708  0.60487909  0.01108072  1
  O  O28  1  0.56241000  0.74885343  0.40377727  1
  O  O29  1  0.75114657  0.93759000  0.09622273  1
  O  O30  1  0.74885343  0.40377727  0.56241000  1
  O  O31  1  0.98891928  0.17896292  0.39512091  1
  O  O32  1  0.48891928  0.89512091  0.67896292  1
  O  O33  1  0.93759000  0.09622273  0.75114657  1
  O  O34  1  0.67896292  0.48891928  0.89512091  1
  O  O35  1  0.89512091  0.67896292  0.48891928  1
