# generated using pymatgen
data_Li11Fe6F29
_symmetry_space_group_name_H-M   'P 1'
_cell_length_a   5.55034021
_cell_length_b   14.16877921
_cell_length_c   7.45014182
_cell_angle_alpha   90.38653927
_cell_angle_beta   90.00000000
_cell_angle_gamma   78.70473219
_symmetry_Int_Tables_number   1
_chemical_formula_structural   Li11Fe6F29
_chemical_formula_sum   'Li11 Fe6 F29'
_cell_volume   574.52885595
_cell_formula_units_Z   1
loop_
 _symmetry_equiv_pos_site_id
 _symmetry_equiv_pos_as_xyz
  1  'x, y, z'
loop_
 _atom_site_type_symbol
 _atom_site_label
 _atom_site_symmetry_multiplicity
 _atom_site_fract_x
 _atom_site_fract_y
 _atom_site_fract_z
 _atom_site_occupancy
  Li  Li0  1  0.55939291  0.88121318  0.54541340  1
  Li  Li1  1  0.09413085  0.81173731  0.40087406  1
  Li  Li2  1  0.67670312  0.64659376  0.05180329  1
  Li  Li3  1  0.65565107  0.68869886  0.58154842  1
  Li  Li4  1  0.22749288  0.54501424  0.91659713  1
  Li  Li5  1  0.77250712  0.45498576  0.08340287  1
  Li  Li6  1  0.34434893  0.31130114  0.41845158  1
  Li  Li7  1  0.32329688  0.35340624  0.94819671  1
  Li  Li8  1  0.90586915  0.18826269  0.59912594  1
  Li  Li9  1  0.44060709  0.11878682  0.45458660  1
  Li  Li10  1  0.00000000  0.00000000  0.00000000  1
  Fe  Fe11  1  0.56307380  0.87385241  0.15878823  1
  Fe  Fe12  1  0.09748871  0.80502358  0.80581500  1
  Fe  Fe13  1  0.23109326  0.53781348  0.31920144  1
  Fe  Fe14  1  0.76890674  0.46218652  0.68079856  1
  Fe  Fe15  1  0.90251129  0.19497642  0.19418500  1
  Fe  Fe16  1  0.43692620  0.12614759  0.84121177  1
  F  F17  1  0.31749246  0.90501760  0.34427024  1
  F  F18  1  0.77748893  0.90501760  0.34427024  1
  F  F19  1  0.02987325  0.94025351  0.77259150  1
  F  F20  1  0.32382353  0.83475326  0.99740340  1
  F  F21  1  0.84142321  0.83475326  0.99740340  1
  F  F22  1  0.62951220  0.74097660  0.24009756  1
  F  F23  1  0.36132043  0.78750477  0.62446288  1
  F  F24  1  0.85117580  0.78750477  0.62446288  1
  F  F25  1  0.16291662  0.67416576  0.87035304  1
  F  F26  1  0.16545990  0.66908121  0.38430868  1
  F  F27  1  0.47295895  0.55734949  0.13761340  1
  F  F28  1  0.96969256  0.55734949  0.13761340  1
  F  F29  1  0.70056711  0.59886678  0.77042911  1
  F  F30  1  0.50000000  0.50000000  0.50000000  1
  F  F31  1  0.00000000  0.50000000  0.50000000  1
  F  F32  1  0.29943289  0.40113322  0.22957089  1
  F  F33  1  0.03030744  0.44265051  0.86238660  1
  F  F34  1  0.52704105  0.44265051  0.86238660  1
  F  F35  1  0.83454010  0.33091879  0.61569132  1
  F  F36  1  0.83708338  0.32583424  0.12964696  1
  F  F37  1  0.63868057  0.21249523  0.37553712  1
  F  F38  1  0.14882420  0.21249523  0.37553712  1
  F  F39  1  0.37048780  0.25902340  0.75990244  1
  F  F40  1  0.67617647  0.16524674  0.00259660  1
  F  F41  1  0.15857679  0.16524674  0.00259660  1
  F  F42  1  0.97012675  0.05974649  0.22740850  1
  F  F43  1  0.68250754  0.09498240  0.65572976  1
  F  F44  1  0.22251107  0.09498240  0.65572976  1
  F  F45  1  0.50000000  0.00000000  0.00000000  1
