# generated using pymatgen
data_Li2FeF5
_symmetry_space_group_name_H-M   'P 1'
_cell_length_a   6.39048759
_cell_length_b   6.19926936
_cell_length_c   8.90001102
_cell_angle_alpha   90.00000060
_cell_angle_beta   90.00046737
_cell_angle_gamma   89.99999317
_symmetry_Int_Tables_number   1
_chemical_formula_structural   Li2FeF5
_chemical_formula_sum   'Li8 Fe4 F20'
_cell_volume   352.58598638
_cell_formula_units_Z   4
loop_
 _symmetry_equiv_pos_site_id
 _symmetry_equiv_pos_as_xyz
  1  'x, y, z'
loop_
 _atom_site_type_symbol
 _atom_site_label
 _atom_site_symmetry_multiplicity
 _atom_site_fract_x
 _atom_site_fract_y
 _atom_site_fract_z
 _atom_site_occupancy
  Li  Li0  1  0.94391340  0.76202063  0.34630529  1
  Li  Li1  1  0.94138715  0.23181988  0.34142213  1
  Li  Li2  1  0.55861183  0.23181658  0.84142284  1
  Li  Li3  1  0.55608530  0.76202714  0.84630680  1
  Li  Li4  1  0.44391479  0.26202703  0.15369323  1
  Li  Li5  1  0.44138814  0.73181668  0.15857700  1
  Li  Li6  1  0.05861274  0.73181989  0.65857764  1
  Li  Li7  1  0.05608669  0.26202062  0.65369439  1
  Fe  Fe8  1  0.08047711  0.99438440  0.99881611  1
  Fe  Fe9  1  0.41953721  0.99441350  0.49883849  1
  Fe  Fe10  1  0.58046353  0.49441315  0.50116251  1
  Fe  Fe11  1  0.91952264  0.49438544  0.00118371  1
  F  F12  1  0.08410554  0.99386420  0.49006598  1
  F  F13  1  0.05909273  0.49432534  0.80338902  1
  F  F14  1  0.16787471  0.69997718  0.06084825  1
  F  F15  1  0.16689474  0.28857546  0.06153011  1
  F  F16  1  0.11944106  0.99621323  0.78335322  1
  F  F17  1  0.38057808  0.99621660  0.28334063  1
  F  F18  1  0.33309908  0.28857758  0.56153159  1
  F  F19  1  0.33212897  0.69998836  0.56084862  1
  F  F20  1  0.44090514  0.49433812  0.30339109  1
  F  F21  1  0.41589932  0.99386045  0.99006688  1
  F  F22  1  0.58410045  0.49386033  0.00993287  1
  F  F23  1  0.55909510  0.99433808  0.69660936  1
  F  F24  1  0.66787079  0.19998866  0.43915126  1
  F  F25  1  0.66690114  0.78857768  0.43846845  1
  F  F26  1  0.61942224  0.49621690  0.71665983  1
  F  F27  1  0.88055896  0.49621301  0.21664678  1
  F  F28  1  0.83310524  0.78857519  0.93846971  1
  F  F29  1  0.83212478  0.19997709  0.93915142  1
  F  F30  1  0.94090713  0.99432543  0.19661084  1
  F  F31  1  0.91589428  0.49386413  0.50993396  1
