# generated using pymatgen
data_TiMn2Ni3(PO4)6
_symmetry_space_group_name_H-M   'P 1'
_cell_length_a   8.55608305
_cell_length_b   8.55608333
_cell_length_c   8.55608320
_cell_angle_alpha   60.85326736
_cell_angle_beta   60.85326451
_cell_angle_gamma   60.85326847
_symmetry_Int_Tables_number   1
_chemical_formula_structural   TiMn2Ni3(PO4)6
_chemical_formula_sum   'Ti1 Mn2 Ni3 P6 O24'
_cell_volume   451.42531992
_cell_formula_units_Z   1
loop_
 _symmetry_equiv_pos_site_id
 _symmetry_equiv_pos_as_xyz
  1  'x, y, z'
loop_
 _atom_site_type_symbol
 _atom_site_label
 _atom_site_symmetry_multiplicity
 _atom_site_fract_x
 _atom_site_fract_y
 _atom_site_fract_z
 _atom_site_occupancy
  Ti  Ti0  1  0.85441390  0.85441390  0.85441390  1
  Mn  Mn1  1  0.00038491  0.00038491  0.00038491  1
  Mn  Mn2  1  0.50109256  0.50109256  0.50109256  1
  Ni  Ni3  1  0.14335896  0.14335896  0.14335896  1
  Ni  Ni4  1  0.35869151  0.35869151  0.35869151  1
  Ni  Ni5  1  0.64348406  0.64348406  0.64348406  1
  P  P6  1  0.25095447  0.54339312  0.95497960  1
  P  P7  1  0.54339312  0.95497960  0.25095447  1
  P  P8  1  0.95497960  0.25095447  0.54339312  1
  P  P9  1  0.04636844  0.74955591  0.45417824  1
  P  P10  1  0.45417824  0.04636844  0.74955591  1
  P  P11  1  0.74955591  0.45417824  0.04636844  1
  O  O12  1  0.10837114  0.31368281  0.51212675  1
  O  O13  1  0.31368281  0.51212675  0.10837114  1
  O  O14  1  0.05817914  0.91030595  0.25909632  1
  O  O15  1  0.51212675  0.10837114  0.31368281  1
  O  O16  1  0.99004283  0.82140877  0.61627705  1
  O  O17  1  0.24405023  0.59687562  0.44684745  1
  O  O18  1  0.25909632  0.05817914  0.91030595  1
  O  O19  1  0.44684745  0.24405023  0.59687562  1
  O  O20  1  0.18252602  0.39156353  0.99150243  1
  O  O21  1  0.59687562  0.44684745  0.24405023  1
  O  O22  1  0.08982968  0.74416440  0.93262322  1
  O  O23  1  0.39156353  0.99150243  0.18252602  1
  O  O24  1  0.61627705  0.99004283  0.82140877  1
  O  O25  1  0.91030595  0.25909632  0.05817914  1
  O  O26  1  0.41075460  0.55757607  0.75660254  1
  O  O27  1  0.82140877  0.61627705  0.99004283  1
  O  O28  1  0.55757607  0.75660254  0.41075460  1
  O  O29  1  0.74416440  0.93262322  0.08982968  1
  O  O30  1  0.75660254  0.41075460  0.55757607  1
  O  O31  1  0.99150243  0.18252602  0.39156353  1
  O  O32  1  0.48949407  0.89677989  0.67846379  1
  O  O33  1  0.93262322  0.08982968  0.74416440  1
  O  O34  1  0.67846379  0.48949407  0.89677989  1
  O  O35  1  0.89677989  0.67846379  0.48949407  1
