# generated using pymatgen
data_Mn7Ni(PO4)12
_symmetry_space_group_name_H-M   'P 1'
_cell_length_a   8.49313444
_cell_length_b   8.49734011
_cell_length_c   11.84578571
_cell_angle_alpha   89.99774571
_cell_angle_beta   89.99622303
_cell_angle_gamma   90.01785743
_symmetry_Int_Tables_number   1
_chemical_formula_structural   Mn7Ni(PO4)12
_chemical_formula_sum   'Mn7 Ni1 P12 O48'
_cell_volume   854.89908026
_cell_formula_units_Z   1
loop_
 _symmetry_equiv_pos_site_id
 _symmetry_equiv_pos_as_xyz
  1  'x, y, z'
loop_
 _atom_site_type_symbol
 _atom_site_label
 _atom_site_symmetry_multiplicity
 _atom_site_fract_x
 _atom_site_fract_y
 _atom_site_fract_z
 _atom_site_occupancy
  Mn  Mn0  1  0.24973758  0.96550091  0.61774577  1
  Mn  Mn1  1  0.25062884  0.53447542  0.38172371  1
  Mn  Mn2  1  0.24966969  0.03493469  0.11772638  1
  Mn  Mn3  1  0.25017218  0.46482788  0.88281210  1
  Mn  Mn4  1  0.75016556  0.53467880  0.11773596  1
  Mn  Mn5  1  0.74962122  0.96538568  0.88241354  1
  Mn  Mn6  1  0.74957792  0.03505782  0.38160882  1
  Ni  Ni7  1  0.75007899  0.46406278  0.61740766  1
  P  P8  1  0.03678707  0.25088353  0.49940396  1
  P  P9  1  0.46305974  0.75009069  0.00008084  1
  P  P10  1  0.53688644  0.24993101  0.99995096  1
  P  P11  1  0.96264902  0.74939225  0.49967197  1
  P  P12  1  0.10729912  0.39192969  0.14536273  1
  P  P13  1  0.10714346  0.10810378  0.85488265  1
  P  P14  1  0.39291317  0.60700802  0.64536145  1
  P  P15  1  0.39240523  0.89212450  0.35452988  1
  P  P16  1  0.60823458  0.10734808  0.64588795  1
  P  P17  1  0.60773911  0.39098827  0.35456556  1
  P  P18  1  0.89317632  0.60772023  0.85434542  1
  P  P19  1  0.89263071  0.89188337  0.14522623  1
  O  O20  1  0.05917557  0.64108998  0.42273729  1
  O  O21  1  0.05946822  0.85926479  0.57592493  1
  O  O22  1  0.07435668  0.90103629  0.15863436  1
  O  O23  1  0.07489084  0.59952065  0.84179253  1
  O  O24  1  0.14907530  0.15939018  0.57939894  1
  O  O25  1  0.14636786  0.34099999  0.41750258  1
  O  O26  1  0.15920671  0.43839929  0.02664641  1
  O  O27  1  0.15944447  0.06123442  0.97323592  1
  O  O28  1  0.15345169  0.22244983  0.17606862  1
  O  O29  1  0.15385182  0.27759494  0.82420277  1
  O  O30  1  0.18017867  0.51358338  0.22758524  1
  O  O31  1  0.17901963  0.98715672  0.77177992  1
  O  O32  1  0.32053626  0.01355914  0.27199664  1
  O  O33  1  0.31920580  0.48618295  0.72752695  1
  O  O34  1  0.34528568  0.77704242  0.67635145  1
  O  O35  1  0.34653340  0.72244978  0.32371156  1
  O  O36  1  0.33924677  0.56170943  0.52701700  1
  O  O37  1  0.33983616  0.93818687  0.47313632  1
  O  O38  1  0.35347799  0.84103485  0.08132085  1
  O  O39  1  0.35335136  0.65915257  0.91873609  1
  O  O40  1  0.42622765  0.09706701  0.65830064  1
  O  O41  1  0.42532322  0.40054216  0.34062897  1
  O  O42  1  0.44068220  0.14086307  0.07663439  1
  O  O43  1  0.44085337  0.35970148  0.92343052  1
  O  O44  1  0.55930949  0.64069193  0.07646254  1
  O  O45  1  0.55918182  0.85935983  0.92328470  1
  O  O46  1  0.57255437  0.60446750  0.66034778  1
  O  O47  1  0.57430240  0.90100521  0.34200881  1
  O  O48  1  0.64708094  0.34077787  0.08077709  1
  O  O49  1  0.64611365  0.15879242  0.91852884  1
  O  O50  1  0.66047933  0.06276408  0.52667654  1
  O  O51  1  0.65537670  0.44169866  0.47109530  1
  O  O52  1  0.65368064  0.22162818  0.32280093  1
  O  O53  1  0.65290066  0.27404929  0.67954806  1
  O  O54  1  0.67692992  0.51301065  0.27044809  1
  O  O55  1  0.68018664  0.98492892  0.72790987  1
  O  O56  1  0.82057455  0.01339467  0.22777469  1
  O  O57  1  0.82084456  0.48479429  0.77513729  1
  O  O58  1  0.84649887  0.72224433  0.17625470  1
  O  O59  1  0.84786953  0.77762465  0.82422681  1
  O  O60  1  0.84136020  0.56252439  0.97361328  1
  O  O61  1  0.84011044  0.93848130  0.02683835  1
  O  O62  1  0.85343421  0.66360852  0.58258166  1
  O  O63  1  0.85397795  0.84084819  0.41807031  1
  O  O64  1  0.92546901  0.09896336  0.84161190  1
  O  O65  1  0.92565127  0.40127432  0.15894179  1
  O  O66  1  0.94060301  0.14102586  0.42292206  1
  O  O67  1  0.94588658  0.35650597  0.57939614  1
