# generated using pymatgen
data_SrLi4NiO4
_symmetry_space_group_name_H-M   'P 1'
_cell_length_a   9.59320645
_cell_length_b   5.16963787
_cell_length_c   17.87890213
_cell_angle_alpha   90.00000000
_cell_angle_beta   90.00000000
_cell_angle_gamma   90.00000000
_symmetry_Int_Tables_number   1
_chemical_formula_structural   SrLi4NiO4
_chemical_formula_sum   'Sr8 Li32 Ni8 O32'
_cell_volume   886.67560494
_cell_formula_units_Z   8
loop_
 _symmetry_equiv_pos_site_id
 _symmetry_equiv_pos_as_xyz
  1  'x, y, z'
loop_
 _atom_site_type_symbol
 _atom_site_label
 _atom_site_symmetry_multiplicity
 _atom_site_fract_x
 _atom_site_fract_y
 _atom_site_fract_z
 _atom_site_occupancy
  Sr  Sr0  1  0.12357425  0.76236667  0.51726049  1
  Sr  Sr1  1  0.12357425  0.73763333  0.01726049  1
  Sr  Sr2  1  0.37642575  0.26236667  0.51726049  1
  Sr  Sr3  1  0.37642575  0.23763333  0.01726049  1
  Sr  Sr4  1  0.62357425  0.76236667  0.98273951  1
  Sr  Sr5  1  0.62357425  0.73763333  0.48273951  1
  Sr  Sr6  1  0.87642575  0.23763333  0.48273951  1
  Sr  Sr7  1  0.87642575  0.26236667  0.98273951  1
  Li  Li8  1  0.14743087  0.30788657  0.40787793  1
  Li  Li9  1  0.14743087  0.19211343  0.90787793  1
  Li  Li10  1  0.04593440  0.40683978  0.28286806  1
  Li  Li11  1  0.04593440  0.09316022  0.78286806  1
  Li  Li12  1  0.17026828  0.99240024  0.31904651  1
  Li  Li13  1  0.17026828  0.50759976  0.81904651  1
  Li  Li14  1  0.18786182  0.77322120  0.19015169  1
  Li  Li15  1  0.18786182  0.72677880  0.69015169  1
  Li  Li16  1  0.31213818  0.27322120  0.19015169  1
  Li  Li17  1  0.31213818  0.22677880  0.69015169  1
  Li  Li18  1  0.32973172  0.49240024  0.31904651  1
  Li  Li19  1  0.32973172  0.00759976  0.81904651  1
  Li  Li20  1  0.45406560  0.90683978  0.28286806  1
  Li  Li21  1  0.45406560  0.59316022  0.78286806  1
  Li  Li22  1  0.35256913  0.69211343  0.90787793  1
  Li  Li23  1  0.35256913  0.80788657  0.40787793  1
  Li  Li24  1  0.64743087  0.30788657  0.09212207  1
  Li  Li25  1  0.64743087  0.19211343  0.59212207  1
  Li  Li26  1  0.54593440  0.40683978  0.21713194  1
  Li  Li27  1  0.54593440  0.09316022  0.71713194  1
  Li  Li28  1  0.67026828  0.99240024  0.18095349  1
  Li  Li29  1  0.67026828  0.50759976  0.68095349  1
  Li  Li30  1  0.68786182  0.72677880  0.80984831  1
  Li  Li31  1  0.68786182  0.77322120  0.30984831  1
  Li  Li32  1  0.81213818  0.27322120  0.30984831  1
  Li  Li33  1  0.81213818  0.22677880  0.80984831  1
  Li  Li34  1  0.82973172  0.00759976  0.68095349  1
  Li  Li35  1  0.82973172  0.49240024  0.18095349  1
  Li  Li36  1  0.95406560  0.59316022  0.71713194  1
  Li  Li37  1  0.95406560  0.90683978  0.21713194  1
  Li  Li38  1  0.85256913  0.69211343  0.59212207  1
  Li  Li39  1  0.85256913  0.80788657  0.09212207  1
  Ni  Ni40  1  0.04621669  0.26584558  0.12789018  1
  Ni  Ni41  1  0.04621669  0.23415442  0.62789018  1
  Ni  Ni42  1  0.45378331  0.76584558  0.12789018  1
  Ni  Ni43  1  0.45378331  0.73415442  0.62789018  1
  Ni  Ni44  1  0.54621669  0.26584558  0.37210982  1
  Ni  Ni45  1  0.54621669  0.23415442  0.87210982  1
  Ni  Ni46  1  0.95378331  0.76584558  0.37210982  1
  Ni  Ni47  1  0.95378331  0.73415442  0.87210982  1
  O  O48  1  0.01921940  0.64508283  0.14030107  1
  O  O49  1  0.01921940  0.85491717  0.64030107  1
  O  O50  1  0.12185321  0.23740871  0.02131686  1
  O  O51  1  0.12185321  0.26259129  0.52131686  1
  O  O52  1  0.13621778  0.12283327  0.21708194  1
  O  O53  1  0.13621778  0.37716673  0.71708194  1
  O  O54  1  0.15850913  0.65334223  0.36910983  1
  O  O55  1  0.15850913  0.84665777  0.86910983  1
  O  O56  1  0.34149087  0.15334223  0.36910983  1
  O  O57  1  0.34149087  0.34665777  0.86910983  1
  O  O58  1  0.36378222  0.62283327  0.21708194  1
  O  O59  1  0.36378222  0.87716673  0.71708194  1
  O  O60  1  0.37814679  0.76259129  0.52131686  1
  O  O61  1  0.37814679  0.73740871  0.02131686  1
  O  O62  1  0.48078060  0.14508283  0.14030107  1
  O  O63  1  0.48078060  0.35491717  0.64030107  1
  O  O64  1  0.51921940  0.64508283  0.35969893  1
  O  O65  1  0.51921940  0.85491717  0.85969893  1
  O  O66  1  0.62185321  0.26259129  0.97868314  1
  O  O67  1  0.62185321  0.23740871  0.47868314  1
  O  O68  1  0.63621778  0.12283327  0.28291806  1
  O  O69  1  0.63621778  0.37716673  0.78291806  1
  O  O70  1  0.65850913  0.65334223  0.13089017  1
  O  O71  1  0.65850913  0.84665777  0.63089017  1
  O  O72  1  0.84149087  0.34665777  0.63089017  1
  O  O73  1  0.84149087  0.15334223  0.13089017  1
  O  O74  1  0.86378222  0.62283327  0.28291806  1
  O  O75  1  0.86378222  0.87716673  0.78291806  1
  O  O76  1  0.87814679  0.73740871  0.47868314  1
  O  O77  1  0.87814679  0.76259129  0.97868314  1
  O  O78  1  0.98078060  0.14508283  0.35969893  1
  O  O79  1  0.98078060  0.35491717  0.85969893  1
