# generated using pymatgen
data_Li4Nb3Co3(SnO8)2
_symmetry_space_group_name_H-M   'P 1'
_cell_length_a   6.09664097
_cell_length_b   6.13545683
_cell_length_c   10.03239602
_cell_angle_alpha   90.00393283
_cell_angle_beta   89.55649417
_cell_angle_gamma   120.21653628
_symmetry_Int_Tables_number   1
_chemical_formula_structural   Li4Nb3Co3(SnO8)2
_chemical_formula_sum   'Li4 Nb3 Co3 Sn2 O16'
_cell_volume   324.26777976
_cell_formula_units_Z   1
loop_
 _symmetry_equiv_pos_site_id
 _symmetry_equiv_pos_as_xyz
  1  'x, y, z'
loop_
 _atom_site_type_symbol
 _atom_site_label
 _atom_site_symmetry_multiplicity
 _atom_site_fract_x
 _atom_site_fract_y
 _atom_site_fract_z
 _atom_site_occupancy
  Li  Li0  1  0.33629028  0.66801700  0.90555940  1
  Li  Li1  1  0.00029319  0.00021437  0.99719945  1
  Li  Li2  1  0.04319255  0.02169814  0.48513925  1
  Li  Li3  1  0.67102665  0.33552904  0.38518841  1
  Nb  Nb4  1  0.65224451  0.82604404  0.22081965  1
  Nb  Nb5  1  0.81525619  0.65369320  0.71264466  1
  Nb  Nb6  1  0.81534025  0.16154333  0.71267166  1
  Co  Co7  1  0.17103400  0.82668978  0.21131777  1
  Co  Co8  1  0.17103276  0.34441403  0.21130129  1
  Co  Co9  1  0.38179138  0.19098888  0.71124666  1
  Sn  Sn10  1  0.29662868  0.64843091  0.48269516  1
  Sn  Sn11  1  0.64541724  0.32263127  0.00594926  1
  O  O12  1  0.14981036  0.82884916  0.60154975  1
  O  O13  1  0.02943123  0.51474266  0.33750769  1
  O  O14  1  0.35669265  0.67814283  0.09934476  1
  O  O15  1  0.98802137  0.99416401  0.30459599  1
  O  O16  1  0.98710568  0.99357317  0.80527152  1
  O  O17  1  0.14985640  0.32122528  0.60158851  1
  O  O18  1  0.49541193  0.96461979  0.35047405  1
  O  O19  1  0.49563849  0.53108331  0.35067264  1
  O  O20  1  0.30884816  0.15439130  0.09628001  1
  O  O21  1  0.65246377  0.82627661  0.60645936  1
  O  O22  1  0.53723650  0.49662502  0.84828043  1
  O  O23  1  0.53718065  0.04050333  0.84821447  1
  O  O24  1  0.70604203  0.35297976  0.58950404  1
  O  O25  1  0.82077401  0.66724639  0.09923051  1
  O  O26  1  0.96526305  0.48267000  0.82805580  1
  O  O27  1  0.82067405  0.15331238  0.09907486  1
