# generated using pymatgen
data_LiNiBO3
_symmetry_space_group_name_H-M   'P 1'
_cell_length_a   14.08339205
_cell_length_b   14.08597883
_cell_length_c   3.12522910
_cell_angle_alpha   89.49982498
_cell_angle_beta   90.69824321
_cell_angle_gamma   119.92892734
_symmetry_Int_Tables_number   1
_chemical_formula_structural   LiNiBO3
_chemical_formula_sum   'Li9 Ni9 B9 O27'
_cell_volume   537.25825571
_cell_formula_units_Z   9
loop_
 _symmetry_equiv_pos_site_id
 _symmetry_equiv_pos_as_xyz
  1  'x, y, z'
loop_
 _atom_site_type_symbol
 _atom_site_label
 _atom_site_symmetry_multiplicity
 _atom_site_fract_x
 _atom_site_fract_y
 _atom_site_fract_z
 _atom_site_occupancy
  Li  Li0  1  0.09825398  0.87373905  0.50600713  1
  Li  Li1  1  0.10779757  0.56449813  0.48747767  1
  Li  Li2  1  0.45570798  0.89171040  0.55316066  1
  Li  Li3  1  0.12821158  0.22763997  0.52043587  1
  Li  Li4  1  0.43574070  0.54419419  0.45368528  1
  Li  Li5  1  0.44144162  0.24639566  0.50559340  1
  Li  Li6  1  0.77361578  0.90166704  0.47899070  1
  Li  Li7  1  0.80461733  0.55768370  0.47623129  1
  Li  Li8  1  0.75260347  0.19441226  0.51073307  1
  Ni  Ni9  1  0.25017082  0.79838454  0.06037089  1
  Ni  Ni10  1  0.20022584  0.45174032  0.00054394  1
  Ni  Ni11  1  0.21292226  0.09561668  0.99619830  1
  Ni  Ni12  1  0.54787535  0.74964861  0.95082309  1
  Ni  Ni13  1  0.58117993  0.46268445  0.95390309  1
  Ni  Ni14  1  0.53599298  0.11740849  0.04843165  1
  Ni  Ni15  1  0.88146247  0.78668304  0.96763669  1
  Ni  Ni16  1  0.88227459  0.41945171  0.99629590  1
  Ni  Ni17  1  0.90461291  0.11776317  0.03179231  1
  B  B18  1  0.00457821  0.66435745  0.01173097  1
  B  B19  1  0.33305449  0.66682510  0.99919467  1
  B  B20  1  0.33558599  0.34105006  0.00178406  1
  B  B21  1  0.65860221  0.99466358  0.99539183  1
  B  B22  1  0.33091527  0.00755256  0.53490838  1
  B  B23  1  0.67556559  0.66813071  0.45403466  1
  B  B24  1  0.66580208  0.33248354  0.98759939  1
  B  B25  1  0.99970703  0.99995589  0.00616131  1
  B  B26  1  0.99151785  0.32350674  0.51473147  1
  O  O27  1  0.02938528  0.91978024  0.00838711  1
  O  O28  1  0.00827701  0.56793283  0.97838962  1
  O  O29  1  0.09937174  0.76289106  0.10459195  1
  O  O30  1  0.31601749  0.90335810  0.56188977  1
  O  O31  1  0.09543855  0.41324401  0.49917747  1
  O  O32  1  0.22058576  0.60308889  0.99639215  1
  O  O33  1  0.38155725  0.77809693  0.06261567  1
  O  O34  1  0.07933875  0.10927856  0.04496775  1
  O  O35  1  0.55882732  0.99114251  0.03673578  1
  O  O36  1  0.23613710  0.33706647  0.07785433  1
  O  O37  1  0.39655401  0.61901412  0.93848976  1
  O  O38  1  0.66207490  0.90031467  0.89007847  1
  O  O39  1  0.33747491  0.24387972  0.96841351  1
  O  O40  1  0.43196988  0.44074517  0.96359826  1
  O  O41  1  0.24139208  0.02271813  0.49704577  1
  O  O42  1  0.58591533  0.68279326  0.45225361  1
  O  O43  1  0.66071609  0.56335780  0.45140210  1
  O  O44  1  0.43569385  0.09727781  0.54523370  1
  O  O45  1  0.89036911  0.97071607  0.96435829  1
  O  O46  1  0.78011588  0.75814180  0.46244476  1
  O  O47  1  0.56146171  0.31587155  0.05376905  1
  O  O48  1  0.68224055  0.24386783  0.95546536  1
  O  O49  1  0.75355300  0.43834520  0.95463831  1
  O  O50  1  0.90541206  0.66195090  0.96043371  1
  O  O51  1  0.75570509  0.09276659  0.05259751  1
  O  O52  1  0.90144963  0.33826332  0.50593330  1
  O  O53  1  0.97739979  0.21916446  0.53481328  1
