# generated using pymatgen
data_Li4Ti3Co2Sn3O16
_symmetry_space_group_name_H-M   'P 1'
_cell_length_a   6.14503085
_cell_length_b   6.11600602
_cell_length_c   9.82525124
_cell_angle_alpha   89.99992084
_cell_angle_beta   89.45766176
_cell_angle_gamma   119.84467842
_symmetry_Int_Tables_number   1
_chemical_formula_structural   Li4Ti3Co2Sn3O16
_chemical_formula_sum   'Li4 Ti3 Co2 Sn3 O16'
_cell_volume   320.27128496
_cell_formula_units_Z   1
loop_
 _symmetry_equiv_pos_site_id
 _symmetry_equiv_pos_as_xyz
  1  'x, y, z'
loop_
 _atom_site_type_symbol
 _atom_site_label
 _atom_site_symmetry_multiplicity
 _atom_site_fract_x
 _atom_site_fract_y
 _atom_site_fract_z
 _atom_site_occupancy
  Li  Li0  1  0.33671308  0.66836371  0.88595789  1
  Li  Li1  1  0.98326390  0.99164335  0.99631249  1
  Li  Li2  1  0.98717800  0.99359872  0.50143985  1
  Li  Li3  1  0.66983212  0.33493192  0.39063529  1
  Ti  Ti4  1  0.66060050  0.83030695  0.21681100  1
  Ti  Ti5  1  0.82987968  0.16864496  0.71605126  1
  Ti  Ti6  1  0.83000819  0.66114277  0.71612168  1
  Co  Co7  1  0.33645665  0.66823809  0.49766546  1
  Co  Co8  1  0.67266711  0.33635310  0.99275252  1
  Sn  Sn9  1  0.16999739  0.83111275  0.21451085  1
  Sn  Sn10  1  0.16997334  0.33891006  0.21450655  1
  Sn  Sn11  1  0.33999242  0.17000621  0.71304836  1
  O  O12  1  0.15044297  0.83442589  0.60305663  1
  O  O13  1  0.03335360  0.51669348  0.33863730  1
  O  O14  1  0.34924179  0.67463689  0.09734442  1
  O  O15  1  0.98763159  0.99382814  0.31873370  1
  O  O16  1  0.98793665  0.99397861  0.81389189  1
  O  O17  1  0.15044457  0.31604946  0.60306159  1
  O  O18  1  0.49389032  0.96600747  0.33376210  1
  O  O19  1  0.49387581  0.52790147  0.33376159  1
  O  O20  1  0.31419031  0.15711279  0.09574724  1
  O  O21  1  0.68438378  0.84226066  0.61176191  1
  O  O22  1  0.52868651  0.49214301  0.83236967  1
  O  O23  1  0.52870287  0.03658453  0.83237275  1
  O  O24  1  0.68729762  0.34366552  0.60224037  1
  O  O25  1  0.83112057  0.68152960  0.10454413  1
  O  O26  1  0.96112507  0.48061777  0.82620459  1
  O  O27  1  0.83111560  0.14961211  0.10453795  1
