# generated using pymatgen
data_Li4Ti4Co5O18
_symmetry_space_group_name_H-M   'P 1'
_cell_length_a   8.98451525
_cell_length_b   24.75377020
_cell_length_c   2.88716897
_cell_angle_alpha   89.99998279
_cell_angle_beta   90.00002701
_cell_angle_gamma   89.99485115
_symmetry_Int_Tables_number   1
_chemical_formula_structural   Li4Ti4Co5O18
_chemical_formula_sum   'Li8 Ti8 Co10 O36'
_cell_volume   642.10818310
_cell_formula_units_Z   2
loop_
 _symmetry_equiv_pos_site_id
 _symmetry_equiv_pos_as_xyz
  1  'x, y, z'
loop_
 _atom_site_type_symbol
 _atom_site_label
 _atom_site_symmetry_multiplicity
 _atom_site_fract_x
 _atom_site_fract_y
 _atom_site_fract_z
 _atom_site_occupancy
  Li  Li0  1  0.18995385  0.99023512  0.99999966  1
  Li  Li1  1  0.20105829  0.19667734  0.00000079  1
  Li  Li2  1  0.29839347  0.69718235  0.00000017  1
  Li  Li3  1  0.30550309  0.49170963  0.00000111  1
  Li  Li4  1  0.69308155  0.50995677  0.00000002  1
  Li  Li5  1  0.69938795  0.30196765  0.00000011  1
  Li  Li6  1  0.79900060  0.80287581  0.99999980  1
  Li  Li7  1  0.80979765  0.00902767  0.99999908  1
  Ti  Ti8  1  0.01434004  0.10218644  0.00000103  1
  Ti  Ti9  1  0.15511415  0.80647327  0.50000085  1
  Ti  Ti10  1  0.34627868  0.30654858  0.49999909  1
  Ti  Ti11  1  0.48684961  0.60230709  0.99999949  1
  Ti  Ti12  1  0.51437448  0.39805511  0.00000026  1
  Ti  Ti13  1  0.65481843  0.69364722  0.49999994  1
  Ti  Ti14  1  0.84502513  0.19380633  0.50000074  1
  Ti  Ti15  1  0.98571239  0.89785167  -0.00000001  1
  Co  Co16  1  0.00023783  0.50004083  0.00000069  1
  Co  Co17  1  0.00542803  0.31383874  0.99999975  1
  Co  Co18  1  0.13802065  0.58359060  0.50000088  1
  Co  Co19  1  0.36169442  0.08356813  0.49999888  1
  Co  Co20  1  0.49491846  0.81398857  0.00000079  1
  Co  Co21  1  0.49999567  0.00002334  0.99999886  1
  Co  Co22  1  0.50548938  0.18582768  0.99999851  1
  Co  Co23  1  0.63849183  0.91644982  0.49999953  1
  Co  Co24  1  0.86183203  0.41633449  0.50000018  1
  Co  Co25  1  0.99520837  0.68633699  0.00000059  1
  O  O26  1  0.99450138  0.42445753  0.00000018  1
  O  O27  1  0.00509096  0.57523219  0.00000076  1
  O  O28  1  0.04641329  0.94326511  0.50000037  1
  O  O29  1  0.05375943  0.16128087  0.50000044  1
  O  O30  1  0.11596221  0.65964771  0.50000085  1
  O  O31  1  0.12163250  0.75506977  0.00000104  1
  O  O32  1  0.14235761  0.50635671  0.50000123  1
  O  O33  1  0.12764664  0.29119148  0.49999967  1
  O  O34  1  0.18320040  0.85837261  0.00000108  1
  O  O35  1  0.21843167  0.08366275  0.99999893  1
  O  O36  1  0.28166498  0.58416571  0.00000118  1
  O  O37  1  0.31631189  0.35823288  0.99999909  1
  O  O38  1  0.37054783  0.79122498  0.50000076  1
  O  O39  1  0.35737069  0.00560766  0.49999876  1
  O  O40  1  0.37882779  0.25520580  0.99999935  1
  O  O41  1  0.38409199  0.15925223  0.49999847  1
  O  O42  1  0.44627211  0.66138642  0.50000016  1
  O  O43  1  0.45451240  0.44303187  0.49999950  1
  O  O44  1  0.49807834  0.07503947  0.99999897  1
  O  O45  1  0.50221932  0.92505373  0.99999913  1
  O  O46  1  0.54663123  0.55688533  0.50000031  1
  O  O47  1  0.55373756  0.33816976  0.49999888  1
  O  O48  1  0.61589881  0.84075731  0.50000061  1
  O  O49  1  0.62199468  0.74487232  0.99999990  1
  O  O50  1  0.64265152  0.99436041  0.49999882  1
  O  O51  1  0.62935335  0.20889600  0.49999894  1
  O  O52  1  0.68340219  0.64152262  0.00000032  1
  O  O53  1  0.71827149  0.41575069  0.99999992  1
  O  O54  1  0.78170394  0.91634123  0.99999959  1
  O  O55  1  0.81653156  0.14174474  0.00000030  1
  O  O56  1  0.87027127  0.70864416  0.50000048  1
  O  O57  1  0.85783505  0.49373304  0.49999985  1
  O  O58  1  0.87769283  0.24514678  0.00000001  1
  O  O59  1  0.88572061  0.34032003  0.49999993  1
  O  O60  1  0.94609214  0.83877387  0.50000062  1
  O  O61  1  0.95331233  0.05683697  0.50000079  1
