# generated using pymatgen
data_LiV4O5F7
_symmetry_space_group_name_H-M   'P 1'
_cell_length_a   5.20734446
_cell_length_b   5.41805285
_cell_length_c   7.49524399
_cell_angle_alpha   86.62166327
_cell_angle_beta   89.82631165
_cell_angle_gamma   89.48907498
_symmetry_Int_Tables_number   1
_chemical_formula_structural   LiV4O5F7
_chemical_formula_sum   'Li1 V4 O5 F7'
_cell_volume   211.09176946
_cell_formula_units_Z   1
loop_
 _symmetry_equiv_pos_site_id
 _symmetry_equiv_pos_as_xyz
  1  'x, y, z'
loop_
 _atom_site_type_symbol
 _atom_site_label
 _atom_site_symmetry_multiplicity
 _atom_site_fract_x
 _atom_site_fract_y
 _atom_site_fract_z
 _atom_site_occupancy
  Li  Li0  1  0.00303262  0.55756242  0.26909776  1
  V  V1  1  0.02491872  0.96477269  0.49457796  1
  V  V2  1  0.02695639  0.04316603  0.00481527  1
  V  V3  1  0.52191612  0.52005705  0.00206816  1
  V  V4  1  0.51974102  0.47918431  0.49965263  1
  O  O5  1  0.07306777  0.99085916  0.24988526  1
  O  O6  1  0.20677455  0.29995795  0.96238911  1
  O  O7  1  0.20332275  0.69862244  0.53739385  1
  O  O8  1  0.78211975  0.68276188  0.05689477  1
  O  O9  1  0.78591456  0.31641335  0.44398104  1
  F  F10  1  0.29411185  0.20092224  0.55319894  1
  F  F11  1  0.28957488  0.79580421  0.94566478  1
  F  F12  1  0.37197844  0.49948049  0.25061068  1
  F  F13  1  0.60161763  0.50044981  0.75021931  1
  F  F14  1  0.69269876  0.19782946  0.05061778  1
  F  F15  1  0.69612806  0.79809101  0.44773743  1
  F  F16  1  0.90709713  0.00211351  0.75054326  1
