# generated using pymatgen
data_BaLi2NiO3
_symmetry_space_group_name_H-M   'P 1'
_cell_length_a   10.71134401
_cell_length_b   13.75532410
_cell_length_c   5.43754326
_cell_angle_alpha   90.00000000
_cell_angle_beta   99.42437518
_cell_angle_gamma   90.00000000
_symmetry_Int_Tables_number   1
_chemical_formula_structural   BaLi2NiO3
_chemical_formula_sum   'Ba8 Li16 Ni8 O24'
_cell_volume   790.34325240
_cell_formula_units_Z   8
loop_
 _symmetry_equiv_pos_site_id
 _symmetry_equiv_pos_as_xyz
  1  'x, y, z'
loop_
 _atom_site_type_symbol
 _atom_site_label
 _atom_site_symmetry_multiplicity
 _atom_site_fract_x
 _atom_site_fract_y
 _atom_site_fract_z
 _atom_site_occupancy
  Ba  Ba0  1  0.07439601  0.60645458  0.76656281  1
  Ba  Ba1  1  0.17828051  0.80023507  0.22599257  1
  Ba  Ba2  1  0.32171949  0.30023507  0.27400743  1
  Ba  Ba3  1  0.42560399  0.10645458  0.73343719  1
  Ba  Ba4  1  0.57439601  0.89354542  0.26656281  1
  Ba  Ba5  1  0.67828051  0.69976493  0.72599257  1
  Ba  Ba6  1  0.82171949  0.19976493  0.77400743  1
  Ba  Ba7  1  0.92560399  0.39354542  0.23343719  1
  Li  Li8  1  0.08943799  0.33227050  0.83846031  1
  Li  Li9  1  0.01960249  0.00838927  0.25249447  1
  Li  Li10  1  0.12439794  0.14260131  0.89647442  1
  Li  Li11  1  0.18332268  0.93626403  0.68904971  1
  Li  Li12  1  0.31667732  0.43626403  0.81095029  1
  Li  Li13  1  0.37560206  0.64260131  0.60352558  1
  Li  Li14  1  0.41056201  0.83227050  0.66153969  1
  Li  Li15  1  0.51960249  0.49161073  0.75249447  1
  Li  Li16  1  0.48039751  0.50838927  0.24750553  1
  Li  Li17  1  0.58943799  0.16772950  0.33846031  1
  Li  Li18  1  0.62439794  0.35739869  0.39647442  1
  Li  Li19  1  0.68332268  0.56373597  0.18904971  1
  Li  Li20  1  0.81667732  0.06373597  0.31095029  1
  Li  Li21  1  0.87560206  0.85739869  0.10352558  1
  Li  Li22  1  0.98039751  0.99161073  0.74750553  1
  Li  Li23  1  0.91056201  0.66772950  0.16153969  1
  Ni  Ni24  1  0.08267827  0.19131463  0.42703690  1
  Ni  Ni25  1  0.21127838  0.52363027  0.27983709  1
  Ni  Ni26  1  0.28872162  0.02363027  0.22016291  1
  Ni  Ni27  1  0.41732173  0.69131463  0.07296310  1
  Ni  Ni28  1  0.58267827  0.30868537  0.92703690  1
  Ni  Ni29  1  0.71127838  0.97636973  0.77983709  1
  Ni  Ni30  1  0.78872162  0.47636973  0.72016291  1
  Ni  Ni31  1  0.91732173  0.80868537  0.57296310  1
  O  O32  1  0.02808291  0.89685355  0.47429783  1
  O  O33  1  0.05947764  0.23989795  0.10646445  1
  O  O34  1  0.21035217  0.23537624  0.68106733  1
  O  O35  1  0.08926018  0.61785216  0.29325193  1
  O  O36  1  0.14554798  0.00070444  0.98697436  1
  O  O37  1  0.18070380  0.44564461  0.99784661  1
  O  O38  1  0.28964783  0.73537624  0.81893267  1
  O  O39  1  0.31929620  0.94564461  0.50215339  1
  O  O40  1  0.35445202  0.50070444  0.51302564  1
  O  O41  1  0.41073982  0.11785216  0.20674807  1
  O  O42  1  0.52808291  0.60314645  0.97429783  1
  O  O43  1  0.44052236  0.73989795  0.39353555  1
  O  O44  1  0.55947764  0.26010205  0.60646445  1
  O  O45  1  0.47191709  0.39685355  0.02570217  1
  O  O46  1  0.58926018  0.88214784  0.79325193  1
  O  O47  1  0.64554798  0.49929556  0.48697436  1
  O  O48  1  0.68070380  0.05435539  0.49784661  1
  O  O49  1  0.71035217  0.26462376  0.18106733  1
  O  O50  1  0.81929620  0.55435539  0.00215339  1
  O  O51  1  0.85445202  0.99929556  0.01302564  1
  O  O52  1  0.91073982  0.38214784  0.70674807  1
  O  O53  1  0.78964783  0.76462376  0.31893267  1
  O  O54  1  0.94052236  0.76010205  0.89353555  1
  O  O55  1  0.97191709  0.10314645  0.52570217  1
