# generated using pymatgen
data_Li9Y(NiO4)2
_symmetry_space_group_name_H-M   'P 1'
_cell_length_a   16.17257172
_cell_length_b   6.50581109
_cell_length_c   7.71254290
_cell_angle_alpha   89.99900167
_cell_angle_beta   90.03693013
_cell_angle_gamma   90.00580682
_symmetry_Int_Tables_number   1
_chemical_formula_structural   Li9Y(NiO4)2
_chemical_formula_sum   'Li36 Y4 Ni8 O32'
_cell_volume   811.48039921
_cell_formula_units_Z   4
loop_
 _symmetry_equiv_pos_site_id
 _symmetry_equiv_pos_as_xyz
  1  'x, y, z'
loop_
 _atom_site_type_symbol
 _atom_site_label
 _atom_site_symmetry_multiplicity
 _atom_site_fract_x
 _atom_site_fract_y
 _atom_site_fract_z
 _atom_site_occupancy
  Li  Li0  1  0.06952597  0.50008658  0.54029323  1
  Li  Li1  1  0.06952734  0.99992902  0.54028339  1
  Li  Li2  1  0.14635465  0.24999254  0.36207883  1
  Li  Li3  1  0.12708122  0.49909119  0.12952680  1
  Li  Li4  1  0.12708161  0.00094576  0.12952524  1
  Li  Li5  1  0.14648398  0.75001501  0.34969883  1
  Li  Li6  1  0.19638185  0.24997251  0.83140026  1
  Li  Li7  1  0.21080829  0.00918574  0.58241608  1
  Li  Li8  1  0.21082122  0.49077318  0.58237295  1
  Li  Li9  1  0.28923350  0.50925123  0.08222989  1
  Li  Li10  1  0.28922232  0.99074190  0.08222085  1
  Li  Li11  1  0.30360933  0.75001498  0.33140019  1
  Li  Li12  1  0.35339575  0.24999859  0.84970125  1
  Li  Li13  1  0.37303786  0.50095682  0.62945115  1
  Li  Li14  1  0.37302939  0.99902313  0.62944847  1
  Li  Li15  1  0.35367471  0.75001787  0.86190430  1
  Li  Li16  1  0.43054843  0.00004958  0.03993577  1
  Li  Li17  1  0.43054790  0.49994348  0.03991100  1
  Li  Li18  1  0.56944790  0.50013125  0.95969143  1
  Li  Li19  1  0.56944486  0.99987109  0.95970413  1
  Li  Li20  1  0.64615542  0.24999960  0.13793997  1
  Li  Li21  1  0.62699418  0.00090374  0.37034736  1
  Li  Li22  1  0.62699421  0.49910709  0.37034578  1
  Li  Li23  1  0.64644570  0.75000768  0.15033659  1
  Li  Li24  1  0.69634605  0.24999339  0.66834709  1
  Li  Li25  1  0.71081183  0.00935243  0.91751622  1
  Li  Li26  1  0.71081488  0.49064083  0.91753797  1
  Li  Li27  1  0.78914940  0.50955765  0.41790908  1
  Li  Li28  1  0.78914738  0.99045486  0.41790947  1
  Li  Li29  1  0.80358277  0.75001064  0.16852645  1
  Li  Li30  1  0.85347611  0.24999971  0.64996183  1
  Li  Li31  1  0.87299367  0.50086774  0.87066719  1
  Li  Li32  1  0.87298899  0.99912926  0.87066693  1
  Li  Li33  1  0.85362550  0.75001541  0.63820037  1
  Li  Li34  1  0.93052001  0.99991573  0.45995932  1
  Li  Li35  1  0.93052041  0.50009656  0.45996659  1
  Y  Y36  1  0.02118686  0.75000250  0.82537238  1
  Y  Y37  1  0.47862110  0.24997533  0.32484572  1
  Y  Y38  1  0.52136972  0.75001444  0.67448013  1
  Y  Y39  1  0.97867631  0.24999879  0.17517004  1
  Ni  Ni40  1  0.03389806  0.24990293  0.77892396  1
  Ni  Ni41  1  0.20377330  0.74998318  0.83072474  1
  Ni  Ni42  1  0.29598850  0.25001276  0.33042392  1
  Ni  Ni43  1  0.46645462  0.75010728  0.27857265  1
  Ni  Ni44  1  0.53368373  0.24999004  0.72060477  1
  Ni  Ni45  1  0.70388944  0.74998207  0.66958326  1
  Ni  Ni46  1  0.79591225  0.25005077  0.16976444  1
  Ni  Ni47  1  0.96649493  0.74994714  0.22114510  1
  O  O48  1  0.03223781  0.51196577  0.30822772  1
  O  O49  1  0.03223701  0.98806844  0.30823101  1
  O  O50  1  0.09366564  0.25001176  0.00310956  1
  O  O51  1  0.13147261  0.24999757  0.61039281  1
  O  O52  1  0.13112014  0.75001016  0.61711181  1
  O  O53  1  0.12066238  0.75002965  0.01378312  1
  O  O54  1  0.22183044  0.00650649  0.30778240  1
  O  O55  1  0.22183064  0.49349885  0.30777350  1
  O  O56  1  0.27818150  0.50671134  0.80790205  1
  O  O57  1  0.27817203  0.99326515  0.80792690  1
  O  O58  1  0.37926899  0.24999129  0.51347103  1
  O  O59  1  0.36877054  0.24999549  0.11681157  1
  O  O60  1  0.36844379  0.74999094  0.11024528  1
  O  O61  1  0.40642014  0.75000513  0.50270721  1
  O  O62  1  0.46794392  0.01200572  0.80802775  1
  O  O63  1  0.46796028  0.48798057  0.80801228  1
  O  O64  1  0.53214714  0.51175980  0.19168695  1
  O  O65  1  0.53214068  0.98820188  0.19169212  1
  O  O66  1  0.59358224  0.24999857  0.49689141  1
  O  O67  1  0.63162445  0.25000474  0.88960499  1
  O  O68  1  0.63117169  0.75000885  0.88312580  1
  O  O69  1  0.62070245  0.75000298  0.48622821  1
  O  O70  1  0.72186780  0.00643476  0.19245994  1
  O  O71  1  0.72186950  0.49357395  0.19246856  1
  O  O72  1  0.77818702  0.50670378  0.69223614  1
  O  O73  1  0.77817717  0.99327157  0.69222576  1
  O  O74  1  0.87925861  0.24999530  0.98689310  1
  O  O75  1  0.86869777  0.25000280  0.38320075  1
  O  O76  1  0.86852542  0.75000475  0.38985811  1
  O  O77  1  0.90631338  0.75000464  0.99713112  1
  O  O78  1  0.96786701  0.01202214  0.69190986  1
  O  O79  1  0.96787633  0.48796414  0.69192781  1
