# generated using pymatgen
data_TiNi3Sn2(PO4)6
_symmetry_space_group_name_H-M   'P 1'
_cell_length_a   8.48580752
_cell_length_b   8.48580748
_cell_length_c   8.48580701
_cell_angle_alpha   61.44246634
_cell_angle_beta   61.44246338
_cell_angle_gamma   61.44246199
_symmetry_Int_Tables_number   1
_chemical_formula_structural   TiNi3Sn2(PO4)6
_chemical_formula_sum   'Ti1 Ni3 Sn2 P6 O24'
_cell_volume   446.07656380
_cell_formula_units_Z   1
loop_
 _symmetry_equiv_pos_site_id
 _symmetry_equiv_pos_as_xyz
  1  'x, y, z'
loop_
 _atom_site_type_symbol
 _atom_site_label
 _atom_site_symmetry_multiplicity
 _atom_site_fract_x
 _atom_site_fract_y
 _atom_site_fract_z
 _atom_site_occupancy
  Ti  Ti0  1  0.85079385  0.85079385  0.85079385  1
  Ni  Ni1  1  0.14925310  0.14925310  0.14925310  1
  Ni  Ni2  1  0.35238081  0.35238081  0.35238081  1
  Ni  Ni3  1  0.64595107  0.64595107  0.64595107  1
  Sn  Sn4  1  0.00235497  0.00235497  0.00235497  1
  Sn  Sn5  1  0.50175290  0.50175290  0.50175290  1
  P  P6  1  0.04514178  0.74752392  0.45217306  1
  P  P7  1  0.45217306  0.04514178  0.74752392  1
  P  P8  1  0.25037904  0.54367180  0.95563032  1
  P  P9  1  0.54367180  0.95563032  0.25037904  1
  P  P10  1  0.95563032  0.25037904  0.54367180  1
  P  P11  1  0.74752392  0.45217306  0.04514178  1
  O  O12  1  0.10376771  0.31682335  0.51750312  1
  O  O13  1  0.31682335  0.51750312  0.10376771  1
  O  O14  1  0.06766096  0.90479709  0.25127258  1
  O  O15  1  0.51750312  0.10376771  0.31682335  1
  O  O16  1  0.99330759  0.82348641  0.61228999  1
  O  O17  1  0.24787811  0.59738184  0.44483764  1
  O  O18  1  0.25127258  0.06766096  0.90479709  1
  O  O19  1  0.44483764  0.24787811  0.59738184  1
  O  O20  1  0.17479829  0.39997048  0.98753177  1
  O  O21  1  0.59738184  0.44483764  0.24787811  1
  O  O22  1  0.08839925  0.75250911  0.93400345  1
  O  O23  1  0.39997048  0.98753177  0.17479829  1
  O  O24  1  0.61228999  0.99330759  0.82348641  1
  O  O25  1  0.90479709  0.25127258  0.06766096  1
  O  O26  1  0.40255458  0.56942253  0.74916969  1
  O  O27  1  0.82348641  0.61228999  0.99330759  1
  O  O28  1  0.56942253  0.74916969  0.40255458  1
  O  O29  1  0.75250911  0.93400345  0.08839925  1
  O  O30  1  0.74916969  0.40255458  0.56942253  1
  O  O31  1  0.98753177  0.17479829  0.39997048  1
  O  O32  1  0.48998360  0.89657393  0.67707230  1
  O  O33  1  0.93400345  0.08839925  0.75250911  1
  O  O34  1  0.67707230  0.48998360  0.89657393  1
  O  O35  1  0.89657393  0.67707230  0.48998360  1
