# generated using pymatgen
data_LiCo2(PO4)3
_symmetry_space_group_name_H-M   'P 1'
_cell_length_a   8.98969550
_cell_length_b   8.97552182
_cell_length_c   8.97551261
_cell_angle_alpha   55.91324040
_cell_angle_beta   55.81267319
_cell_angle_gamma   55.69343457
_symmetry_Int_Tables_number   1
_chemical_formula_structural   LiCo2(PO4)3
_chemical_formula_sum   'Li2 Co4 P6 O24'
_cell_volume   462.29512535
_cell_formula_units_Z   2
loop_
 _symmetry_equiv_pos_site_id
 _symmetry_equiv_pos_as_xyz
  1  'x, y, z'
loop_
 _atom_site_type_symbol
 _atom_site_label
 _atom_site_symmetry_multiplicity
 _atom_site_fract_x
 _atom_site_fract_y
 _atom_site_fract_z
 _atom_site_occupancy
  Li  Li0  1  0.07818449  0.32339090  0.73672904  1
  Li  Li1  1  0.92181551  0.67660910  0.26327096  1
  Co  Co2  1  0.13922739  0.14282531  0.14659455  1
  Co  Co3  1  0.36546227  0.35458273  0.33658193  1
  Co  Co4  1  0.63453773  0.64541727  0.66341807  1
  Co  Co5  1  0.86077261  0.85717469  0.85340545  1
  P  P6  1  0.03761616  0.74934152  0.46233223  1
  P  P7  1  0.46253324  0.03943769  0.74812337  1
  P  P8  1  0.75047457  0.46461752  0.03554216  1
  P  P9  1  0.24952543  0.53538248  0.96445784  1
  P  P10  1  0.53746676  0.96056231  0.25187663  1
  P  P11  1  0.96238384  0.25065848  0.53766777  1
  O  O12  1  0.14475733  0.23636395  0.53602339  1
  O  O13  1  0.20570242  0.52004336  0.16604557  1
  O  O14  1  0.51222210  0.16089662  0.22340246  1
  O  O15  1  0.17882696  0.53498864  0.49412027  1
  O  O16  1  0.12595945  0.88426291  0.26284406  1
  O  O17  1  0.98948505  0.80425063  0.62288701  1
  O  O18  1  0.25607721  0.12643701  0.88159853  1
  O  O19  1  0.49390783  0.17219452  0.53569775  1
  O  O20  1  0.53817450  0.49147235  0.16788917  1
  O  O21  1  0.20062796  0.38138118  0.98894361  1
  O  O22  1  0.10923995  0.73445813  0.87916902  1
  O  O23  1  0.38515056  0.99850579  0.19283092  1
  O  O24  1  0.61484944  0.00149421  0.80716908  1
  O  O25  1  0.89076005  0.26554187  0.12083098  1
  O  O26  1  0.79937204  0.61861882  0.01105639  1
  O  O27  1  0.46182550  0.50852765  0.83211083  1
  O  O28  1  0.50609217  0.82780548  0.46430225  1
  O  O29  1  0.74392279  0.87356299  0.11840147  1
  O  O30  1  0.01051495  0.19574937  0.37711299  1
  O  O31  1  0.87404055  0.11573709  0.73715594  1
  O  O32  1  0.82117304  0.46501136  0.50587973  1
  O  O33  1  0.48777790  0.83910338  0.77659754  1
  O  O34  1  0.79429758  0.47995664  0.83395443  1
  O  O35  1  0.85524267  0.76363605  0.46397661  1
