# generated using pymatgen
data_RbUCrIO10
_symmetry_space_group_name_H-M   'P 1'
_cell_length_a   7.34895642
_cell_length_b   8.22969326
_cell_length_c   8.72199190
_cell_angle_alpha   87.06751817
_cell_angle_beta   86.60492786
_cell_angle_gamma   73.00084213
_symmetry_Int_Tables_number   1
_chemical_formula_structural   RbUCrIO10
_chemical_formula_sum   'Rb2 U2 Cr2 I2 O20'
_cell_volume   503.25402091
_cell_formula_units_Z   2
loop_
 _symmetry_equiv_pos_site_id
 _symmetry_equiv_pos_as_xyz
  1  'x, y, z'
loop_
 _atom_site_type_symbol
 _atom_site_label
 _atom_site_symmetry_multiplicity
 _atom_site_fract_x
 _atom_site_fract_y
 _atom_site_fract_z
 _atom_site_occupancy
  Rb  Rb0  1  0.33517018  0.32275212  0.65441599  1
  Rb  Rb1  1  0.66482982  0.67724788  0.34558401  1
  U  U2  1  0.87331062  0.84504601  0.77535801  1
  U  U3  1  0.12668938  0.15495399  0.22464199  1
  Cr  Cr4  1  0.20388365  0.57825605  0.08684866  1
  Cr  Cr5  1  0.79611635  0.42174395  0.91315134  1
  I  I6  1  0.38790810  0.79301994  0.78255362  1
  I  I7  1  0.61209190  0.20698006  0.21744638  1
  O  O8  1  0.13865565  0.65024904  0.90216130  1
  O  O9  1  0.86134435  0.34975096  0.09783870  1
  O  O10  1  0.25601228  0.36023574  0.10500991  1
  O  O11  1  0.74398772  0.63976426  0.89499009  1
  O  O12  1  0.03646500  0.66680003  0.21067910  1
  O  O13  1  0.96353500  0.33319997  0.78932090  1
  O  O14  1  0.39371740  0.63315794  0.11571837  1
  O  O15  1  0.60628260  0.36684206  0.88428163  1
  O  O16  1  0.53773618  0.93732343  0.72525082  1
  O  O17  1  0.46226382  0.06267657  0.27474918  1
  O  O18  1  0.15921907  0.92730491  0.70729801  1
  O  O19  1  0.84078093  0.07269509  0.29270199  1
  O  O20  1  0.46184749  0.63772913  0.63615644  1
  O  O21  1  0.53815251  0.36227087  0.36384356  1
  O  O22  1  0.79735275  0.10238389  0.63142704  1
  O  O23  1  0.20264725  0.89761611  0.36857296  1
  O  O24  1  0.92217199  0.71691180  0.60592778  1
  O  O25  1  0.07782801  0.28308820  0.39407222  1
  O  O26  1  0.81329065  0.97410621  0.94460450  1
  O  O27  1  0.18670935  0.02589379  0.05539550  1
