# generated using pymatgen
data_LiMn2F5
_symmetry_space_group_name_H-M   'P 1'
_cell_length_a   7.49362953
_cell_length_b   5.22379334
_cell_length_c   9.93141430
_cell_angle_alpha   90.00000000
_cell_angle_beta   90.00000000
_cell_angle_gamma   90.00000000
_symmetry_Int_Tables_number   1
_chemical_formula_structural   LiMn2F5
_chemical_formula_sum   'Li4 Mn8 F20'
_cell_volume   388.76692129
_cell_formula_units_Z   4
loop_
 _symmetry_equiv_pos_site_id
 _symmetry_equiv_pos_as_xyz
  1  'x, y, z'
loop_
 _atom_site_type_symbol
 _atom_site_label
 _atom_site_symmetry_multiplicity
 _atom_site_fract_x
 _atom_site_fract_y
 _atom_site_fract_z
 _atom_site_occupancy
  Li  Li0  1  0.12008589  0.75443114  0.50189349  1
  Li  Li1  1  0.37991411  0.25443114  0.00189349  1
  Li  Li2  1  0.62008589  0.74556886  0.50189349  1
  Li  Li3  1  0.87991411  0.24556886  0.00189349  1
  Mn  Mn4  1  0.97660162  0.26104204  0.36284067  1
  Mn  Mn5  1  0.28167199  0.23413877  0.64342260  1
  Mn  Mn6  1  0.21832801  0.73413877  0.14342260  1
  Mn  Mn7  1  0.52339838  0.76104204  0.86284067  1
  Mn  Mn8  1  0.47660162  0.23895796  0.36284067  1
  Mn  Mn9  1  0.78167199  0.26586123  0.64342260  1
  Mn  Mn10  1  0.71832801  0.76586123  0.14342260  1
  Mn  Mn11  1  0.02339838  0.73895796  0.86284067  1
  F  F12  1  0.03643313  0.42013355  0.56944206  1
  F  F13  1  0.06589186  0.64143985  0.31648724  1
  F  F14  1  0.12471876  0.02583509  0.00970091  1
  F  F15  1  0.15264602  0.88565196  0.69181546  1
  F  F16  1  0.22140404  0.07404145  0.41591758  1
  F  F17  1  0.27859596  0.57404145  0.91591758  1
  F  F18  1  0.34735398  0.38565196  0.19181546  1
  F  F19  1  0.37528124  0.52583509  0.50970091  1
  F  F20  1  0.43410814  0.14143985  0.81648724  1
  F  F21  1  0.46356687  0.92013355  0.06944206  1
  F  F22  1  0.53643313  0.07986645  0.56944206  1
  F  F23  1  0.56589186  0.85856015  0.31648724  1
  F  F24  1  0.62471876  0.47416491  0.00970091  1
  F  F25  1  0.65264602  0.61434804  0.69181546  1
  F  F26  1  0.72140404  0.42595855  0.41591758  1
  F  F27  1  0.77859596  0.92595855  0.91591758  1
  F  F28  1  0.84735398  0.11434804  0.19181546  1
  F  F29  1  0.87528124  0.97416491  0.50970091  1
  F  F30  1  0.93410814  0.35856015  0.81648724  1
  F  F31  1  0.96356687  0.57986645  0.06944206  1
