# generated using pymatgen
data_LiV6O7F5
_symmetry_space_group_name_H-M   'P 1'
_cell_length_a   4.86361342
_cell_length_b   5.70299058
_cell_length_c   7.80716579
_cell_angle_alpha   85.08279242
_cell_angle_beta   92.39488684
_cell_angle_gamma   93.05933575
_symmetry_Int_Tables_number   1
_chemical_formula_structural   LiV6O7F5
_chemical_formula_sum   'Li1 V6 O7 F5'
_cell_volume   215.29323736
_cell_formula_units_Z   1
loop_
 _symmetry_equiv_pos_site_id
 _symmetry_equiv_pos_as_xyz
  1  'x, y, z'
loop_
 _atom_site_type_symbol
 _atom_site_label
 _atom_site_symmetry_multiplicity
 _atom_site_fract_x
 _atom_site_fract_y
 _atom_site_fract_z
 _atom_site_occupancy
  Li  Li0  1  0.48932675  0.74424057  0.24573813  1
  V  V1  1  0.49292476  0.83627239  0.66856235  1
  V  V2  1  0.53957889  0.47857284  0.97462001  1
  V  V3  1  0.53527628  0.16791858  0.34446379  1
  V  V4  1  0.95725417  0.99738171  0.00255302  1
  V  V5  1  0.99536853  0.33569713  0.67755099  1
  V  V6  1  0.98783513  0.68007697  0.33617657  1
  O  O7  1  0.31021149  0.86451449  0.42905255  1
  O  O8  1  0.30465881  0.53508263  0.76250608  1
  O  O9  1  0.69496080  0.79960375  0.89495080  1
  O  O10  1  0.68537523  0.47415257  0.23095448  1
  O  O11  1  0.70329460  0.13255956  0.57427557  1
  O  O12  1  0.79615839  0.95988726  0.23651661  1
  O  O13  1  0.81340367  0.29519198  0.89903440  1
  F  F14  1  0.19518168  0.03653944  0.77667412  1
  F  F15  1  0.19203728  0.37440462  0.43192925  1
  F  F16  1  0.18922629  0.69997067  0.10216536  1
  F  F17  1  0.30558439  0.18407814  0.10050489  1
  F  F18  1  0.80074188  0.63378970  0.56774102  1
