# generated using pymatgen
data_Li2FeF4
_symmetry_space_group_name_H-M   'P 1'
_cell_length_a   6.31901668
_cell_length_b   5.36037556
_cell_length_c   10.13189183
_cell_angle_alpha   90.00000000
_cell_angle_beta   77.38998049
_cell_angle_gamma   90.00000000
_symmetry_Int_Tables_number   1
_chemical_formula_structural   Li2FeF4
_chemical_formula_sum   'Li8 Fe4 F16'
_cell_volume   334.91226981
_cell_formula_units_Z   4
loop_
 _symmetry_equiv_pos_site_id
 _symmetry_equiv_pos_as_xyz
  1  'x, y, z'
loop_
 _atom_site_type_symbol
 _atom_site_label
 _atom_site_symmetry_multiplicity
 _atom_site_fract_x
 _atom_site_fract_y
 _atom_site_fract_z
 _atom_site_occupancy
  Li  Li0  1  0.92019570  0.73766402  0.30925613  1
  Li  Li1  1  0.09112161  0.19654654  0.06571369  1
  Li  Li2  1  0.40887839  0.69654654  0.43428631  1
  Li  Li3  1  0.57980430  0.23766402  0.19074387  1
  Li  Li4  1  0.42019570  0.76233598  0.80925613  1
  Li  Li5  1  0.59112161  0.30345346  0.56571369  1
  Li  Li6  1  0.90887839  0.80345346  0.93428631  1
  Li  Li7  1  0.07980430  0.26233598  0.69074387  1
  Fe  Fe8  1  0.19654136  0.18032612  0.39693116  1
  Fe  Fe9  1  0.30345864  0.68032612  0.10306884  1
  Fe  Fe10  1  0.69654136  0.31967388  0.89693116  1
  Fe  Fe11  1  0.80345864  0.81967388  0.60306884  1
  F  F12  1  0.09867275  0.79115751  0.47349743  1
  F  F13  1  0.00242885  0.52561640  0.15970901  1
  F  F14  1  0.19993029  0.87754764  0.94929401  1
  F  F15  1  0.12509228  0.99523655  0.22578006  1
  F  F16  1  0.37490772  0.49523655  0.27421994  1
  F  F17  1  0.30006971  0.37754764  0.55070599  1
  F  F18  1  0.49757115  0.02561640  0.34029099  1
  F  F19  1  0.40132725  0.29115751  0.02650257  1
  F  F20  1  0.59867275  0.70884249  0.97349743  1
  F  F21  1  0.50242885  0.97438360  0.65970901  1
  F  F22  1  0.69993029  0.62245236  0.44929401  1
  F  F23  1  0.62509228  0.50476345  0.72578006  1
  F  F24  1  0.87490772  0.00476345  0.77421994  1
  F  F25  1  0.80006971  0.12245236  0.05070599  1
  F  F26  1  0.99757115  0.47438360  0.84029099  1
  F  F27  1  0.90132725  0.20884249  0.52650257  1
