# generated using pymatgen
data_TiV4CuO12
_symmetry_space_group_name_H-M   'P 1'
_cell_length_a   6.79262752
_cell_length_b   6.79262704
_cell_length_c   5.81758578
_cell_angle_alpha   75.04498010
_cell_angle_beta   104.95501693
_cell_angle_gamma   95.50595880
_symmetry_Int_Tables_number   1
_chemical_formula_structural   TiV4CuO12
_chemical_formula_sum   'Ti1 V4 Cu1 O12'
_cell_volume   250.42258165
_cell_formula_units_Z   1
loop_
 _symmetry_equiv_pos_site_id
 _symmetry_equiv_pos_as_xyz
  1  'x, y, z'
loop_
 _atom_site_type_symbol
 _atom_site_label
 _atom_site_symmetry_multiplicity
 _atom_site_fract_x
 _atom_site_fract_y
 _atom_site_fract_z
 _atom_site_occupancy
  Ti  Ti0  1  0.90852494  0.90852494  0.25000000  1
  V  V1  1  0.20149303  0.61188307  0.75656653  1
  V  V2  1  0.39013801  0.79422880  0.26676485  1
  V  V3  1  0.61188307  0.20149303  0.74343347  1
  V  V4  1  0.79422880  0.39013801  0.23323515  1
  Cu  Cu5  1  0.09481722  0.09481722  0.75000000  1
  O  O6  1  0.02805421  0.80961105  0.61321117  1
  O  O7  1  0.08471699  0.38100469  0.78997028  1
  O  O8  1  0.19088302  0.96385689  0.15986873  1
  O  O9  1  0.36976852  0.63428700  0.55510284  1
  O  O10  1  0.38100469  0.08471699  0.71002972  1
  O  O11  1  0.34797473  0.64088033  0.05236508  1
  O  O12  1  0.63428700  0.36976852  0.94489716  1
  O  O13  1  0.63832198  0.90955553  0.28284816  1
  O  O14  1  0.64088033  0.34797473  0.44763492  1
  O  O15  1  0.80961105  0.02805421  0.88678883  1
  O  O16  1  0.90955553  0.63832198  0.21715184  1
  O  O17  1  0.96385689  0.19088302  0.34013127  1
