# generated using pymatgen
data_Li3Fe9O5F11
_symmetry_space_group_name_H-M   'P 1'
_cell_length_a   6.22139593
_cell_length_b   6.16170929
_cell_length_c   10.85289004
_cell_angle_alpha   107.67937896
_cell_angle_beta   73.76341041
_cell_angle_gamma   118.32047095
_symmetry_Int_Tables_number   1
_chemical_formula_structural   Li3Fe9O5F11
_chemical_formula_sum   'Li3 Fe9 O5 F11'
_cell_volume   344.35943051
_cell_formula_units_Z   1
loop_
 _symmetry_equiv_pos_site_id
 _symmetry_equiv_pos_as_xyz
  1  'x, y, z'
loop_
 _atom_site_type_symbol
 _atom_site_label
 _atom_site_symmetry_multiplicity
 _atom_site_fract_x
 _atom_site_fract_y
 _atom_site_fract_z
 _atom_site_occupancy
  Li  Li0  1  0.04652132  0.41441824  0.80402665  1
  Li  Li1  1  0.56190249  0.41060063  0.80539115  1
  Li  Li2  1  0.79285849  0.21300960  0.57474456  1
  Fe  Fe3  1  0.29940405  0.69646250  0.06338341  1
  Fe  Fe4  1  0.07680503  0.94107010  0.30884449  1
  Fe  Fe5  1  0.98348906  0.02348597  0.02356333  1
  Fe  Fe6  1  0.56226796  0.94764513  0.30967797  1
  Fe  Fe7  1  0.05854593  0.44671810  0.31033915  1
  Fe  Fe8  1  0.17094940  0.87093277  0.60930925  1
  Fe  Fe9  1  0.65857197  0.34444912  0.12221028  1
  Fe  Fe10  1  0.48771684  0.54835410  0.51886653  1
  Fe  Fe11  1  0.55239089  0.92975618  0.79895854  1
  O  O12  1  0.21118138  0.80600624  0.41436896  1
  O  O13  1  0.96474970  0.57738517  0.18441475  1
  O  O14  1  0.42879947  0.03717542  0.18153582  1
  O  O15  1  0.92408501  0.07539304  0.21700006  1
  O  O16  1  0.46761089  0.06338604  0.68749132  1
  F  F17  1  0.43656305  0.56106148  0.17632087  1
  F  F18  1  0.15891975  0.31177371  0.45332097  1
  F  F19  1  0.71034462  0.85327578  0.44312519  1
  F  F20  1  0.40544260  0.52998573  0.70884551  1
  F  F21  1  0.18238103  0.80091939  0.92763729  1
  F  F22  1  0.68838152  0.33786045  0.44111669  1
  F  F23  1  0.66175747  0.79733506  0.92691076  1
  F  F24  1  0.19782134  0.32790217  0.93780870  1
  F  F25  1  0.93354916  0.54257663  0.69081882  1
  F  F26  1  0.91859623  0.03606530  0.69297161  1
  F  F27  1  0.70839236  0.30499596  0.91699936  1
