# generated using pymatgen
data_Li2VF5
_symmetry_space_group_name_H-M   'P 1'
_cell_length_a   7.42054482
_cell_length_b   19.25321132
_cell_length_c   5.51035915
_cell_angle_alpha   90.00000000
_cell_angle_beta   90.00000000
_cell_angle_gamma   90.00000000
_symmetry_Int_Tables_number   1
_chemical_formula_structural   Li2VF5
_chemical_formula_sum   'Li16 V8 F40'
_cell_volume   787.26125110
_cell_formula_units_Z   8
loop_
 _symmetry_equiv_pos_site_id
 _symmetry_equiv_pos_as_xyz
  1  'x, y, z'
loop_
 _atom_site_type_symbol
 _atom_site_label
 _atom_site_symmetry_multiplicity
 _atom_site_fract_x
 _atom_site_fract_y
 _atom_site_fract_z
 _atom_site_occupancy
  Li  Li0  1  0.10104116  0.65632717  0.50000000  1
  Li  Li1  1  0.23071832  0.08482440  0.00000000  1
  Li  Li2  1  0.27250976  0.73479611  0.00000000  1
  Li  Li3  1  0.18265395  0.51848169  0.50000000  1
  Li  Li4  1  0.31734605  0.01848169  0.50000000  1
  Li  Li5  1  0.22749024  0.23479611  0.00000000  1
  Li  Li6  1  0.26928168  0.58482440  0.00000000  1
  Li  Li7  1  0.39895884  0.15632717  0.50000000  1
  Li  Li8  1  0.60104116  0.84367283  0.50000000  1
  Li  Li9  1  0.73071832  0.41517560  0.00000000  1
  Li  Li10  1  0.77250976  0.76520389  0.00000000  1
  Li  Li11  1  0.68265395  0.98151831  0.50000000  1
  Li  Li12  1  0.81734605  0.48151831  0.50000000  1
  Li  Li13  1  0.72749024  0.26520389  0.00000000  1
  Li  Li14  1  0.76928168  0.91517560  0.00000000  1
  Li  Li15  1  0.89895884  0.34367283  0.50000000  1
  V  V16  1  0.99922311  0.84614731  0.50000000  1
  V  V17  1  0.14123996  0.39700187  0.00000000  1
  V  V18  1  0.35876004  0.89700187  0.00000000  1
  V  V19  1  0.50077689  0.34614731  0.50000000  1
  V  V20  1  0.49922311  0.65385269  0.50000000  1
  V  V21  1  0.64123996  0.10299813  0.00000000  1
  V  V22  1  0.85876004  0.60299813  0.00000000  1
  V  V23  1  0.00077689  0.15385269  0.50000000  1
  F  F24  1  0.03281990  0.30372707  0.00000000  1
  F  F25  1  0.03256754  0.57477809  0.26101007  1
  F  F26  1  0.03256754  0.57477809  0.73898993  1
  F  F27  1  0.09066783  0.05949592  0.50000000  1
  F  F28  1  0.18939001  0.16553256  0.75667281  1
  F  F29  1  0.18939001  0.16553256  0.24332719  1
  F  F30  1  0.03870831  0.74833522  0.50000000  1
  F  F31  1  0.18855021  0.86157472  0.25078920  1
  F  F32  1  0.18855021  0.86157472  0.74921080  1
  F  F33  1  0.23502390  0.98497112  0.00000000  1
  F  F34  1  0.26497610  0.48497112  0.00000000  1
  F  F35  1  0.31144979  0.36157472  0.25078920  1
  F  F36  1  0.31144979  0.36157472  0.74921080  1
  F  F37  1  0.46129169  0.24833522  0.50000000  1
  F  F38  1  0.31060999  0.66553256  0.24332719  1
  F  F39  1  0.31060999  0.66553256  0.75667281  1
  F  F40  1  0.40933217  0.55949592  0.50000000  1
  F  F41  1  0.46743246  0.07477809  0.26101007  1
  F  F42  1  0.46743246  0.07477809  0.73898993  1
  F  F43  1  0.46718010  0.80372707  0.00000000  1
  F  F44  1  0.53281990  0.19627293  0.00000000  1
  F  F45  1  0.53256754  0.92522191  0.26101007  1
  F  F46  1  0.53256754  0.92522191  0.73898993  1
  F  F47  1  0.59066783  0.44050408  0.50000000  1
  F  F48  1  0.68939001  0.33446744  0.24332719  1
  F  F49  1  0.68939001  0.33446744  0.75667281  1
  F  F50  1  0.53870831  0.75166478  0.50000000  1
  F  F51  1  0.68855021  0.63842528  0.25078920  1
  F  F52  1  0.68855021  0.63842528  0.74921080  1
  F  F53  1  0.73502390  0.51502888  0.00000000  1
  F  F54  1  0.76497610  0.01502888  0.00000000  1
  F  F55  1  0.81144979  0.13842528  0.25078920  1
  F  F56  1  0.81144979  0.13842528  0.74921080  1
  F  F57  1  0.96129169  0.25166478  0.50000000  1
  F  F58  1  0.81060999  0.83446744  0.24332719  1
  F  F59  1  0.81060999  0.83446744  0.75667281  1
  F  F60  1  0.90933217  0.94050408  0.50000000  1
  F  F61  1  0.96743246  0.42522191  0.26101007  1
  F  F62  1  0.96743246  0.42522191  0.73898993  1
  F  F63  1  0.96718010  0.69627293  0.00000000  1
