# generated using pymatgen
data_V2O3
_symmetry_space_group_name_H-M   'P 1'
_cell_length_a   3.07327358
_cell_length_b   7.00551016
_cell_length_c   7.62938263
_cell_angle_alpha   81.48150652
_cell_angle_beta   89.99999981
_cell_angle_gamma   77.32932985
_symmetry_Int_Tables_number   1
_chemical_formula_structural   V2O3
_chemical_formula_sum   'V6 O9'
_cell_volume   158.40139156
_cell_formula_units_Z   3
loop_
 _symmetry_equiv_pos_site_id
 _symmetry_equiv_pos_as_xyz
  1  'x, y, z'
loop_
 _atom_site_type_symbol
 _atom_site_label
 _atom_site_symmetry_multiplicity
 _atom_site_fract_x
 _atom_site_fract_y
 _atom_site_fract_z
 _atom_site_occupancy
  V  V0  1  0.03324712  0.93350677  0.81608379  1
  V  V1  1  0.65061219  0.69877462  0.49459268  1
  V  V2  1  0.68620277  0.62759447  0.13275162  1
  V  V3  1  0.31379723  0.37240553  0.86724838  1
  V  V4  1  0.34938781  0.30122538  0.50540732  1
  V  V5  1  0.96675288  0.06649323  0.18391621  1
  O  O6  1  0.55990984  0.88018033  0.66844813  1
  O  O7  1  0.17490814  0.65018371  0.96310156  1
  O  O8  1  0.11326769  0.77346461  0.29116243  1
  O  O9  1  0.22536959  0.54926181  0.62906780  1
  O  O10  1  0.77463041  0.45073819  0.37093220  1
  O  O11  1  0.88673231  0.22653539  0.70883757  1
  O  O12  1  0.82509186  0.34981629  0.03689844  1
  O  O13  1  0.44009016  0.11981967  0.33155187  1
  O  O14  1  0.50000000  0.00000000  0.00000000  1
