# generated using pymatgen
data_Fe2Ni3Sb(PO4)6
_symmetry_space_group_name_H-M   'P 1'
_cell_length_a   8.45525797
_cell_length_b   8.45525777
_cell_length_c   8.45525755
_cell_angle_alpha   61.73664335
_cell_angle_beta   61.73664081
_cell_angle_gamma   61.73663664
_symmetry_Int_Tables_number   1
_chemical_formula_structural   Fe2Ni3Sb(PO4)6
_chemical_formula_sum   'Fe2 Ni3 Sb1 P6 O24'
_cell_volume   444.06529062
_cell_formula_units_Z   1
loop_
 _symmetry_equiv_pos_site_id
 _symmetry_equiv_pos_as_xyz
  1  'x, y, z'
loop_
 _atom_site_type_symbol
 _atom_site_label
 _atom_site_symmetry_multiplicity
 _atom_site_fract_x
 _atom_site_fract_y
 _atom_site_fract_z
 _atom_site_occupancy
  Fe  Fe0  1  0.01004151  0.01004151  0.01004151  1
  Fe  Fe1  1  0.49920631  0.49920631  0.49920631  1
  Ni  Ni2  1  0.14601576  0.14601576  0.14601576  1
  Ni  Ni3  1  0.35606486  0.35606486  0.35606486  1
  Ni  Ni4  1  0.64197019  0.64197019  0.64197019  1
  Sb  Sb5  1  0.85721881  0.85721881  0.85721881  1
  P  P6  1  0.74307492  0.45335322  0.04802663  1
  P  P7  1  0.25418481  0.54206989  0.95006710  1
  P  P8  1  0.54206989  0.95006710  0.25418481  1
  P  P9  1  0.95006710  0.25418481  0.54206989  1
  P  P10  1  0.04802663  0.74307492  0.45335322  1
  P  P11  1  0.45335322  0.04802663  0.74307492  1
  O  O12  1  0.10343883  0.31794485  0.51270226  1
  O  O13  1  0.31794485  0.51270226  0.10343883  1
  O  O14  1  0.05967078  0.90286432  0.25507830  1
  O  O15  1  0.51270226  0.10343883  0.31794485  1
  O  O16  1  0.00996285  0.81972711  0.61030167  1
  O  O17  1  0.25021946  0.59676086  0.44260822  1
  O  O18  1  0.25507830  0.05967078  0.90286432  1
  O  O19  1  0.44260822  0.25021946  0.59676086  1
  O  O20  1  0.17693596  0.39517713  0.98770396  1
  O  O21  1  0.59676086  0.44260822  0.25021946  1
  O  O22  1  0.09032751  0.75233081  0.93660000  1
  O  O23  1  0.39517713  0.98770396  0.17693596  1
  O  O24  1  0.61030167  0.00996285  0.81972711  1
  O  O25  1  0.90286432  0.25507830  0.05967078  1
  O  O26  1  0.40060118  0.56452029  0.74614156  1
  O  O27  1  0.81972711  0.61030167  0.00996285  1
  O  O28  1  0.56452029  0.74614156  0.40060118  1
  O  O29  1  0.75233081  0.93660000  0.09032751  1
  O  O30  1  0.74614156  0.40060118  0.56452029  1
  O  O31  1  0.98770396  0.17693596  0.39517713  1
  O  O32  1  0.50037896  0.89495851  0.67175157  1
  O  O33  1  0.93660000  0.09032751  0.75233081  1
  O  O34  1  0.67175157  0.50037896  0.89495851  1
  O  O35  1  0.89495851  0.67175157  0.50037896  1
