# generated using pymatgen
data_Fe6O5F7
_symmetry_space_group_name_H-M   'P 1'
_cell_length_a   4.79378424
_cell_length_b   7.83666079
_cell_length_c   5.72794318
_cell_angle_alpha   94.51723588
_cell_angle_beta   87.71179324
_cell_angle_gamma   91.02161194
_symmetry_Int_Tables_number   1
_chemical_formula_structural   Fe6O5F7
_chemical_formula_sum   'Fe6 O5 F7'
_cell_volume   214.32036935
_cell_formula_units_Z   1
loop_
 _symmetry_equiv_pos_site_id
 _symmetry_equiv_pos_as_xyz
  1  'x, y, z'
loop_
 _atom_site_type_symbol
 _atom_site_label
 _atom_site_symmetry_multiplicity
 _atom_site_fract_x
 _atom_site_fract_y
 _atom_site_fract_z
 _atom_site_occupancy
  Fe  Fe0  1  0.49639798  0.66403723  0.16874381  1
  Fe  Fe1  1  0.47176151  0.00007714  0.48743124  1
  Fe  Fe2  1  0.54678391  0.34061419  0.83642312  1
  Fe  Fe3  1  0.01043233  0.67264491  0.66050446  1
  Fe  Fe4  1  0.93005999  0.32834240  0.33351708  1
  Fe  Fe5  1  0.03981207  0.99187812  0.01723585  1
  O  O6  1  0.80741821  0.43585498  0.62871035  1
  O  O7  1  0.80132237  0.09583060  0.29049383  1
  O  O8  1  0.69273091  0.44462700  0.12641533  1
  O  O9  1  0.30274602  0.88310294  0.20905827  1
  O  O10  1  0.20039613  0.91249257  0.71295157  1
  F  F11  1  0.79368091  0.77551836  0.97433160  1
  F  F12  1  0.69247093  0.10362200  0.79419087  1
  F  F13  1  0.68623947  0.76612998  0.46042434  1
  F  F14  1  0.31040996  0.56263443  0.87293244  1
  F  F15  1  0.31282767  0.23866303  0.54138207  1
  F  F16  1  0.20306907  0.23659722  0.03350918  1
  F  F17  1  0.20144054  0.54733190  0.35174460  1
