# generated using pymatgen
data_Fe6O5F7
_symmetry_space_group_name_H-M   'P 1'
_cell_length_a   4.77745941
_cell_length_b   4.78726863
_cell_length_c   9.25522001
_cell_angle_alpha   90.00000000
_cell_angle_beta   90.00000000
_cell_angle_gamma   93.16912312
_symmetry_Int_Tables_number   1
_chemical_formula_structural   Fe6O5F7
_chemical_formula_sum   'Fe6 O5 F7'
_cell_volume   211.35225074
_cell_formula_units_Z   1
loop_
 _symmetry_equiv_pos_site_id
 _symmetry_equiv_pos_as_xyz
  1  'x, y, z'
loop_
 _atom_site_type_symbol
 _atom_site_label
 _atom_site_symmetry_multiplicity
 _atom_site_fract_x
 _atom_site_fract_y
 _atom_site_fract_z
 _atom_site_occupancy
  Fe  Fe0  1  0.99168847  0.99114111  0.00000000  1
  Fe  Fe1  1  0.02828018  0.00987980  0.34910937  1
  Fe  Fe2  1  0.02828018  0.00987980  0.65089063  1
  Fe  Fe3  1  0.49161178  0.48576756  0.15829670  1
  Fe  Fe4  1  0.49161178  0.48576756  0.84170330  1
  Fe  Fe5  1  0.45450111  0.50117894  0.50000000  1
  O  O6  1  0.20288952  0.79811566  0.50000000  1
  O  O7  1  0.29508437  0.29030922  0.00000000  1
  O  O8  1  0.31221223  0.31536670  0.32711672  1
  O  O9  1  0.31221223  0.31536670  0.67288328  1
  O  O10  1  0.69714051  0.69169379  0.00000000  1
  F  F11  1  0.19505611  0.80122650  0.16396462  1
  F  F12  1  0.19505611  0.80122650  0.83603538  1
  F  F13  1  0.70303307  0.70570924  0.33001445  1
  F  F14  1  0.70303307  0.70570924  0.66998555  1
  F  F15  1  0.80625126  0.18814942  0.16638375  1
  F  F16  1  0.80625126  0.18814942  0.83361625  1
  F  F17  1  0.78580577  0.21536283  0.50000000  1
