# generated using pymatgen
data_LiCr(PO3)4
_symmetry_space_group_name_H-M   'P 1'
_cell_length_a   7.64657457
_cell_length_b   12.97676248
_cell_length_c   9.44060927
_cell_angle_alpha   90.00000000
_cell_angle_beta   82.25780467
_cell_angle_gamma   90.00000000
_symmetry_Int_Tables_number   1
_chemical_formula_structural   LiCr(PO3)4
_chemical_formula_sum   'Li4 Cr4 P16 O48'
_cell_volume   928.23135722
_cell_formula_units_Z   4
loop_
 _symmetry_equiv_pos_site_id
 _symmetry_equiv_pos_as_xyz
  1  'x, y, z'
loop_
 _atom_site_type_symbol
 _atom_site_label
 _atom_site_symmetry_multiplicity
 _atom_site_fract_x
 _atom_site_fract_y
 _atom_site_fract_z
 _atom_site_occupancy
  Li  Li0  1  0.90216369  0.28502322  0.41848947  1
  Li  Li1  1  0.59783631  0.78502322  0.08151053  1
  Li  Li2  1  0.40216369  0.21497678  0.91848947  1
  Li  Li3  1  0.09783631  0.71497678  0.58151053  1
  Cr  Cr4  1  0.90282160  0.20898116  0.00087757  1
  Cr  Cr5  1  0.59717840  0.70898116  0.49912243  1
  Cr  Cr6  1  0.40282160  0.29101884  0.50087757  1
  Cr  Cr7  1  0.09717840  0.79101884  0.99912243  1
  P  P8  1  0.08891520  0.60704895  0.26517492  1
  P  P9  1  0.10394751  0.13707231  0.71070890  1
  P  P10  1  0.21012547  0.91544287  0.72206172  1
  P  P11  1  0.28110098  0.88849281  0.24071054  1
  P  P12  1  0.21889902  0.38849281  0.25928946  1
  P  P13  1  0.28987453  0.41544287  0.77793828  1
  P  P14  1  0.39605249  0.63707131  0.78929110  1
  P  P15  1  0.41108480  0.10704895  0.23482508  1
  P  P16  1  0.58891520  0.89295105  0.76517492  1
  P  P17  1  0.60394751  0.36292769  0.21070890  1
  P  P18  1  0.71012547  0.58455713  0.22206272  1
  P  P19  1  0.78110098  0.61150719  0.74071054  1
  P  P20  1  0.71889902  0.11150719  0.75928946  1
  P  P21  1  0.78987453  0.08455713  0.27793728  1
  P  P22  1  0.89605249  0.86292869  0.28929110  1
  P  P23  1  0.91108480  0.39295105  0.73482508  1
  O  O24  1  0.09213569  0.86121641  0.33278451  1
  O  O25  1  0.07156791  0.89601357  0.85101497  1
  O  O26  1  0.10768211  0.44023595  0.71809685  1
  O  O27  1  0.06996163  0.32447265  0.22096517  1
  O  O28  1  0.11246711  0.67784659  0.13751740  1
  O  O29  1  0.10129745  0.14420531  0.87170725  1
  O  O30  1  0.13117177  0.64293291  0.40507842  1
  O  O31  1  0.25600642  0.88348597  0.08255819  1
  O  O32  1  0.20499548  0.50637487  0.21237997  1
  O  O33  1  0.17510127  0.02750985  0.65487808  1
  O  O34  1  0.20602657  0.21931756  0.62443036  1
  O  O35  1  0.27479799  0.34084166  0.89741237  1
  O  O36  1  0.22520201  0.84084166  0.60258763  1
  O  O37  1  0.29500452  0.00637487  0.28762003  1
  O  O38  1  0.29397343  0.71931756  0.87556964  1
  O  O39  1  0.24399358  0.38348597  0.41744181  1
  O  O40  1  0.32489873  0.52750985  0.84512192  1
  O  O41  1  0.36882823  0.14293291  0.09492158  1
  O  O42  1  0.39870255  0.64420531  0.62829275  1
  O  O43  1  0.38753289  0.17784659  0.36248260  1
  O  O44  1  0.43003837  0.82447265  0.27903483  1
  O  O45  1  0.39231789  0.94023595  0.78190315  1
  O  O46  1  0.40786431  0.36121641  0.16721549  1
  O  O47  1  0.42843209  0.39601357  0.64898503  1
  O  O48  1  0.57156791  0.60398643  0.35101497  1
  O  O49  1  0.59213569  0.63878359  0.83278451  1
  O  O50  1  0.60768211  0.05976405  0.21809685  1
  O  O51  1  0.56996163  0.17552735  0.72096517  1
  O  O52  1  0.61246711  0.82215341  0.63751740  1
  O  O53  1  0.60129745  0.35579469  0.37170725  1
  O  O54  1  0.63117177  0.85706709  0.90507842  1
  O  O55  1  0.67510127  0.47249015  0.15487808  1
  O  O56  1  0.75600642  0.61651403  0.58255819  1
  O  O57  1  0.70602657  0.28068244  0.12443036  1
  O  O58  1  0.70499548  0.99362513  0.71237997  1
  O  O59  1  0.77479799  0.15915834  0.39741237  1
  O  O60  1  0.72520201  0.65915834  0.10258763  1
  O  O61  1  0.79397343  0.78068244  0.37556964  1
  O  O62  1  0.82489873  0.97249015  0.34512192  1
  O  O63  1  0.79500452  0.49362513  0.78762003  1
  O  O64  1  0.74399358  0.11651403  0.91744181  1
  O  O65  1  0.86882823  0.35706709  0.59492158  1
  O  O66  1  0.89870255  0.85579469  0.12829275  1
  O  O67  1  0.88753289  0.32215341  0.86248260  1
  O  O68  1  0.93003837  0.67552735  0.77903483  1
  O  O69  1  0.89231789  0.55976405  0.28190315  1
  O  O70  1  0.92843209  0.10398643  0.14898503  1
  O  O71  1  0.90786431  0.13878359  0.66721549  1
