# generated using pymatgen
data_Li2FeBO4
_symmetry_space_group_name_H-M   'P 1'
_cell_length_a   9.65538939
_cell_length_b   4.90988048
_cell_length_c   13.15132632
_cell_angle_alpha   90.00000000
_cell_angle_beta   90.00000000
_cell_angle_gamma   90.00000000
_symmetry_Int_Tables_number   1
_chemical_formula_structural   Li2FeBO4
_chemical_formula_sum   'Li16 Fe8 B8 O32'
_cell_volume   623.46240039
_cell_formula_units_Z   8
loop_
 _symmetry_equiv_pos_site_id
 _symmetry_equiv_pos_as_xyz
  1  'x, y, z'
loop_
 _atom_site_type_symbol
 _atom_site_label
 _atom_site_symmetry_multiplicity
 _atom_site_fract_x
 _atom_site_fract_y
 _atom_site_fract_z
 _atom_site_occupancy
  Li  Li0  1  0.00322194  0.01385536  0.55402403  1
  Li  Li1  1  0.97866465  0.53132454  0.94272444  1
  Li  Li2  1  0.21573161  0.43386944  0.30706636  1
  Li  Li3  1  0.21146550  0.90727376  0.20143363  1
  Li  Li4  1  0.28853450  0.90727376  0.70143363  1
  Li  Li5  1  0.28426839  0.43386944  0.80706636  1
  Li  Li6  1  0.52133535  0.53132454  0.44272444  1
  Li  Li7  1  0.49677806  0.01385536  0.05402403  1
  Li  Li8  1  0.47866465  0.46867546  0.94272444  1
  Li  Li9  1  0.50322194  0.98614464  0.55402403  1
  Li  Li10  1  0.71573161  0.56613056  0.30706636  1
  Li  Li11  1  0.71146550  0.09272624  0.20143363  1
  Li  Li12  1  0.78853450  0.09272624  0.70143363  1
  Li  Li13  1  0.78426839  0.56613056  0.80706636  1
  Li  Li14  1  0.02133535  0.46867546  0.44272444  1
  Li  Li15  1  0.99677806  0.98614464  0.05402403  1
  Fe  Fe16  1  0.02762521  0.01754139  0.81293130  1
  Fe  Fe17  1  0.21914387  0.48880655  0.06331798  1
  Fe  Fe18  1  0.28085613  0.48880655  0.56331798  1
  Fe  Fe19  1  0.47237479  0.01754139  0.31293130  1
  Fe  Fe20  1  0.52762521  0.98245861  0.81293130  1
  Fe  Fe21  1  0.71914387  0.51119345  0.06331798  1
  Fe  Fe22  1  0.78085613  0.51119345  0.56331798  1
  Fe  Fe23  1  0.97237479  0.98245861  0.31293130  1
  B  B24  1  0.02789295  0.51893274  0.69212241  1
  B  B25  1  0.22022189  0.98125534  0.43215664  1
  B  B26  1  0.27977811  0.98125534  0.93215664  1
  B  B27  1  0.47210705  0.51893274  0.19212241  1
  B  B28  1  0.52789295  0.48106726  0.69212241  1
  B  B29  1  0.72022189  0.01874466  0.43215664  1
  B  B30  1  0.77977811  0.01874466  0.93215664  1
  B  B31  1  0.97210705  0.48106726  0.19212241  1
  O  O32  1  0.01762600  0.35590080  0.29049492  1
  O  O33  1  0.01000139  0.77929919  0.19203237  1
  O  O34  1  0.09062243  0.82662654  0.41449676  1
  O  O35  1  0.04335083  0.35356569  0.10313072  1
  O  O36  1  0.18174860  0.56778415  0.68466499  1
  O  O37  1  0.22052391  0.06481611  0.83120358  1
  O  O38  1  0.17737109  0.23322965  0.48845376  1
  O  O39  1  0.17482445  0.81699463  0.98982811  1
  O  O40  1  0.32517655  0.81699463  0.48982811  1
  O  O41  1  0.32262891  0.23322965  0.98845376  1
  O  O42  1  0.27947609  0.06481611  0.33120358  1
  O  O43  1  0.31825140  0.56778415  0.18466499  1
  O  O44  1  0.45664917  0.35356569  0.60313072  1
  O  O45  1  0.40937757  0.82662654  0.91449676  1
  O  O46  1  0.48999861  0.77929919  0.69203237  1
  O  O47  1  0.48237400  0.35590080  0.79049492  1
  O  O48  1  0.51762600  0.64409920  0.29049492  1
  O  O49  1  0.51000139  0.22070081  0.19203237  1
  O  O50  1  0.59062243  0.17337346  0.41449676  1
  O  O51  1  0.54335083  0.64643431  0.10313072  1
  O  O52  1  0.68174860  0.43221585  0.68466499  1
  O  O53  1  0.72052391  0.93518389  0.83120358  1
  O  O54  1  0.67737109  0.76677035  0.48845376  1
  O  O55  1  0.67482345  0.18300537  0.98982811  1
  O  O56  1  0.82517655  0.18300537  0.48982811  1
  O  O57  1  0.82262891  0.76677035  0.98845376  1
  O  O58  1  0.77947609  0.93518389  0.33120358  1
  O  O59  1  0.81825140  0.43221585  0.18466499  1
  O  O60  1  0.95664917  0.64643431  0.60313072  1
  O  O61  1  0.90937757  0.17337346  0.91449676  1
  O  O62  1  0.98999861  0.22070081  0.69203237  1
  O  O63  1  0.98237400  0.64409920  0.79049492  1
