# generated using pymatgen
data_Fe6O5F7
_symmetry_space_group_name_H-M   'P 1'
_cell_length_a   4.76625243
_cell_length_b   7.88720775
_cell_length_c   5.66126095
_cell_angle_alpha   94.90442578
_cell_angle_beta   92.78366226
_cell_angle_gamma   87.86098980
_symmetry_Int_Tables_number   1
_chemical_formula_structural   Fe6O5F7
_chemical_formula_sum   'Fe6 O5 F7'
_cell_volume   211.67341844
_cell_formula_units_Z   1
loop_
 _symmetry_equiv_pos_site_id
 _symmetry_equiv_pos_as_xyz
  1  'x, y, z'
loop_
 _atom_site_type_symbol
 _atom_site_label
 _atom_site_symmetry_multiplicity
 _atom_site_fract_x
 _atom_site_fract_y
 _atom_site_fract_z
 _atom_site_occupancy
  Fe  Fe0  1  0.52195866  0.64752408  0.17478493  1
  Fe  Fe1  1  0.52606524  0.01072027  0.48171909  1
  Fe  Fe2  1  0.47250192  0.35076204  0.82845483  1
  Fe  Fe3  1  -0.00010286  0.67415772  0.66523296  1
  Fe  Fe4  1  0.98755669  0.31519403  0.33543508  1
  Fe  Fe5  1  0.99167955  0.00094402  0.01105688  1
  O  O6  1  0.80710317  0.09988359  0.30349695  1
  O  O7  1  0.69760008  0.76690689  0.46722249  1
  O  O8  1  0.70221344  0.42753450  0.12397585  1
  O  O9  1  0.29463205  0.57600329  0.87243852  1
  O  O10  1  0.30558702  0.23346150  0.53689490  1
  F  F11  1  0.80682368  0.43815104  0.62966355  1
  F  F12  1  0.79458372  0.76197894  0.95955890  1
  F  F13  1  0.68591965  0.10850981  0.79601737  1
  F  F14  1  0.31541059  0.88761816  0.20290755  1
  F  F15  1  0.20665870  0.23659610  0.03757363  1
  F  F16  1  0.19160990  0.56284073  0.37385360  1
  F  F17  1  0.19219881  0.90121329  0.69971192  1
