# generated using pymatgen
data_Li2V3F8
_symmetry_space_group_name_H-M   'P 1'
_cell_length_a   6.27674164
_cell_length_b   6.21985485
_cell_length_c   6.27674197
_cell_angle_alpha   120.30301491
_cell_angle_beta   60.00000177
_cell_angle_gamma   120.30301124
_symmetry_Int_Tables_number   1
_chemical_formula_structural   Li2V3F8
_chemical_formula_sum   'Li2 V3 F8'
_cell_volume   172.47630587
_cell_formula_units_Z   1
loop_
 _symmetry_equiv_pos_site_id
 _symmetry_equiv_pos_as_xyz
  1  'x, y, z'
loop_
 _atom_site_type_symbol
 _atom_site_label
 _atom_site_symmetry_multiplicity
 _atom_site_fract_x
 _atom_site_fract_y
 _atom_site_fract_z
 _atom_site_occupancy
  Li  Li0  1  0.14117293  0.42351980  0.14117293  1
  Li  Li1  1  0.85882707  0.57648020  0.85882707  1
  V  V2  1  0.00000000  0.00000000  0.50000000  1
  V  V3  1  0.50000000  0.00000000  0.00000000  1
  V  V4  1  0.50000000  0.00000000  0.50000000  1
  F  F5  1  0.09735743  0.76488461  0.09735743  1
  F  F6  1  0.09735743  0.76488461  0.57016975  1
  F  F7  1  0.57016975  0.76488461  0.09735743  1
  F  F8  1  0.59610780  0.78832439  0.59610780  1
  F  F9  1  0.40389220  0.21167561  0.40389220  1
  F  F10  1  0.42983025  0.23511539  0.90264257  1
  F  F11  1  0.90264257  0.23511539  0.42983025  1
  F  F12  1  0.90264257  0.23511539  0.90264257  1
