# generated using pymatgen
data_Na4Co2O5
_symmetry_space_group_name_H-M   'P 1'
_cell_length_a   10.79080626
_cell_length_b   9.69830479
_cell_length_c   11.52112178
_cell_angle_alpha   90.00000000
_cell_angle_beta   91.78847926
_cell_angle_gamma   90.00000000
_symmetry_Int_Tables_number   1
_chemical_formula_structural   Na4Co2O5
_chemical_formula_sum   'Na32 Co16 O40'
_cell_volume   1205.12716341
_cell_formula_units_Z   8
loop_
 _symmetry_equiv_pos_site_id
 _symmetry_equiv_pos_as_xyz
  1  'x, y, z'
loop_
 _atom_site_type_symbol
 _atom_site_label
 _atom_site_symmetry_multiplicity
 _atom_site_fract_x
 _atom_site_fract_y
 _atom_site_fract_z
 _atom_site_occupancy
  Na  Na0  1  0.02053794  0.66662343  0.74082199  1
  Na  Na1  1  0.02053794  0.83337657  0.24082199  1
  Na  Na2  1  0.07190877  0.87039273  0.95299060  1
  Na  Na3  1  0.09941714  0.38450481  0.94691556  1
  Na  Na4  1  0.07190877  0.62960727  0.45299060  1
  Na  Na5  1  0.09941714  0.11549519  0.44691556  1
  Na  Na6  1  0.18184341  0.41231505  0.66102001  1
  Na  Na7  1  0.18184341  0.08768495  0.16102001  1
  Na  Na8  1  0.31191729  0.63893636  0.83185184  1
  Na  Na9  1  0.31191729  0.86106364  0.33185184  1
  Na  Na10  1  0.39930478  0.12784660  0.52840052  1
  Na  Na11  1  0.39930478  0.37215340  0.02840052  1
  Na  Na12  1  0.43072243  0.62801540  0.56886691  1
  Na  Na13  1  0.43072243  0.87198460  0.06886691  1
  Na  Na14  1  0.47073079  0.90762583  0.74134636  1
  Na  Na15  1  0.52926921  0.40762583  0.75865364  1
  Na  Na16  1  0.47073079  0.59237417  0.24134636  1
  Na  Na17  1  0.52926921  0.09237417  0.25865364  1
  Na  Na18  1  0.56927657  0.12801540  0.93113309  1
  Na  Na19  1  0.56927657  0.37198460  0.43113309  1
  Na  Na20  1  0.60069522  0.62784660  0.97159948  1
  Na  Na21  1  0.60069522  0.87215340  0.47159948  1
  Na  Na22  1  0.68808271  0.13893636  0.66814816  1
  Na  Na23  1  0.68808271  0.36106364  0.16814816  1
  Na  Na24  1  0.81815659  0.91231505  0.83897999  1
  Na  Na25  1  0.81815659  0.58768495  0.33897999  1
  Na  Na26  1  0.90058286  0.88450481  0.55308444  1
  Na  Na27  1  0.92809123  0.37039273  0.54700940  1
  Na  Na28  1  0.90058286  0.61549519  0.05308444  1
  Na  Na29  1  0.92809123  0.12960727  0.04700940  1
  Na  Na30  1  0.97946206  0.16662343  0.75917801  1
  Na  Na31  1  0.97946206  0.33337657  0.25917801  1
  Co  Co32  1  0.16366647  0.97393262  0.72669765  1
  Co  Co33  1  0.16366647  0.52606738  0.22669765  1
  Co  Co34  1  0.22958541  0.81952044  0.56559341  1
  Co  Co35  1  0.22958541  0.68047956  0.06559341  1
  Co  Co36  1  0.26828177  0.06713140  0.93576024  1
  Co  Co37  1  0.26828177  0.43286860  0.43576024  1
  Co  Co38  1  0.33526958  0.21613962  0.76890307  1
  Co  Co39  1  0.33526958  0.28386038  0.26890307  1
  Co  Co40  1  0.66473042  0.71613962  0.73109693  1
  Co  Co41  1  0.66473042  0.78386038  0.23109693  1
  Co  Co42  1  0.73171823  0.56713140  0.56423976  1
  Co  Co43  1  0.73171823  0.93286860  0.06423976  1
  Co  Co44  1  0.77041459  0.31952044  0.93440659  1
  Co  Co45  1  0.77041459  0.18047956  0.43440659  1
  Co  Co46  1  0.83633353  0.47393262  0.77330235  1
  Co  Co47  1  0.83633353  0.02606738  0.27330235  1
  O  O48  1  0.01481044  0.90840698  0.74921538  1
  O  O49  1  0.01481044  0.59159302  0.24921538  1
  O  O50  1  0.11545288  0.63189069  0.96034683  1
  O  O51  1  0.11444166  0.12165931  0.95347612  1
  O  O52  1  0.11545288  0.86810931  0.46034683  1
  O  O53  1  0.11444166  0.37834069  0.45347612  1
  O  O54  1  0.20117616  0.14118958  0.66682327  1
  O  O55  1  0.20805891  0.66013245  0.63779323  1
  O  O56  1  0.20117616  0.35881042  0.16682327  1
  O  O57  1  0.20805891  0.83986755  0.13779323  1
  O  O58  1  0.28400146  0.91045987  0.84921976  1
  O  O59  1  0.30616068  0.37766862  0.83107405  1
  O  O60  1  0.28400146  0.58954013  0.34921976  1
  O  O61  1  0.30616068  0.12233138  0.33107405  1
  O  O62  1  0.38339829  0.87404194  0.54607656  1
  O  O63  1  0.38458051  0.38876994  0.53715459  1
  O  O64  1  0.38339829  0.62595806  0.04607656  1
  O  O65  1  0.38458051  0.11123006  0.03715459  1
  O  O66  1  0.48256732  0.15176170  0.73660816  1
  O  O67  1  0.48256732  0.34823830  0.23660816  1
  O  O68  1  0.51743268  0.65176170  0.76339184  1
  O  O69  1  0.51743268  0.84823830  0.26339184  1
  O  O70  1  0.61541949  0.88876994  0.96284541  1
  O  O71  1  0.61660171  0.37404194  0.95392344  1
  O  O72  1  0.61541949  0.61123006  0.46284541  1
  O  O73  1  0.61660171  0.12595806  0.45392344  1
  O  O74  1  0.69383932  0.87766862  0.66892595  1
  O  O75  1  0.71599854  0.41045987  0.65078024  1
  O  O76  1  0.69383932  0.62233138  0.16892595  1
  O  O77  1  0.71599854  0.08954013  0.15078024  1
  O  O78  1  0.79194109  0.16013245  0.86220677  1
  O  O79  1  0.79882384  0.64118958  0.83317673  1
  O  O80  1  0.79194109  0.33986755  0.36220677  1
  O  O81  1  0.79882384  0.85881042  0.33317673  1
  O  O82  1  0.88555834  0.62165931  0.54652388  1
  O  O83  1  0.88454612  0.13189069  0.53965317  1
  O  O84  1  0.88555834  0.87834069  0.04652388  1
  O  O85  1  0.88454612  0.36810931  0.03965317  1
  O  O86  1  0.98518956  0.40840698  0.75078462  1
  O  O87  1  0.98518956  0.09159302  0.25078462  1
