# generated using pymatgen
data_LiVF4
_symmetry_space_group_name_H-M   'P 1'
_cell_length_a   15.46214347
_cell_length_b   11.17520684
_cell_length_c   3.97562986
_cell_angle_alpha   90.00000000
_cell_angle_beta   90.00000000
_cell_angle_gamma   90.00000000
_symmetry_Int_Tables_number   1
_chemical_formula_structural   LiVF4
_chemical_formula_sum   'Li8 V8 F32'
_cell_volume   686.95962476
_cell_formula_units_Z   8
loop_
 _symmetry_equiv_pos_site_id
 _symmetry_equiv_pos_as_xyz
  1  'x, y, z'
loop_
 _atom_site_type_symbol
 _atom_site_label
 _atom_site_symmetry_multiplicity
 _atom_site_fract_x
 _atom_site_fract_y
 _atom_site_fract_z
 _atom_site_occupancy
  Li  Li0  1  0.14644372  0.50000000  0.48459318  1
  Li  Li1  1  0.25000000  0.75000000  0.00000000  1
  Li  Li2  1  0.25000000  0.25000000  0.00000000  1
  Li  Li3  1  0.35355628  0.00000000  0.51540682  1
  Li  Li4  1  0.64644372  0.00000000  0.51540682  1
  Li  Li5  1  0.75000000  0.25000000  0.00000000  1
  Li  Li6  1  0.75000000  0.75000000  0.00000000  1
  Li  Li7  1  0.85355628  0.50000000  0.48459318  1
  V  V8  1  0.00000000  0.26717521  0.21724972  1
  V  V9  1  0.00000000  0.73282479  0.21724972  1
  V  V10  1  0.16831767  0.00000000  0.26124120  1
  V  V11  1  0.33168233  0.50000000  0.73875880  1
  V  V12  1  0.50000000  0.76717521  0.78275028  1
  V  V13  1  0.50000000  0.23282479  0.78275028  1
  V  V14  1  0.66831767  0.50000000  0.73875880  1
  V  V15  1  0.83168233  0.00000000  0.26124120  1
  F  F16  1  0.00000000  0.26436294  0.71799425  1
  F  F17  1  0.00000000  0.73563706  0.71799425  1
  F  F18  1  0.08632172  0.13284562  0.22444046  1
  F  F19  1  0.09545497  0.37602609  0.22006693  1
  F  F20  1  0.09545497  0.62397391  0.22006693  1
  F  F21  1  0.08632172  0.86715438  0.22444046  1
  F  F22  1  0.17195788  0.00000000  0.76017886  1
  F  F23  1  0.26189787  0.11967646  0.28569401  1
  F  F24  1  0.26189787  0.88032354  0.28569401  1
  F  F25  1  0.23810213  0.38032354  0.71430599  1
  F  F26  1  0.23810213  0.61967646  0.71430599  1
  F  F27  1  0.32804212  0.50000000  0.23982114  1
  F  F28  1  0.41367828  0.63284562  0.77555954  1
  F  F29  1  0.40454503  0.12397391  0.77993307  1
  F  F30  1  0.41367828  0.36715438  0.77555954  1
  F  F31  1  0.40454503  0.87602609  0.77993307  1
  F  F32  1  0.50000000  0.76436294  0.28200575  1
  F  F33  1  0.50000000  0.23563706  0.28200575  1
  F  F34  1  0.59545497  0.12397391  0.77993307  1
  F  F35  1  0.58632172  0.36715438  0.77555954  1
  F  F36  1  0.58632172  0.63284562  0.77555954  1
  F  F37  1  0.59545497  0.87602609  0.77993307  1
  F  F38  1  0.67195788  0.50000000  0.23982114  1
  F  F39  1  0.76189787  0.38032354  0.71430599  1
  F  F40  1  0.76189787  0.61967646  0.71430599  1
  F  F41  1  0.73810213  0.11967646  0.28569401  1
  F  F42  1  0.73810213  0.88032354  0.28569401  1
  F  F43  1  0.82804212  0.00000000  0.76017886  1
  F  F44  1  0.91367828  0.13284562  0.22444046  1
  F  F45  1  0.90454503  0.37602609  0.22006693  1
  F  F46  1  0.90454503  0.62397391  0.22006693  1
  F  F47  1  0.91367828  0.86715438  0.22444046  1
