# generated using pymatgen
data_Fe6O5F7
_symmetry_space_group_name_H-M   'P 1'
_cell_length_a   4.69195394
_cell_length_b   7.96414227
_cell_length_c   5.65748962
_cell_angle_alpha   93.67203649
_cell_angle_beta   89.06850316
_cell_angle_gamma   90.10699900
_symmetry_Int_Tables_number   1
_chemical_formula_structural   Fe6O5F7
_chemical_formula_sum   'Fe6 O5 F7'
_cell_volume   210.94364374
_cell_formula_units_Z   1
loop_
 _symmetry_equiv_pos_site_id
 _symmetry_equiv_pos_as_xyz
  1  'x, y, z'
loop_
 _atom_site_type_symbol
 _atom_site_label
 _atom_site_symmetry_multiplicity
 _atom_site_fract_x
 _atom_site_fract_y
 _atom_site_fract_z
 _atom_site_occupancy
  Fe  Fe0  1  0.54935500  0.64645040  0.16169594  1
  Fe  Fe1  1  0.46364860  0.02551379  0.49471499  1
  Fe  Fe2  1  0.49969723  0.33502483  0.83373220  1
  Fe  Fe3  1  0.01678820  0.69291290  0.67422073  1
  Fe  Fe4  1  0.97115970  0.30918698  0.33684078  1
  Fe  Fe5  1  0.98135924  0.98357774  0.00352325  1
  O  O6  1  0.80333291  0.76595687  0.96068368  1
  O  O7  1  0.79453481  0.08848258  0.29318394  1
  O  O8  1  0.70777315  0.43125839  0.14123605  1
  O  O9  1  0.29233307  0.24090701  0.52562735  1
  O  O10  1  0.20056016  0.90439451  0.70588951  1
  F  F11  1  0.81859170  0.45273605  0.62901604  1
  F  F12  1  0.70515628  0.09616544  0.78762380  1
  F  F13  1  0.69517193  0.76334661  0.46297815  1
  F  F14  1  0.29852906  0.57557616  0.87553885  1
  F  F15  1  0.30540379  0.88954969  0.20505236  1
  F  F16  1  0.19094341  0.21749056  0.03634056  1
  F  F17  1  0.20566078  0.58146949  0.37210084  1
