# generated using pymatgen
data_Na6Sn2O7
_symmetry_space_group_name_H-M   'P 1'
_cell_length_a   6.26980104
_cell_length_b   6.26980104
_cell_length_c   12.86187986
_cell_angle_alpha   73.55238726
_cell_angle_beta   106.44761274
_cell_angle_gamma   89.49978437
_symmetry_Int_Tables_number   1
_chemical_formula_structural   Na6Sn2O7
_chemical_formula_sum   'Na12 Sn4 O14'
_cell_volume   462.89552335
_cell_formula_units_Z   2
loop_
 _symmetry_equiv_pos_site_id
 _symmetry_equiv_pos_as_xyz
  1  'x, y, z'
loop_
 _atom_site_type_symbol
 _atom_site_label
 _atom_site_symmetry_multiplicity
 _atom_site_fract_x
 _atom_site_fract_y
 _atom_site_fract_z
 _atom_site_occupancy
  Na  Na0  1  0.38256594  0.83122881  0.58838233  1
  Na  Na1  1  0.34506682  0.61478490  0.87091105  1
  Na  Na2  1  0.00000000  0.50000000  0.50000000  1
  Na  Na3  1  0.20507960  0.20507960  0.75000000  1
  Na  Na4  1  0.16877119  0.61743406  0.08838233  1
  Na  Na5  1  0.38521510  0.65493318  0.37091105  1
  Na  Na6  1  0.61478490  0.34506682  0.62908895  1
  Na  Na7  1  0.83122881  0.38256594  0.91161767  1
  Na  Na8  1  0.79492040  0.79492040  0.25000000  1
  Na  Na9  1  0.65493318  0.38521510  0.12908895  1
  Na  Na10  1  0.61743406  0.16877119  0.41161767  1
  Na  Na11  1  0.50000000  0.00000000  0.00000000  1
  Sn  Sn12  1  0.80838602  0.89301363  0.86788907  1
  Sn  Sn13  1  0.89301363  0.80838602  0.63211093  1
  Sn  Sn14  1  0.10698637  0.19161398  0.36788907  1
  Sn  Sn15  1  0.19161398  0.10698637  0.13211093  1
  O  O16  1  0.13447271  0.90589170  0.89978151  1
  O  O17  1  0.09410830  0.86552729  0.39978151  1
  O  O18  1  0.16715168  0.60265252  0.68423373  1
  O  O19  1  0.72671772  0.66694007  0.98901682  1
  O  O20  1  0.72311480  0.72311480  0.75000000  1
  O  O21  1  0.66694007  0.72671772  0.51098318  1
  O  O22  1  0.39734748  0.83284832  0.18423373  1
  O  O23  1  0.60265252  0.16715168  0.81576627  1
  O  O24  1  0.33305993  0.27328228  0.48901682  1
  O  O25  1  0.27688520  0.27688520  0.25000000  1
  O  O26  1  0.27328228  0.33305993  0.01098318  1
  O  O27  1  0.83284832  0.39734748  0.31576627  1
  O  O28  1  0.90589170  0.13447271  0.60021849  1
  O  O29  1  0.86552729  0.09410830  0.10021849  1
