# generated using pymatgen
data_Fe6O7F5
_symmetry_space_group_name_H-M   'P 1'
_cell_length_a   4.76224067
_cell_length_b   4.76224067
_cell_length_c   9.10017929
_cell_angle_alpha   90.00000000
_cell_angle_beta   90.00000000
_cell_angle_gamma   95.70256659
_symmetry_Int_Tables_number   1
_chemical_formula_structural   Fe6O7F5
_chemical_formula_sum   'Fe6 O7 F5'
_cell_volume   205.36102374
_cell_formula_units_Z   1
loop_
 _symmetry_equiv_pos_site_id
 _symmetry_equiv_pos_as_xyz
  1  'x, y, z'
loop_
 _atom_site_type_symbol
 _atom_site_label
 _atom_site_symmetry_multiplicity
 _atom_site_fract_x
 _atom_site_fract_y
 _atom_site_fract_z
 _atom_site_occupancy
  Fe  Fe0  1  0.01057490  0.98942510  0.00771124  1
  Fe  Fe1  1  0.01057490  0.98942510  0.32562276  1
  Fe  Fe2  1  0.99921007  0.00078993  0.66666700  1
  Fe  Fe3  1  0.46882091  0.53117909  0.16666700  1
  Fe  Fe4  1  0.50399916  0.49600084  0.83452559  1
  Fe  Fe5  1  0.50399916  0.49600084  0.49880741  1
  O  O6  1  0.18880609  0.81119391  0.16666700  1
  O  O7  1  0.30154629  0.30617646  0.99463361  1
  O  O8  1  0.30154629  0.30617646  0.33870039  1
  O  O9  1  0.30720722  0.30040807  0.66666700  1
  O  O10  1  0.69382354  0.69845371  0.99463361  1
  O  O11  1  0.69382354  0.69845371  0.33870039  1
  O  O12  1  0.69959193  0.69279278  0.66666700  1
  F  F13  1  0.19309737  0.80690263  0.50280416  1
  F  F14  1  0.19309737  0.80690263  0.83052884  1
  F  F15  1  0.80736955  0.19263045  0.16666700  1
  F  F16  1  0.81145636  0.18854364  0.83312374  1
  F  F17  1  0.81145636  0.18854364  0.50020926  1
