# generated using pymatgen
data_Li3Mn2(SiO4)2
_symmetry_space_group_name_H-M   'P 1'
_cell_length_a   6.29581982
_cell_length_b   11.13237481
_cell_length_c   5.12562333
_cell_angle_alpha   90.08797892
_cell_angle_beta   90.00000000
_cell_angle_gamma   90.00000000
_symmetry_Int_Tables_number   1
_chemical_formula_structural   Li3Mn2(SiO4)2
_chemical_formula_sum   'Li6 Mn4 Si4 O16'
_cell_volume   359.24132221
_cell_formula_units_Z   2
loop_
 _symmetry_equiv_pos_site_id
 _symmetry_equiv_pos_as_xyz
  1  'x, y, z'
loop_
 _atom_site_type_symbol
 _atom_site_label
 _atom_site_symmetry_multiplicity
 _atom_site_fract_x
 _atom_site_fract_y
 _atom_site_fract_z
 _atom_site_occupancy
  Li  Li0  1  0.01040105  0.82158215  0.76391078  1
  Li  Li1  1  0.48959895  0.32158215  0.76391078  1
  Li  Li2  1  0.49511093  0.67477217  0.25743862  1
  Li  Li3  1  0.74455344  0.90878803  0.25716218  1
  Li  Li4  1  0.75544656  0.40878803  0.25716218  1
  Li  Li5  1  0.00488907  0.17477217  0.25743862  1
  Mn  Mn6  1  0.25240471  0.42144907  0.25804126  1
  Mn  Mn7  1  0.24759529  0.92144907  0.25804126  1
  Mn  Mn8  1  0.74772428  0.08532477  0.75058581  1
  Mn  Mn9  1  0.75227572  0.58532477  0.75058581  1
  Si  Si10  1  0.99723190  0.66651090  0.25765722  1
  Si  Si11  1  0.50276810  0.16651090  0.25765722  1
  Si  Si12  1  0.50332068  0.83411437  0.77027466  1
  Si  Si13  1  0.99667932  0.33411437  0.77027466  1
  O  O14  1  0.95812036  0.19627466  0.65735243  1
  O  O15  1  0.97138136  0.66788882  0.58002956  1
  O  O16  1  0.21854229  0.38347189  0.65019579  1
  O  O17  1  0.22044167  0.59985401  0.18804290  1
  O  O18  1  0.27955833  0.09985401  0.18804290  1
  O  O19  1  0.28145771  0.88347189  0.65019579  1
  O  O20  1  0.52861864  0.16788882  0.58002956  1
  O  O21  1  0.54187964  0.69627466  0.65735243  1
  O  O22  1  0.50550645  0.30768542  0.15413594  1
  O  O23  1  0.50413520  0.83353916  0.08955826  1
  O  O24  1  0.71783565  0.09181803  0.14758442  1
  O  O25  1  0.71128056  0.91563054  0.66593016  1
  O  O26  1  0.78871944  0.41563054  0.66593016  1
  O  O27  1  0.78216435  0.59181803  0.14758442  1
  O  O28  1  0.99586480  0.33353916  0.08955826  1
  O  O29  1  0.99449355  0.80768542  0.15413594  1
