# generated using pymatgen
data_BaLi4O3
_symmetry_space_group_name_H-M   'P 1'
_cell_length_a   5.79865720
_cell_length_b   5.43488903
_cell_length_c   13.69117184
_cell_angle_alpha   89.99333302
_cell_angle_beta   89.98869746
_cell_angle_gamma   57.77097606
_symmetry_Int_Tables_number   1
_chemical_formula_structural   BaLi4O3
_chemical_formula_sum   'Ba4 Li16 O12'
_cell_volume   364.99727736
_cell_formula_units_Z   4
loop_
 _symmetry_equiv_pos_site_id
 _symmetry_equiv_pos_as_xyz
  1  'x, y, z'
loop_
 _atom_site_type_symbol
 _atom_site_label
 _atom_site_symmetry_multiplicity
 _atom_site_fract_x
 _atom_site_fract_y
 _atom_site_fract_z
 _atom_site_occupancy
  Ba  Ba0  1  0.97619056  0.04202659  0.34224800  1
  Ba  Ba1  1  0.51852348  0.95795518  0.84224921  1
  Ba  Ba2  1  0.02095151  0.95302968  0.65556524  1
  Ba  Ba3  1  0.47363538  0.04693933  0.15556114  1
  Li  Li4  1  0.16608503  0.66718295  0.17678852  1
  Li  Li5  1  0.33355074  0.33280970  0.67678364  1
  Li  Li6  1  0.79819048  0.40236764  0.15824387  1
  Li  Li7  1  0.70066598  0.59761971  0.65824664  1
  Li  Li8  1  0.45824560  0.72451374  0.49200089  1
  Li  Li9  1  0.68271887  0.27551492  0.99210397  1
  Li  Li10  1  0.30225098  0.74518494  0.00543247  1
  Li  Li11  1  0.54740240  0.25485596  0.50551190  1
  Li  Li12  1  0.19480118  0.25557270  0.50543585  1
  Li  Li13  1  0.95041534  0.74443301  0.00551916  1
  Li  Li14  1  0.03903726  0.27435703  0.99241421  1
  Li  Li15  1  0.81335804  0.72566892  0.49250539  1
  Li  Li16  1  0.66637725  0.66675416  0.32086299  1
  Li  Li17  1  0.83342906  0.33325514  0.82086190  1
  Li  Li18  1  0.29910890  0.40008283  0.34226775  1
  Li  Li19  1  0.19933411  0.59991024  0.84226658  1
  O  O20  1  0.99286421  0.51441289  0.24948954  1
  O  O21  1  0.00758402  0.48559678  0.74943432  1
  O  O22  1  0.31033731  0.37638593  0.98984069  1
  O  O23  1  0.18668175  0.62366669  0.48984327  1
  O  O24  1  0.49748764  0.00558882  0.39751597  1
  O  O25  1  0.00338785  0.99438149  0.89751906  1
  O  O26  1  0.49155161  0.51449392  0.24962868  1
  O  O27  1  0.50641204  0.48543327  0.74969106  1
  O  O28  1  0.81747104  0.36149892  0.50825409  1
  O  O29  1  0.67900396  0.63850851  0.00826346  1
  O  O30  1  0.99430968  0.01318455  0.10229895  1
  O  O31  1  0.50775877  0.98681384  0.60230361  1
