# generated using pymatgen
data_Fe6O7F5
_symmetry_space_group_name_H-M   'P 1'
_cell_length_a   7.69359087
_cell_length_b   5.65003962
_cell_length_c   5.65003962
_cell_angle_alpha   69.04221122
_cell_angle_beta   68.67567252
_cell_angle_gamma   68.67567252
_symmetry_Int_Tables_number   1
_chemical_formula_structural   Fe6O7F5
_chemical_formula_sum   'Fe6 O7 F5'
_cell_volume   205.80598585
_cell_formula_units_Z   1
loop_
 _symmetry_equiv_pos_site_id
 _symmetry_equiv_pos_as_xyz
  1  'x, y, z'
loop_
 _atom_site_type_symbol
 _atom_site_label
 _atom_site_symmetry_multiplicity
 _atom_site_fract_x
 _atom_site_fract_y
 _atom_site_fract_z
 _atom_site_occupancy
  Fe  Fe0  1  0.83320280  0.66509472  0.66509472  1
  Fe  Fe1  1  0.65355961  0.33592505  0.33592505  1
  Fe  Fe2  1  0.33102380  0.65415871  0.65415871  1
  Fe  Fe3  1  0.18739465  0.34416735  0.34416735  1
  Fe  Fe4  1  0.49646523  0.99827803  0.99827803  1
  Fe  Fe5  1  0.00145224  0.00441354  0.00441354  1
  O  O6  1  0.66508652  0.02720211  0.64110074  1
  O  O7  1  0.33506908  0.35708484  0.96910871  1
  O  O8  1  0.37600750  0.43573881  0.43573881  1
  O  O9  1  0.33506908  0.96910871  0.35708484  1
  O  O10  1  0.66508652  0.64110074  0.02720211  1
  O  O11  1  0.00046017  0.30315244  0.70195059  1
  O  O12  1  0.00046017  0.70195059  0.30315244  1
  F  F13  1  0.29630121  0.89021175  0.89021175  1
  F  F14  1  0.95075990  0.23537826  0.23537826  1
  F  F15  1  0.63157228  0.56523121  0.56523121  1
  F  F16  1  0.03694375  0.77021290  0.77021290  1
  F  F17  1  0.70408550  0.10158925  0.10158925  1
