# generated using pymatgen
data_LiMn2F5
_symmetry_space_group_name_H-M   'P 1'
_cell_length_a   5.52059084
_cell_length_b   10.93001157
_cell_length_c   13.39806489
_cell_angle_alpha   90.00000000
_cell_angle_beta   92.14708890
_cell_angle_gamma   90.00000000
_symmetry_Int_Tables_number   1
_chemical_formula_structural   LiMn2F5
_chemical_formula_sum   'Li8 Mn16 F40'
_cell_volume   807.87329233
_cell_formula_units_Z   8
loop_
 _symmetry_equiv_pos_site_id
 _symmetry_equiv_pos_as_xyz
  1  'x, y, z'
loop_
 _atom_site_type_symbol
 _atom_site_label
 _atom_site_symmetry_multiplicity
 _atom_site_fract_x
 _atom_site_fract_y
 _atom_site_fract_z
 _atom_site_occupancy
  Li  Li0  1  0.19124642  0.41567576  0.46995516  1
  Li  Li1  1  0.22785511  0.93410550  0.26864401  1
  Li  Li2  1  0.27214489  0.43410550  0.23135599  1
  Li  Li3  1  0.30875358  0.91567576  0.03004484  1
  Li  Li4  1  0.69124642  0.08432424  0.96995516  1
  Li  Li5  1  0.72785511  0.56589450  0.76864401  1
  Li  Li6  1  0.77214489  0.06589450  0.73135599  1
  Li  Li7  1  0.80875358  0.58432424  0.53004484  1
  Mn  Mn8  1  0.25331182  0.02258752  0.82550114  1
  Mn  Mn9  1  0.28971167  0.71936207  0.45511661  1
  Mn  Mn10  1  0.22682733  0.03744643  0.58757161  1
  Mn  Mn11  1  0.24773205  0.19766180  0.33747683  1
  Mn  Mn12  1  0.27317267  0.53744643  0.91242839  1
  Mn  Mn13  1  0.21028833  0.21936207  0.04488339  1
  Mn  Mn14  1  0.25226795  0.69766180  0.16252317  1
  Mn  Mn15  1  0.24668818  0.52258752  0.67449886  1
  Mn  Mn16  1  0.75331182  0.47741248  0.32550114  1
  Mn  Mn17  1  0.74773205  0.30233820  0.83747683  1
  Mn  Mn18  1  0.78971167  0.78063793  0.95511661  1
  Mn  Mn19  1  0.72682733  0.46255357  0.08757161  1
  Mn  Mn20  1  0.75226795  0.80233820  0.66252317  1
  Mn  Mn21  1  0.77317267  0.96255357  0.41242839  1
  Mn  Mn22  1  0.71028833  0.28063793  0.54488339  1
  Mn  Mn23  1  0.74668818  0.97741248  0.17449886  1
  F  F24  1  0.10751985  0.66160020  0.01242628  1
  F  F25  1  0.07040436  0.68581000  0.58880735  1
  F  F26  1  0.07408451  0.90367866  0.92459875  1
  F  F27  1  0.09424418  0.87364690  0.13798760  1
  F  F28  1  0.00854377  0.54519654  0.19458284  1
  F  F29  1  0.00388033  0.94095511  0.69974834  1
  F  F30  1  0.23182425  0.15068780  0.71006434  1
  F  F31  1  0.05117059  0.56282315  0.41241651  1
  F  F32  1  0.12976554  0.90209736  0.47640721  1
  F  F33  1  0.22016788  0.27198215  0.19380637  1
  F  F34  1  0.26817575  0.65068780  0.78993566  1
  F  F35  1  0.49611967  0.44095511  0.80025166  1
  F  F36  1  0.27983212  0.77198215  0.30619363  1
  F  F37  1  0.42591549  0.40367866  0.57540125  1
  F  F38  1  0.42959564  0.18581000  0.91119265  1
  F  F39  1  0.37023446  0.40209736  0.02359279  1
  F  F40  1  0.39248015  0.16160020  0.48757372  1
  F  F41  1  0.44882941  0.06282315  0.08758349  1
  F  F42  1  0.59424418  0.62635310  0.63798760  1
  F  F43  1  0.49145623  0.04519654  0.30541716  1
  F  F44  1  0.50854377  0.95480346  0.69458284  1
  F  F45  1  0.40575582  0.37364690  0.36201240  1
  F  F46  1  0.55117059  0.93717685  0.91241651  1
  F  F47  1  0.60751985  0.83839980  0.51242628  1
  F  F48  1  0.62976554  0.59790264  0.97640721  1
  F  F49  1  0.57040436  0.81419000  0.08880735  1
  F  F50  1  0.57408451  0.59632134  0.42459875  1
  F  F51  1  0.72016788  0.22801785  0.69380637  1
  F  F52  1  0.50388033  0.55904489  0.19974834  1
  F  F53  1  0.73182425  0.34931220  0.21006434  1
  F  F54  1  0.77983212  0.72801785  0.80619363  1
  F  F55  1  0.87023446  0.09790264  0.52359279  1
  F  F56  1  0.94882941  0.43717685  0.58758349  1
  F  F57  1  0.76817575  0.84931220  0.28993566  1
  F  F58  1  0.99611967  0.05904489  0.30025166  1
  F  F59  1  0.99145623  0.45480346  0.80541716  1
  F  F60  1  0.90575582  0.12635310  0.86201240  1
  F  F61  1  0.92591549  0.09632134  0.07540125  1
  F  F62  1  0.92959564  0.31419000  0.41119265  1
  F  F63  1  0.89248015  0.33839980  0.98757372  1
