# generated using pymatgen
data_LiV2(OF)3
_symmetry_space_group_name_H-M   'P 1'
_cell_length_a   5.11075213
_cell_length_b   5.14327921
_cell_length_c   13.50720527
_cell_angle_alpha   91.66421545
_cell_angle_beta   91.11717160
_cell_angle_gamma   61.43737370
_symmetry_Int_Tables_number   1
_chemical_formula_structural   LiV2(OF)3
_chemical_formula_sum   'Li3 V6 O9 F9'
_cell_volume   311.70139730
_cell_formula_units_Z   3
loop_
 _symmetry_equiv_pos_site_id
 _symmetry_equiv_pos_as_xyz
  1  'x, y, z'
loop_
 _atom_site_type_symbol
 _atom_site_label
 _atom_site_symmetry_multiplicity
 _atom_site_fract_x
 _atom_site_fract_y
 _atom_site_fract_z
 _atom_site_occupancy
  Li  Li0  1  0.31050594  0.34732904  0.37436112  1
  Li  Li1  1  0.66063613  0.67633688  0.03809168  1
  Li  Li2  1  0.97095735  0.01365424  0.70915402  1
  V  V3  1  0.31432562  0.32172169  0.66645298  1
  V  V4  1  0.02845680  0.97803663  0.48689007  1
  V  V5  1  0.01166350  0.01527514  0.00325601  1
  V  V6  1  0.37043745  0.32332339  0.15366330  1
  V  V7  1  0.59033516  0.68572797  0.82572171  1
  V  V8  1  0.65700782  0.67250753  0.33255097  1
  O  O9  1  0.08707880  0.24326755  0.59120578  1
  O  O10  1  0.29299157  0.04704503  0.08443887  1
  O  O11  1  0.34275431  0.72696180  0.91482380  1
  O  O12  1  0.43526365  0.58072724  0.25729204  1
  O  O13  1  0.59877976  0.39734138  0.74932673  1
  O  O14  1  0.31715889  0.96083046  0.41761368  1
  O  O15  1  0.65599606  0.30482822  0.08386808  1
  O  O16  1  0.37912852  0.99570864  0.75558076  1
  O  O17  1  0.93502516  0.71487131  0.41910201  1
  F  F18  1  0.03340889  0.39498605  0.25689208  1
  F  F19  1  0.03639764  0.66775181  0.08436916  1
  F  F20  1  0.26008428  0.67049530  0.58668155  1
  F  F21  1  0.60942061  0.01052082  0.25371239  1
  F  F22  1  0.68842415  0.05911472  0.59207158  1
  F  F23  1  0.69783827  0.32541079  0.42150080  1
  F  F24  1  0.91733534  0.35368482  0.91688835  1
  F  F25  1  0.73840742  0.90949814  0.91890409  1
  F  F26  1  0.98955292  0.63013642  0.75033136  1
