# generated using pymatgen
data_Li2V3SnO8
_symmetry_space_group_name_H-M   'P 1'
_cell_length_a   6.04731645
_cell_length_b   6.04731629
_cell_length_c   6.04731605
_cell_angle_alpha   59.96608287
_cell_angle_beta   59.96608258
_cell_angle_gamma   59.96608420
_symmetry_Int_Tables_number   1
_chemical_formula_structural   Li2V3SnO8
_chemical_formula_sum   'Li2 V3 Sn1 O8'
_cell_volume   156.25678544
_cell_formula_units_Z   1
loop_
 _symmetry_equiv_pos_site_id
 _symmetry_equiv_pos_as_xyz
  1  'x, y, z'
loop_
 _atom_site_type_symbol
 _atom_site_label
 _atom_site_symmetry_multiplicity
 _atom_site_fract_x
 _atom_site_fract_y
 _atom_site_fract_z
 _atom_site_occupancy
  Li  Li0  1  0.12034208  0.12034208  0.12034208  1
  Li  Li1  1  0.49944849  0.49944849  0.49944849  1
  V  V2  1  0.02337692  0.49309894  0.49309894  1
  V  V3  1  0.49309894  0.02337692  0.49309894  1
  V  V4  1  0.49309894  0.49309894  0.02337693  1
  Sn  Sn5  1  0.87947295  0.87947295  0.87947295  1
  O  O6  1  0.25730618  0.25730618  0.25730618  1
  O  O7  1  0.25150713  0.25150713  0.71375789  1
  O  O8  1  0.25150713  0.71375789  0.25150713  1
  O  O9  1  0.71375789  0.25150713  0.25150713  1
  O  O10  1  0.28450532  0.74504216  0.74504216  1
  O  O11  1  0.74504216  0.28450532  0.74504216  1
  O  O12  1  0.74504216  0.74504216  0.28450532  1
  O  O13  1  0.74249370  0.74249370  0.74249370  1
