# generated using pymatgen
data_Li3MnB6O13
_symmetry_space_group_name_H-M   'P 1'
_cell_length_a   7.51783275
_cell_length_b   10.29388481
_cell_length_c   11.81842272
_cell_angle_alpha   90.00000000
_cell_angle_beta   90.00000000
_cell_angle_gamma   90.00000000
_symmetry_Int_Tables_number   1
_chemical_formula_structural   Li3MnB6O13
_chemical_formula_sum   'Li12 Mn4 B24 O52'
_cell_volume   914.60060333
_cell_formula_units_Z   4
loop_
 _symmetry_equiv_pos_site_id
 _symmetry_equiv_pos_as_xyz
  1  'x, y, z'
loop_
 _atom_site_type_symbol
 _atom_site_label
 _atom_site_symmetry_multiplicity
 _atom_site_fract_x
 _atom_site_fract_y
 _atom_site_fract_z
 _atom_site_occupancy
  Li  Li0  1  0.20223131  0.49534343  0.51314699  1
  Li  Li1  1  0.23245015  0.23025047  0.75904756  1
  Li  Li2  1  0.21460269  0.75940613  0.76043969  1
  Li  Li3  1  0.28539731  0.24059387  0.26043969  1
  Li  Li4  1  0.26754985  0.76974953  0.25904756  1
  Li  Li5  1  0.29776869  0.50465657  0.01314699  1
  Li  Li6  1  0.70223131  0.00465657  0.48685301  1
  Li  Li7  1  0.73245015  0.26974953  0.24095244  1
  Li  Li8  1  0.71460269  0.74059387  0.23956031  1
  Li  Li9  1  0.78539731  0.25940613  0.73956031  1
  Li  Li10  1  0.76754985  0.73025047  0.74095244  1
  Li  Li11  1  0.79776869  0.99534343  0.98685301  1
  Mn  Mn12  1  0.04725428  0.51613966  0.24925924  1
  Mn  Mn13  1  0.45274572  0.48386034  0.74925924  1
  Mn  Mn14  1  0.54725428  0.98386034  0.75074076  1
  Mn  Mn15  1  0.95274572  0.01613966  0.25074076  1
  B  B16  1  0.03873391  0.12802443  0.58520951  1
  B  B17  1  0.03311654  0.87172907  0.58483100  1
  B  B18  1  0.10254845  0.50164194  0.75926930  1
  B  B19  1  0.19621665  0.77652082  0.00347375  1
  B  B20  1  0.18642869  0.21953757  0.01277707  1
  B  B21  1  0.22906635  0.99657619  0.43722018  1
  B  B22  1  0.27093365  0.00342381  0.93722018  1
  B  B23  1  0.31357131  0.78046243  0.51277707  1
  B  B24  1  0.30378335  0.22347918  0.50347375  1
  B  B25  1  0.39745155  0.49835806  0.25926930  1
  B  B26  1  0.46688346  0.12827093  0.08483100  1
  B  B27  1  0.46126609  0.87197557  0.08520951  1
  B  B28  1  0.53873391  0.37197557  0.41479049  1
  B  B29  1  0.53311654  0.62827093  0.41516900  1
  B  B30  1  0.60254845  0.99835806  0.24073070  1
  B  B31  1  0.69621665  0.72347918  0.99652625  1
  B  B32  1  0.68642869  0.28046243  0.98722293  1
  B  B33  1  0.72906635  0.50342381  0.56277982  1
  B  B34  1  0.77093365  0.49657619  0.06277982  1
  B  B35  1  0.81357131  0.71953757  0.48722293  1
  B  B36  1  0.80378335  0.27652082  0.49652625  1
  B  B37  1  0.89745155  0.00164194  0.74073070  1
  B  B38  1  0.96688346  0.37172907  0.91516900  1
  B  B39  1  0.96126609  0.62802443  0.91479049  1
  O  O40  1  0.03207494  0.67233965  0.28195385  1
  O  O41  1  0.04580093  0.38446663  0.80122081  1
  O  O42  1  0.03568895  0.61664878  0.79969419  1
  O  O43  1  0.08347829  0.42486458  0.36381100  1
  O  O44  1  0.10010118  0.66424121  0.99488347  1
  O  O45  1  0.10975161  0.99957910  0.54386123  1
  O  O46  1  0.10986696  0.33788573  0.99314862  1
  O  O47  1  0.13317401  0.95873045  0.33303876  1
  O  O48  1  0.14174000  0.10878379  0.95295627  1
  O  O49  1  0.17744315  0.77966864  0.59171070  1
  O  O50  1  0.18577231  0.21844029  0.59244825  1
  O  O51  1  0.18963171  0.87447226  0.92315762  1
  O  O52  1  0.23609431  0.50438771  0.67782757  1
  O  O53  1  0.26390569  0.49561229  0.17782757  1
  O  O54  1  0.31036829  0.12552774  0.42315762  1
  O  O55  1  0.31422769  0.78155971  0.09244825  1
  O  O56  1  0.32255685  0.22033136  0.09171070  1
  O  O57  1  0.35826000  0.89121621  0.45295627  1
  O  O58  1  0.36682599  0.04126955  0.83303876  1
  O  O59  1  0.39013304  0.66211427  0.49314862  1
  O  O60  1  0.39024839  0.00042090  0.04386123  1
  O  O61  1  0.39989882  0.33575879  0.49488347  1
  O  O62  1  0.41652171  0.57513542  0.86381100  1
  O  O63  1  0.46431105  0.38335122  0.29969419  1
  O  O64  1  0.45419907  0.61553337  0.30122081  1
  O  O65  1  0.46792506  0.32766035  0.78195385  1
  O  O66  1  0.53207494  0.82766035  0.71804615  1
  O  O67  1  0.54580093  0.11553337  0.19877919  1
  O  O68  1  0.53568895  0.88335122  0.20030581  1
  O  O69  1  0.58347829  0.07513542  0.63618900  1
  O  O70  1  0.60010118  0.83575879  0.00511653  1
  O  O71  1  0.60975161  0.50042090  0.45613877  1
  O  O72  1  0.60986696  0.16211427  0.00685138  1
  O  O73  1  0.63317401  0.54126955  0.66696124  1
  O  O74  1  0.64174000  0.39121621  0.04704373  1
  O  O75  1  0.67744315  0.72033136  0.40828930  1
  O  O76  1  0.68577231  0.28155971  0.40755175  1
  O  O77  1  0.68963171  0.62552774  0.07684238  1
  O  O78  1  0.73609431  0.99561229  0.32217243  1
  O  O79  1  0.76390569  0.00438771  0.82217243  1
  O  O80  1  0.81036829  0.37447226  0.57684238  1
  O  O81  1  0.81422769  0.71844029  0.90755175  1
  O  O82  1  0.82255685  0.27966864  0.90828930  1
  O  O83  1  0.85826000  0.60878379  0.54704373  1
  O  O84  1  0.86682599  0.45873045  0.16696124  1
  O  O85  1  0.89013304  0.83788573  0.50685138  1
  O  O86  1  0.89024839  0.49957910  0.95613877  1
  O  O87  1  0.89989882  0.16424121  0.50511653  1
  O  O88  1  0.91652171  0.92486458  0.13618900  1
  O  O89  1  0.96431105  0.11664878  0.70030581  1
  O  O90  1  0.95419907  0.88446663  0.69877919  1
  O  O91  1  0.96792506  0.17233965  0.21804615  1
