# generated using pymatgen
data_Li3V4(OF3)3
_symmetry_space_group_name_H-M   'P 1'
_cell_length_a   5.19496870
_cell_length_b   5.54465851
_cell_length_c   17.27893711
_cell_angle_alpha   91.37268683
_cell_angle_beta   97.57609749
_cell_angle_gamma   62.54598008
_symmetry_Int_Tables_number   1
_chemical_formula_structural   Li3V4(OF3)3
_chemical_formula_sum   'Li6 V8 O6 F18'
_cell_volume   437.41754075
_cell_formula_units_Z   2
loop_
 _symmetry_equiv_pos_site_id
 _symmetry_equiv_pos_as_xyz
  1  'x, y, z'
loop_
 _atom_site_type_symbol
 _atom_site_label
 _atom_site_symmetry_multiplicity
 _atom_site_fract_x
 _atom_site_fract_y
 _atom_site_fract_z
 _atom_site_occupancy
  Li  Li0  1  0.18052743  0.33011216  0.70469639  1
  Li  Li1  1  0.30185718  0.41292131  0.04535746  1
  Li  Li2  1  0.68124427  0.06999527  0.44519687  1
  Li  Li3  1  0.43033950  0.72431565  0.56795039  1
  Li  Li4  1  0.57398870  0.81616259  0.93988197  1
  Li  Li5  1  0.82110607  0.66297218  0.30138930  1
  V  V6  1  0.00007113  0.00909042  0.00028882  1
  V  V7  1  0.24106204  0.37327886  0.87543204  1
  V  V8  1  0.48156894  0.72088555  0.75511964  1
  V  V9  1  0.49617633  0.24733064  0.24969690  1
  V  V10  1  0.74485657  0.09138223  0.62346683  1
  V  V11  1  0.28053816  0.88257518  0.37068136  1
  V  V12  1  0.97084800  0.52146540  0.49636963  1
  V  V13  1  0.75987090  0.63943750  0.11996868  1
  O  O14  1  0.19405844  0.19668987  0.96302010  1
  O  O15  1  0.33654379  0.04940591  0.28932968  1
  O  O16  1  0.30386607  0.52186997  0.78246490  1
  O  O17  1  0.69520421  0.67463593  0.40636043  1
  O  O18  1  0.74569395  0.81421033  0.56003605  1
  O  O19  1  0.84422152  0.77337088  0.03476888  1
  F  F20  1  0.22676838  0.08087114  0.80250475  1
  F  F21  1  0.26773791  0.19398692  0.44514540  1
  F  F22  1  0.27950686  0.66418611  0.94280777  1
  F  F23  1  0.29605130  0.34701816  0.59808552  1
  F  F24  1  0.20677409  0.39454764  0.15075165  1
  F  F25  1  0.19835072  0.89767966  0.65218035  1
  F  F26  1  0.18073658  0.74575433  0.47111339  1
  F  F27  1  0.68396332  0.12131888  0.90801490  1
  F  F28  1  0.23853016  0.57460677  0.31068369  1
  F  F29  1  0.75084885  0.42439246  0.68192418  1
  F  F30  1  0.32093147  0.84800561  0.09153827  1
  F  F31  1  0.77036355  0.29431551  0.52955307  1
  F  F32  1  0.82476331  0.09581611  0.34839603  1
  F  F33  1  0.78436334  0.60965963  0.85031286  1
  F  F34  1  0.69412679  0.47387344  0.22012715  1
  F  F35  1  0.65980460  0.96409036  0.71645345  1
  F  F36  1  0.72433810  0.33138138  0.06255191  1
  F  F37  1  0.76850345  0.91346107  0.19710536  1
