# generated using pymatgen
data_Li4TiFe3Cu2(PO4)6
_symmetry_space_group_name_H-M   'P 1'
_cell_length_a   8.57580820
_cell_length_b   8.72801790
_cell_length_c   8.67570262
_cell_angle_alpha   61.26068380
_cell_angle_beta   61.54831919
_cell_angle_gamma   61.57689223
_symmetry_Int_Tables_number   1
_chemical_formula_structural   Li4TiFe3Cu2(PO4)6
_chemical_formula_sum   'Li4 Ti1 Fe3 Cu2 P6 O24'
_cell_volume   474.24178684
_cell_formula_units_Z   1
loop_
 _symmetry_equiv_pos_site_id
 _symmetry_equiv_pos_as_xyz
  1  'x, y, z'
loop_
 _atom_site_type_symbol
 _atom_site_label
 _atom_site_symmetry_multiplicity
 _atom_site_fract_x
 _atom_site_fract_y
 _atom_site_fract_z
 _atom_site_occupancy
  Li  Li0  1  0.74574347  0.15331190  0.35258087  1
  Li  Li1  1  0.28437461  0.84316873  0.65750990  1
  Li  Li2  1  0.65629038  0.28399217  0.84484714  1
  Li  Li3  1  0.84402992  0.65566202  0.28406879  1
  Ti  Ti4  1  0.85213895  0.84702706  0.85236529  1
  Fe  Fe5  1  0.14583631  0.14531277  0.14091162  1
  Fe  Fe6  1  0.35409331  0.36250931  0.35755967  1
  Fe  Fe7  1  0.64914729  0.64863241  0.65216439  1
  Cu  Cu8  1  0.02420568  0.00107041  0.98651383  1
  Cu  Cu9  1  0.48120060  0.51401987  0.50477223  1
  P  P10  1  0.74709327  0.44725031  0.04692371  1
  P  P11  1  0.04873941  0.74577692  0.44738890  1
  P  P12  1  0.44597889  0.04618706  0.74783250  1
  P  P13  1  0.24357301  0.54094758  0.96368811  1
  P  P14  1  0.54803571  0.96463936  0.24668997  1
  P  P15  1  0.95768287  0.24121827  0.54025657  1
  O  O16  1  0.12954177  0.28393145  0.50016684  1
  O  O17  1  0.29771220  0.51199910  0.12227751  1
  O  O18  1  0.05669727  0.91752199  0.26951298  1
  O  O19  1  0.54085860  0.11847224  0.29353684  1
  O  O20  1  0.99136813  0.79954086  0.62189128  1
  O  O21  1  0.23976559  0.58896971  0.44006197  1
  O  O22  1  0.25966650  0.07737050  0.90732694  1
  O  O23  1  0.46147457  0.22548457  0.57881743  1
  O  O24  1  0.17446741  0.38952736  0.00580356  1
  O  O25  1  0.59258294  0.43594117  0.24051682  1
  O  O26  1  0.08367624  0.73646781  0.93325114  1
  O  O27  1  0.38173248  0.01831414  0.19043449  1
  O  O28  1  0.61878543  0.98612016  0.80938434  1
  O  O29  1  0.90472600  0.25848320  0.07698087  1
  O  O30  1  0.40423257  0.55964324  0.77235669  1
  O  O31  1  0.80553818  0.61654373  0.99200920  1
  O  O32  1  0.56064226  0.77537187  0.40803654  1
  O  O33  1  0.73972788  0.92694011  0.08334917  1
  O  O34  1  0.76986127  0.40249707  0.56770056  1
  O  O35  1  0.97517433  0.18457579  0.38877746  1
  O  O36  1  0.46334518  0.89367081  0.69470614  1
  O  O37  1  0.93536743  0.07772530  0.73459162  1
  O  O38  1  0.68712002  0.46722887  0.89716861  1
  O  O39  1  0.89777006  0.68393180  0.46826453  1
