# generated using pymatgen
data_Na2V2O5
_symmetry_space_group_name_H-M   'P 1'
_cell_length_a   6.60973854
_cell_length_b   17.00700436
_cell_length_c   5.34774845
_cell_angle_alpha   90.01352397
_cell_angle_beta   89.99772336
_cell_angle_gamma   89.93335822
_symmetry_Int_Tables_number   1
_chemical_formula_structural   Na2V2O5
_chemical_formula_sum   'Na8 V8 O20'
_cell_volume   601.14988442
_cell_formula_units_Z   4
loop_
 _symmetry_equiv_pos_site_id
 _symmetry_equiv_pos_as_xyz
  1  'x, y, z'
loop_
 _atom_site_type_symbol
 _atom_site_label
 _atom_site_symmetry_multiplicity
 _atom_site_fract_x
 _atom_site_fract_y
 _atom_site_fract_z
 _atom_site_occupancy
  Na  Na0  1  0.09449723  0.05669004  0.77625142  1
  Na  Na1  1  0.09451415  0.55677941  0.22376329  1
  Na  Na2  1  0.40555706  0.05673148  0.27601264  1
  Na  Na3  1  0.40549493  0.55676287  0.72393906  1
  Na  Na4  1  0.59443283  0.44324056  0.27598212  1
  Na  Na5  1  0.59446109  0.94322090  0.72404195  1
  Na  Na6  1  0.90553922  0.44328935  0.77625311  1
  Na  Na7  1  0.90546249  0.94321575  0.22373310  1
  V  V8  1  0.09409753  0.34934598  0.29244242  1
  V  V9  1  0.09402697  0.84943000  0.70722444  1
  V  V10  1  0.40602181  0.34943881  0.79229619  1
  V  V11  1  0.40630846  0.84951116  0.20770697  1
  V  V12  1  0.59376392  0.65051989  0.20753225  1
  V  V13  1  0.59386717  0.15054315  0.79229261  1
  V  V14  1  0.90590182  0.15061789  0.29255433  1
  V  V15  1  0.90606885  0.65063962  0.70729258  1
  O  O16  1  0.00006825  0.25002973  0.24090430  1
  O  O17  1  -0.00000479  0.74996841  0.75909931  1
  O  O18  1  0.05733305  0.06980681  0.21956854  1
  O  O19  1  0.05743099  0.56984989  0.78078108  1
  O  O20  1  0.15730932  0.36170334  0.62995992  1
  O  O21  1  0.15726814  0.86147370  0.36967760  1
  O  O22  1  0.34238436  0.36235302  0.12949860  1
  O  O23  1  0.34191279  0.86257812  0.87082771  1
  O  O24  1  0.44238648  0.06976383  0.72120441  1
  O  O25  1  0.44233616  0.56971626  0.27898975  1
  O  O26  1  0.49996894  0.25003132  0.74151426  1
  O  O27  1  0.50001951  0.74996863  0.25837105  1
  O  O28  1  0.55765835  0.43028340  0.72094106  1
  O  O29  1  0.55767863  0.93023082  0.27873149  1
  O  O30  1  0.65774097  0.13761690  0.12945669  1
  O  O31  1  0.65790415  0.63750116  0.87054285  1
  O  O32  1  0.84281206  0.13841333  0.63016768  1
  O  O33  1  0.84253072  0.63838599  0.36988268  1
  O  O34  1  0.94261184  0.43024222  0.21965899  1
  O  O35  1  0.94263454  0.93010628  0.78090356  1
