# generated using pymatgen
data_Mg4N6O19
_symmetry_space_group_name_H-M   'P 1'
_cell_length_a   14.82682348
_cell_length_b   14.82681855
_cell_length_c   7.08602287
_cell_angle_alpha   89.99880319
_cell_angle_beta   89.99993711
_cell_angle_gamma   120.00157655
_symmetry_Int_Tables_number   1
_chemical_formula_structural   Mg4N6O19
_chemical_formula_sum   'Mg12 N18 O57'
_cell_volume   1349.03237253
_cell_formula_units_Z   3
loop_
 _symmetry_equiv_pos_site_id
 _symmetry_equiv_pos_as_xyz
  1  'x, y, z'
loop_
 _atom_site_type_symbol
 _atom_site_label
 _atom_site_symmetry_multiplicity
 _atom_site_fract_x
 _atom_site_fract_y
 _atom_site_fract_z
 _atom_site_occupancy
  Mg  Mg0  1  0.18910105  0.61263198  0.52083925  1
  Mg  Mg1  1  0.33333005  0.66669186  0.16153146  1
  Mg  Mg2  1  0.99999666  0.99999547  0.87480302  1
  Mg  Mg3  1  0.42353019  0.81090153  0.52084371  1
  Mg  Mg4  1  0.13651645  0.10961385  0.51411853  1
  Mg  Mg5  1  0.38736325  0.57649357  0.52083189  1
  Mg  Mg6  1  0.52859906  0.22596145  0.34357272  1
  Mg  Mg7  1  0.69736956  0.47139433  0.34357200  1
  Mg  Mg8  1  0.66667762  0.33332787  0.98426995  1
  Mg  Mg9  1  0.97309362  0.86348198  0.51411709  1
  Mg  Mg10  1  0.77403392  0.30262467  0.34357440  1
  Mg  Mg11  1  0.89038602  0.02689898  0.51411887  1
  N  N12  1  0.17886064  0.95458336  0.32117581  1
  N  N13  1  0.10958915  0.57179326  0.12979775  1
  N  N14  1  0.24500786  0.80987723  0.71120112  1
  N  N15  1  0.04541748  0.22428188  0.32117626  1
  N  N16  1  0.19012111  0.43512881  0.71120663  1
  N  N17  1  0.46222461  0.89044614  0.12977517  1
  N  N18  1  0.20749221  0.18278342  0.90698640  1
  N  N19  1  0.42819173  0.53780548  0.12983806  1
  N  N20  1  0.56486754  0.75499293  0.71120684  1
  N  N21  1  0.49196641  0.38296379  0.53814745  1
  N  N22  1  0.77571642  0.82113547  0.32117328  1
  N  N23  1  0.45664390  0.15352515  0.95169932  1
  N  N24  1  0.69689231  0.54335958  0.95167825  1
  N  N25  1  0.61703007  0.10899736  0.53815315  1
  N  N26  1  0.97528502  0.79250081  0.90698880  1
  N  N27  1  0.89099213  0.50802658  0.53813654  1
  N  N28  1  0.84647946  0.30310973  0.95171517  1
  N  N29  1  0.81721288  0.02470810  0.90699289  1
  O  O30  1  0.02714077  0.88860482  0.96427432  1
  O  O31  1  0.10739198  0.88019748  0.42099418  1
  O  O32  1  0.24249483  0.94255735  0.23353846  1
  O  O33  1  0.02737137  0.53058789  0.04448996  1
  O  O34  1  0.21332112  0.85797866  0.80168898  1
  O  O35  1  0.12203425  0.62469951  0.28297801  1
  O  O36  1  0.20238633  0.70949190  0.72842277  1
  O  O37  1  0.32186398  0.85612599  0.59433755  1
  O  O38  1  0.14387503  0.46574079  0.59434305  1
  O  O39  1  0.05744981  0.29994185  0.23355177  1
  O  O40  1  0.18898935  0.56542883  0.07065713  1
  O  O41  1  0.14201847  0.35534400  0.80169714  1
  O  O42  1  0.37645113  0.81103666  0.07062519  1
  O  O43  1  0.33332731  0.66668117  0.43559462  1
  O  O44  1  0.99999811  0.99999799  0.59928538  1
  O  O45  1  0.50323676  0.97264413  0.04448454  1
  O  O46  1  0.11979919  0.22719172  0.42099597  1
  O  O47  1  0.11138938  0.13853179  0.96427025  1
  O  O48  1  0.29050816  0.49289033  0.72840823  1
  O  O49  1  0.50266840  0.87797958  0.28297439  1
  O  O50  1  0.50710824  0.79761999  0.72841320  1
  O  O51  1  0.43455791  0.62356402  0.07070268  1
  O  O52  1  0.37529326  0.49732615  0.28300336  1
  O  O53  1  0.22476827  0.15424213  0.74445290  1
  O  O54  1  0.18033460  0.04309939  0.31754749  1
  O  O55  1  0.27796577  0.24747659  0.00315102  1
  O  O56  1  0.53425059  0.67813660  0.59433933  1
  O  O57  1  0.46941480  0.49679774  0.04447934  1
  O  O58  1  0.64464950  0.78666866  0.80169800  1
  O  O59  1  0.43191845  0.39945251  0.62973293  1
  O  O60  1  0.70005875  0.75750824  0.23353728  1
  O  O61  1  0.77280184  0.89260081  0.42100178  1
  O  O62  1  0.38616315  0.08976692  0.85619376  1
  O  O63  1  0.56187191  0.45405267  0.43187986  1
  O  O64  1  0.48694713  0.29310444  0.54491315  1
  O  O65  1  0.44029382  0.18346147  0.11396787  1
  O  O66  1  0.86146531  0.97285994  0.96428623  1
  O  O67  1  0.70360614  0.61380336  0.85619576  1
  O  O68  1  0.64327704  0.44688158  0.89517656  1
  O  O69  1  0.55310320  0.19636640  0.89517810  1
  O  O70  1  0.74317089  0.55970296  0.11397934  1
  O  O71  1  0.86276272  0.81966441  0.31754490  1
  O  O72  1  0.54593967  0.10780743  0.43189245  1
  O  O73  1  0.66666960  0.33333052  0.26001869  1
  O  O74  1  0.80616185  0.51305441  0.54491078  1
  O  O75  1  0.92946546  0.77523087  0.74445775  1
  O  O76  1  0.60054302  0.03245412  0.62972997  1
  O  O77  1  0.96950480  0.72202892  0.00314949  1
  O  O78  1  0.80364983  0.35673072  0.89518252  1
  O  O79  1  0.70688909  0.19383814  0.54493369  1
  O  O80  1  0.89218459  0.43812945  0.43187873  1
  O  O81  1  0.96754322  0.56808744  0.62972710  1
  O  O82  1  0.81654024  0.25681895  0.11397204  1
  O  O83  1  0.75251933  0.03048879  0.00314623  1
  O  O84  1  0.91024576  0.29639176  0.85618564  1
  O  O85  1  0.84575773  0.07052525  0.74445318  1
  O  O86  1  0.95689744  0.13723724  0.31755120  1
