# generated using pymatgen
data_KMg14Zn
_symmetry_space_group_name_H-M   'P 1'
_cell_length_a   6.49529566
_cell_length_b   6.49529511
_cell_length_c   10.50774547
_cell_angle_alpha   90.00000000
_cell_angle_beta   90.00000000
_cell_angle_gamma   120.00000281
_symmetry_Int_Tables_number   1
_chemical_formula_structural   KMg14Zn
_chemical_formula_sum   'K1 Mg14 Zn1'
_cell_volume   383.91755927
_cell_formula_units_Z   1
loop_
 _symmetry_equiv_pos_site_id
 _symmetry_equiv_pos_as_xyz
  1  'x, y, z'
loop_
 _atom_site_type_symbol
 _atom_site_label
 _atom_site_symmetry_multiplicity
 _atom_site_fract_x
 _atom_site_fract_y
 _atom_site_fract_z
 _atom_site_occupancy
  K  K0  1  0.16666700  0.33333300  0.62500000  1
  Mg  Mg1  1  0.16313887  0.83156893  0.12500000  1
  Mg  Mg2  1  0.17416433  0.83708166  0.62500000  1
  Mg  Mg3  1  0.66843107  0.33686113  0.12500000  1
  Mg  Mg4  1  0.66291834  0.32583567  0.62500000  1
  Mg  Mg5  1  0.66843107  0.83156893  0.12500000  1
  Mg  Mg6  1  0.66291834  0.83708166  0.62500000  1
  Mg  Mg7  1  0.33526730  0.16473270  0.35769448  1
  Mg  Mg8  1  0.33526730  0.16473270  0.89230552  1
  Mg  Mg9  1  0.33526730  0.67053560  0.35769448  1
  Mg  Mg10  1  0.33526730  0.67053560  0.89230552  1
  Mg  Mg11  1  0.82946440  0.16473270  0.35769448  1
  Mg  Mg12  1  0.82946440  0.16473270  0.89230552  1
  Mg  Mg13  1  0.83333300  0.66666700  0.37962763  1
  Mg  Mg14  1  0.83333300  0.66666700  0.87037237  1
  Zn  Zn15  1  0.16666700  0.33333300  0.12500000  1
