# generated using pymatgen
data_Li3Cu3(PO4)2
_symmetry_space_group_name_H-M   'P 1'
_cell_length_a   6.21652500
_cell_length_b   5.48277467
_cell_length_c   5.11574608
_cell_angle_alpha   89.48205540
_cell_angle_beta   90.00000000
_cell_angle_gamma   90.00000000
_symmetry_Int_Tables_number   1
_chemical_formula_structural   Li3Cu3(PO4)2
_chemical_formula_sum   'Li3 Cu3 P2 O8'
_cell_volume   174.35697174
_cell_formula_units_Z   1
loop_
 _symmetry_equiv_pos_site_id
 _symmetry_equiv_pos_as_xyz
  1  'x, y, z'
loop_
 _atom_site_type_symbol
 _atom_site_label
 _atom_site_symmetry_multiplicity
 _atom_site_fract_x
 _atom_site_fract_y
 _atom_site_fract_z
 _atom_site_occupancy
  Li  Li0  1  0.25031325  0.67344336  0.49298572  1
  Li  Li1  1  0.50000000  0.84521122  0.99575362  1
  Li  Li2  1  0.74968675  0.67344336  0.49298572  1
  Cu  Cu3  1  0.00000000  0.18204579  0.48327495  1
  Cu  Cu4  1  0.23778578  0.34154948  0.99865194  1
  Cu  Cu5  1  0.76221422  0.34154948  0.99865194  1
  P  P6  1  0.00000000  0.81561102  0.99727497  1
  P  P7  1  0.50000000  0.16489921  0.50228661  1
  O  O8  1  0.00000000  0.08505046  0.89976006  1
  O  O9  1  0.00000000  0.80116332  0.30126962  1
  O  O10  1  0.20928459  0.69548730  0.88493959  1
  O  O11  1  0.29906022  0.31485912  0.40779286  1
  O  O12  1  0.50000000  0.15350423  0.80546110  1
  O  O13  1  0.50000000  0.90183622  0.38877286  1
  O  O14  1  0.70093978  0.31485912  0.40779286  1
  O  O15  1  0.79071541  0.69548730  0.88493959  1
