# generated using pymatgen
data_Li3MnV(PO4)3
_symmetry_space_group_name_H-M   'P 1'
_cell_length_a   10.31825605
_cell_length_b   10.44740628
_cell_length_c   10.31825657
_cell_angle_alpha   109.15097988
_cell_angle_beta   109.61331376
_cell_angle_gamma   109.15098221
_symmetry_Int_Tables_number   1
_chemical_formula_structural   Li3MnV(PO4)3
_chemical_formula_sum   'Li12 Mn4 V4 P12 O48'
_cell_volume   861.45954821
_cell_formula_units_Z   4
loop_
 _symmetry_equiv_pos_site_id
 _symmetry_equiv_pos_as_xyz
  1  'x, y, z'
loop_
 _atom_site_type_symbol
 _atom_site_label
 _atom_site_symmetry_multiplicity
 _atom_site_fract_x
 _atom_site_fract_y
 _atom_site_fract_z
 _atom_site_occupancy
  Li  Li0  1  0.25651812  0.87672745  0.62880787  1
  Li  Li1  1  0.12880787  0.37672745  0.75651812  1
  Li  Li2  1  0.12500000  0.25000000  0.37500000  1
  Li  Li3  1  0.62020933  0.87672745  0.74792058  1
  Li  Li4  1  0.37500000  0.75000000  0.12500000  1
  Li  Li5  1  0.24792058  0.37672745  0.12020933  1
  Li  Li6  1  0.75207942  0.62327255  0.87979067  1
  Li  Li7  1  0.62500000  0.25000000  0.87500000  1
  Li  Li8  1  0.37979067  0.12327255  0.25207942  1
  Li  Li9  1  0.87500000  0.75000000  0.62500000  1
  Li  Li10  1  0.87119213  0.62327255  0.24348188  1
  Li  Li11  1  0.74348188  0.12327255  0.37119213  1
  Mn  Mn12  1  0.00000000  0.50000000  0.00000000  1
  Mn  Mn13  1  0.50000000  0.00000000  0.50000000  1
  Mn  Mn14  1  0.50000000  0.50000000  0.00000000  1
  Mn  Mn15  1  0.50000000  0.00000000  0.00000000  1
  V  V16  1  0.00000000  0.50000000  0.50000000  1
  V  V17  1  0.00000000  0.00000000  0.50000000  1
  V  V18  1  0.00000000  0.00000000  0.00000000  1
  V  V19  1  0.50000000  0.50000000  0.50000000  1
  P  P20  1  0.12413163  0.75000000  0.87413163  1
  P  P21  1  0.12307732  0.87557756  0.24857551  1
  P  P22  1  0.37299794  0.62442244  0.74749976  1
  P  P23  1  0.25142449  0.62442244  0.37692268  1
  P  P24  1  0.24749976  0.12442244  0.87299794  1
  P  P25  1  0.37413163  0.25000000  0.62413163  1
  P  P26  1  0.62586837  0.75000000  0.37586837  1
  P  P27  1  0.74857551  0.37557756  0.62307732  1
  P  P28  1  0.75250024  0.87557756  0.12700206  1
  P  P29  1  0.62700206  0.37557756  0.25250024  1
  P  P30  1  0.87692268  0.12442244  0.75142449  1
  P  P31  1  0.87586837  0.25000000  0.12586837  1
  O  O32  1  0.10861962  0.99397738  0.69883396  1
  O  O33  1  0.11550001  0.61399120  0.90620160  1
  O  O34  1  0.00642999  0.29079923  0.88432266  1
  O  O35  1  0.08623003  0.70459032  0.69800023  1
  O  O36  1  0.09164068  0.88936104  0.39183213  1
  O  O37  1  0.10816787  0.61063896  0.40835932  1
  O  O38  1  0.19883396  0.49397738  0.60861962  1
  O  O39  1  0.40647557  0.79079923  0.78436924  1
  O  O40  1  0.38027302  0.59091319  0.88418824  1
  O  O41  1  0.28436924  0.29079923  0.90647557  1
  O  O42  1  0.29327505  0.90908681  0.28935983  1
  O  O43  1  0.00658909  0.20459032  0.11836030  1
  O  O44  1  0.19800023  0.20459032  0.58623003  1
  O  O45  1  0.21064017  0.59091319  0.20672495  1
  O  O46  1  0.38432266  0.79079923  0.50642999  1
  O  O47  1  0.29514342  0.49397738  0.38535776  1
  O  O48  1  0.29221040  0.88600880  0.00150981  1
  O  O49  1  0.11464224  0.00602262  0.20485658  1
  O  O50  1  0.50247208  0.61063896  0.70228064  1
  O  O51  1  0.38418824  0.09091319  0.88027302  1
  O  O52  1  0.50150981  0.38600880  0.79221040  1
  O  O53  1  0.38163970  0.29540968  0.49341091  1
  O  O54  1  0.59379840  0.88600880  0.38449999  1
  O  O55  1  0.20228064  0.11063896  0.00247208  1
  O  O56  1  0.79771936  0.88936104  0.99752792  1
  O  O57  1  0.40620160  0.11399120  0.61550001  1
  O  O58  1  0.61836030  0.70459032  0.50658909  1
  O  O59  1  0.49849019  0.61399120  0.20778960  1
  O  O60  1  0.61581176  0.90908681  0.11972698  1
  O  O61  1  0.49752792  0.38936104  0.29771936  1
  O  O62  1  0.88535776  0.99397738  0.79514342  1
  O  O63  1  0.70778960  0.11399120  0.99849019  1
  O  O64  1  0.70485658  0.50602262  0.61464224  1
  O  O65  1  0.61567734  0.20920077  0.49357001  1
  O  O66  1  0.78935983  0.40908681  0.79327505  1
  O  O67  1  0.80199977  0.79540968  0.41376997  1
  O  O68  1  0.99341091  0.79540968  0.88163970  1
  O  O69  1  0.70672495  0.09091319  0.71064017  1
  O  O70  1  0.71563076  0.70920077  0.09352443  1
  O  O71  1  0.61972698  0.40908681  0.11581176  1
  O  O72  1  0.59352443  0.20920077  0.21563076  1
  O  O73  1  0.80116604  0.50602262  0.39138038  1
  O  O74  1  0.89183213  0.38936104  0.59164068  1
  O  O75  1  0.90835932  0.11063896  0.60816787  1
  O  O76  1  0.91376997  0.29540968  0.30199977  1
  O  O77  1  0.99357001  0.70920077  0.11567734  1
  O  O78  1  0.88449999  0.38600880  0.09379840  1
  O  O79  1  0.89138038  0.00602262  0.30116604  1
