# generated using pymatgen
data_Li3V4(OF3)3
_symmetry_space_group_name_H-M   'P 1'
_cell_length_a   5.23375066
_cell_length_b   5.54304923
_cell_length_c   17.30724278
_cell_angle_alpha   95.66488229
_cell_angle_beta   80.67993449
_cell_angle_gamma   117.83985607
_symmetry_Int_Tables_number   1
_chemical_formula_structural   Li3V4(OF3)3
_chemical_formula_sum   'Li6 V8 O6 F18'
_cell_volume   437.97023451
_cell_formula_units_Z   2
loop_
 _symmetry_equiv_pos_site_id
 _symmetry_equiv_pos_as_xyz
  1  'x, y, z'
loop_
 _atom_site_type_symbol
 _atom_site_label
 _atom_site_symmetry_multiplicity
 _atom_site_fract_x
 _atom_site_fract_y
 _atom_site_fract_z
 _atom_site_occupancy
  Li  Li0  1  0.76761308  0.10619183  0.55346175  1
  Li  Li1  1  0.97785441  0.16364423  0.19727538  1
  Li  Li2  1  0.49873441  0.67695204  0.70277824  1
  Li  Li3  1  0.62816645  0.56120243  0.32380711  1
  Li  Li4  1  0.08722043  0.04015059  0.82494926  1
  Li  Li5  1  0.34636177  0.77791894  0.07048508  1
  V  V6  1  0.75032133  0.21963580  0.74948171  1
  V  V7  1  0.84749732  0.10003207  0.37497104  1
  V  V8  1  0.38371192  0.62917609  0.87582821  1
  V  V9  1  0.01358300  0.03648164  0.99485080  1
  V  V10  1  0.49545295  0.51502409  0.49813637  1
  V  V11  1  0.61520767  0.40419395  0.12668302  1
  V  V12  1  0.29103850  0.75989518  0.25067487  1
  V  V13  1  0.09879391  0.88109391  0.62714519  1
  O  O14  1  0.88649364  0.07656630  0.65315690  1
  O  O15  1  0.67532658  0.92400625  0.80896934  1
  O  O16  1  0.59584745  0.81647540  0.44101926  1
  O  O17  1  0.11082989  0.32237184  0.93393318  1
  O  O18  1  0.66361372  0.96226255  0.28143325  1
  O  O19  1  0.38150474  0.57739526  0.15620301  1
  F  F20  1  0.79259188  0.54662329  0.68543633  1
  F  F21  1  0.89812413  0.70784687  0.53358906  1
  F  F22  1  0.59806379  0.40585316  0.83590510  1
  F  F23  1  0.83110825  0.15574356  0.09706619  1
  F  F24  1  0.84525983  0.52332763  0.22232110  1
  F  F25  1  0.58956772  0.79691743  0.97314723  1
  F  F26  1  0.63606846  0.34082852  0.40340272  1
  F  F27  1  0.31637664  0.00302915  0.72355798  1
  F  F28  1  0.94513819  0.70203542  0.06435344  1
  F  F29  1  0.43838340  0.18730524  0.56245400  1
  F  F30  1  0.31014700  0.06346803  0.18328767  1
  F  F31  1  0.40616842  0.19598404  0.03510492  1
  F  F32  1  0.17187403  0.45154595  0.77743461  1
  F  F33  1  0.35335352  0.67287710  0.59915957  1
  F  F34  1  0.14048396  0.84129054  0.90449604  1
  F  F35  1  0.08083848  0.28936111  0.47153090  1
  F  F36  1  0.20176099  0.42099048  0.31310650  1
  F  F37  1  0.06843414  0.87445707  0.33820567  1
