# generated using pymatgen
data_Fe6O7F5
_symmetry_space_group_name_H-M   'P 1'
_cell_length_a   4.80281271
_cell_length_b   7.75241615
_cell_length_c   5.67839498
_cell_angle_alpha   95.87934912
_cell_angle_beta   95.18973776
_cell_angle_gamma   86.21750768
_symmetry_Int_Tables_number   1
_chemical_formula_structural   Fe6O7F5
_chemical_formula_sum   'Fe6 O7 F5'
_cell_volume   209.10828634
_cell_formula_units_Z   1
loop_
 _symmetry_equiv_pos_site_id
 _symmetry_equiv_pos_as_xyz
  1  'x, y, z'
loop_
 _atom_site_type_symbol
 _atom_site_label
 _atom_site_symmetry_multiplicity
 _atom_site_fract_x
 _atom_site_fract_y
 _atom_site_fract_z
 _atom_site_occupancy
  Fe  Fe0  1  0.49763116  0.66613592  0.16737218  1
  Fe  Fe1  1  0.53695440  0.01250260  0.47626141  1
  Fe  Fe2  1  0.49609550  0.33086116  0.83565158  1
  Fe  Fe3  1  0.00296903  0.66950905  0.66464574  1
  Fe  Fe4  1  0.98660754  0.32199992  0.33772149  1
  Fe  Fe5  1  0.98864017  0.00120013  0.01256812  1
  O  O6  1  0.81432245  0.10360067  0.28911428  1
  O  O7  1  0.69971504  0.10280153  0.79492953  1
  O  O8  1  0.69896624  0.76511896  0.46095400  1
  O  O9  1  0.69247148  0.43732577  0.13385370  1
  O  O10  1  0.30174546  0.56688656  0.86960334  1
  O  O11  1  0.30728629  0.23471543  0.53562923  1
  O  O12  1  0.30543314  0.89467570  0.20121098  1
  F  F13  1  0.80937545  0.43849915  0.63327863  1
  F  F14  1  0.80308358  0.76683704  0.95911126  1
  F  F15  1  0.19448860  0.23226828  0.03710416  1
  F  F16  1  0.18626982  0.55880411  0.37417994  1
  F  F17  1  0.17794565  0.89625703  0.71680841  1
