# generated using pymatgen
data_LiCr2P3O13
_symmetry_space_group_name_H-M   'P 1'
_cell_length_a   6.19495528
_cell_length_b   7.40920258
_cell_length_c   10.75049924
_cell_angle_alpha   74.89071660
_cell_angle_beta   85.73532490
_cell_angle_gamma   80.59069080
_symmetry_Int_Tables_number   1
_chemical_formula_structural   LiCr2P3O13
_chemical_formula_sum   'Li2 Cr4 P6 O26'
_cell_volume   469.71560778
_cell_formula_units_Z   2
loop_
 _symmetry_equiv_pos_site_id
 _symmetry_equiv_pos_as_xyz
  1  'x, y, z'
loop_
 _atom_site_type_symbol
 _atom_site_label
 _atom_site_symmetry_multiplicity
 _atom_site_fract_x
 _atom_site_fract_y
 _atom_site_fract_z
 _atom_site_occupancy
  Li  Li0  1  0.28521063  0.56609129  0.77674699  1
  Li  Li1  1  0.71478937  0.43390871  0.22325301  1
  Cr  Cr2  1  0.22087124  0.20419402  0.08841607  1
  Cr  Cr3  1  0.24554787  0.19533362  0.59202320  1
  Cr  Cr4  1  0.75445213  0.80466638  0.40797680  1
  Cr  Cr5  1  0.77912876  0.79580598  0.91158393  1
  P  P6  1  0.11535824  0.46882727  0.30623437  1
  P  P7  1  0.25408568  0.80330618  0.33632395  1
  P  P8  1  0.26340956  0.93185813  0.89032529  1
  P  P9  1  0.73659044  0.06814187  0.10967471  1
  P  P10  1  0.74591432  0.19669382  0.66367605  1
  P  P11  1  0.88464176  0.53117273  0.69376563  1
  O  O12  1  0.13263712  0.38650333  0.18979859  1
  O  O13  1  0.12416628  0.47202558  0.65943117  1
  O  O14  1  0.06122765  0.78081087  0.43557465  1
  O  O15  1  0.22040559  0.11308801  0.77975841  1
  O  O16  1  0.25767671  0.34449750  0.41699936  1
  O  O17  1  0.08938761  0.79930204  0.90052042  1
  O  O18  1  0.23648745  0.65487018  0.25170453  1
  O  O19  1  0.24687626  0.35549593  0.95158153  1
  O  O20  1  0.27265479  0.98823887  0.01753619  1
  O  O21  1  0.23527888  0.00209120  0.25348068  1
  O  O22  1  0.52539822  0.20207844  0.13220598  1
  O  O23  1  0.31480988  0.98609074  0.57754980  1
  O  O24  1  0.52786097  0.26927836  0.59660184  1
  O  O25  1  0.47213903  0.73072164  0.40339816  1
  O  O26  1  0.68519012  0.01390926  0.42245020  1
  O  O27  1  0.47460178  0.79792156  0.86779402  1
  O  O28  1  0.76472112  0.99790880  0.74651932  1
  O  O29  1  0.72734521  0.01176113  0.98246381  1
  O  O30  1  0.75312374  0.64450407  0.04841847  1
  O  O31  1  0.76351255  0.34512982  0.74829547  1
  O  O32  1  0.91061239  0.20069796  0.09947958  1
  O  O33  1  0.74232329  0.65550250  0.58300164  1
  O  O34  1  0.77959441  0.88691199  0.22024159  1
  O  O35  1  0.93877235  0.21918913  0.56442535  1
  O  O36  1  0.87583372  0.52797442  0.34056883  1
  O  O37  1  0.86736288  0.61349667  0.81020141  1
