# generated using pymatgen
data_Li4Fe2Ni3Te3O16
_symmetry_space_group_name_H-M   'P 1'
_cell_length_a   6.11584817
_cell_length_b   6.22455759
_cell_length_c   9.72599147
_cell_angle_alpha   89.41585383
_cell_angle_beta   90.88658464
_cell_angle_gamma   120.22328015
_symmetry_Int_Tables_number   1
_chemical_formula_structural   Li4Fe2Ni3Te3O16
_chemical_formula_sum   'Li4 Fe2 Ni3 Te3 O16'
_cell_volume   319.88545258
_cell_formula_units_Z   1
loop_
 _symmetry_equiv_pos_site_id
 _symmetry_equiv_pos_as_xyz
  1  'x, y, z'
loop_
 _atom_site_type_symbol
 _atom_site_label
 _atom_site_symmetry_multiplicity
 _atom_site_fract_x
 _atom_site_fract_y
 _atom_site_fract_z
 _atom_site_occupancy
  Li  Li0  1  0.32939024  0.66671886  0.87608416  1
  Li  Li1  1  0.96061124  0.98089196  0.98723579  1
  Li  Li2  1  0.97675211  0.98169421  0.50730750  1
  Li  Li3  1  0.64809285  0.33454271  0.40404661  1
  Fe  Fe4  1  0.36492319  0.68176740  0.50856279  1
  Fe  Fe5  1  0.71115224  0.33773145  0.97117947  1
  Ni  Ni6  1  0.66026355  0.83638100  0.21432803  1
  Ni  Ni7  1  0.83816896  0.66344029  0.71543896  1
  Ni  Ni8  1  0.83861926  0.17425125  0.71259116  1
  Te  Te9  1  0.16483304  0.82922711  0.21592657  1
  Te  Te10  1  0.17264771  0.34041310  0.21734267  1
  Te  Te11  1  0.34654848  0.17292799  0.71432209  1
  O  O12  1  0.18941352  0.86408107  0.59919370  1
  O  O13  1  0.02364776  0.53658666  0.34061925  1
  O  O14  1  0.32478866  0.68753003  0.10070565  1
  O  O15  1  0.99922546  0.97501580  0.32031224  1
  O  O16  1  0.02484552  0.01100715  0.80675721  1
  O  O17  1  0.18518717  0.32420632  0.59638949  1
  O  O18  1  0.46259373  0.96375207  0.33544144  1
  O  O19  1  0.47898962  0.52752641  0.34638371  1
  O  O20  1  0.31218622  0.13082977  0.10156377  1
  O  O21  1  0.67176617  0.83886008  0.60161124  1
  O  O22  1  0.50399480  0.45983019  0.84214707  1
  O  O23  1  0.50724457  0.03720051  0.83667395  1
  O  O24  1  0.65239681  0.32945436  0.60559036  1
  O  O25  1  0.85634612  0.67921845  0.10203044  1
  O  O26  1  0.97211991  0.48313966  0.83917118  1
  O  O27  1  0.82325207  0.15207414  0.08888452  1
