# generated using pymatgen
data_LiMn3(BO3)3
_symmetry_space_group_name_H-M   'P 1'
_cell_length_a   5.75930832
_cell_length_b   8.12849556
_cell_length_c   9.35975350
_cell_angle_alpha   65.24440955
_cell_angle_beta   101.38212312
_cell_angle_gamma   79.34878203
_symmetry_Int_Tables_number   1
_chemical_formula_structural   LiMn3(BO3)3
_chemical_formula_sum   'Li2 Mn6 B6 O18'
_cell_volume   372.05735360
_cell_formula_units_Z   2
loop_
 _symmetry_equiv_pos_site_id
 _symmetry_equiv_pos_as_xyz
  1  'x, y, z'
loop_
 _atom_site_type_symbol
 _atom_site_label
 _atom_site_symmetry_multiplicity
 _atom_site_fract_x
 _atom_site_fract_y
 _atom_site_fract_z
 _atom_site_occupancy
  Li  Li0  1  0.73225296  0.94824496  0.56504469  1
  Li  Li1  1  0.60108104  0.71842104  0.10162131  1
  Mn  Mn2  1  0.79294785  0.95933713  0.20437898  1
  Mn  Mn3  1  0.92688641  0.33453495  0.15478625  1
  Mn  Mn4  1  0.54038515  0.70732887  0.46228802  1
  Mn  Mn5  1  0.40644659  0.33213205  0.51188075  1
  Mn  Mn6  1  0.11495289  0.62503355  0.88763344  1
  Mn  Mn7  1  0.21838111  0.04163345  0.77903356  1
  B  B8  1  0.86928564  0.37708294  0.43671797  1
  B  B9  1  0.76355265  0.97407419  0.86442632  1
  B  B10  1  0.56978035  0.69259181  0.80223968  1
  B  B11  1  0.46404736  0.28958406  0.22994803  1
  B  B12  1  0.23919438  0.02277059  0.10654934  1
  B  B13  1  0.09413862  0.64389641  0.56011766  1
  O  O14  1  0.82260610  0.87314192  0.02951662  1
  O  O15  1  0.87781799  0.79349532  0.46379542  1
  O  O16  1  0.92949093  0.93932297  0.77805447  1
  O  O17  1  0.80544748  0.47103361  0.26790344  1
  O  O18  1  0.70580813  0.41583830  0.51800369  1
  O  O19  1  0.80470349  0.56580613  0.90483500  1
  O  O20  1  0.45551501  0.87317068  0.20287158  1
  O  O21  1  0.62752487  0.25082870  0.14866331  1
  O  O22  1  0.51072790  0.79352408  0.63715038  1
  O  O23  1  0.52788552  0.19563339  0.39876356  1
  O  O24  1  0.40384207  0.72734303  0.88861253  1
  O  O25  1  0.52862951  0.10086087  0.76183200  1
  O  O26  1  0.22881547  0.41991448  0.13634821  1
  O  O27  1  0.24035845  0.58442008  0.47717599  1
  O  O28  1  0.17033828  0.55252726  0.72719554  1
  O  O29  1  0.09297455  0.08224592  0.18949101  1
  O  O30  1  0.10451753  0.24675252  0.53031779  1
  O  O31  1  0.16299472  0.11413974  0.93947046  1
