# generated using pymatgen
data_Fe2OF3
_symmetry_space_group_name_H-M   'P 1'
_cell_length_a   4.87715702
_cell_length_b   10.26861324
_cell_length_c   6.15777893
_cell_angle_alpha   72.50189505
_cell_angle_beta   90.02955081
_cell_angle_gamma   88.30052977
_symmetry_Int_Tables_number   1
_chemical_formula_structural   Fe2OF3
_chemical_formula_sum   'Fe8 O4 F12'
_cell_volume   293.97765676
_cell_formula_units_Z   4
loop_
 _symmetry_equiv_pos_site_id
 _symmetry_equiv_pos_as_xyz
  1  'x, y, z'
loop_
 _atom_site_type_symbol
 _atom_site_label
 _atom_site_symmetry_multiplicity
 _atom_site_fract_x
 _atom_site_fract_y
 _atom_site_fract_z
 _atom_site_occupancy
  Fe  Fe0  1  0.50015941  0.24960451  0.62076575  1
  Fe  Fe1  1  0.49989051  0.75089422  0.86932773  1
  Fe  Fe2  1  0.49984059  0.75039549  0.37923425  1
  Fe  Fe3  1  0.50010949  0.24910578  0.13067227  1
  Fe  Fe4  1  0.00000000  0.00000000  0.50000000  1
  Fe  Fe5  1  0.03308146  0.48232108  0.75915263  1
  Fe  Fe6  1  0.00000000  0.00000000  0.00000000  1
  Fe  Fe7  1  0.96691854  0.51767892  0.24084737  1
  O  O8  1  0.68176065  0.16006775  0.42073277  1
  O  O9  1  0.66698874  0.66743691  0.16599557  1
  O  O10  1  0.31823935  0.83993225  0.57926723  1
  O  O11  1  0.33301126  0.33256309  0.83400443  1
  F  F12  1  0.79526643  0.39823821  0.54974882  1
  F  F13  1  0.79557418  0.39780396  0.05265458  1
  F  F14  1  0.79042696  0.89802494  0.80554373  1
  F  F15  1  0.79419278  0.89583157  0.29782611  1
  F  F16  1  0.69860187  0.14905567  0.92602491  1
  F  F17  1  0.70653181  0.64528470  0.67771816  1
  F  F18  1  0.30139813  0.85094433  0.07397509  1
  F  F19  1  0.29346819  0.35471530  0.32228184  1
  F  F20  1  0.20442582  0.60219604  0.94734542  1
  F  F21  1  0.20957304  0.10197506  0.19445627  1
  F  F22  1  0.20473357  0.60176179  0.45025118  1
  F  F23  1  0.20580722  0.10416843  0.70217389  1
