# generated using pymatgen
data_Na4Bi2O5
_symmetry_space_group_name_H-M   'P 1'
_cell_length_a   14.79973129
_cell_length_b   5.65884174
_cell_length_c   9.86490307
_cell_angle_alpha   90.00000000
_cell_angle_beta   90.00000000
_cell_angle_gamma   90.00000000
_symmetry_Int_Tables_number   1
_chemical_formula_structural   Na4Bi2O5
_chemical_formula_sum   'Na16 Bi8 O20'
_cell_volume   826.17909331
_cell_formula_units_Z   4
loop_
 _symmetry_equiv_pos_site_id
 _symmetry_equiv_pos_as_xyz
  1  'x, y, z'
loop_
 _atom_site_type_symbol
 _atom_site_label
 _atom_site_symmetry_multiplicity
 _atom_site_fract_x
 _atom_site_fract_y
 _atom_site_fract_z
 _atom_site_occupancy
  Na  Na0  1  0.02365115  0.48177008  0.85705370  1
  Na  Na1  1  0.02365115  0.01822992  0.64294630  1
  Na  Na2  1  0.19436162  0.25000000  0.75000000  1
  Na  Na3  1  0.25000000  0.50000000  0.07801580  1
  Na  Na4  1  0.25000000  0.00000000  0.42198420  1
  Na  Na5  1  0.30563838  0.75000000  0.75000000  1
  Na  Na6  1  0.47634885  0.98177008  0.64294630  1
  Na  Na7  1  0.47634885  0.51822992  0.85705370  1
  Na  Na8  1  0.52365115  0.48177008  0.14294630  1
  Na  Na9  1  0.52365115  0.01822992  0.35705370  1
  Na  Na10  1  0.69436162  0.25000000  0.25000000  1
  Na  Na11  1  0.75000000  0.00000000  0.57801580  1
  Na  Na12  1  0.75000000  0.50000000  0.92198420  1
  Na  Na13  1  0.80563838  0.75000000  0.25000000  1
  Na  Na14  1  0.97634885  0.98177008  0.35705370  1
  Na  Na15  1  0.97634885  0.51822992  0.14294630  1
  Bi  Bi16  1  0.11653749  0.53037737  0.45469257  1
  Bi  Bi17  1  0.11653749  0.96962263  0.04530743  1
  Bi  Bi18  1  0.38346251  0.03037737  0.04530743  1
  Bi  Bi19  1  0.38346251  0.46962263  0.45469257  1
  Bi  Bi20  1  0.61653749  0.53037737  0.54530743  1
  Bi  Bi21  1  0.61653749  0.96962263  0.95469257  1
  Bi  Bi22  1  0.88346251  0.03037737  0.95469257  1
  Bi  Bi23  1  0.88346251  0.46962263  0.54530743  1
  O  O24  1  0.04580297  0.05278053  0.86779304  1
  O  O25  1  0.04580297  0.44721947  0.63220696  1
  O  O26  1  0.11217213  0.89764587  0.46457062  1
  O  O27  1  0.11217213  0.60235413  0.03542938  1
  O  O28  1  0.25000000  0.00000000  0.92613692  1
  O  O29  1  0.25000000  0.50000000  0.57386308  1
  O  O30  1  0.38782787  0.10235413  0.46457062  1
  O  O31  1  0.38782787  0.39764587  0.03542938  1
  O  O32  1  0.45419703  0.55278053  0.63220696  1
  O  O33  1  0.45419703  0.94721947  0.86779304  1
  O  O34  1  0.54580297  0.05278053  0.13220696  1
  O  O35  1  0.54580297  0.44721947  0.36779304  1
  O  O36  1  0.61217213  0.60235413  0.96457062  1
  O  O37  1  0.61217213  0.89764587  0.53542938  1
  O  O38  1  0.75000000  0.00000000  0.07386308  1
  O  O39  1  0.75000000  0.50000000  0.42613692  1
  O  O40  1  0.88782787  0.10235413  0.53542938  1
  O  O41  1  0.88782787  0.39764587  0.96457062  1
  O  O42  1  0.95419703  0.55278053  0.36779304  1
  O  O43  1  0.95419703  0.94721947  0.13220696  1
