# generated using pymatgen
data_V2O3F
_symmetry_space_group_name_H-M   'P 1'
_cell_length_a   6.16769998
_cell_length_b   6.37948808
_cell_length_c   7.29885203
_cell_angle_alpha   90.00000000
_cell_angle_beta   114.99325567
_cell_angle_gamma   90.00000000
_symmetry_Int_Tables_number   1
_chemical_formula_structural   V2O3F
_chemical_formula_sum   'V8 O12 F4'
_cell_volume   260.29341142
_cell_formula_units_Z   4
loop_
 _symmetry_equiv_pos_site_id
 _symmetry_equiv_pos_as_xyz
  1  'x, y, z'
loop_
 _atom_site_type_symbol
 _atom_site_label
 _atom_site_symmetry_multiplicity
 _atom_site_fract_x
 _atom_site_fract_y
 _atom_site_fract_z
 _atom_site_occupancy
  V  V0  1  0.00246135  0.00000000  0.99760090  1
  V  V1  1  0.49513955  0.00000000  0.99760090  1
  V  V2  1  0.99338761  0.00000000  0.48677622  1
  V  V3  1  0.50193307  0.00000000  0.50386515  1
  V  V4  1  0.24806693  0.50000000  0.99613485  1
  V  V5  1  0.75661239  0.50000000  0.01322378  1
  V  V6  1  0.74753865  0.50000000  0.50239910  1
  V  V7  1  0.25486045  0.50000000  0.50239910  1
  O  O8  1  0.85008862  0.00000000  0.20017724  1
  O  O9  1  0.50135960  0.30050562  0.00104151  1
  O  O10  1  -0.00031710  0.30050562  0.00104151  1
  O  O11  1  0.24864040  0.19949438  0.49895849  1
  O  O12  1  -0.00031710  0.69949438  0.00104151  1
  O  O13  1  0.50135960  0.69949438  0.00104151  1
  O  O14  1  0.75031710  0.19949438  0.49895849  1
  O  O15  1  0.89991138  0.50000000  0.29982276  1
  O  O16  1  0.15090570  0.00000000  0.80181040  1
  O  O17  1  0.59909430  0.50000000  0.69818960  1
  O  O18  1  0.75031710  0.80050562  0.49895849  1
  O  O19  1  0.24864040  0.80050562  0.49895849  1
  F  F20  1  0.35126354  0.00000000  0.20252808  1
  F  F21  1  0.65086467  0.00000000  0.80172935  1
  F  F22  1  0.39873646  0.50000000  0.29747192  1
  F  F23  1  0.09913533  0.50000000  0.69827065  1
