# generated using pymatgen
data_Li3Si2(NiO4)2
_symmetry_space_group_name_H-M   'P 1'
_cell_length_a   10.75600127
_cell_length_b   5.02106732
_cell_length_c   6.40405973
_cell_angle_alpha   90.00000000
_cell_angle_beta   91.39224166
_cell_angle_gamma   90.00000000
_symmetry_Int_Tables_number   1
_chemical_formula_structural   Li3Si2(NiO4)2
_chemical_formula_sum   'Li6 Si4 Ni4 O16'
_cell_volume   345.75943168
_cell_formula_units_Z   2
loop_
 _symmetry_equiv_pos_site_id
 _symmetry_equiv_pos_as_xyz
  1  'x, y, z'
loop_
 _atom_site_type_symbol
 _atom_site_label
 _atom_site_symmetry_multiplicity
 _atom_site_fract_x
 _atom_site_fract_y
 _atom_site_fract_z
 _atom_site_occupancy
  Li  Li0  1  0.09358712  0.70056435  0.86935977  1
  Li  Li1  1  0.32642496  0.70317560  0.61641866  1
  Li  Li2  1  0.40853023  0.19427096  0.37182554  1
  Li  Li3  1  0.59358712  0.79943565  0.86935977  1
  Li  Li4  1  0.82642496  0.79682440  0.61641866  1
  Li  Li5  1  0.90853023  0.30572904  0.37182554  1
  Si  Si6  1  0.15793504  0.18666278  0.61754772  1
  Si  Si7  1  0.33848203  0.69240388  0.11884315  1
  Si  Si8  1  0.65793504  0.31333722  0.61754772  1
  Si  Si9  1  0.83848203  0.80759612  0.11884315  1
  Ni  Ni10  1  0.08928169  0.69636823  0.34995002  1
  Ni  Ni11  1  0.41459092  0.19927959  0.86878947  1
  Ni  Ni12  1  0.58928169  0.80363177  0.34995002  1
  Ni  Ni13  1  0.91459092  0.30072041  0.86878947  1
  O  O14  1  0.08234054  0.29975154  0.82211729  1
  O  O15  1  0.09066471  0.30995323  0.41109529  1
  O  O16  1  0.15717473  0.85955403  0.61490171  1
  O  O17  1  0.19216247  0.76041959  0.11238171  1
  O  O18  1  0.30717225  0.29038282  0.63959611  1
  O  O19  1  0.36479595  0.36586585  0.10448894  1
  O  O20  1  0.40572865  0.81885307  0.90778740  1
  O  O21  1  0.40316369  0.79275794  0.34138423  1
  O  O22  1  0.58234054  0.20024846  0.82211729  1
  O  O23  1  0.59066471  0.19004677  0.41109529  1
  O  O24  1  0.65717473  0.64044597  0.61490171  1
  O  O25  1  0.69216247  0.73958041  0.11238171  1
  O  O26  1  0.80717225  0.20961718  0.63959611  1
  O  O27  1  0.86479595  0.13413415  0.10448894  1
  O  O28  1  0.90572865  0.68114693  0.90778740  1
  O  O29  1  0.90316369  0.70724206  0.34138423  1
