# generated using pymatgen
data_LiVSiO5
_symmetry_space_group_name_H-M   'P 1'
_cell_length_a   8.99516069
_cell_length_b   4.49654550
_cell_length_c   9.32152057
_cell_angle_alpha   90.00000000
_cell_angle_beta   90.00000000
_cell_angle_gamma   90.00000000
_symmetry_Int_Tables_number   1
_chemical_formula_structural   LiVSiO5
_chemical_formula_sum   'Li4 V4 Si4 O20'
_cell_volume   377.02893441
_cell_formula_units_Z   4
loop_
 _symmetry_equiv_pos_site_id
 _symmetry_equiv_pos_as_xyz
  1  'x, y, z'
loop_
 _atom_site_type_symbol
 _atom_site_label
 _atom_site_symmetry_multiplicity
 _atom_site_fract_x
 _atom_site_fract_y
 _atom_site_fract_z
 _atom_site_occupancy
  Li  Li0  1  0.00000000  0.63435586  0.01007952  1
  Li  Li1  1  0.00000000  0.36564414  0.51007952  1
  Li  Li2  1  0.50000000  0.99291700  0.75344031  1
  Li  Li3  1  0.50000000  0.00708300  0.25344031  1
  V  V4  1  0.00000000  0.96158704  0.29047360  1
  V  V5  1  0.00000000  0.03841296  0.79047360  1
  V  V6  1  0.50000000  0.58239845  0.49737602  1
  V  V7  1  0.50000000  0.41760155  0.99737602  1
  Si  Si8  1  0.24979561  0.50067973  0.24841278  1
  Si  Si9  1  0.24979561  0.49932027  0.74841278  1
  Si  Si10  1  0.75020439  0.49932027  0.74841278  1
  Si  Si11  1  0.75020439  0.50067973  0.24841278  1
  O  O12  1  0.00000000  0.78974876  0.44545303  1
  O  O13  1  0.00000000  0.21025124  0.94545303  1
  O  O14  1  0.13946354  0.74696890  0.17284591  1
  O  O15  1  0.13946354  0.25303110  0.67284591  1
  O  O16  1  0.14441475  0.25255580  0.32903757  1
  O  O17  1  0.14441475  0.74744420  0.82903757  1
  O  O18  1  0.35738703  0.31371057  0.13878107  1
  O  O19  1  0.35738703  0.68628943  0.63878107  1
  O  O20  1  0.35837599  0.69062010  0.35665077  1
  O  O21  1  0.35837599  0.30937990  0.85665077  1
  O  O22  1  0.50000000  0.21949886  0.49455431  1
  O  O23  1  0.50000000  0.78050114  0.99455431  1
  O  O24  1  0.64162401  0.69062010  0.35665077  1
  O  O25  1  0.64162401  0.30937990  0.85665077  1
  O  O26  1  0.64261297  0.31371057  0.13878107  1
  O  O27  1  0.64261297  0.68628943  0.63878107  1
  O  O28  1  0.85558525  0.25255580  0.32903757  1
  O  O29  1  0.85558525  0.74744420  0.82903757  1
  O  O30  1  0.86053646  0.25303110  0.67284591  1
  O  O31  1  0.86053646  0.74696890  0.17284591  1
