# generated using pymatgen
data_Fe4O5F3
_symmetry_space_group_name_H-M   'P 1'
_cell_length_a   4.70511641
_cell_length_b   10.29555756
_cell_length_c   5.60986139
_cell_angle_alpha   83.73911667
_cell_angle_beta   91.79817765
_cell_angle_gamma   89.45985440
_symmetry_Int_Tables_number   1
_chemical_formula_structural   Fe4O5F3
_chemical_formula_sum   'Fe8 O10 F6'
_cell_volume   269.97533652
_cell_formula_units_Z   2
loop_
 _symmetry_equiv_pos_site_id
 _symmetry_equiv_pos_as_xyz
  1  'x, y, z'
loop_
 _atom_site_type_symbol
 _atom_site_label
 _atom_site_symmetry_multiplicity
 _atom_site_fract_x
 _atom_site_fract_y
 _atom_site_fract_z
 _atom_site_occupancy
  Fe  Fe0  1  0.50000000  0.25000000  0.75000000  1
  Fe  Fe1  1  0.50000000  0.75000000  0.25000000  1
  Fe  Fe2  1  0.47259297  0.99042540  0.50182086  1
  Fe  Fe3  1  0.52740703  0.50957460  0.99817914  1
  Fe  Fe4  1  0.00000000  0.75000000  0.75000000  1
  Fe  Fe5  1  0.94427651  0.49383489  0.51167416  1
  Fe  Fe6  1  0.00000000  0.25000000  0.25000000  1
  Fe  Fe7  1  0.05572349  0.00616511  0.98832584  1
  O  O8  1  0.81186055  0.58369405  0.77301149  1
  O  O9  1  0.79725663  0.32031373  0.52100647  1
  O  O10  1  0.69618400  0.82173368  0.52325087  1
  O  O11  1  0.68739939  0.58217327  0.27363958  1
  O  O12  1  0.69387332  0.33132188  0.01345393  1
  O  O13  1  0.31260061  0.91782673  0.22636042  1
  O  O14  1  0.30381600  0.67826632  0.97674913  1
  O  O15  1  0.30612668  0.16867812  0.48654607  1
  O  O16  1  0.20274337  0.17968627  0.97899353  1
  O  O17  1  0.18813945  0.91630595  0.72698851  1
  F  F18  1  0.80837151  0.07202174  0.26420430  1
  F  F19  1  0.80819489  0.83203687  0.02510116  1
  F  F20  1  0.70275991  0.06807790  0.77777994  1
  F  F21  1  0.29724009  0.43192210  0.72222006  1
  F  F22  1  0.19180511  0.66796313  0.47489884  1
  F  F23  1  0.19162849  0.42797826  0.23579570  1
