# generated using pymatgen
data_Hf2N2O
_symmetry_space_group_name_H-M   'P 1'
_cell_length_a   13.75681929
_cell_length_b   3.27643212
_cell_length_c   8.12129592
_cell_angle_alpha   90.00000000
_cell_angle_beta   99.50711415
_cell_angle_gamma   90.00000000
_symmetry_Int_Tables_number   1
_chemical_formula_structural   Hf2N2O
_chemical_formula_sum   'Hf12 N12 O6'
_cell_volume   361.02577430
_cell_formula_units_Z   6
loop_
 _symmetry_equiv_pos_site_id
 _symmetry_equiv_pos_as_xyz
  1  'x, y, z'
loop_
 _atom_site_type_symbol
 _atom_site_label
 _atom_site_symmetry_multiplicity
 _atom_site_fract_x
 _atom_site_fract_y
 _atom_site_fract_z
 _atom_site_occupancy
  Hf  Hf0  1  0.00772921  0.25000000  0.17751615  1
  Hf  Hf1  1  0.12007999  0.25000000  0.54703410  1
  Hf  Hf2  1  0.22321837  0.75000000  0.18955854  1
  Hf  Hf3  1  0.28339157  0.75000000  0.82998637  1
  Hf  Hf4  1  0.39066252  0.25000000  0.49923733  1
  Hf  Hf5  1  0.43790008  0.25000000  0.14506402  1
  Hf  Hf6  1  0.56970918  0.75000000  0.88003212  1
  Hf  Hf7  1  0.61601844  0.75000000  0.49518216  1
  Hf  Hf8  1  0.71916106  0.25000000  0.17322927  1
  Hf  Hf9  1  0.78239409  0.25000000  0.81521920  1
  Hf  Hf10  1  0.87944713  0.75000000  0.44466541  1
  Hf  Hf11  1  0.98285852  0.75000000  0.80531296  1
  N  N12  1  0.18057199  0.25000000  0.32434106  1
  N  N13  1  0.28462811  0.25000000  0.66324518  1
  N  N14  1  0.26622588  0.25000000  0.01771080  1
  N  N15  1  0.37135554  0.75000000  0.30888099  1
  N  N16  1  0.53505787  0.25000000  0.38226738  1
  N  N17  1  0.56811240  0.25000000  0.03355823  1
  N  N18  1  0.72740354  0.75000000  0.97495372  1
  N  N19  1  0.71634063  0.75000000  0.33626761  1
  N  N20  1  0.80986082  0.75000000  0.66576408  1
  N  N21  1  0.92872424  0.25000000  0.93495398  1
  N  N22  1  0.87402412  0.25000000  0.26992522  1
  N  N23  1  0.97355546  0.25000000  0.61308944  1
  O  O24  1  0.03360755  0.75000000  0.37761397  1
  O  O25  1  0.13038061  0.75000000  0.71936044  1
  O  O26  1  0.07091193  0.75000000  0.05995210  1
  O  O27  1  0.42371431  0.75000000  0.97407520  1
  O  O28  1  0.46561629  0.75000000  0.64071848  1
  O  O29  1  0.62733857  0.25000000  0.70128550  1
