# generated using pymatgen
data_Fe3(O2F)2
_symmetry_space_group_name_H-M   'P 1'
_cell_length_a   4.67974912
_cell_length_b   4.67975049
_cell_length_c   9.13208869
_cell_angle_alpha   89.99997088
_cell_angle_beta   90.00011916
_cell_angle_gamma   90.02748643
_symmetry_Int_Tables_number   1
_chemical_formula_structural   Fe3(O2F)2
_chemical_formula_sum   'Fe6 O8 F4'
_cell_volume   199.99325152
_cell_formula_units_Z   2
loop_
 _symmetry_equiv_pos_site_id
 _symmetry_equiv_pos_as_xyz
  1  'x, y, z'
loop_
 _atom_site_type_symbol
 _atom_site_label
 _atom_site_symmetry_multiplicity
 _atom_site_fract_x
 _atom_site_fract_y
 _atom_site_fract_z
 _atom_site_occupancy
  Fe  Fe0  1  0.00000355  0.99999442  0.01424384  1
  Fe  Fe1  1  0.99999770  0.00000178  0.33310369  1
  Fe  Fe2  1  0.99999699  0.00000220  0.65178517  1
  Fe  Fe3  1  0.50000086  0.49999988  0.15290761  1
  Fe  Fe4  1  0.50000117  0.49999847  0.83354724  1
  Fe  Fe5  1  0.49999700  0.50000337  0.51427280  1
  O  O6  1  0.19374945  0.80625121  0.17712594  1
  O  O7  1  0.19413844  0.80586208  0.48920480  1
  O  O8  1  0.30584106  0.30583653  0.99038513  1
  O  O9  1  0.30642328  0.30642108  0.67690119  1
  O  O10  1  0.69416085  0.69415956  0.99038515  1
  O  O11  1  0.69357651  0.69357857  0.67690163  1
  O  O12  1  0.80625149  0.19374705  0.17712346  1
  O  O13  1  0.80585715  0.19414373  0.48920408  1
  F  F14  1  0.18858878  0.81141215  0.83306465  1
  F  F15  1  0.31147068  0.31147464  0.33338844  1
  F  F16  1  0.68852798  0.68852815  0.33338923  1
  F  F17  1  0.81141707  0.18858513  0.83306595  1
