# generated using pymatgen
data_Mg14ZnFe
_symmetry_space_group_name_H-M   'P 1'
_cell_length_a   6.25449521
_cell_length_b   6.25449471
_cell_length_c   9.77071506
_cell_angle_alpha   90.00000000
_cell_angle_beta   90.00000000
_cell_angle_gamma   120.00000257
_symmetry_Int_Tables_number   1
_chemical_formula_structural   Mg14ZnFe
_chemical_formula_sum   'Mg14 Zn1 Fe1'
_cell_volume   331.01026566
_cell_formula_units_Z   1
loop_
 _symmetry_equiv_pos_site_id
 _symmetry_equiv_pos_as_xyz
  1  'x, y, z'
loop_
 _atom_site_type_symbol
 _atom_site_label
 _atom_site_symmetry_multiplicity
 _atom_site_fract_x
 _atom_site_fract_y
 _atom_site_fract_z
 _atom_site_occupancy
  Mg  Mg0  1  0.16741516  0.83370708  0.12500000  1
  Mg  Mg1  1  0.16599976  0.83299938  0.62500000  1
  Mg  Mg2  1  0.66629292  0.33258484  0.12500000  1
  Mg  Mg3  1  0.66700062  0.33400024  0.62500000  1
  Mg  Mg4  1  0.66629292  0.83370708  0.12500000  1
  Mg  Mg5  1  0.66700062  0.83299938  0.62500000  1
  Mg  Mg6  1  0.32427851  0.17572149  0.38177023  1
  Mg  Mg7  1  0.32427851  0.17572149  0.86822977  1
  Mg  Mg8  1  0.32427851  0.64855802  0.38177023  1
  Mg  Mg9  1  0.32427851  0.64855802  0.86822977  1
  Mg  Mg10  1  0.85144198  0.17572149  0.38177023  1
  Mg  Mg11  1  0.85144198  0.17572149  0.86822977  1
  Mg  Mg12  1  0.83333300  0.66666700  0.37340939  1
  Mg  Mg13  1  0.83333300  0.66666700  0.87659061  1
  Zn  Zn14  1  0.16666700  0.33333300  0.12500000  1
  Fe  Fe15  1  0.16666700  0.33333300  0.62500000  1
