# generated using pymatgen
data_Ce(WO4)2
_symmetry_space_group_name_H-M   'P 1'
_cell_length_a   7.35574444
_cell_length_b   7.35574444
_cell_length_c   7.91400400
_cell_angle_alpha   63.75440369
_cell_angle_beta   116.24559631
_cell_angle_gamma   111.33579858
_symmetry_Int_Tables_number   1
_chemical_formula_structural   Ce(WO4)2
_chemical_formula_sum   'Ce2 W4 O16'
_cell_volume   336.84350583
_cell_formula_units_Z   2
loop_
 _symmetry_equiv_pos_site_id
 _symmetry_equiv_pos_as_xyz
  1  'x, y, z'
loop_
 _atom_site_type_symbol
 _atom_site_label
 _atom_site_symmetry_multiplicity
 _atom_site_fract_x
 _atom_site_fract_y
 _atom_site_fract_z
 _atom_site_occupancy
  Ce  Ce0  1  0.03490648  0.03490648  0.75000000  1
  Ce  Ce1  1  0.96509352  0.96509352  0.25000000  1
  W  W2  1  0.50649414  0.93889561  0.73170773  1
  W  W3  1  0.06110439  0.49350586  0.23170773  1
  W  W4  1  0.93889561  0.50649414  0.76829227  1
  W  W5  1  0.49350586  0.06110439  0.26829227  1
  O  O6  1  0.40951372  0.67389585  0.82471866  1
  O  O7  1  0.78040454  0.97818327  0.91506611  1
  O  O8  1  0.05055278  0.36033635  0.71402710  1
  O  O9  1  0.67602835  0.98778127  0.55930693  1
  O  O10  1  0.32610415  0.59048628  0.32471866  1
  O  O11  1  0.02181673  0.21959546  0.41506611  1
  O  O12  1  0.63966365  0.94944722  0.21402710  1
  O  O13  1  0.01221873  0.32397165  0.05930693  1
  O  O14  1  0.98778127  0.67602835  0.94069307  1
  O  O15  1  0.36033635  0.05055278  0.78597290  1
  O  O16  1  0.97818327  0.78040454  0.58493389  1
  O  O17  1  0.67389585  0.40951372  0.67528134  1
  O  O18  1  0.32397165  0.01221873  0.44069307  1
  O  O19  1  0.94944722  0.63966365  0.28597290  1
  O  O20  1  0.21959546  0.02181673  0.08493389  1
  O  O21  1  0.59048628  0.32610415  0.17528134  1
