# generated using pymatgen
data_Fe2O3F
_symmetry_space_group_name_H-M   'P 1'
_cell_length_a   4.67041013
_cell_length_b   7.61729420
_cell_length_c   9.81332580
_cell_angle_alpha   109.64886229
_cell_angle_beta   92.66859071
_cell_angle_gamma   88.59836675
_symmetry_Int_Tables_number   1
_chemical_formula_structural   Fe2O3F
_chemical_formula_sum   'Fe10 O15 F5'
_cell_volume   328.41807073
_cell_formula_units_Z   5
loop_
 _symmetry_equiv_pos_site_id
 _symmetry_equiv_pos_as_xyz
  1  'x, y, z'
loop_
 _atom_site_type_symbol
 _atom_site_label
 _atom_site_symmetry_multiplicity
 _atom_site_fract_x
 _atom_site_fract_y
 _atom_site_fract_z
 _atom_site_occupancy
  Fe  Fe0  1  0.51623444  0.28886853  0.90105247  1
  Fe  Fe1  1  0.47114380  0.09866216  0.31414813  1
  Fe  Fe2  1  0.46947778  0.89257731  0.70758995  1
  Fe  Fe3  1  0.54120424  0.71250539  0.10037310  1
  Fe  Fe4  1  0.52588843  0.50396664  0.48173574  1
  Fe  Fe5  1  0.96421422  0.60479465  0.80085684  1
  Fe  Fe6  1  0.99240559  0.20383008  0.60435457  1
  Fe  Fe7  1  0.00256124  0.80558126  0.39896724  1
  Fe  Fe8  1  0.00642982  0.39723275  0.19261879  1
  Fe  Fe9  1  0.02206434  0.99335019  0.99657504  1
  O  O10  1  0.81077735  0.76215516  0.97799610  1
  O  O11  1  0.82509757  0.56259136  0.36640484  1
  O  O12  1  0.80285271  0.36567118  0.77904928  1
  O  O13  1  0.69449746  0.04765375  0.87685642  1
  O  O14  1  0.68309430  0.66011723  0.66894324  1
  O  O15  1  0.70103531  0.45873795  0.07606103  1
  O  O16  1  0.69904039  0.86575109  0.28799177  1
  O  O17  1  0.69187099  0.27015024  0.47983868  1
  O  O18  1  0.30130821  0.13401864  0.72618190  1
  O  O19  1  0.30693505  0.73709168  0.51707324  1
  O  O20  1  0.30387014  0.34410592  0.32029755  1
  O  O21  1  0.30443438  0.94092269  0.12627558  1
  O  O22  1  0.18101373  0.04276870  0.43427505  1
  O  O23  1  0.18571325  0.82384157  0.81898122  1
  O  O24  1  0.19073567  0.23867716  0.02281627  1
  F  F25  1  0.79647562  0.96101559  0.58364971  1
  F  F26  1  0.80374772  0.16058052  0.18063419  1
  F  F27  1  0.30561582  0.53774971  0.92008100  1
  F  F28  1  0.19214271  0.44302636  0.62482003  1
  F  F29  1  0.20811772  0.64200454  0.21350200  1
