# generated using pymatgen
data_Li2Mn2Si2O9
_symmetry_space_group_name_H-M   'P 1'
_cell_length_a   13.93125107
_cell_length_b   8.42693875
_cell_length_c   5.12930192
_cell_angle_alpha   89.99992242
_cell_angle_beta   90.00027604
_cell_angle_gamma   90.00027825
_symmetry_Int_Tables_number   1
_chemical_formula_structural   Li2Mn2Si2O9
_chemical_formula_sum   'Li8 Mn8 Si8 O36'
_cell_volume   602.16875826
_cell_formula_units_Z   4
loop_
 _symmetry_equiv_pos_site_id
 _symmetry_equiv_pos_as_xyz
  1  'x, y, z'
loop_
 _atom_site_type_symbol
 _atom_site_label
 _atom_site_symmetry_multiplicity
 _atom_site_fract_x
 _atom_site_fract_y
 _atom_site_fract_z
 _atom_site_occupancy
  Li  Li0  1  0.16085255  0.05364118  0.63485627  1
  Li  Li1  1  0.16085083  0.44635653  0.13485587  1
  Li  Li2  1  0.33914570  0.55364242  0.13484662  1
  Li  Li3  1  0.33914342  0.94636152  0.63486439  1
  Li  Li4  1  0.66086240  0.05364427  0.36515514  1
  Li  Li5  1  0.66086464  0.44635359  0.86513530  1
  Li  Li6  1  0.83913563  0.55364319  0.86515083  1
  Li  Li7  1  0.83913706  0.94635602  0.36513864  1
  Mn  Mn8  1  0.17027478  0.65853886  0.62186257  1
  Mn  Mn9  1  0.17031277  0.84146721  0.12183982  1
  Mn  Mn10  1  0.32971506  0.15850372  0.12187628  1
  Mn  Mn11  1  0.32971555  0.34148649  0.62187337  1
  Mn  Mn12  1  0.67026464  0.65853178  0.37816610  1
  Mn  Mn13  1  0.67028312  0.84147661  0.87814970  1
  Mn  Mn14  1  0.82973424  0.15853427  0.87811975  1
  Mn  Mn15  1  0.82970645  0.34148987  0.37811328  1
  Si  Si16  1  0.02809594  0.15319913  0.21576015  1
  Si  Si17  1  0.02808533  0.34676098  0.71573350  1
  Si  Si18  1  0.47190050  0.65318423  0.71577028  1
  Si  Si19  1  0.47191144  0.84677139  0.21574457  1
  Si  Si20  1  0.52810487  0.15316937  0.78422827  1
  Si  Si21  1  0.52809345  0.34675187  0.28425385  1
  Si  Si22  1  0.97189564  0.65317085  0.28423117  1
  Si  Si23  1  0.97190760  0.84676062  0.78425833  1
  O  O24  1  0.06909913  0.27295244  0.44326869  1
  O  O25  1  0.06909976  0.22706616  0.94322903  1
  O  O26  1  0.07477378  0.98208529  0.27428217  1
  O  O27  1  0.07476913  0.51793760  0.77429942  1
  O  O28  1  0.09110941  0.65614150  0.28682732  1
  O  O29  1  0.09111072  0.84386109  0.78683259  1
  O  O30  1  0.23512576  0.82347396  0.43907009  1
  O  O31  1  0.23512577  0.67652225  0.93905707  1
  O  O32  1  0.25000517  -0.00000260  0.97151873  1
  O  O33  1  0.24999394  0.50000169  0.47151083  1
  O  O34  1  0.26487118  0.17652130  0.43906849  1
  O  O35  1  0.26487281  0.32347603  0.93906419  1
  O  O36  1  0.40889501  0.15613228  0.78682488  1
  O  O37  1  0.40889443  0.34386401  0.28682277  1
  O  O38  1  0.42523894  0.01792139  0.27431542  1
  O  O39  1  0.42523743  0.48210262  0.77429024  1
  O  O40  1  0.43089836  0.72706619  0.44321915  1
  O  O41  1  0.43089949  0.77295171  0.94326516  1
  O  O42  1  0.56910021  0.22707570  0.05679648  1
  O  O43  1  0.56909763  0.27295650  0.55670908  1
  O  O44  1  0.57475985  0.51793501  0.22569712  1
  O  O45  1  0.57476489  0.98210407  0.72572358  1
  O  O46  1  0.59110186  0.65614078  0.71316689  1
  O  O47  1  0.59110059  0.84385839  0.21317950  1
  O  O48  1  0.73511474  0.67651987  0.06096635  1
  O  O49  1  0.73511588  0.82347010  0.56092478  1
  O  O50  1  0.75001476  0.00000238  0.02848263  1
  O  O51  1  0.74998120  0.50000769  0.52847741  1
  O  O52  1  0.76488083  0.17652128  0.56095184  1
  O  O53  1  0.76487964  0.32347139  0.06091856  1
  O  O54  1  0.90889777  0.15614002  0.21316973  1
  O  O55  1  0.90889656  0.34386172  0.71317064  1
  O  O56  1  0.92524126  0.01792393  0.72569366  1
  O  O57  1  0.92523358  0.48210817  0.22572355  1
  O  O58  1  0.93090235  0.72707436  0.55678800  1
  O  O59  1  0.93090257  0.77295775  0.05670986  1
