# generated using pymatgen
data_Li2FeO2F
_symmetry_space_group_name_H-M   'P 1'
_cell_length_a   5.19121708
_cell_length_b   5.19121708
_cell_length_c   9.88468360
_cell_angle_alpha   85.11874280
_cell_angle_beta   94.88125720
_cell_angle_gamma   60.14027662
_symmetry_Int_Tables_number   1
_chemical_formula_structural   Li2FeO2F
_chemical_formula_sum   'Li8 Fe4 O8 F4'
_cell_volume   227.66141668
_cell_formula_units_Z   4
loop_
 _symmetry_equiv_pos_site_id
 _symmetry_equiv_pos_as_xyz
  1  'x, y, z'
loop_
 _atom_site_type_symbol
 _atom_site_label
 _atom_site_symmetry_multiplicity
 _atom_site_fract_x
 _atom_site_fract_y
 _atom_site_fract_z
 _atom_site_occupancy
  Li  Li0  1  0.59940061  0.59940061  0.75000000  1
  Li  Li1  1  0.22692648  0.22692648  0.75000000  1
  Li  Li2  1  0.90828676  0.90828676  0.75000000  1
  Li  Li3  1  0.00000000  0.50000000  0.00000000  1
  Li  Li4  1  0.09171324  0.09171324  0.25000000  1
  Li  Li5  1  0.40059939  0.40059939  0.25000000  1
  Li  Li6  1  0.77307352  0.77307352  0.25000000  1
  Li  Li7  1  0.50000000  0.00000000  0.50000000  1
  Fe  Fe8  1  0.12742703  0.68626310  0.50134096  1
  Fe  Fe9  1  0.31373690  0.87257297  0.00134096  1
  Fe  Fe10  1  0.87257297  0.31373690  0.49865904  1
  Fe  Fe11  1  0.68626310  0.12742703  0.99865904  1
  O  O12  1  0.19468718  0.94867376  0.61647271  1
  O  O13  1  0.60413415  0.88213151  0.88214381  1
  O  O14  1  0.05132624  0.80531282  0.11647271  1
  O  O15  1  0.11786849  0.39586585  0.38214381  1
  O  O16  1  0.88213151  0.60413415  0.61785619  1
  O  O17  1  0.94867376  0.19468718  0.88352729  1
  O  O18  1  0.39586585  0.11786849  0.11785619  1
  O  O19  1  0.80531282  0.05132624  0.38352729  1
  F  F20  1  0.30523757  0.53773516  0.88021254  1
  F  F21  1  0.46226484  0.69476243  0.38021254  1
  F  F22  1  0.53773516  0.30523757  0.61978746  1
  F  F23  1  0.69476243  0.46226484  0.11978746  1
