# generated using pymatgen
data_KLi2Mn2O4
_symmetry_space_group_name_H-M   'P 1'
_cell_length_a   3.26955178
_cell_length_b   5.49364746
_cell_length_c   12.70075432
_cell_angle_alpha   90.00000000
_cell_angle_beta   90.00000000
_cell_angle_gamma   86.95669693
_symmetry_Int_Tables_number   1
_chemical_formula_structural   KLi2Mn2O4
_chemical_formula_sum   'K2 Li4 Mn4 O8'
_cell_volume   227.80623253
_cell_formula_units_Z   2
loop_
 _symmetry_equiv_pos_site_id
 _symmetry_equiv_pos_as_xyz
  1  'x, y, z'
loop_
 _atom_site_type_symbol
 _atom_site_label
 _atom_site_symmetry_multiplicity
 _atom_site_fract_x
 _atom_site_fract_y
 _atom_site_fract_z
 _atom_site_occupancy
  K  K0  1  0.04863400  0.34226910  0.75000000  1
  K  K1  1  0.95136600  0.65773090  0.25000000  1
  Li  Li2  1  0.47518885  0.14842823  0.35805886  1
  Li  Li3  1  0.47518885  0.14842823  0.14194114  1
  Li  Li4  1  0.52481215  0.85157077  0.64194214  1
  Li  Li5  1  0.52481215  0.85157077  0.85805786  1
  Mn  Mn6  1  0.00000000  0.00000000  0.50000000  1
  Mn  Mn7  1  0.00000000  0.00000000  0.00000000  1
  Mn  Mn8  1  0.50000000  0.50000000  0.00000000  1
  Mn  Mn9  1  0.50000000  0.50000000  0.50000000  1
  O  O10  1  0.96810089  0.28830220  0.40266207  1
  O  O11  1  0.96810089  0.28830220  0.09733793  1
  O  O12  1  0.42624659  0.83507210  0.41091595  1
  O  O13  1  0.42624659  0.83507210  0.08908405  1
  O  O14  1  0.57375341  0.16492790  0.58908405  1
  O  O15  1  0.57375341  0.16492790  0.91091595  1
  O  O16  1  0.03189911  0.71169780  0.90266207  1
  O  O17  1  0.03189911  0.71169780  0.59733793  1
