# generated using pymatgen
data_Y6N2O5
_symmetry_space_group_name_H-M   'P 1'
_cell_length_a   7.61445708
_cell_length_b   4.78557903
_cell_length_c   5.93820526
_cell_angle_alpha   113.77650327
_cell_angle_beta   97.66765438
_cell_angle_gamma   90.03969733
_symmetry_Int_Tables_number   1
_chemical_formula_structural   Y6N2O5
_chemical_formula_sum   'Y6 N2 O5'
_cell_volume   195.89498231
_cell_formula_units_Z   1
loop_
 _symmetry_equiv_pos_site_id
 _symmetry_equiv_pos_as_xyz
  1  'x, y, z'
loop_
 _atom_site_type_symbol
 _atom_site_label
 _atom_site_symmetry_multiplicity
 _atom_site_fract_x
 _atom_site_fract_y
 _atom_site_fract_z
 _atom_site_occupancy
  Y  Y0  1  0.14082055  0.70805469  0.41808131  1
  Y  Y1  1  0.28526171  0.43370124  0.86879117  1
  Y  Y2  1  0.57851304  0.85375413  0.70914436  1
  Y  Y3  1  0.42548237  0.14505944  0.29175478  1
  Y  Y4  1  0.86279714  0.29094539  0.58245310  1
  Y  Y5  1  0.71853014  0.56553121  0.13021352  1
  N  N6  1  0.42669286  0.64216378  0.28535041  1
  N  N7  1  0.57706641  0.35718340  0.71440485  1
  O  O8  1  0.30007666  0.92053723  0.84216593  1
  O  O9  1  0.00198657  0.50113364  0.00000722  1
  O  O10  1  0.14760894  0.22696639  0.45755090  1
  O  O11  1  0.70369749  0.07957934  0.15805922  1
  O  O12  1  0.85638612  0.77092713  0.54240523  1
