# generated using pymatgen
data_LiMnSiO4
_symmetry_space_group_name_H-M   'P 1'
_cell_length_a   5.72788576
_cell_length_b   10.28389145
_cell_length_c   10.32999126
_cell_angle_alpha   90.00000000
_cell_angle_beta   90.59882731
_cell_angle_gamma   90.00000000
_symmetry_Int_Tables_number   1
_chemical_formula_structural   LiMnSiO4
_chemical_formula_sum   'Li8 Mn8 Si8 O32'
_cell_volume   608.45444081
_cell_formula_units_Z   8
loop_
 _symmetry_equiv_pos_site_id
 _symmetry_equiv_pos_as_xyz
  1  'x, y, z'
loop_
 _atom_site_type_symbol
 _atom_site_label
 _atom_site_symmetry_multiplicity
 _atom_site_fract_x
 _atom_site_fract_y
 _atom_site_fract_z
 _atom_site_occupancy
  Li  Li0  1  0.12054155  0.84005545  0.85206329  1
  Li  Li1  1  0.12054155  0.65994455  0.35206329  1
  Li  Li2  1  0.36376173  0.37223638  0.60405850  1
  Li  Li3  1  0.36376173  0.12776362  0.10405850  1
  Li  Li4  1  0.63623827  0.87223638  0.89594150  1
  Li  Li5  1  0.63623827  0.62776362  0.39594150  1
  Li  Li6  1  0.87945845  0.34005545  0.64793671  1
  Li  Li7  1  0.87945845  0.15994455  0.14793671  1
  Mn  Mn8  1  0.15472692  0.12669035  0.51947244  1
  Mn  Mn9  1  0.15472692  0.37330965  0.01947244  1
  Mn  Mn10  1  0.36214872  0.59061048  0.77688273  1
  Mn  Mn11  1  0.36214872  0.90938952  0.27688273  1
  Mn  Mn12  1  0.63785128  0.09061048  0.72311727  1
  Mn  Mn13  1  0.63785128  0.40938952  0.22311727  1
  Mn  Mn14  1  0.84527308  0.62669035  0.98052756  1
  Mn  Mn15  1  0.84527308  0.87330965  0.48052756  1
  Si  Si16  1  0.12397728  0.10743828  0.82982872  1
  Si  Si17  1  0.12397728  0.39256172  0.32982872  1
  Si  Si18  1  0.37453578  0.85251433  0.58448909  1
  Si  Si19  1  0.37453578  0.64748567  0.08448909  1
  Si  Si20  1  0.62546422  0.35251433  0.91551091  1
  Si  Si21  1  0.62546422  0.14748567  0.41551091  1
  Si  Si22  1  0.87602272  0.60743828  0.67017128  1
  Si  Si23  1  0.87602272  0.89256172  0.17017128  1
  O  O24  1  0.11769407  0.19917787  0.96175107  1
  O  O25  1  0.10744513  0.51061836  0.66955493  1
  O  O26  1  0.11769407  0.30082213  0.46175107  1
  O  O27  1  0.10744513  0.98938164  0.16955493  1
  O  O28  1  0.11568428  0.19623589  0.69440193  1
  O  O29  1  0.14693628  0.94978172  0.58044017  1
  O  O30  1  0.11568428  0.30376411  0.19440193  1
  O  O31  1  0.14693628  0.55021828  0.08044017  1
  O  O32  1  0.32658231  0.75324495  0.70065367  1
  O  O33  1  0.36341831  0.01895212  0.83612491  1
  O  O34  1  0.32658231  0.74675505  0.20065367  1
  O  O35  1  0.36341831  0.48104788  0.33612491  1
  O  O36  1  0.38034117  0.43396482  0.88219352  1
  O  O37  1  0.41787499  0.70783054  0.93968125  1
  O  O38  1  0.38034117  0.06603518  0.38219352  1
  O  O39  1  0.41787499  0.79216946  0.43968125  1
  O  O40  1  0.58212501  0.20783054  0.56031875  1
  O  O41  1  0.61965883  0.93396482  0.61780648  1
  O  O42  1  0.58212501  0.29216946  0.06031875  1
  O  O43  1  0.61965883  0.56603518  0.11780648  1
  O  O44  1  0.63658169  0.51895212  0.66387509  1
  O  O45  1  0.67341769  0.25324495  0.79934633  1
  O  O46  1  0.63658169  0.98104788  0.16387509  1
  O  O47  1  0.67341769  0.24675505  0.29934633  1
  O  O48  1  0.85306372  0.44978172  0.91955983  1
  O  O49  1  0.88431572  0.69623589  0.80559807  1
  O  O50  1  0.85306372  0.05021828  0.41955983  1
  O  O51  1  0.88431572  0.80376411  0.30559807  1
  O  O52  1  0.89255487  0.01061836  0.83044507  1
  O  O53  1  0.88230593  0.69917787  0.53824893  1
  O  O54  1  0.89255487  0.48938164  0.33044507  1
  O  O55  1  0.88230593  0.80082213  0.03824893  1
