# generated using pymatgen
data_Li10Fe2Co3Ni3O16
_symmetry_space_group_name_H-M   'P 1'
_cell_length_a   5.83187637
_cell_length_b   5.93948946
_cell_length_c   9.58018754
_cell_angle_alpha   88.79363894
_cell_angle_beta   89.62719897
_cell_angle_gamma   60.29180170
_symmetry_Int_Tables_number   1
_chemical_formula_structural   Li10Fe2Co3Ni3O16
_chemical_formula_sum   'Li10 Fe2 Co3 Ni3 O16'
_cell_volume   288.15811469
_cell_formula_units_Z   1
loop_
 _symmetry_equiv_pos_site_id
 _symmetry_equiv_pos_as_xyz
  1  'x, y, z'
loop_
 _atom_site_type_symbol
 _atom_site_label
 _atom_site_symmetry_multiplicity
 _atom_site_fract_x
 _atom_site_fract_y
 _atom_site_fract_z
 _atom_site_occupancy
  Li  Li0  1  0.62013802  0.18953058  0.05202508  1
  Li  Li1  1  0.81092138  0.37197154  0.54729658  1
  Li  Li2  1  0.18147998  0.18957421  0.05091476  1
  Li  Li3  1  0.32565684  0.32585947  0.26667616  1
  Li  Li4  1  0.98336300  0.00160915  0.47292833  1
  Li  Li5  1  0.80634831  0.77817992  0.54383816  1
  Li  Li6  1  0.66911363  0.64748381  0.76992019  1
  Li  Li7  1  0.20201530  0.58653543  0.04093779  1
  Li  Li8  1  0.37608107  0.79715975  0.55159293  1
  Li  Li9  1  0.00206896  0.98800821  0.97545919  1
  Fe  Fe10  1  0.65336032  0.68252348  0.02836852  1
  Fe  Fe11  1  0.32739513  0.33297614  0.52298680  1
  Co  Co12  1  0.81962523  0.34183007  0.28000647  1
  Co  Co13  1  0.66323033  0.15930688  0.77978835  1
  Co  Co14  1  0.16865115  0.15981250  0.78006834  1
  Ni  Ni15  1  0.16687178  0.65467810  0.77861372  1
  Ni  Ni16  1  0.82444374  0.83115003  0.27916278  1
  Ni  Ni17  1  0.32491778  0.83227922  0.28053037  1
  O  O18  1  0.97930510  0.02552551  0.17092815  1
  O  O19  1  0.99312197  0.01067146  0.67206483  1
  O  O20  1  0.65261456  0.18258250  0.39798043  1
  O  O21  1  0.83834113  0.31194512  0.89225861  1
  O  O22  1  0.97432208  0.50047231  0.15522070  1
  O  O23  1  0.48838720  0.01721144  0.66043067  1
  O  O24  1  0.50991255  0.50301107  0.15466587  1
  O  O25  1  0.66438196  0.64980863  0.39351746  1
  O  O26  1  0.49906604  0.47060353  0.66063054  1
  O  O27  1  0.14263721  0.17968694  0.40165457  1
  O  O28  1  0.34058581  0.30732415  0.89011277  1
  O  O29  1  0.82686146  0.83356946  0.89997206  1
  O  O30  1  0.50135972  0.98495159  0.15520850  1
  O  O31  1  0.01928555  0.47042625  0.66157588  1
  O  O32  1  0.15146946  0.66844337  0.41044232  1
  O  O33  1  0.33271724  0.83341421  0.89935914  1
