# generated using pymatgen
data_Na6Cr2B4PO16
_symmetry_space_group_name_H-M   'P 1'
_cell_length_a   9.90512907
_cell_length_b   9.90799349
_cell_length_c   9.90944139
_cell_angle_alpha   60.02801473
_cell_angle_beta   59.98878997
_cell_angle_gamma   60.00658322
_symmetry_Int_Tables_number   1
_chemical_formula_structural   Na6Cr2B4PO16
_chemical_formula_sum   'Na12 Cr4 B8 P2 O32'
_cell_volume   687.79129995
_cell_formula_units_Z   2
loop_
 _symmetry_equiv_pos_site_id
 _symmetry_equiv_pos_as_xyz
  1  'x, y, z'
loop_
 _atom_site_type_symbol
 _atom_site_label
 _atom_site_symmetry_multiplicity
 _atom_site_fract_x
 _atom_site_fract_y
 _atom_site_fract_z
 _atom_site_occupancy
  Na  Na0  1  0.08819797  0.66162119  0.08850140  1
  Na  Na1  1  0.08832771  0.08838463  0.66177409  1
  Na  Na2  1  0.66151016  0.08836774  0.08846363  1
  Na  Na3  1  0.08826165  0.66169132  0.66169517  1
  Na  Na4  1  0.33861616  0.91137280  0.33844506  1
  Na  Na5  1  0.33866758  0.33841043  0.91148921  1
  Na  Na6  1  0.66147324  0.66178954  0.08834020  1
  Na  Na7  1  0.66151742  0.08849288  0.66171833  1
  Na  Na8  1  0.91154547  0.33849743  0.33846930  1
  Na  Na9  1  0.33861515  0.91148211  0.91139808  1
  Na  Na10  1  0.91161715  0.33856861  0.91134838  1
  Na  Na11  1  0.91147259  0.91144247  0.33840513  1
  Cr  Cr12  1  0.00015875  0.49972230  0.50007639  1
  Cr  Cr13  1  0.49991527  0.00000156  0.50010444  1
  Cr  Cr14  1  0.50015647  0.49998653  -0.00009585  1
  Cr  Cr15  1  0.50009213  0.50004293  0.49985419  1
  B  B16  1  0.28901426  0.28947150  0.28882233  1
  B  B17  1  0.28880296  0.28898620  0.63294293  1
  B  B18  1  0.28928718  0.63269838  0.28918601  1
  B  B19  1  0.63246205  0.28893442  0.28934939  1
  B  B20  1  0.36751028  0.71102978  0.71065189  1
  B  B21  1  0.71066388  0.36732902  0.71074920  1
  B  B22  1  0.71127962  0.71106107  0.36707745  1
  B  B23  1  0.71107588  0.71051896  0.71108673  1
  P  P24  1  0.12495647  0.12503378  0.12501906  1
  P  P25  1  0.87501676  0.87498777  0.87498354  1
  O  O26  1  0.06082540  0.06091441  0.06092881  1
  O  O27  1  0.06085271  0.06096754  0.31727687  1
  O  O28  1  0.06084253  0.31728630  0.06095123  1
  O  O29  1  0.31733689  0.06090516  0.06089388  1
  O  O30  1  0.13345162  0.40553361  0.32257319  1
  O  O31  1  0.32357203  0.13334352  0.40505872  1
  O  O32  1  0.13408703  0.32190378  0.63914773  1
  O  O33  1  0.40508161  0.32120454  0.13447194  1
  O  O34  1  0.13315240  0.63806602  0.40492431  1
  O  O35  1  0.32298686  0.63848185  0.13380944  1
  O  O36  1  0.40481520  0.13423755  0.63919056  1
  O  O37  1  0.32361851  0.40480115  0.63816863  1
  O  O38  1  0.63865067  0.13406846  0.32192370  1
  O  O39  1  0.40502123  0.63936159  0.32133275  1
  O  O40  1  0.63805364  0.40551344  0.13343264  1
  O  O41  1  0.36170950  0.67728843  0.59456949  1
  O  O42  1  0.63828003  0.32273300  0.40542128  1
  O  O43  1  0.36198052  0.59451484  0.86655271  1
  O  O44  1  0.59498218  0.36067827  0.67865569  1
  O  O45  1  0.36126510  0.86595803  0.67813427  1
  O  O46  1  0.67634842  0.59523858  0.36178739  1
  O  O47  1  0.59513713  0.86577893  0.36086009  1
  O  O48  1  0.67705291  0.36150528  0.86615048  1
  O  O49  1  0.86684915  0.36184033  0.59512331  1
  O  O50  1  0.59493117  0.67884449  0.86549840  1
  O  O51  1  0.86594345  0.67796033  0.36095028  1
  O  O52  1  0.67637290  0.86668182  0.59498090  1
  O  O53  1  0.86655449  0.59443055  0.67743448  1
  O  O54  1  0.68260943  0.93912548  0.93911328  1
  O  O55  1  0.93912831  0.93906732  0.68270104  1
  O  O56  1  0.93913560  0.68271344  0.93905871  1
  O  O57  1  0.93915719  0.93912664  0.93906813  1
