# generated using pymatgen
data_LiMn3P3O11
_symmetry_space_group_name_H-M   'P 1'
_cell_length_a   8.07326140
_cell_length_b   9.15070389
_cell_length_c   11.62312268
_cell_angle_alpha   90.00000000
_cell_angle_beta   96.16256215
_cell_angle_gamma   90.00000000
_symmetry_Int_Tables_number   1
_chemical_formula_structural   LiMn3P3O11
_chemical_formula_sum   'Li4 Mn12 P12 O44'
_cell_volume   853.70811609
_cell_formula_units_Z   4
loop_
 _symmetry_equiv_pos_site_id
 _symmetry_equiv_pos_as_xyz
  1  'x, y, z'
loop_
 _atom_site_type_symbol
 _atom_site_label
 _atom_site_symmetry_multiplicity
 _atom_site_fract_x
 _atom_site_fract_y
 _atom_site_fract_z
 _atom_site_occupancy
  Li  Li0  1  0.11401999  0.25521587  0.50520877  1
  Li  Li1  1  0.11401999  0.24478413  0.00520877  1
  Li  Li2  1  0.88598001  0.75521587  0.99479123  1
  Li  Li3  1  0.88598001  0.74478413  0.49479123  1
  Mn  Mn4  1  0.07035549  0.62655746  0.75970618  1
  Mn  Mn5  1  0.07035549  0.87344254  0.25970618  1
  Mn  Mn6  1  0.45677166  0.64961291  0.93199320  1
  Mn  Mn7  1  0.43671093  0.60258055  0.64702165  1
  Mn  Mn8  1  0.45677166  0.85038709  0.43199320  1
  Mn  Mn9  1  0.56328907  0.10258055  0.85297835  1
  Mn  Mn10  1  0.43671093  0.89741945  0.14702165  1
  Mn  Mn11  1  0.54322834  0.14961291  0.56800680  1
  Mn  Mn12  1  0.56328907  0.39741945  0.35297835  1
  Mn  Mn13  1  0.54322834  0.35038709  0.06800680  1
  Mn  Mn14  1  0.92964451  0.12655746  0.74029382  1
  Mn  Mn15  1  0.92964451  0.37344254  0.24029382  1
  P  P16  1  0.21103003  0.93152011  0.89596122  1
  P  P17  1  0.22515232  0.93103523  0.64568425  1
  P  P18  1  0.21103003  0.56847989  0.39596122  1
  P  P19  1  0.31479076  0.32580070  0.78623997  1
  P  P20  1  0.22515232  0.56896477  0.14568425  1
  P  P21  1  0.31479076  0.17419930  0.28623997  1
  P  P22  1  0.68520924  0.82580070  0.71376003  1
  P  P23  1  0.77484768  0.43103523  0.85431575  1
  P  P24  1  0.68520924  0.67419930  0.21376003  1
  P  P25  1  0.78896997  0.43152011  0.60403878  1
  P  P26  1  0.77484768  0.06896477  0.35431575  1
  P  P27  1  0.78896997  0.06847989  0.10403878  1
  O  O28  1  0.03931488  -0.00000570  0.88388999  1
  O  O29  1  0.05920588  0.00837880  0.62086564  1
  O  O30  1  0.03931488  0.50000570  0.38388999  1
  O  O31  1  0.13398285  0.27729791  0.77042114  1
  O  O32  1  0.21135564  0.76230960  0.89666107  1
  O  O33  1  0.05920588  0.49162120  0.12086564  1
  O  O34  1  0.13398285  0.22270209  0.27042114  1
  O  O35  1  0.21675818  0.76265633  0.64740491  1
  O  O36  1  0.21135564  0.73769040  0.39666107  1
  O  O37  1  0.32171284  0.49982025  0.78378031  1
  O  O38  1  0.30386265  0.97844690  0.77948948  1
  O  O39  1  0.21675818  0.73734367  0.14740491  1
  O  O40  1  0.32663396  0.50635011  0.49618004  1
  O  O41  1  0.40020213  0.27005260  0.90632514  1
  O  O42  1  0.35040283  0.98524028  0.56478234  1
  O  O43  1  0.32171284  0.00017975  0.28378031  1
  O  O44  1  0.30386265  0.52155310  0.27948948  1
  O  O45  1  0.41957189  0.26536784  0.69251401  1
  O  O46  1  0.32663396  0.99364989  0.99618004  1
  O  O47  1  0.40020213  0.22994740  0.40632614  1
  O  O48  1  0.35040283  0.51475972  0.06478234  1
  O  O49  1  0.41957189  0.23463216  0.19251301  1
  O  O50  1  0.58042811  0.76536784  0.80748599  1
  O  O51  1  0.64959717  0.48524028  0.93521766  1
  O  O52  1  0.59979787  0.77005260  0.59367486  1
  O  O53  1  0.67336604  0.00635011  0.00381996  1
  O  O54  1  0.58042811  0.73463216  0.30748699  1
  O  O55  1  0.69613735  0.47844690  0.72051052  1
  O  O56  1  0.67828716  -0.00017975  0.71621969  1
  O  O57  1  0.64959717  0.01475972  0.43521766  1
  O  O58  1  0.59979787  0.72994740  0.09367486  1
  O  O59  1  0.67336604  0.49364989  0.50381996  1
  O  O60  1  0.78324182  0.26265633  0.85259509  1
  O  O61  1  0.69613735  0.02155310  0.22051052  1
  O  O62  1  0.67828716  0.50017975  0.21621969  1
  O  O63  1  0.78864436  0.26230960  0.60333893  1
  O  O64  1  0.78324182  0.23734367  0.35259509  1
  O  O65  1  0.86601715  0.77729791  0.72957886  1
  O  O66  1  0.94079412  0.50837880  0.87913436  1
  O  O67  1  0.78864436  0.23769040  0.10333893  1
  O  O68  1  0.86601715  0.72270209  0.22957886  1
  O  O69  1  0.96068512  0.49999430  0.61611001  1
  O  O70  1  0.94079412  0.99162120  0.37913436  1
  O  O71  1  0.96068512  0.00000570  0.11611001  1
