# generated using pymatgen
data_LiCu2F5
_symmetry_space_group_name_H-M   'P 1'
_cell_length_a   10.03034794
_cell_length_b   10.03034794
_cell_length_c   12.28769240
_cell_angle_alpha   90.00000000
_cell_angle_beta   90.00000000
_cell_angle_gamma   90.00000000
_symmetry_Int_Tables_number   1
_chemical_formula_structural   LiCu2F5
_chemical_formula_sum   'Li8 Cu16 F40'
_cell_volume   1236.23867997
_cell_formula_units_Z   8
loop_
 _symmetry_equiv_pos_site_id
 _symmetry_equiv_pos_as_xyz
  1  'x, y, z'
loop_
 _atom_site_type_symbol
 _atom_site_label
 _atom_site_symmetry_multiplicity
 _atom_site_fract_x
 _atom_site_fract_y
 _atom_site_fract_z
 _atom_site_occupancy
  Li  Li0  1  0.25000000  0.25000000  0.25000000  1
  Li  Li1  1  0.25000000  0.25000000  0.00000000  1
  Li  Li2  1  0.25000000  0.25000000  0.50000000  1
  Li  Li3  1  0.25000000  0.25000000  0.75000000  1
  Li  Li4  1  0.75000000  0.75000000  0.00000000  1
  Li  Li5  1  0.75000000  0.75000000  0.25000000  1
  Li  Li6  1  0.75000000  0.75000000  0.50000000  1
  Li  Li7  1  0.75000000  0.75000000  0.75000000  1
  Cu  Cu8  1  0.03133982  0.04830096  0.39155463  1
  Cu  Cu9  1  0.03133982  0.45169904  0.60844537  1
  Cu  Cu10  1  0.04830096  0.03133982  0.10844537  1
  Cu  Cu11  1  0.04830096  0.46866018  0.89155463  1
  Cu  Cu12  1  0.45169904  0.46866018  0.10844537  1
  Cu  Cu13  1  0.45169904  0.03133982  0.89155463  1
  Cu  Cu14  1  0.46866018  0.45169904  0.39155463  1
  Cu  Cu15  1  0.46866018  0.04830096  0.60844537  1
  Cu  Cu16  1  0.53133982  0.95169904  0.39155463  1
  Cu  Cu17  1  0.53133982  0.54830096  0.60844537  1
  Cu  Cu18  1  0.54830096  0.53133982  0.89155463  1
  Cu  Cu19  1  0.54830096  0.96866018  0.10844537  1
  Cu  Cu20  1  0.95169904  0.96866018  0.89155463  1
  Cu  Cu21  1  0.95169904  0.53133982  0.10844537  1
  Cu  Cu22  1  0.96866018  0.54830096  0.39155463  1
  Cu  Cu23  1  0.96866018  0.95169904  0.60844537  1
  F  F24  1  0.01314951  0.01314951  0.75000000  1
  F  F25  1  0.01314951  0.48685049  0.25000000  1
  F  F26  1  0.05542674  0.39616008  0.03788204  1
  F  F27  1  0.05542674  0.10384092  0.96211796  1
  F  F28  1  0.10384092  0.05542674  0.53788204  1
  F  F29  1  0.10384092  0.44457326  0.46211796  1
  F  F30  1  0.13107618  0.19680270  0.35965756  1
  F  F31  1  0.13107618  0.30319730  0.64034244  1
  F  F32  1  0.19680270  0.13107618  0.14034244  1
  F  F33  1  0.19680270  0.36892382  0.85965756  1
  F  F34  1  0.30319730  0.13107618  0.85965756  1
  F  F35  1  0.30319730  0.36892382  0.14034244  1
  F  F36  1  0.36892382  0.19680270  0.64034244  1
  F  F37  1  0.36892382  0.30319730  0.35965756  1
  F  F38  1  0.39616008  0.05542674  0.46211796  1
  F  F39  1  0.39616008  0.44457326  0.53788204  1
  F  F40  1  0.44457326  0.10384092  0.03788204  1
  F  F41  1  0.44457326  0.39616008  0.96211796  1
  F  F42  1  0.48685049  0.01314951  0.25000000  1
  F  F43  1  0.48685049  0.48685049  0.75000000  1
  F  F44  1  0.51314951  0.51314951  0.25000000  1
  F  F45  1  0.51314951  0.98685049  0.75000000  1
  F  F46  1  0.55542674  0.60383992  0.03788204  1
  F  F47  1  0.55542674  0.89616008  0.96211796  1
  F  F48  1  0.60383992  0.55542674  0.46211796  1
  F  F49  1  0.60383992  0.94457326  0.53788204  1
  F  F50  1  0.63107618  0.69680270  0.64034244  1
  F  F51  1  0.63107618  0.80319730  0.35965756  1
  F  F52  1  0.69680270  0.63107618  0.85965756  1
  F  F53  1  0.69680270  0.86892382  0.14034244  1
  F  F54  1  0.80319730  0.63107618  0.14034244  1
  F  F55  1  0.80319730  0.86892382  0.85965756  1
  F  F56  1  0.86892382  0.69680270  0.35965756  1
  F  F57  1  0.86892382  0.80319730  0.64034244  1
  F  F58  1  0.89616008  0.55542674  0.53788204  1
  F  F59  1  0.89616008  0.94457326  0.46211796  1
  F  F60  1  0.94457326  0.60383992  0.96211796  1
  F  F61  1  0.94457326  0.89616008  0.03788204  1
  F  F62  1  0.98685049  0.51314951  0.75000000  1
  F  F63  1  0.98685049  0.98685049  0.25000000  1
