# generated using pymatgen
data_Co3(O2F)2
_symmetry_space_group_name_H-M   'P 1'
_cell_length_a   7.42490828
_cell_length_b   5.44647436
_cell_length_c   5.44647436
_cell_angle_alpha   67.93133383
_cell_angle_beta   68.75557590
_cell_angle_gamma   68.75557590
_symmetry_Int_Tables_number   1
_chemical_formula_structural   Co3(O2F)2
_chemical_formula_sum   'Co6 O8 F4'
_cell_volume   183.60513531
_cell_formula_units_Z   2
loop_
 _symmetry_equiv_pos_site_id
 _symmetry_equiv_pos_as_xyz
  1  'x, y, z'
loop_
 _atom_site_type_symbol
 _atom_site_label
 _atom_site_symmetry_multiplicity
 _atom_site_fract_x
 _atom_site_fract_y
 _atom_site_fract_z
 _atom_site_occupancy
  Co  Co0  1  0.85762888  0.67891676  0.67891676  1
  Co  Co1  1  0.32525605  0.65897125  0.65897125  1
  Co  Co2  1  0.65453232  0.33706680  0.33706680  1
  Co  Co3  1  0.17844323  0.33888013  0.33888013  1
  Co  Co4  1  0.49665386  0.99738997  0.99738997  1
  Co  Co5  1  0.99689608  0.99224798  0.99224798  1
  O  O6  1  0.33041581  0.36004349  0.96995075  1
  O  O7  1  0.66855994  0.03001222  0.64207376  1
  O  O8  1  0.37160551  0.44304551  0.44304551  1
  O  O9  1  0.04887225  0.76398395  0.76398395  1
  O  O10  1  0.33041581  0.96995075  0.36004349  1
  O  O11  1  0.66855994  0.64207376  0.03001222  1
  O  O12  1  0.00257219  0.30630325  0.69316027  1
  O  O13  1  0.00257219  0.69316027  0.30630325  1
  F  F14  1  0.61288990  0.57663278  0.57663278  1
  F  F15  1  0.30516539  0.88174180  0.88174180  1
  F  F16  1  0.95362348  0.22801111  0.22801111  1
  F  F17  1  0.69534015  0.10156921  0.10156921  1
