# generated using pymatgen
data_LiFe6O7F5
_symmetry_space_group_name_H-M   'P 1'
_cell_length_a   6.09873656
_cell_length_b   5.85159471
_cell_length_c   6.03869681
_cell_angle_alpha   98.77386173
_cell_angle_beta   100.22655895
_cell_angle_gamma   99.97609011
_symmetry_Int_Tables_number   1
_chemical_formula_structural   LiFe6O7F5
_chemical_formula_sum   'Li1 Fe6 O7 F5'
_cell_volume   205.10576345
_cell_formula_units_Z   1
loop_
 _symmetry_equiv_pos_site_id
 _symmetry_equiv_pos_as_xyz
  1  'x, y, z'
loop_
 _atom_site_type_symbol
 _atom_site_label
 _atom_site_symmetry_multiplicity
 _atom_site_fract_x
 _atom_site_fract_y
 _atom_site_fract_z
 _atom_site_occupancy
  Li  Li0  1  0.99554270  0.99274234  0.98270722  1
  Fe  Fe1  1  0.13505943  0.29820127  0.61191561  1
  Fe  Fe2  1  0.37215925  0.85046663  0.65125353  1
  Fe  Fe3  1  0.34957899  0.60230684  0.15457788  1
  Fe  Fe4  1  0.65458388  0.40056026  0.85613130  1
  Fe  Fe5  1  0.60992696  0.14722166  0.34549175  1
  Fe  Fe6  1  0.87287768  0.67478168  0.41270367  1
  O  O7  1  0.06904959  0.92838506  0.65780493  1
  O  O8  1  0.17643693  0.57156978  0.40311948  1
  O  O9  1  0.41057067  0.59264741  0.82992682  1
  O  O10  1  0.41610411  0.18842964  0.57539937  1
  O  O11  1  0.59426519  0.82066071  0.41866689  1
  O  O12  1  0.59008451  0.40426724  0.17746586  1
  O  O13  1  0.83334190  0.41328734  0.60718659  1
  F  F14  1  0.11497598  0.31911359  0.95949426  1
  F  F15  1  0.31603765  0.94171173  0.11754333  1
  F  F16  1  0.67190587  0.05503699  0.88486693  1
  F  F17  1  0.88804723  0.68293192  0.05626838  1
  F  F18  1  0.92945347  0.11567992  0.29748022  1
