# generated using pymatgen
data_Li2Fe3F8
_symmetry_space_group_name_H-M   'P 1'
_cell_length_a   9.05826594
_cell_length_b   11.51675208
_cell_length_c   6.55461294
_cell_angle_alpha   90.00000000
_cell_angle_beta   96.34533676
_cell_angle_gamma   90.00000000
_symmetry_Int_Tables_number   1
_chemical_formula_structural   Li2Fe3F8
_chemical_formula_sum   'Li8 Fe12 F32'
_cell_volume   679.60002219
_cell_formula_units_Z   4
loop_
 _symmetry_equiv_pos_site_id
 _symmetry_equiv_pos_as_xyz
  1  'x, y, z'
loop_
 _atom_site_type_symbol
 _atom_site_label
 _atom_site_symmetry_multiplicity
 _atom_site_fract_x
 _atom_site_fract_y
 _atom_site_fract_z
 _atom_site_occupancy
  Li  Li0  1  0.07331707  0.38215419  0.90063929  1
  Li  Li1  1  0.07331707  0.11784581  0.40063929  1
  Li  Li2  1  0.40111532  0.57163686  0.70245308  1
  Li  Li3  1  0.40111532  0.92836314  0.20245308  1
  Li  Li4  1  0.59888468  0.07163686  0.79754692  1
  Li  Li5  1  0.59888468  0.42836314  0.29754692  1
  Li  Li6  1  0.92668293  0.88215419  0.59936071  1
  Li  Li7  1  0.92668293  0.61784581  0.09936071  1
  Fe  Fe8  1  0.06492952  0.60226895  0.63980055  1
  Fe  Fe9  1  0.06492952  0.89773105  0.13980055  1
  Fe  Fe10  1  0.25965469  0.90321563  0.68351331  1
  Fe  Fe11  1  0.25965469  0.59678437  0.18351331  1
  Fe  Fe12  1  0.36158160  0.29606419  0.64209875  1
  Fe  Fe13  1  0.36158160  0.20393581  0.14209875  1
  Fe  Fe14  1  0.63841840  0.79606419  0.85790125  1
  Fe  Fe15  1  0.63841840  0.70393581  0.35790125  1
  Fe  Fe16  1  0.74034531  0.40321563  0.81648669  1
  Fe  Fe17  1  0.74034531  0.09678437  0.31648669  1
  Fe  Fe18  1  0.93507048  0.10226895  0.86019945  1
  Fe  Fe19  1  0.93507048  0.39773105  0.36019945  1
  F  F20  1  0.09755447  0.41934526  0.61558452  1
  F  F21  1  0.08776193  0.77762449  0.63761103  1
  F  F22  1  0.08922265  0.03996538  0.66531605  1
  F  F23  1  0.09755447  0.08065474  0.11558452  1
  F  F24  1  0.08776193  0.72237551  0.13761103  1
  F  F25  1  0.08922265  0.46003462  0.16531605  1
  F  F26  1  0.23653385  0.28413900  0.91502458  1
  F  F27  1  0.25581764  0.90319639  0.97970187  1
  F  F28  1  0.23653385  0.21586100  0.41502458  1
  F  F29  1  0.25743985  0.59107677  0.88360481  1
  F  F30  1  0.25581764  0.59680361  0.47970187  1
  F  F31  1  0.25743985  0.90892323  0.38360481  1
  F  F32  1  0.47223625  0.18733347  0.85541252  1
  F  F33  1  0.50145680  0.42668563  0.74784295  1
  F  F34  1  0.47223625  0.31266653  0.35541252  1
  F  F35  1  0.50145680  0.07331437  0.24784295  1
  F  F36  1  0.49854320  0.92668563  0.75215705  1
  F  F37  1  0.52776375  0.68733347  0.64458748  1
  F  F38  1  0.49854320  0.57331437  0.25215705  1
  F  F39  1  0.52776375  0.81266653  0.14458748  1
  F  F40  1  0.74256015  0.09107677  0.61639519  1
  F  F41  1  0.74418236  0.40319639  0.52029813  1
  F  F42  1  0.74256015  0.40892323  0.11639519  1
  F  F43  1  0.76346615  0.78413900  0.58497542  1
  F  F44  1  0.74418236  0.09680361  0.02029813  1
  F  F45  1  0.76346615  0.71586100  0.08497542  1
  F  F46  1  0.91077735  0.53996538  0.83468395  1
  F  F47  1  0.91223807  0.27762449  0.86238897  1
  F  F48  1  0.90244553  0.91934526  0.88441548  1
  F  F49  1  0.91077735  0.96003462  0.33468395  1
  F  F50  1  0.91223807  0.22237551  0.36238897  1
  F  F51  1  0.90244553  0.58065474  0.38441548  1
