# generated using pymatgen
data_Li4Ti3Mn3(CuO8)2
_symmetry_space_group_name_H-M   'P 1'
_cell_length_a   5.88614764
_cell_length_b   5.82672345
_cell_length_c   9.70629905
_cell_angle_alpha   89.80562309
_cell_angle_beta   90.11648654
_cell_angle_gamma   119.65931429
_symmetry_Int_Tables_number   1
_chemical_formula_structural   Li4Ti3Mn3(CuO8)2
_chemical_formula_sum   'Li4 Ti3 Mn3 Cu2 O16'
_cell_volume   289.27974760
_cell_formula_units_Z   1
loop_
 _symmetry_equiv_pos_site_id
 _symmetry_equiv_pos_as_xyz
  1  'x, y, z'
loop_
 _atom_site_type_symbol
 _atom_site_label
 _atom_site_symmetry_multiplicity
 _atom_site_fract_x
 _atom_site_fract_y
 _atom_site_fract_z
 _atom_site_occupancy
  Li  Li0  1  0.35208653  0.67532430  0.89062840  1
  Li  Li1  1  0.97526190  0.98882863  0.99604273  1
  Li  Li2  1  0.00161978  0.00155761  0.49828453  1
  Li  Li3  1  0.66070661  0.33004108  0.39384507  1
  Ti  Ti4  1  0.14720159  0.81873881  0.21321577  1
  Ti  Ti5  1  0.14962216  0.32862565  0.21294828  1
  Ti  Ti6  1  0.35806026  0.17736904  0.71312840  1
  Mn  Mn7  1  0.64463805  0.82292526  0.21656590  1
  Mn  Mn8  1  0.85088002  0.67170963  0.71473539  1
  Mn  Mn9  1  0.85147243  0.17930514  0.71429887  1
  Cu  Cu10  1  0.33749095  0.66868188  0.49124875  1
  Cu  Cu11  1  0.66384679  0.33190014  0.99009987  1
  O  O12  1  0.17593103  0.84861124  0.60375357  1
  O  O13  1  0.00886422  0.50422829  0.32031600  1
  O  O14  1  0.32690930  0.66428912  0.10557589  1
  O  O15  1  0.97256389  0.98620613  0.31483454  1
  O  O16  1  0.01613391  0.00752540  0.81230723  1
  O  O17  1  0.17643810  0.32854851  0.60363218  1
  O  O18  1  0.46702352  0.95287975  0.33637428  1
  O  O19  1  0.46713128  0.51349241  0.33575299  1
  O  O20  1  0.29460071  0.14812121  0.10892399  1
  O  O21  1  0.70133746  0.85092557  0.61370453  1
  O  O22  1  0.54019019  0.49025709  0.83476771  1
  O  O23  1  0.53954121  0.04777962  0.83363498  1
  O  O24  1  0.68663442  0.34386410  0.60694721  1
  O  O25  1  0.82013773  0.67213162  0.10479838  1
  O  O26  1  0.99361532  0.49622977  0.82291472  1
  O  O27  1  0.82005964  0.15020297  0.10455983  1
