# generated using pymatgen
data_Fe10O9F11
_symmetry_space_group_name_H-M   'P 1'
_cell_length_a   4.75423000
_cell_length_b   4.75423000
_cell_length_c   15.53430150
_cell_angle_alpha   89.99088450
_cell_angle_beta   89.99088450
_cell_angle_gamma   91.94371759
_symmetry_Int_Tables_number   1
_chemical_formula_structural   Fe10O9F11
_chemical_formula_sum   'Fe10 O9 F11'
_cell_volume   350.91516832
_cell_formula_units_Z   1
loop_
 _symmetry_equiv_pos_site_id
 _symmetry_equiv_pos_as_xyz
  1  'x, y, z'
loop_
 _atom_site_type_symbol
 _atom_site_label
 _atom_site_symmetry_multiplicity
 _atom_site_fract_x
 _atom_site_fract_y
 _atom_site_fract_z
 _atom_site_occupancy
  Fe  Fe0  1  0.99942310  0.00057690  0.00000000  1
  Fe  Fe1  1  0.98606805  0.97107571  0.20729884  1
  Fe  Fe2  1  0.00119327  0.95037026  0.40190419  1
  Fe  Fe3  1  0.04962974  0.99880673  0.59809581  1
  Fe  Fe4  1  0.02892429  0.01393195  0.79270116  1
  Fe  Fe5  1  0.51319740  0.50801325  0.09443053  1
  Fe  Fe6  1  0.48230060  0.51769940  0.50000000  1
  Fe  Fe7  1  0.49770020  0.54454204  0.29844801  1
  Fe  Fe8  1  0.45545796  0.50229980  0.70155199  1
  Fe  Fe9  1  0.49198675  0.48680260  0.90556947  1
  O  O10  1  0.18925198  0.79956846  0.30122761  1
  O  O11  1  0.19582983  0.80417017  0.50000000  1
  O  O12  1  0.20043154  0.81074802  0.69877239  1
  O  O13  1  0.29992543  0.29624166  0.00230605  1
  O  O14  1  0.31540440  0.31428643  0.59795091  1
  O  O15  1  0.31566315  0.31902771  0.80508945  1
  O  O16  1  0.70375834  0.70007457  0.99769395  1
  O  O17  1  0.68097229  0.68433685  0.19491055  1
  O  O18  1  0.68571357  0.68459560  0.40204909  1
  F  F19  1  0.19207756  0.80107114  0.09848655  1
  F  F20  1  0.19892886  0.80792244  0.90151345  1
  F  F21  1  0.29410193  0.29592364  0.19682984  1
  F  F22  1  0.29339001  0.29636701  0.39775323  1
  F  F23  1  0.70363299  0.70660999  0.60224677  1
  F  F24  1  0.70407636  0.70589807  0.80317016  1
  F  F25  1  0.80554817  0.18956668  0.09979055  1
  F  F26  1  0.80872993  0.19127007  0.50000000  1
  F  F27  1  0.79164449  0.19539652  0.30203690  1
  F  F28  1  0.81043332  0.19445183  0.90020945  1
  F  F29  1  0.80460348  0.20835551  0.69796310  1
