# generated using pymatgen
data_LiMn3(BO3)3
_symmetry_space_group_name_H-M   'P 1'
_cell_length_a   7.76637415
_cell_length_b   9.16629393
_cell_length_c   6.18968718
_cell_angle_alpha   106.38637838
_cell_angle_beta   83.01119201
_cell_angle_gamma   66.29453880
_symmetry_Int_Tables_number   1
_chemical_formula_structural   LiMn3(BO3)3
_chemical_formula_sum   'Li2 Mn6 B6 O18'
_cell_volume   372.95012787
_cell_formula_units_Z   2
loop_
 _symmetry_equiv_pos_site_id
 _symmetry_equiv_pos_as_xyz
  1  'x, y, z'
loop_
 _atom_site_type_symbol
 _atom_site_label
 _atom_site_symmetry_multiplicity
 _atom_site_fract_x
 _atom_site_fract_y
 _atom_site_fract_z
 _atom_site_occupancy
  Li  Li0  1  0.71820338  0.95039810  0.60617290  1
  Li  Li1  1  0.61513062  0.38293490  0.06049410  1
  Mn  Mn2  1  0.00434778  0.39293697  0.74206867  1
  Mn  Mn3  1  0.68827790  0.28778667  0.56272487  1
  Mn  Mn4  1  0.64505510  0.04554633  0.10394213  1
  Mn  Mn5  1  0.32898622  0.94039603  0.92459833  1
  Mn  Mn6  1  0.31439612  0.74019577  0.43102650  1
  Mn  Mn7  1  0.01893788  0.59313723  0.23564050  1
  B  B8  1  0.96680294  0.06912282  0.78565574  1
  B  B9  1  0.36653006  0.26421018  0.88101026  1
  B  B10  1  0.69250875  0.62544842  0.56808009  1
  B  B11  1  0.31973653  0.38516983  0.41538552  1
  B  B12  1  0.64082525  0.70788558  0.09858691  1
  B  B13  1  0.01359647  0.94816317  0.25128148  1
  O  O14  1  0.88028402  0.23881439  0.80069578  1
  O  O15  1  0.84600174  0.63277629  0.02309768  1
  O  O16  1  0.86381837  0.98835598  0.83031138  1
  O  O17  1  0.81285390  0.02339243  0.35048621  1
  O  O18  1  0.45304898  0.09451961  0.86597122  1
  O  O19  1  0.79783808  0.46457751  0.57749850  1
  O  O20  1  0.46951463  0.34497802  0.83635462  1
  O  O21  1  0.78116328  0.71155336  0.49613276  1
  O  O22  1  0.48733226  0.70055771  0.64356832  1
  O  O23  1  0.52047910  0.30994157  0.31617979  1
  O  O24  1  0.23631872  0.29842627  0.49390482  1
  O  O25  1  0.55217072  0.62177964  0.17053424  1
  O  O26  1  0.21204329  0.54921041  0.41621242  1
  O  O27  1  0.53549592  0.86875549  0.08916850  1
  O  O28  1  0.17392771  0.97341906  0.69653340  1
  O  O29  1  0.09701428  0.03490673  0.17276118  1
  O  O30  1  0.15940629  0.35991494  0.97013260  1
  O  O31  1  0.12129071  0.78412359  0.25045458  1
