# generated using pymatgen
data_Fe4O3F5
_symmetry_space_group_name_H-M   'P 1'
_cell_length_a   4.80824265
_cell_length_b   10.05267077
_cell_length_c   6.21232522
_cell_angle_alpha   72.17488980
_cell_angle_beta   90.14093872
_cell_angle_gamma   87.33918202
_symmetry_Int_Tables_number   1
_chemical_formula_structural   Fe4O3F5
_chemical_formula_sum   'Fe8 O6 F10'
_cell_volume   285.51018824
_cell_formula_units_Z   2
loop_
 _symmetry_equiv_pos_site_id
 _symmetry_equiv_pos_as_xyz
  1  'x, y, z'
loop_
 _atom_site_type_symbol
 _atom_site_label
 _atom_site_symmetry_multiplicity
 _atom_site_fract_x
 _atom_site_fract_y
 _atom_site_fract_z
 _atom_site_occupancy
  Fe  Fe0  1  0.47810886  0.25529127  0.62633643  1
  Fe  Fe1  1  0.50543234  0.74490327  0.88227231  1
  Fe  Fe2  1  0.53417169  0.76103574  0.36379431  1
  Fe  Fe3  1  0.48465051  0.26005990  0.11616011  1
  Fe  Fe4  1  0.02175821  0.97500969  0.50099722  1
  Fe  Fe5  1  0.01587308  0.49457394  0.74915897  1
  Fe  Fe6  1  0.95557005  0.00935154  0.00581230  1
  Fe  Fe7  1  -0.00019803  0.50344321  0.25223797  1
  O  O8  1  0.80911443  0.90775922  0.29561392  1
  O  O9  1  0.70778908  0.65235892  0.18437794  1
  O  O10  1  0.68426308  0.15673722  0.92039607  1
  O  O11  1  0.31710641  0.84124003  0.57203975  1
  O  O12  1  0.30791033  0.34448534  0.82798063  1
  O  O13  1  0.29676143  0.34665811  0.32771031  1
  F  F14  1  0.80267535  0.39739913  0.54056890  1
  F  F15  1  0.79823278  0.40124983  0.06104661  1
  F  F16  1  0.81960788  0.90501195  0.79699465  1
  F  F17  1  0.69556025  0.14687821  0.42877162  1
  F  F18  1  0.70728495  0.64754333  0.66142400  1
  F  F19  1  0.29278515  0.86220742  0.07948586  1
  F  F20  1  0.18763765  0.59517107  0.96271644  1
  F  F21  1  0.18730380  0.09917557  0.20437939  1
  F  F22  1  0.20836177  0.60156554  0.43880378  1
  F  F23  1  0.18223892  0.09088954  0.70091953  1
