# generated using pymatgen
data_LiFeP2O7
_symmetry_space_group_name_H-M   'P 1'
_cell_length_a   9.67242268
_cell_length_b   9.75606266
_cell_length_c   11.11461847
_cell_angle_alpha   89.92339499
_cell_angle_beta   101.31542663
_cell_angle_gamma   90.12465980
_symmetry_Int_Tables_number   1
_chemical_formula_structural   LiFeP2O7
_chemical_formula_sum   'Li8 Fe8 P16 O56'
_cell_volume   1028.43818057
_cell_formula_units_Z   8
loop_
 _symmetry_equiv_pos_site_id
 _symmetry_equiv_pos_as_xyz
  1  'x, y, z'
loop_
 _atom_site_type_symbol
 _atom_site_label
 _atom_site_symmetry_multiplicity
 _atom_site_fract_x
 _atom_site_fract_y
 _atom_site_fract_z
 _atom_site_occupancy
  Li  Li0  1  0.41476175  0.59885641  0.97771675  1
  Li  Li1  1  0.33472990  0.91428720  0.46271764  1
  Li  Li2  1  0.38541786  0.21709203  0.54856922  1
  Li  Li3  1  0.84983600  0.58783833  0.95372552  1
  Li  Li4  1  0.64911706  0.11036231  0.04497319  1
  Li  Li5  1  0.91956763  0.90021993  0.97386456  1
  Li  Li6  1  0.84126465  0.58036521  0.46929116  1
  Li  Li7  1  0.88407597  0.28257499  0.54637486  1
  Fe  Fe8  1  0.20451757  0.91598167  0.67740951  1
  Fe  Fe9  1  0.24654452  0.20818938  0.83203365  1
  Fe  Fe10  1  0.24509463  0.72011936  0.17318842  1
  Fe  Fe11  1  0.29237294  0.42747424  0.32707922  1
  Fe  Fe12  1  0.70209143  0.58312291  0.67344697  1
  Fe  Fe13  1  0.74871083  0.28861161  0.82922034  1
  Fe  Fe14  1  0.74399361  0.77899544  0.17425605  1
  Fe  Fe15  1  0.79345656  0.07211719  0.33054459  1
  P  P16  1  0.02054352  0.44935884  0.74904997  1
  P  P17  1  0.11538551  0.70800746  0.88483625  1
  P  P18  1  0.06562958  0.91713166  0.23970664  1
  P  P19  1  0.12254112  0.14633522  0.41753335  1
  P  P20  1  0.37526487  0.64076461  0.57487468  1
  P  P21  1  0.43374509  0.42119849  0.76525956  1
  P  P22  1  0.52154555  0.05076637  0.75124859  1
  P  P23  1  0.38566372  0.21364811  0.11767127  1
  P  P24  1  0.61100451  0.79018828  0.88364920  1
  P  P25  1  0.47546788  0.94805086  0.24780029  1
  P  P26  1  0.56582209  0.58254630  0.24016964  1
  P  P27  1  0.62198199  0.35406276  0.41931888  1
  P  P28  1  0.87666097  0.85903633  0.57454847  1
  P  P29  1  0.93202474  0.07875841  0.76321758  1
  P  P30  1  0.89589996  0.28419088  0.11678319  1
  P  P31  1  0.97459992  0.55172601  0.24352116  1
  O  O32  1  0.00907927  0.42612066  0.61466927  1
  O  O33  1  0.03387729  0.85154208  0.57171240  1
  O  O34  1  0.08661432  0.08482627  0.73841455  1
  O  O35  1  0.10609481  0.58946233  0.78300721  1
  O  O36  1  0.10123164  0.34294036  0.83694612  1
  O  O37  1  0.17573355  0.82912331  0.82496382  1
  O  O38  1  0.22050429  0.65859390  0.00127893  1
  O  O39  1  0.03855516  0.25709576  0.09677159  1
  O  O40  1  0.11610429  0.06621848  0.28990022  1
  O  O41  1  0.07779210  0.90040236  0.10716780  1
  O  O42  1  0.12957921  0.54321583  0.21976237  1
  O  O43  1  0.18865021  0.28546009  0.40217238  1
  O  O44  1  0.17312322  0.81519438  0.31249712  1
  O  O45  1  0.21926959  0.06335003  0.51835323  1
  O  O46  1  0.29229688  0.56439295  0.46589445  1
  O  O47  1  0.34447436  0.29873240  0.70391244  1
  O  O48  1  0.31895658  0.78505737  0.59561282  1
  O  O49  1  0.36764180  0.03319858  0.77715732  1
  O  O50  1  0.36611627  0.55735918  0.69813279  1
  O  O51  1  0.42320470  0.42966548  0.89695004  1
  O  O52  1  0.46862739  0.75781781  0.90430050  1
  O  O53  1  0.28182035  0.16733886  0.99946719  1
  O  O54  1  0.32606008  0.33101335  0.18364434  1
  O  O55  1  0.39088118  0.08799289  0.21529021  1
  O  O56  1  0.41081196  0.59039436  0.26058543  1
  O  O57  1  0.39777488  0.84169057  0.15597781  1
  O  O58  1  0.46959393  0.34150368  0.43669619  1
  O  O59  1  0.52458388  0.08762926  0.62135689  1
  O  O60  1  0.47829522  0.92006241  0.37966672  1
  O  O61  1  0.53352571  0.65078049  0.57307681  1
  O  O62  1  0.60585643  0.14819779  0.85079489  1
  O  O63  1  0.58934128  0.41371791  0.73931799  1
  O  O64  1  0.60168799  0.90633010  0.77914725  1
  O  O65  1  0.68902819  0.67156665  0.83140537  1
  O  O66  1  0.71561527  0.84831548  0.00052984  1
  O  O67  1  0.53051441  0.23393000  0.09474243  1
  O  O68  1  0.58163033  0.59739648  0.10791593  1
  O  O69  1  0.62050029  0.43513945  0.29248922  1
  O  O70  1  0.62941128  0.96403433  0.21670882  1
  O  O71  1  0.69149223  0.21682593  0.40323359  1
  O  O72  1  0.67070693  0.68876898  0.31147345  1
  O  O73  1  0.71726873  0.43747583  0.52142504  1
  O  O74  1  0.79223757  0.93501066  0.46548095  1
  O  O75  1  0.84293122  0.20152812  0.70095634  1
  O  O76  1  0.81978049  0.71459213  0.59614719  1
  O  O77  1  0.86892031  0.46994634  0.78490359  1
  O  O78  1  0.91506549  0.07217369  0.89409069  1
  O  O79  1  0.86394390  0.94189800  0.69751681  1
  O  O80  1  0.97003911  0.72979229  0.90985207  1
  O  O81  1  0.79240603  0.34056476  0.99772903  1
  O  O82  1  0.81635537  0.16739843  0.17226803  1
  O  O83  1  0.88904596  0.64684135  0.14164996  1
  O  O84  1  0.89868977  0.40550608  0.21862944  1
  O  O85  1  0.90934713  0.90606181  0.25964564  1
  O  O86  1  0.96934957  0.15784166  0.43492694  1
  O  O87  1  0.96694568  0.59185748  0.37074819  1
