# generated using pymatgen
data_Fe3(OF2)2
_symmetry_space_group_name_H-M   'P 1'
_cell_length_a   4.81172943
_cell_length_b   7.91761794
_cell_length_c   5.74945263
_cell_angle_alpha   93.44505285
_cell_angle_beta   90.00000000
_cell_angle_gamma   90.00000000
_symmetry_Int_Tables_number   1
_chemical_formula_structural   Fe3(OF2)2
_chemical_formula_sum   'Fe6 O4 F8'
_cell_volume   218.64356994
_cell_formula_units_Z   2
loop_
 _symmetry_equiv_pos_site_id
 _symmetry_equiv_pos_as_xyz
  1  'x, y, z'
loop_
 _atom_site_type_symbol
 _atom_site_label
 _atom_site_symmetry_multiplicity
 _atom_site_fract_x
 _atom_site_fract_y
 _atom_site_fract_z
 _atom_site_occupancy
  Fe  Fe0  1  0.51472352  0.66507104  0.13643103  1
  Fe  Fe1  1  0.50856595  0.02138246  0.48510519  1
  Fe  Fe2  1  0.47392081  0.34147824  0.82222359  1
  Fe  Fe3  1  0.01472352  0.66826196  0.69690297  1
  Fe  Fe4  1  0.00856595  0.31195054  0.34822881  1
  Fe  Fe5  1  0.97392081  0.99185476  0.01110941  1
  O  O6  1  0.79785195  0.75898881  0.95295848  1
  O  O7  1  0.80083240  0.10593577  0.30553759  1
  O  O8  1  0.29785195  0.57434419  0.88037452  1
  O  O9  1  0.30083240  0.22739723  0.52779541  1
  F  F10  1  0.81360077  0.43963157  0.62794968  1
  F  F11  1  0.69317746  0.09837938  0.78904642  1
  F  F12  1  0.69200713  0.76652950  0.45863837  1
  F  F13  1  0.70531900  0.43713705  0.14830568  1
  F  F14  1  0.31360077  0.89370143  0.20538432  1
  F  F15  1  0.19317746  0.23495362  0.04428658  1
  F  F16  1  0.19200713  0.56680350  0.37469563  1
  F  F17  1  0.20531900  0.89619595  0.68502732  1
