# generated using pymatgen
data_LiTi3Nb(CuO4)3
_symmetry_space_group_name_H-M   'P 1'
_cell_length_a   6.52408002
_cell_length_b   6.52149661
_cell_length_c   6.47876905
_cell_angle_alpha   109.37127753
_cell_angle_beta   109.55895204
_cell_angle_gamma   109.99996857
_symmetry_Int_Tables_number   1
_chemical_formula_structural   LiTi3Nb(CuO4)3
_chemical_formula_sum   'Li1 Ti3 Nb1 Cu3 O12'
_cell_volume   210.82742937
_cell_formula_units_Z   1
loop_
 _symmetry_equiv_pos_site_id
 _symmetry_equiv_pos_as_xyz
  1  'x, y, z'
loop_
 _atom_site_type_symbol
 _atom_site_label
 _atom_site_symmetry_multiplicity
 _atom_site_fract_x
 _atom_site_fract_y
 _atom_site_fract_z
 _atom_site_occupancy
  Li  Li0  1  0.04581909  0.92178512  0.95936454  1
  Ti  Ti1  1  0.51783336  0.99380311  0.00067261  1
  Ti  Ti2  1  0.99643096  0.47756064  0.98881840  1
  Ti  Ti3  1  0.01315074  0.99480147  0.49964122  1
  Nb  Nb4  1  0.49625979  0.49098429  0.49706099  1
  Cu  Cu5  1  0.50079833  0.49722966  0.99858583  1
  Cu  Cu6  1  0.49639573  0.99719280  0.49468193  1
  Cu  Cu7  1  0.00198522  0.50246954  0.50483348  1
  O  O8  1  0.82099580  0.31059322  0.13193600  1
  O  O9  1  0.47811785  0.17377989  0.29911238  1
  O  O10  1  0.86820093  0.18064950  0.69006287  1
  O  O11  1  0.69059638  0.87060799  0.17918361  1
  O  O12  1  0.30817147  0.48736328  0.17614655  1
  O  O13  1  0.82769159  0.69917194  0.52413497  1
  O  O14  1  0.17839863  0.30991484  0.49183375  1
  O  O15  1  0.30344620  0.12432768  0.81956621  1
  O  O16  1  0.69895847  0.51786469  0.82450527  1
  O  O17  1  0.12463028  0.82319934  0.30435169  1
  O  O18  1  0.51078937  0.82238649  0.68958280  1
  O  O19  1  0.18233081  0.69331550  0.87592489  1
