# generated using pymatgen
data_Co6O7F5
_symmetry_space_group_name_H-M   'P 1'
_cell_length_a   7.66782273
_cell_length_b   5.54235234
_cell_length_c   5.54235234
_cell_angle_alpha   67.44666446
_cell_angle_beta   66.99823818
_cell_angle_gamma   66.99823818
_symmetry_Int_Tables_number   1
_chemical_formula_structural   Co6O7F5
_chemical_formula_sum   'Co6 O7 F5'
_cell_volume   192.02275974
_cell_formula_units_Z   1
loop_
 _symmetry_equiv_pos_site_id
 _symmetry_equiv_pos_as_xyz
  1  'x, y, z'
loop_
 _atom_site_type_symbol
 _atom_site_label
 _atom_site_symmetry_multiplicity
 _atom_site_fract_x
 _atom_site_fract_y
 _atom_site_fract_z
 _atom_site_occupancy
  Co  Co0  1  0.83474756  0.66504644  0.66504644  1
  Co  Co1  1  0.33039141  0.65645631  0.65645631  1
  Co  Co2  1  0.65421328  0.33351353  0.33351353  1
  Co  Co3  1  0.18551287  0.34597198  0.34597198  1
  Co  Co4  1  0.49755162  0.99830285  0.99830285  1
  Co  Co5  1  0.00171231  0.00146780  0.00146780  1
  O  O6  1  0.33092119  0.36224521  0.97696422  1
  O  O7  1  0.66401734  0.02653842  0.63470313  1
  O  O8  1  0.37416306  0.43821186  0.43821186  1
  O  O9  1  0.33092119  0.97696422  0.36224521  1
  O  O10  1  0.66401734  0.63470313  0.02653842  1
  O  O11  1  0.00761681  0.31073481  0.69293902  1
  O  O12  1  0.00761681  0.69293902  0.31073481  1
  F  F13  1  0.62821839  0.56308454  0.56308454  1
  F  F14  1  0.29165086  0.89483122  0.89483122  1
  F  F15  1  0.95366732  0.22928944  0.22928944  1
  F  F16  1  0.03365091  0.77465854  0.77465854  1
  F  F17  1  0.70941072  0.09503967  0.09503967  1
