# generated using pymatgen
data_LiV6O7F5
_symmetry_space_group_name_H-M   'P 1'
_cell_length_a   4.81681628
_cell_length_b   5.69474993
_cell_length_c   7.83075984
_cell_angle_alpha   85.14849840
_cell_angle_beta   90.45467066
_cell_angle_gamma   90.30750400
_symmetry_Int_Tables_number   1
_chemical_formula_structural   LiV6O7F5
_chemical_formula_sum   'Li1 V6 O7 F5'
_cell_volume   214.02345971
_cell_formula_units_Z   1
loop_
 _symmetry_equiv_pos_site_id
 _symmetry_equiv_pos_as_xyz
  1  'x, y, z'
loop_
 _atom_site_type_symbol
 _atom_site_label
 _atom_site_symmetry_multiplicity
 _atom_site_fract_x
 _atom_site_fract_y
 _atom_site_fract_z
 _atom_site_occupancy
  Li  Li0  1  0.49967479  0.76970074  0.23501555  1
  V  V1  1  0.48803686  0.48327758  0.98944778  1
  V  V2  1  0.52521531  0.20034193  0.35086207  1
  V  V3  1  0.53931532  0.82882918  0.65987931  1
  V  V4  1  0.98800314  0.65030287  0.32560754  1
  V  V5  1  0.97265518  0.33753130  0.68525765  1
  V  V6  1  0.98367254  0.99552209  0.98281812  1
  O  O7  1  0.19242598  0.28592536  0.90510656  1
  O  O8  1  0.31535389  0.47623683  0.23689873  1
  O  O9  1  0.69053019  0.53065055  0.77126030  1
  O  O10  1  0.69162098  0.87143521  0.42286499  1
  O  O11  1  0.79300770  0.02727895  0.76717721  1
  O  O12  1  0.79708928  0.70188873  0.09893550  1
  O  O13  1  0.81293099  0.37049664  0.44562510  1
  F  F14  1  0.19797008  0.63917924  0.56920520  1
  F  F15  1  0.20356115  0.97215796  0.22619547  1
  F  F16  1  0.29847844  0.79405875  0.89010134  1
  F  F17  1  0.30060729  0.13507268  0.57231839  1
  F  F18  1  0.69617889  0.19431142  0.10558018  1
