# generated using pymatgen
data_Co3P4O15
_symmetry_space_group_name_H-M   'P 1'
_cell_length_a   17.83846850
_cell_length_b   6.32422797
_cell_length_c   10.58156983
_cell_angle_alpha   90.00000000
_cell_angle_beta   90.00000000
_cell_angle_gamma   90.00000000
_symmetry_Int_Tables_number   1
_chemical_formula_structural   Co3P4O15
_chemical_formula_sum   'Co12 P16 O60'
_cell_volume   1193.75494798
_cell_formula_units_Z   4
loop_
 _symmetry_equiv_pos_site_id
 _symmetry_equiv_pos_as_xyz
  1  'x, y, z'
loop_
 _atom_site_type_symbol
 _atom_site_label
 _atom_site_symmetry_multiplicity
 _atom_site_fract_x
 _atom_site_fract_y
 _atom_site_fract_z
 _atom_site_occupancy
  Co  Co0  1  0.12907803  0.58735757  0.49695943  1
  Co  Co1  1  0.16152347  0.60767318  0.00594517  1
  Co  Co2  1  0.23903574  0.31617947  0.74350554  1
  Co  Co3  1  0.26096426  0.81617947  0.24350554  1
  Co  Co4  1  0.33847653  0.10767318  0.50594517  1
  Co  Co5  1  0.37092197  0.08735757  0.99695943  1
  Co  Co6  1  0.62907803  0.58735757  0.00304057  1
  Co  Co7  1  0.66152347  0.60767318  0.49405483  1
  Co  Co8  1  0.73903574  0.31617947  0.75649446  1
  Co  Co9  1  0.76096426  0.81617947  0.25649446  1
  Co  Co10  1  0.83847653  0.10767318  0.99405483  1
  Co  Co11  1  0.87092197  0.08735757  0.50304057  1
  P  P12  1  0.05022105  0.64391321  0.22921466  1
  P  P13  1  0.07257154  0.46266099  0.76620675  1
  P  P14  1  0.18174454  0.08851477  0.47912730  1
  P  P15  1  0.20978191  0.10218230  0.00345385  1
  P  P16  1  0.29021809  0.60218230  0.50345385  1
  P  P17  1  0.31825546  0.58851477  0.97912730  1
  P  P18  1  0.42742846  0.96266099  0.26620675  1
  P  P19  1  0.44977895  0.14391321  0.72921466  1
  P  P20  1  0.55022105  0.64391321  0.27078534  1
  P  P21  1  0.57257154  0.46266099  0.73379325  1
  P  P22  1  0.68174454  0.08851477  0.02087270  1
  P  P23  1  0.70978191  0.10218230  0.49654615  1
  P  P24  1  0.79021809  0.60218230  0.99654615  1
  P  P25  1  0.81825546  0.58851477  0.52087270  1
  P  P26  1  0.92742846  0.96266099  0.23379325  1
  P  P27  1  0.94977895  0.14391321  0.77078534  1
  O  O28  1  0.00943007  0.47123565  0.15754280  1
  O  O29  1  0.00831527  0.86660222  0.20354538  1
  O  O30  1  0.04747102  0.60424744  0.37185401  1
  O  O31  1  0.06303663  0.58223786  0.64180969  1
  O  O32  1  0.08850042  0.60385603  0.88117230  1
  O  O33  1  0.13186909  0.28549110  0.75765175  1
  O  O34  1  0.13259036  0.89459325  0.50143189  1
  O  O35  1  0.13068463  0.68276225  0.18199509  1
  O  O36  1  0.13524774  0.28915627  0.45889650  1
  O  O37  1  0.15923101  0.91486171  0.98110731  1
  O  O38  1  0.16417010  0.29864726  0.03410720  1
  O  O39  1  0.23691431  0.12094122  0.59563143  1
  O  O40  1  0.24061921  0.05446090  0.37032336  1
  O  O41  1  0.22986761  0.55200396  0.60981247  1
  O  O42  1  0.23674089  0.63287839  0.38367076  1
  O  O43  1  0.26325911  0.13287839  0.88367076  1
  O  O44  1  0.27013239  0.05200396  0.10981247  1
  O  O45  1  0.25938079  0.55446090  0.87032336  1
  O  O46  1  0.26308569  0.62094122  0.09563143  1
  O  O47  1  0.33582990  0.79864726  0.53410720  1
  O  O48  1  0.34076899  0.41486171  0.48110731  1
  O  O49  1  0.36475226  0.78915627  0.95889650  1
  O  O50  1  0.36931537  0.18276225  0.68199509  1
  O  O51  1  0.36740964  0.39459325  0.00143189  1
  O  O52  1  0.36813091  0.78549110  0.25765075  1
  O  O53  1  0.41149958  0.10385603  0.38117230  1
  O  O54  1  0.43696337  0.08223786  0.14180969  1
  O  O55  1  0.45252898  0.10424744  0.87185401  1
  O  O56  1  0.49168473  0.36660222  0.70354538  1
  O  O57  1  0.49056993  0.97123565  0.65754280  1
  O  O58  1  0.50943007  0.47123565  0.34245720  1
  O  O59  1  0.50831527  0.86660222  0.29645462  1
  O  O60  1  0.54747102  0.60424744  0.12814599  1
  O  O61  1  0.56303663  0.58223786  0.85819031  1
  O  O62  1  0.58850042  0.60385603  0.61882770  1
  O  O63  1  0.63186909  0.28549110  0.74234825  1
  O  O64  1  0.63259036  0.89459325  0.99856811  1
  O  O65  1  0.63068463  0.68276225  0.31800491  1
  O  O66  1  0.63524774  0.28915627  0.04110350  1
  O  O67  1  0.65923101  0.91486171  0.51889269  1
  O  O68  1  0.66417010  0.29864726  0.46589280  1
  O  O69  1  0.73691431  0.12094122  0.90436857  1
  O  O70  1  0.74061921  0.05446090  0.12967664  1
  O  O71  1  0.72986761  0.55200396  0.89018753  1
  O  O72  1  0.73674089  0.63287839  0.11632924  1
  O  O73  1  0.76325911  0.13287839  0.61632924  1
  O  O74  1  0.77013239  0.05200396  0.39018753  1
  O  O75  1  0.75938079  0.55446090  0.62967664  1
  O  O76  1  0.76308569  0.62094122  0.40436857  1
  O  O77  1  0.83582990  0.79864726  0.96589280  1
  O  O78  1  0.84076899  0.41486171  0.01889269  1
  O  O79  1  0.86475226  0.78915627  0.54110350  1
  O  O80  1  0.86931537  0.18276225  0.81800491  1
  O  O81  1  0.86740964  0.39459325  0.49856811  1
  O  O82  1  0.86813091  0.78549110  0.24234925  1
  O  O83  1  0.91149958  0.10385603  0.11882770  1
  O  O84  1  0.93696337  0.08223786  0.35819031  1
  O  O85  1  0.95252898  0.10424744  0.62814599  1
  O  O86  1  0.99168473  0.36660222  0.79645462  1
  O  O87  1  0.99056993  0.97123565  0.84245720  1
