# generated using pymatgen
data_Li3V4(OF3)3
_symmetry_space_group_name_H-M   'P 1'
_cell_length_a   5.12435592
_cell_length_b   5.51201427
_cell_length_c   7.70100596
_cell_angle_alpha   85.26217353
_cell_angle_beta   89.03984443
_cell_angle_gamma   92.33340165
_symmetry_Int_Tables_number   1
_chemical_formula_structural   Li3V4(OF3)3
_chemical_formula_sum   'Li3 V4 O3 F9'
_cell_volume   216.55173139
_cell_formula_units_Z   1
loop_
 _symmetry_equiv_pos_site_id
 _symmetry_equiv_pos_as_xyz
  1  'x, y, z'
loop_
 _atom_site_type_symbol
 _atom_site_label
 _atom_site_symmetry_multiplicity
 _atom_site_fract_x
 _atom_site_fract_y
 _atom_site_fract_z
 _atom_site_occupancy
  Li  Li0  1  0.02210188  0.39597035  0.21638476  1
  Li  Li1  1  0.48933125  0.94702502  0.18946301  1
  Li  Li2  1  0.51006993  0.06106261  0.80711078  1
  V  V3  1  0.01101266  0.00996920  0.50176622  1
  V  V4  1  0.48762723  0.48786018  0.49736391  1
  V  V5  1  0.49756388  0.50199442  0.99431895  1
  V  V6  1  0.99693706  0.99403885  0.99804744  1
  O  O7  1  0.19414936  0.30283513  0.44063611  1
  O  O8  1  0.29639577  0.19877448  0.05387289  1
  O  O9  1  0.67497816  0.81600664  0.96269733  1
  F  F10  1  0.14935170  0.97917613  0.75095314  1
  F  F11  1  0.18156829  0.68765198  0.08751551  1
  F  F12  1  0.31359553  0.81183322  0.42081356  1
  F  F13  1  0.38414324  0.50313797  0.74543495  1
  F  F14  1  0.64244570  0.49002205  0.25087479  1
  F  F15  1  0.68482567  0.17535173  0.57973838  1
  F  F16  1  0.80511755  0.69480690  0.54721913  1
  F  F17  1  0.80344403  0.30057664  0.92485285  1
  F  F18  1  0.85685911  0.03118150  0.25211229  1
