# generated using pymatgen
data_K2Ni(CN)4
_symmetry_space_group_name_H-M   'P 1'
_cell_length_a   4.39515414
_cell_length_b   7.68119033
_cell_length_c   13.38457642
_cell_angle_alpha   90.00000000
_cell_angle_beta   90.82312057
_cell_angle_gamma   90.00000000
_symmetry_Int_Tables_number   1
_chemical_formula_structural   K2Ni(CN)4
_chemical_formula_sum   'K4 Ni2 C8 N8'
_cell_volume   451.81687856
_cell_formula_units_Z   2
loop_
 _symmetry_equiv_pos_site_id
 _symmetry_equiv_pos_as_xyz
  1  'x, y, z'
loop_
 _atom_site_type_symbol
 _atom_site_label
 _atom_site_symmetry_multiplicity
 _atom_site_fract_x
 _atom_site_fract_y
 _atom_site_fract_z
 _atom_site_occupancy
  C  C0  1  0.14992490  0.11761640  0.89151226  1
  C  C1  1  0.85007510  0.88238360  0.10848774  1
  C  C2  1  0.14992490  0.38238360  0.39151226  1
  C  C3  1  0.85007510  0.61761640  0.60848774  1
  C  C4  1  0.14496016  0.70754343  0.45091484  1
  C  C5  1  0.85503984  0.20754343  0.04908516  1
  C  C6  1  0.14496016  0.79245657  0.95091484  1
  C  C7  1  0.85503984  0.29245657  0.54908516  1
  N  N8  1  0.76514154  0.34245969  0.07801659  1
  N  N9  1  0.23485846  0.84245969  0.42198341  1
  N  N10  1  0.75890993  0.69663742  0.67728587  1
  N  N11  1  0.75890993  0.80336258  0.17728587  1
  N  N12  1  0.24109007  0.19663742  0.82271413  1
  N  N13  1  0.24109007  0.30336258  0.32271413  1
  N  N14  1  0.23485846  0.65754031  0.92198341  1
  N  N15  1  0.76514154  0.15754031  0.57801659  1
  K  K16  1  0.28498066  0.95773346  0.65545013  1
  K  K17  1  0.71501934  0.45773346  0.84454987  1
  K  K18  1  0.28498066  0.54226654  0.15545013  1
  K  K19  1  0.71501934  0.04226654  0.34454987  1
  Ni  Ni20  1  0.00000000  0.00000000  0.00000000  1
  Ni  Ni21  1  0.00000000  0.50000000  0.50000000  1
