# generated using pymatgen
data_Li9V2P4HO18
_symmetry_space_group_name_H-M   'P 1'
_cell_length_a   6.87768079
_cell_length_b   10.71743137
_cell_length_c   10.71743137
_cell_angle_alpha   97.32733425
_cell_angle_beta   108.71519810
_cell_angle_gamma   71.28480190
_symmetry_Int_Tables_number   1
_chemical_formula_structural   Li9V2P4HO18
_chemical_formula_sum   'Li18 V4 P8 H2 O36'
_cell_volume   708.39431924
_cell_formula_units_Z   2
loop_
 _symmetry_equiv_pos_site_id
 _symmetry_equiv_pos_as_xyz
  1  'x, y, z'
loop_
 _atom_site_type_symbol
 _atom_site_label
 _atom_site_symmetry_multiplicity
 _atom_site_fract_x
 _atom_site_fract_y
 _atom_site_fract_z
 _atom_site_occupancy
  Li  Li0  1  0.23487709  0.23598083  0.22661160  1
  Li  Li1  1  0.75575369  0.23598083  0.22661160  1
  Li  Li2  1  0.12092511  0.25063838  0.49248860  1
  Li  Li3  1  0.38275969  0.48552207  0.25104046  1
  Li  Li4  1  0.12375248  0.76191175  0.00941670  1
  Li  Li5  1  0.49587971  0.25412029  0.74587971  1
  Li  Li6  1  0.22831122  0.02168878  0.97831122  1
  Li  Li7  1  0.75210713  0.49789287  0.50210713  1
  Li  Li8  1  0.50976238  0.74023762  0.25976238  1
  Li  Li9  1  0.72831122  0.02168878  0.97831122  1
  Li  Li10  1  0.99587971  0.25412029  0.74587971  1
  Li  Li11  1  0.00976238  0.74023762  0.25976238  1
  Li  Li12  1  0.25210713  0.49789287  0.50210713  1
  Li  Li13  1  0.62375248  0.99058330  0.23808825  1
  Li  Li14  1  0.88275969  0.74895954  0.51447793  1
  Li  Li15  1  0.62092511  0.50751140  0.74936162  1
  Li  Li16  1  0.73487709  0.77338840  0.76401917  1
  Li  Li17  1  0.25575369  0.77338840  0.76401917  1
  V  V18  1  0.49528817  0.50740762  0.00454061  1
  V  V19  1  0.99528817  0.99545939  0.49259238  1
  V  V20  1  0.00184483  0.50740762  0.00454061  1
  V  V21  1  0.50184483  0.99545939  0.49259238  1
  P  P22  1  0.89121778  0.49697377  0.27941034  1
  P  P23  1  0.60939234  0.27459366  0.49337734  1
  P  P24  1  0.61065593  0.78021571  0.00152756  1
  P  P25  1  0.88515906  0.99463004  0.76494717  1
  P  P26  1  0.38515906  0.23505283  0.00536996  1
  P  P27  1  0.11065593  0.99847244  0.21978429  1
  P  P28  1  0.39121778  0.72058966  0.50302623  1
  P  P29  1  0.10939234  0.50662266  0.72540634  1
  H  H30  1  0.31063733  0.04499999  0.66627565  1
  H  H31  1  0.81063733  0.33372435  0.95500001  1
  O  O32  1  0.48959679  0.10869486  0.08788944  1
  O  O33  1  0.00734150  0.08130147  0.09598346  1
  O  O34  1  0.18145996  0.31248852  0.04818489  1
  O  O35  1  0.55423641  0.31248852  0.04818489  1
  O  O36  1  0.94438306  0.04074716  0.30056648  1
  O  O37  1  0.31543626  0.04074716  0.30056648  1
  O  O38  1  0.24232819  0.55994683  0.04460320  1
  O  O39  1  0.25701962  0.05733956  0.57137979  1
  O  O40  1  0.98014803  0.34702118  0.30731623  1
  O  O41  1  0.51809675  0.30845625  0.34464974  1
  O  O42  1  0.85415784  0.19767012  0.52720285  1
  O  O43  1  0.02211428  0.53530507  0.20324515  1
  O  O44  1  0.64582480  0.53530507  0.20324515  1
  O  O45  1  0.47537489  0.19767012  0.52720285  1
  O  O46  1  0.82687054  0.14453145  0.79827253  1
  O  O47  1  0.67290503  0.80777226  0.15358332  1
  O  O48  1  0.91136065  0.58380842  0.40653071  1
  O  O49  1  0.59264948  0.39946660  0.58476557  1
  O  O50  1  0.41136065  0.59346929  0.41619158  1
  O  O51  1  0.09264948  0.41523443  0.60053340  1
  O  O52  1  0.32687054  0.20172747  0.85546855  1
  O  O53  1  0.17290503  0.84641668  0.19222774  1
  O  O54  1  0.14582480  0.79675485  0.46469493  1
  O  O55  1  0.52211428  0.79675485  0.46469493  1
  O  O56  1  0.97537489  0.47279715  0.80232988  1
  O  O57  1  0.35415784  0.47279715  0.80232988  1
  O  O58  1  0.01809675  0.65535026  0.69154375  1
  O  O59  1  0.48014803  0.69268377  0.65297882  1
  O  O60  1  0.75701962  0.42862021  0.94266044  1
  O  O61  1  0.74232819  0.95539780  0.44005317  1
  O  O62  1  0.81543626  0.69943352  0.95925284  1
  O  O63  1  0.44438306  0.69943352  0.95925284  1
  O  O64  1  0.05423641  0.95181511  0.68751148  1
  O  O65  1  0.68145996  0.95181511  0.68751148  1
  O  O66  1  0.98959679  0.91211056  0.89130514  1
  O  O67  1  0.50734150  0.90401654  0.91869853  1
