# generated using pymatgen
data_Li21(Co4O9)2
_symmetry_space_group_name_H-M   'P 1'
_cell_length_a   7.69332269
_cell_length_b   7.82369761
_cell_length_c   9.73403267
_cell_angle_alpha   87.70698945
_cell_angle_beta   77.53073252
_cell_angle_gamma   119.65009766
_symmetry_Int_Tables_number   1
_chemical_formula_structural   Li21(Co4O9)2
_chemical_formula_sum   'Li21 Co8 O18'
_cell_volume   489.66912284
_cell_formula_units_Z   1
loop_
 _symmetry_equiv_pos_site_id
 _symmetry_equiv_pos_as_xyz
  1  'x, y, z'
loop_
 _atom_site_type_symbol
 _atom_site_label
 _atom_site_symmetry_multiplicity
 _atom_site_fract_x
 _atom_site_fract_y
 _atom_site_fract_z
 _atom_site_occupancy
  Li  Li0  1  0.19204687  0.16197329  0.13220229  1
  Li  Li1  1  0.50913671  0.61477263  0.09533969  1
  Li  Li2  1  0.33801142  0.91963987  0.13370525  1
  Li  Li3  1  0.59587390  0.33527637  0.15800228  1
  Li  Li4  1  0.04413768  0.86917058  0.34599722  1
  Li  Li5  1  0.86911312  0.71376773  0.15169197  1
  Li  Li6  1  0.15201334  0.62342581  0.39297519  1
  Li  Li7  1  0.49400156  0.07706215  0.38012472  1
  Li  Li8  1  0.76777950  0.46668305  0.37695206  1
  Li  Li9  1  0.86391413  0.18619381  0.38468005  1
  Li  Li10  1  0.15403359  0.82128711  0.60488702  1
  Li  Li11  1  0.24406135  0.53869939  0.62253264  1
  Li  Li12  1  0.51860446  0.93121750  0.62345592  1
  Li  Li13  1  0.84900590  0.37866582  0.61009072  1
  Li  Li14  1  0.97052604  0.12446638  0.63075923  1
  Li  Li15  1  0.15974159  0.31482568  0.85339018  1
  Li  Li16  1  0.41123112  0.67761160  0.84664345  1
  Li  Li17  1  0.60923349  0.11546022  0.88863282  1
  Li  Li18  1  0.84278574  0.05387093  0.85531130  1
  Li  Li19  1  0.47986282  0.38507370  0.90523196  1
  Li  Li20  1  0.81573321  0.78616279  0.84365686  1
  Co  Co21  1  0.69863129  0.66833418  0.62363088  1
  Co  Co22  1  0.59079842  0.75272254  0.36938767  1
  Co  Co23  1  0.41498721  0.23576448  0.63413572  1
  Co  Co24  1  0.23636074  0.96491628  0.85293612  1
  Co  Co25  1  0.05702158  0.47550535  0.11825342  1
  Co  Co26  1  0.75329007  0.03676307  0.14429767  1
  Co  Co27  1  0.29222304  0.31112727  0.37401644  1
  Co  Co28  1  0.93949725  0.53127553  0.87814536  1
  O  O29  1  0.61529440  0.90464927  0.01990688  1
  O  O30  1  0.07296532  0.68016762  0.22371485  1
  O  O31  1  0.31553226  0.11518696  0.28551881  1
  O  O32  1  0.77395204  0.25871073  0.22478656  1
  O  O33  1  0.58214517  0.53251923  0.28874342  1
  O  O34  1  0.88041510  0.95781718  0.26356716  1
  O  O35  1  0.08577614  0.34661374  0.47504944  1
  O  O36  1  0.39003009  0.79500488  0.46882079  1
  O  O37  1  0.62478998  0.20637708  0.52961835  1
  O  O38  1  0.92729403  0.66181151  0.52515381  1
  O  O39  1  0.08888633  0.05295290  0.76668954  1
  O  O40  1  0.41645885  0.47101718  0.71237729  1
  O  O41  1  0.21794745  0.73360267  0.77388026  1
  O  O42  1  0.69586897  0.88083630  0.71477984  1
  O  O43  1  0.90911352  0.31241796  0.79156843  1
  O  O44  1  0.36789475  0.10641655  0.98169669  1
  O  O45  1  0.27163911  0.43585638  0.01887100  1
  O  O46  1  0.73263235  0.56219277  0.98492777  1
