# generated using pymatgen
data_Li3CrO4
_symmetry_space_group_name_H-M   'P 1'
_cell_length_a   6.21722944
_cell_length_b   6.07470962
_cell_length_c   5.03555009
_cell_angle_alpha   127.09975995
_cell_angle_beta   89.90646692
_cell_angle_gamma   90.15568582
_symmetry_Int_Tables_number   1
_chemical_formula_structural   Li3CrO4
_chemical_formula_sum   'Li6 Cr2 O8'
_cell_volume   151.68600213
_cell_formula_units_Z   2
loop_
 _symmetry_equiv_pos_site_id
 _symmetry_equiv_pos_as_xyz
  1  'x, y, z'
loop_
 _atom_site_type_symbol
 _atom_site_label
 _atom_site_symmetry_multiplicity
 _atom_site_fract_x
 _atom_site_fract_y
 _atom_site_fract_z
 _atom_site_occupancy
  Li  Li0  1  0.75111684  0.00765900  0.49907663  1
  Li  Li1  1  0.25117428  0.00837441  0.50081895  1
  Li  Li2  1  0.01362796  0.52221450  0.04504708  1
  Li  Li3  1  0.75193043  0.49115527  0.49912634  1
  Li  Li4  1  0.25208075  0.49194101  0.50093349  1
  Li  Li5  1  0.51386888  0.97722595  0.95494451  1
  Cr  Cr6  1  0.05900971  0.99746212  0.99521758  1
  Cr  Cr7  1  0.55872226  0.50221225  0.00479637  1
  O  O8  1  0.73590996  0.27532467  0.00143301  1
  O  O9  1  0.97666268  0.20472995  0.40905686  1
  O  O10  1  0.23597212  0.77374617  0.99853616  1
  O  O11  1  0.47659350  0.29550380  0.59080496  1
  O  O12  1  0.47524573  0.71063372  0.42064639  1
  O  O13  1  0.23649867  0.22523301  0.99877025  1
  O  O14  1  0.97531030  0.79015611  0.57948175  1
  O  O15  1  0.73629594  0.72645005  0.00128368  1
