# generated using pymatgen
data_LiVP2O7
_symmetry_space_group_name_H-M   'P 1'
_cell_length_a   7.04628028
_cell_length_b   5.87654414
_cell_length_c   7.14234780
_cell_angle_alpha   113.68701402
_cell_angle_beta   104.22251126
_cell_angle_gamma   83.22126187
_symmetry_Int_Tables_number   1
_chemical_formula_structural   LiVP2O7
_chemical_formula_sum   'Li2 V2 P4 O14'
_cell_volume   262.46940014
_cell_formula_units_Z   2
loop_
 _symmetry_equiv_pos_site_id
 _symmetry_equiv_pos_as_xyz
  1  'x, y, z'
loop_
 _atom_site_type_symbol
 _atom_site_label
 _atom_site_symmetry_multiplicity
 _atom_site_fract_x
 _atom_site_fract_y
 _atom_site_fract_z
 _atom_site_occupancy
  Li  Li0  1  0.34291747  0.91942526  0.82916937  1
  Li  Li1  1  0.65708253  0.08057474  0.17083063  1
  V  V2  1  0.19236324  0.71619870  0.11498459  1
  V  V3  1  0.80763676  0.28380130  0.88501541  1
  P  P4  1  0.18404114  0.22958300  0.24303226  1
  P  P5  1  0.35230587  0.35098914  0.69311029  1
  P  P6  1  0.64769413  0.64901086  0.30688971  1
  P  P7  1  0.81595886  0.77041700  0.75696774  1
  O  O8  1  0.96208732  0.96221452  0.77964565  1
  O  O9  1  0.08368480  0.40743029  0.13285057  1
  O  O10  1  0.24840549  0.40847861  0.48321535  1
  O  O11  1  0.25956651  0.13495809  0.69046909  1
  O  O12  1  0.35356569  0.07105186  0.15266880  1
  O  O13  1  0.31702332  0.60404770  0.86795493  1
  O  O14  1  0.42772200  0.67433628  0.31089482  1
  O  O15  1  0.57227800  0.32566372  0.68910518  1
  O  O16  1  0.68297668  0.39595230  0.13204507  1
  O  O17  1  0.64643431  0.92894814  0.84733120  1
  O  O18  1  0.74043349  0.86504191  0.30953091  1
  O  O19  1  0.75159451  0.59152139  0.51678465  1
  O  O20  1  0.91631520  0.59256971  0.86714943  1
  O  O21  1  0.03791268  0.03778548  0.22035435  1
