# generated using pymatgen
data_LiCr(Si2O5)3
_symmetry_space_group_name_H-M   'P 1'
_cell_length_a   9.96827822
_cell_length_b   9.97298393
_cell_length_c   14.23242218
_cell_angle_alpha   90.00249595
_cell_angle_beta   90.01177240
_cell_angle_gamma   119.98517161
_symmetry_Int_Tables_number   1
_chemical_formula_structural   LiCr(Si2O5)3
_chemical_formula_sum   'Li4 Cr4 Si24 O60'
_cell_volume   1225.51766967
_cell_formula_units_Z   4
loop_
 _symmetry_equiv_pos_site_id
 _symmetry_equiv_pos_as_xyz
  1  'x, y, z'
loop_
 _atom_site_type_symbol
 _atom_site_label
 _atom_site_symmetry_multiplicity
 _atom_site_fract_x
 _atom_site_fract_y
 _atom_site_fract_z
 _atom_site_occupancy
  Li  Li0  1  0.50001293  0.00002661  0.75000455  1
  Li  Li1  1  0.00002927  0.50002375  0.74994078  1
  Li  Li2  1  0.49991263  0.99996749  0.25003635  1
  Li  Li3  1  0.50001075  0.49992459  0.24993406  1
  Cr  Cr4  1  0.32387653  0.66212756  0.24996934  1
  Cr  Cr5  1  0.66175098  0.33783502  0.74999727  1
  Cr  Cr6  1  0.67606762  0.33786488  0.25001725  1
  Cr  Cr7  1  0.33824442  0.66219927  0.74999915  1
  Si  Si8  1  0.12762287  0.36086372  0.88883243  1
  Si  Si9  1  0.36333802  0.12835974  0.38833707  1
  Si  Si10  1  0.36109856  0.12784614  0.61066404  1
  Si  Si11  1  0.12723948  0.36080848  0.11057744  1
  Si  Si12  1  0.23353079  0.36081323  0.61056983  1
  Si  Si13  1  0.36095176  0.23354916  0.88989021  1
  Si  Si14  1  0.36344664  0.23501534  0.11179352  1
  Si  Si15  1  0.23324620  0.36088540  0.38882356  1
  Si  Si16  1  0.12846279  0.76501601  0.61177797  1
  Si  Si17  1  0.76499058  0.12837121  0.88834383  1
  Si  Si18  1  0.76672626  0.12781963  0.11068275  1
  Si  Si19  1  0.12736388  0.76645962  0.38981883  1
  Si  Si20  1  0.87151470  0.23500806  0.61177109  1
  Si  Si21  1  0.87264369  0.23354200  0.38985604  1
  Si  Si22  1  0.23500511  0.87164813  0.88835177  1
  Si  Si23  1  0.23322005  0.87222101  0.11070416  1
  Si  Si24  1  0.63915946  0.76651531  0.88989546  1
  Si  Si25  1  0.76676805  0.63917603  0.38883251  1
  Si  Si26  1  0.76643266  0.63910626  0.61058485  1
  Si  Si27  1  0.63654165  0.76498619  0.11181266  1
  Si  Si28  1  0.87236309  0.63908402  0.88886224  1
  Si  Si29  1  0.63898087  0.87216788  0.61067297  1
  Si  Si30  1  0.87272505  0.63913467  0.11060073  1
  Si  Si31  1  0.63662839  0.87165708  0.38833018  1
  O  O32  1  0.05150322  0.28713496  0.63657273  1
  O  O33  1  0.28720080  0.05169912  0.86369530  1
  O  O34  1  0.28585456  0.05157275  0.13552701  1
  O  O35  1  0.05061516  0.28627911  0.36355620  1
  O  O36  1  0.28586847  0.23511115  0.63656102  1
  O  O37  1  0.23563265  0.28626167  0.86364245  1
  O  O38  1  0.28536397  0.23382437  0.36400944  1
  O  O39  1  0.23575092  0.28734187  0.13664436  1
  O  O40  1  0.40713550  0.14266924  0.49983931  1
  O  O41  1  0.14178538  0.40631664  0.99979094  1
  O  O42  1  0.26452702  0.40629215  0.49980128  1
  O  O43  1  0.40732774  0.26566474  0.00045057  1
  O  O44  1  0.51237043  0.17149689  0.67551593  1
  O  O45  1  0.51304754  0.17242931  0.32303416  1
  O  O46  1  0.17151862  0.51264717  0.82468572  1
  O  O47  1  0.18186245  0.51879349  0.17184148  1
  O  O48  1  0.65937142  0.17246236  0.82301863  1
  O  O49  1  0.17305262  0.65950419  0.67680883  1
  O  O50  1  0.65909279  0.17145738  0.17550550  1
  O  O51  1  0.18210448  0.66352776  0.32813491  1
  O  O52  1  0.76442625  0.05172008  0.36361575  1
  O  O53  1  0.76566949  0.05156430  0.63549011  1
  O  O54  1  0.05151273  0.76622384  0.86404238  1
  O  O55  1  0.05074423  0.76487480  0.13658711  1
  O  O56  1  0.51853278  0.33629199  0.82807755  1
  O  O57  1  0.33688772  0.51878997  0.67177593  1
  O  O58  1  0.51357009  0.34043549  0.17684883  1
  O  O59  1  0.34111900  0.51260460  0.32459886  1
  O  O60  1  0.14161021  0.73446227  0.50042647  1
  O  O61  1  0.73553131  0.14262378  0.99981963  1
  O  O62  1  0.85832894  0.26566225  0.50042056  1
  O  O63  1  0.26444786  0.85741168  0.99983715  1
  O  O64  1  0.66299557  0.48112574  0.67175678  1
  O  O65  1  0.65885200  0.48730460  0.32469815  1
  O  O66  1  0.48149734  0.66381951  0.82804173  1
  O  O67  1  0.48648278  0.65939460  0.17681349  1
  O  O68  1  0.94845126  0.23377401  0.86403699  1
  O  O69  1  0.23437587  0.94850398  0.63550619  1
  O  O70  1  0.94925420  0.23511941  0.13659524  1
  O  O71  1  0.23549048  0.94829088  0.36365058  1
  O  O72  1  0.82697138  0.34049134  0.67684679  1
  O  O73  1  0.34067907  0.82762456  0.82304541  1
  O  O74  1  0.81772917  0.33627539  0.32802834  1
  O  O75  1  0.34085799  0.82855227  0.17550789  1
  O  O76  1  0.48774191  0.82859769  0.67550276  1
  O  O77  1  0.82843607  0.48725796  0.82469585  1
  O  O78  1  0.81821034  0.48119196  0.17178464  1
  O  O79  1  0.48675625  0.82735680  0.32308130  1
  O  O80  1  0.73548992  0.59371542  0.49977603  1
  O  O81  1  0.59272901  0.73437960  0.00043075  1
  O  O82  1  0.59297548  0.85742612  0.49982136  1
  O  O83  1  0.85820473  0.59363485  0.99979400  1
  O  O84  1  0.71463858  0.76620914  0.36399780  1
  O  O85  1  0.76433255  0.71366615  0.86360559  1
  O  O86  1  0.71422028  0.76490567  0.63656465  1
  O  O87  1  0.76437275  0.71282299  0.13659565  1
  O  O88  1  0.94932665  0.71373841  0.36354646  1
  O  O89  1  0.94847685  0.71276105  0.63662364  1
  O  O90  1  0.71284008  0.94831335  0.86366975  1
  O  O91  1  0.71413135  0.94846868  0.13552417  1
