# generated using pymatgen
data_VCr2Ni3(PO4)6
_symmetry_space_group_name_H-M   'P 1'
_cell_length_a   8.36521284
_cell_length_b   8.61729560
_cell_length_c   8.61729572
_cell_angle_alpha   59.99999990
_cell_angle_beta   58.99804316
_cell_angle_gamma   58.99804539
_symmetry_Int_Tables_number   1
_chemical_formula_structural   VCr2Ni3(PO4)6
_chemical_formula_sum   'V1 Cr2 Ni3 P6 O24'
_cell_volume   432.47202608
_cell_formula_units_Z   1
loop_
 _symmetry_equiv_pos_site_id
 _symmetry_equiv_pos_as_xyz
  1  'x, y, z'
loop_
 _atom_site_type_symbol
 _atom_site_label
 _atom_site_symmetry_multiplicity
 _atom_site_fract_x
 _atom_site_fract_y
 _atom_site_fract_z
 _atom_site_occupancy
  V  V0  1  0.56143386  0.14618871  0.14618871  1
  Cr  Cr1  1  0.00300096  0.99900001  0.99900001  1
  Cr  Cr2  1  0.50685998  0.49771301  0.49771301  1
  Ni  Ni3  1  0.07319367  0.64226911  0.64226911  1
  Ni  Ni4  1  0.43367453  0.85544149  0.85544149  1
  Ni  Ni5  1  0.92733944  0.35755319  0.35755319  1
  P  P6  1  0.24455658  0.25266092  0.55058815  1
  P  P7  1  0.24455658  0.95219435  0.25266092  1
  P  P8  1  0.24455658  0.55058815  0.95219435  1
  P  P9  1  0.75011516  0.45307144  0.04721392  1
  P  P10  1  0.75011516  0.04721392  0.74959947  1
  P  P11  1  0.75011516  0.74959947  0.45307144  1
  O  O12  1  0.06251942  0.10412777  0.32788759  1
  O  O13  1  0.06251942  0.50546522  0.10412777  1
  O  O14  1  0.06251942  0.32788759  0.50546522  1
  O  O15  1  0.21741408  0.09573670  0.74914882  1
  O  O16  1  0.43072828  0.17340517  0.38070681  1
  O  O17  1  0.30002563  0.39921212  0.54884511  1
  O  O18  1  0.21741408  0.93770040  0.09573670  1
  O  O19  1  0.30002563  0.75191714  0.39921212  1
  O  O20  1  0.56141027  0.60196211  0.00877165  1
  O  O21  1  0.30002563  0.54884511  0.75191714  1
  O  O22  1  0.77525117  0.24405482  0.06829732  1
  O  O23  1  0.56141027  0.00877165  0.82785597  1
  O  O24  1  0.43072828  0.01515974  0.17340517  1
  O  O25  1  0.21741408  0.74914882  0.93770040  1
  O  O26  1  0.71512065  0.43291761  0.25206233  1
  O  O27  1  0.43072828  0.38070681  0.01515974  1
  O  O28  1  0.71512065  0.25206233  0.59989941  1
  O  O29  1  0.77525117  0.06829732  0.91239670  1
  O  O30  1  0.71512065  0.59989941  0.43291761  1
  O  O31  1  0.56141027  0.82785597  0.60196211  1
  O  O32  1  0.77525117  0.91239670  0.24405482  1
  O  O33  1  0.94102428  0.68551170  0.48034146  1
  O  O34  1  0.94102428  0.48034146  0.89312356  1
  O  O35  1  0.94102428  0.89312356  0.68551170  1
