# generated using pymatgen
data_Co2O3F
_symmetry_space_group_name_H-M   'P 1'
_cell_length_a   5.90621435
_cell_length_b   6.32691561
_cell_length_c   6.75076417
_cell_angle_alpha   90.00000000
_cell_angle_beta   115.94115136
_cell_angle_gamma   90.00000000
_symmetry_Int_Tables_number   1
_chemical_formula_structural   Co2O3F
_chemical_formula_sum   'Co8 O12 F4'
_cell_volume   226.84627224
_cell_formula_units_Z   4
loop_
 _symmetry_equiv_pos_site_id
 _symmetry_equiv_pos_as_xyz
  1  'x, y, z'
loop_
 _atom_site_type_symbol
 _atom_site_label
 _atom_site_symmetry_multiplicity
 _atom_site_fract_x
 _atom_site_fract_y
 _atom_site_fract_z
 _atom_site_occupancy
  Co  Co0  1  0.00006422  0.97279181  0.00012844  1
  Co  Co1  1  0.50006422  0.02720819  0.00012844  1
  Co  Co2  1  0.50048951  0.00000000  0.50097902  1
  Co  Co3  1  0.74951049  0.50000000  0.99902098  1
  Co  Co4  1  0.24951049  0.50000000  0.99902098  1
  Co  Co5  1  0.00048951  0.00000000  0.50097902  1
  Co  Co6  1  0.24993578  0.47279181  0.49987156  1
  Co  Co7  1  0.74993578  0.52720819  0.49987156  1
  O  O8  1  0.34724408  0.00000000  0.19448716  1
  O  O9  1  0.84724408  0.00000000  0.19448716  1
  O  O10  1  0.49884012  0.31016657  0.99768024  1
  O  O11  1  0.25115988  0.18983343  0.50231976  1
  O  O12  1  0.99884012  0.68983343  0.99768024  1
  O  O13  1  0.40275592  0.50000000  0.30551284  1
  O  O14  1  0.15307170  0.00000000  0.80614341  1
  O  O15  1  0.90275592  0.50000000  0.30551284  1
  O  O16  1  0.65307170  0.00000000  0.80614341  1
  O  O17  1  0.09692830  0.50000000  0.69385659  1
  O  O18  1  0.59692830  0.50000000  0.69385659  1
  O  O19  1  0.75115988  0.81016657  0.50231976  1
  F  F20  1  0.00115662  0.27849849  0.00231424  1
  F  F21  1  0.74884338  0.22150151  0.49768576  1
  F  F22  1  0.50115662  0.72150151  0.00231424  1
  F  F23  1  0.24884338  0.77849849  0.49768576  1
