# generated using pymatgen
data_LiMnSiO4
_symmetry_space_group_name_H-M   'P 1'
_cell_length_a   9.49029450
_cell_length_b   7.05825187
_cell_length_c   5.10989901
_cell_angle_alpha   90.00000000
_cell_angle_beta   90.00000000
_cell_angle_gamma   90.00000000
_symmetry_Int_Tables_number   1
_chemical_formula_structural   LiMnSiO4
_chemical_formula_sum   'Li4 Mn4 Si4 O16'
_cell_volume   342.28601748
_cell_formula_units_Z   4
loop_
 _symmetry_equiv_pos_site_id
 _symmetry_equiv_pos_as_xyz
  1  'x, y, z'
loop_
 _atom_site_type_symbol
 _atom_site_label
 _atom_site_symmetry_multiplicity
 _atom_site_fract_x
 _atom_site_fract_y
 _atom_site_fract_z
 _atom_site_occupancy
  Li  Li0  1  0.18242449  0.53068379  0.24754220  1
  Li  Li1  1  0.31757551  0.03068379  0.74754220  1
  Li  Li2  1  0.68242449  0.96931621  0.24754220  1
  Li  Li3  1  0.81757551  0.46931621  0.74754220  1
  Mn  Mn4  1  0.11762629  0.02436615  0.18602859  1
  Mn  Mn5  1  0.38237371  0.52436615  0.68602859  1
  Mn  Mn6  1  0.61762629  0.47563385  0.18602859  1
  Mn  Mn7  1  0.88237371  0.97563385  0.68602859  1
  Si  Si8  1  0.09116562  0.73912137  0.76200862  1
  Si  Si9  1  0.40883438  0.23912137  0.26200862  1
  Si  Si10  1  0.59116562  0.76087863  0.76200862  1
  Si  Si11  1  0.90883438  0.26087863  0.26200862  1
  O  O12  1  0.07958402  0.29254246  0.21974775  1
  O  O13  1  0.13199980  0.76519120  0.07178913  1
  O  O14  1  0.18550637  0.57427996  0.62870128  1
  O  O15  1  0.09851161  0.95839451  0.63003044  1
  O  O16  1  0.40148839  0.45839451  0.13003044  1
  O  O17  1  0.31449363  0.07427996  0.12870128  1
  O  O18  1  0.36800020  0.26519120  0.57178913  1
  O  O19  1  0.42041598  0.79254246  0.71974775  1
  O  O20  1  0.57958402  0.20745754  0.21974775  1
  O  O21  1  0.63199980  0.73480880  0.07178913  1
  O  O22  1  0.68550637  0.92572004  0.62870128  1
  O  O23  1  0.59851161  0.54160549  0.63003044  1
  O  O24  1  0.90148839  0.04160549  0.13003044  1
  O  O25  1  0.81449363  0.42572004  0.12870128  1
  O  O26  1  0.86800020  0.23480880  0.57178913  1
  O  O27  1  0.92041598  0.70745754  0.71974775  1
