# generated using pymatgen
data_Ni3(P2O7)2
_symmetry_space_group_name_H-M   'P 1'
_cell_length_a   6.34118874
_cell_length_b   8.50874728
_cell_length_c   9.99331793
_cell_angle_alpha   108.55008379
_cell_angle_beta   93.16539441
_cell_angle_gamma   91.89276268
_symmetry_Int_Tables_number   1
_chemical_formula_structural   Ni3(P2O7)2
_chemical_formula_sum   'Ni6 P8 O28'
_cell_volume   509.67228643
_cell_formula_units_Z   2
loop_
 _symmetry_equiv_pos_site_id
 _symmetry_equiv_pos_as_xyz
  1  'x, y, z'
loop_
 _atom_site_type_symbol
 _atom_site_label
 _atom_site_symmetry_multiplicity
 _atom_site_fract_x
 _atom_site_fract_y
 _atom_site_fract_z
 _atom_site_occupancy
  Ni  Ni0  1  0.00000000  0.50000000  0.50000000  1
  Ni  Ni1  1  0.29906591  0.89673231  0.63069280  1
  Ni  Ni2  1  0.35437054  0.87915429  0.06032315  1
  Ni  Ni3  1  0.50000000  0.50000000  0.00000000  1
  Ni  Ni4  1  0.64562946  0.12084571  0.93967685  1
  Ni  Ni5  1  0.70093409  0.10326769  0.36930720  1
  P  P6  1  0.15828940  0.20104894  0.00597664  1
  P  P7  1  0.18775369  0.17565377  0.30295672  1
  P  P8  1  0.27150802  0.55012398  0.72339662  1
  P  P9  1  0.48100061  0.74760339  0.31692386  1
  P  P10  1  0.51899939  0.25239661  0.68307614  1
  P  P11  1  0.72849198  0.44987602  0.27660338  1
  P  P12  1  0.81224631  0.82434623  0.69704328  1
  P  P13  1  0.84171060  0.79895106  0.99402336  1
  O  O14  1  0.04784968  0.85886531  0.08241143  1
  O  O15  1  0.01395348  0.08296769  0.35214406  1
  O  O16  1  0.05747028  0.44858799  0.67850844  1
  O  O17  1  0.09796643  0.21302606  0.16359642  1
  O  O18  1  0.23602886  0.37129848  0.00615069  1
  O  O19  1  0.22501771  0.34643547  0.41539374  1
  O  O20  1  0.26435524  0.66144680  0.62888212  1
  O  O21  1  0.31303517  0.81344819  0.41886015  1
  O  O22  1  0.32976320  0.63491409  0.88092796  1
  O  O23  1  0.32270370  0.13329925  0.64324723  1
  O  O24  1  0.33079773  0.07069737  0.96645249  1
  O  O25  1  0.41003664  0.70559557  0.15832884  1
  O  O26  1  0.39043620  0.08189282  0.26406818  1
  O  O27  1  0.46056781  0.42895316  0.67005746  1
  O  O28  1  0.53943219  0.57104684  0.32994254  1
  O  O29  1  0.60956380  0.91810718  0.73593182  1
  O  O30  1  0.58996336  0.29440443  0.84167116  1
  O  O31  1  0.66920227  0.92930263  0.03354751  1
  O  O32  1  0.67729630  0.86670075  0.35675277  1
  O  O33  1  0.67023680  0.36508591  0.11907204  1
  O  O34  1  0.68696483  0.18655181  0.58113985  1
  O  O35  1  0.73564476  0.33855320  0.37111788  1
  O  O36  1  0.77498229  0.65356453  0.58460626  1
  O  O37  1  0.76397114  0.62870152  0.99384931  1
  O  O38  1  0.90203357  0.78697394  0.83640358  1
  O  O39  1  0.94252972  0.55141201  0.32149156  1
  O  O40  1  0.98604652  0.91703231  0.64785594  1
  O  O41  1  0.95215032  0.14113469  0.91758857  1
