# generated using pymatgen
data_Li2MnP3O10
_symmetry_space_group_name_H-M   'P 1'
_cell_length_a   4.67430208
_cell_length_b   8.61334285
_cell_length_c   9.36211759
_cell_angle_alpha   90.00000000
_cell_angle_beta   97.96299097
_cell_angle_gamma   90.00000000
_symmetry_Int_Tables_number   1
_chemical_formula_structural   Li2MnP3O10
_chemical_formula_sum   'Li4 Mn2 P6 O20'
_cell_volume   373.29718023
_cell_formula_units_Z   2
loop_
 _symmetry_equiv_pos_site_id
 _symmetry_equiv_pos_as_xyz
  1  'x, y, z'
loop_
 _atom_site_type_symbol
 _atom_site_label
 _atom_site_symmetry_multiplicity
 _atom_site_fract_x
 _atom_site_fract_y
 _atom_site_fract_z
 _atom_site_occupancy
  Li  Li0  1  0.03981143  0.07918722  0.37618290  1
  Li  Li1  1  0.03981143  0.42081278  0.37618290  1
  Li  Li2  1  0.96018857  0.57918722  0.62381710  1
  Li  Li3  1  0.96018857  0.92081278  0.62381710  1
  Mn  Mn4  1  0.00000000  0.00000000  0.00000000  1
  Mn  Mn5  1  0.00000000  0.50000000  0.00000000  1
  P  P6  1  0.32950235  0.25000000  0.83025889  1
  P  P7  1  0.40018671  0.75000000  0.47253855  1
  P  P8  1  0.53179880  0.75000000  0.86255215  1
  P  P9  1  0.46820120  0.25000000  0.13744785  1
  P  P10  1  0.59981329  0.25000000  0.52746145  1
  P  P11  1  0.67049765  0.75000000  0.16974111  1
  O  O12  1  0.14890535  0.10181889  0.83980974  1
  O  O13  1  0.14890535  0.39818111  0.83980974  1
  O  O14  1  0.25241692  0.75000000  0.76398645  1
  O  O15  1  0.22628302  0.60244953  0.47118573  1
  O  O16  1  0.22628302  0.89755047  0.47118573  1
  O  O17  1  0.31026700  0.25000000  0.43297206  1
  O  O18  1  0.28108394  0.39805605  0.13800175  1
  O  O19  1  0.28108394  0.10194395  0.13800175  1
  O  O20  1  0.57650214  0.25000000  0.97275420  1
  O  O21  1  0.49696034  0.75000000  0.29425828  1
  O  O22  1  0.50303966  0.25000000  0.70574172  1
  O  O23  1  0.42349786  0.75000000  0.02724580  1
  O  O24  1  0.71891606  0.89805605  0.86199825  1
  O  O25  1  0.71891606  0.60194395  0.86199825  1
  O  O26  1  0.68973300  0.75000000  0.56702794  1
  O  O27  1  0.77371698  0.10244953  0.52881427  1
  O  O28  1  0.77371698  0.39755047  0.52881427  1
  O  O29  1  0.74758308  0.25000000  0.23601355  1
  O  O30  1  0.85109465  0.60181889  0.16019026  1
  O  O31  1  0.85109465  0.89818111  0.16019026  1
