# generated using pymatgen
data_Li2VF6
_symmetry_space_group_name_H-M   'P 1'
_cell_length_a   5.12966589
_cell_length_b   5.02133494
_cell_length_c   15.08974874
_cell_angle_alpha   90.00000000
_cell_angle_beta   96.38744102
_cell_angle_gamma   90.00000000
_symmetry_Int_Tables_number   1
_chemical_formula_structural   Li2VF6
_chemical_formula_sum   'Li8 V4 F24'
_cell_volume   386.26549935
_cell_formula_units_Z   4
loop_
 _symmetry_equiv_pos_site_id
 _symmetry_equiv_pos_as_xyz
  1  'x, y, z'
loop_
 _atom_site_type_symbol
 _atom_site_label
 _atom_site_symmetry_multiplicity
 _atom_site_fract_x
 _atom_site_fract_y
 _atom_site_fract_z
 _atom_site_occupancy
  Li  Li0  1  0.25566410  0.51113989  0.75117465  1
  Li  Li1  1  0.32147658  0.02132516  0.91239690  1
  Li  Li2  1  0.25566410  0.98886011  0.25117465  1
  Li  Li3  1  0.32147658  0.47867484  0.41239690  1
  Li  Li4  1  0.67852342  0.52132516  0.58760310  1
  Li  Li5  1  0.74433590  0.01113989  0.74882535  1
  Li  Li6  1  0.67852342  0.97867484  0.08760310  1
  Li  Li7  1  0.74433590  0.48886011  0.24882535  1
  V  V8  1  0.17348315  0.06131635  0.59979505  1
  V  V9  1  0.17348315  0.43868365  0.09979505  1
  V  V10  1  0.82651685  0.56131635  0.90020495  1
  V  V11  1  0.82651685  0.93868365  0.40020495  1
  F  F12  1  0.01922492  0.82345887  0.83982953  1
  F  F13  1  0.07326144  0.33843845  0.84732537  1
  F  F14  1  0.13037917  0.67744848  0.98837052  1
  F  F15  1  0.01922492  0.67654113  0.33982953  1
  F  F16  1  0.07326144  0.16156155  0.34732537  1
  F  F17  1  0.13037917  0.82255152  0.48837052  1
  F  F18  1  0.36014325  0.29494744  0.53212439  1
  F  F19  1  0.40062731  0.78031182  0.62770759  1
  F  F20  1  0.43272075  0.21039786  0.69537170  1
  F  F21  1  0.56727925  0.71039786  0.80462830  1
  F  F22  1  0.59937269  0.28031182  0.87229241  1
  F  F23  1  0.63985675  0.79494744  0.96787561  1
  F  F24  1  0.36014325  0.20505256  0.03212439  1
  F  F25  1  0.40062731  0.71968818  0.12770759  1
  F  F26  1  0.43272075  0.28960214  0.19537170  1
  F  F27  1  0.56727925  0.78960214  0.30462830  1
  F  F28  1  0.59937269  0.21968818  0.37229241  1
  F  F29  1  0.63985675  0.70505256  0.46787561  1
  F  F30  1  0.86962083  0.17744848  0.51162948  1
  F  F31  1  0.92673856  0.83843845  0.65267463  1
  F  F32  1  0.98077508  0.32345887  0.66017047  1
  F  F33  1  0.86962083  0.32255152  0.01162948  1
  F  F34  1  0.92673856  0.66156155  0.15267463  1
  F  F35  1  0.98077508  0.17654113  0.16017047  1
