# generated using pymatgen
data_Ca2SnS4
_symmetry_space_group_name_H-M   'P 1'
_cell_length_a   6.88313692
_cell_length_b   7.34067742
_cell_length_c   13.55192436
_cell_angle_alpha   89.99999020
_cell_angle_beta   90.00056781
_cell_angle_gamma   90.00001076
_symmetry_Int_Tables_number   1
_chemical_formula_structural   Ca2SnS4
_chemical_formula_sum   'Ca8 Sn4 S16'
_cell_volume   684.73656115
_cell_formula_units_Z   4
loop_
 _symmetry_equiv_pos_site_id
 _symmetry_equiv_pos_as_xyz
  1  'x, y, z'
loop_
 _atom_site_type_symbol
 _atom_site_label
 _atom_site_symmetry_multiplicity
 _atom_site_fract_x
 _atom_site_fract_y
 _atom_site_fract_z
 _atom_site_occupancy
  Ca  Ca0  1  0.48891256  0.90264460  0.85516008  1
  Ca  Ca1  1  0.98891300  0.59734668  0.14483245  1
  Ca  Ca2  1  0.51108524  0.40264364  0.64483911  1
  Ca  Ca3  1  0.01108555  0.09734537  0.35516704  1
  Ca  Ca4  1  0.51107597  0.09738320  0.14483051  1
  Ca  Ca5  1  0.01108082  0.40260959  0.85516271  1
  Ca  Ca6  1  0.48892421  0.59738193  0.35516992  1
  Ca  Ca7  1  0.98891978  0.90260909  0.64483782  1
  Sn  Sn8  1  0.50003506  0.00004322  0.49997222  1
  Sn  Sn9  1  0.00005418  0.50000996  0.50004901  1
  Sn  Sn10  1  0.49996509  0.50004373  0.00002778  1
  Sn  Sn11  1  -0.00005365  0.00000973  0.99995092  1
  S  S12  1  0.31041296  0.69584556  0.55239396  1
  S  S13  1  0.81041561  0.80414848  0.44760543  1
  S  S14  1  0.68958742  0.19584592  0.94760612  1
  S  S15  1  0.18958440  0.30414840  0.05239468  1
  S  S16  1  0.68958094  0.30415526  0.44759940  1
  S  S17  1  0.18958071  0.19584152  0.55239846  1
  S  S18  1  0.31041948  0.80415528  0.05240061  1
  S  S19  1  0.81041960  0.69584155  0.94760148  1
  S  S20  1  0.61754933  0.03971029  0.67358459  1
  S  S21  1  0.11755881  0.46027192  0.32639979  1
  S  S22  1  0.38245107  0.53971077  0.82641521  1
  S  S23  1  0.88244146  0.96027224  0.17360048  1
  S  S24  1  0.38244361  0.96029624  0.32642322  1
  S  S25  1  0.88244577  0.53969452  0.67356661  1
  S  S26  1  0.61755647  0.46029658  0.17357685  1
  S  S27  1  0.11755455  0.03969472  0.82643353  1
