# generated using pymatgen
data_LiMnPO4
_symmetry_space_group_name_H-M   'P 1'
_cell_length_a   7.63015831
_cell_length_b   4.98018096
_cell_length_c   18.89728824
_cell_angle_alpha   90.00000000
_cell_angle_beta   88.76414264
_cell_angle_gamma   90.00000000
_symmetry_Int_Tables_number   1
_chemical_formula_structural   LiMnPO4
_chemical_formula_sum   'Li8 Mn8 P8 O32'
_cell_volume   717.92177011
_cell_formula_units_Z   8
loop_
 _symmetry_equiv_pos_site_id
 _symmetry_equiv_pos_as_xyz
  1  'x, y, z'
loop_
 _atom_site_type_symbol
 _atom_site_label
 _atom_site_symmetry_multiplicity
 _atom_site_fract_x
 _atom_site_fract_y
 _atom_site_fract_z
 _atom_site_occupancy
  Li  Li0  1  0.02409024  0.75875828  0.58846470  1
  Li  Li1  1  0.02409024  0.74124172  0.08846470  1
  Li  Li2  1  0.50232646  0.32925905  0.81817801  1
  Li  Li3  1  0.50232646  0.17074095  0.31817801  1
  Li  Li4  1  0.49767354  0.82925905  0.68182199  1
  Li  Li5  1  0.49767354  0.67074095  0.18182199  1
  Li  Li6  1  0.97590976  0.25875828  0.91153530  1
  Li  Li7  1  0.97590976  0.24124172  0.41153530  1
  Mn  Mn8  1  0.17557210  0.77109309  0.77318610  1
  Mn  Mn9  1  0.17557210  0.72890691  0.27318610  1
  Mn  Mn10  1  0.32669017  0.22268871  0.51935380  1
  Mn  Mn11  1  0.32669017  0.27731129  0.01935380  1
  Mn  Mn12  1  0.67330983  0.72268871  0.98064620  1
  Mn  Mn13  1  0.67330983  0.77731129  0.48064620  1
  Mn  Mn14  1  0.82442790  0.27109309  0.72681390  1
  Mn  Mn15  1  0.82442790  0.22890691  0.22681390  1
  P  P16  1  0.24845181  0.32410982  0.68372084  1
  P  P17  1  0.24845181  0.17589018  0.18372084  1
  P  P18  1  0.24989421  0.72961500  0.93566408  1
  P  P19  1  0.24989421  0.77038500  0.43566408  1
  P  P20  1  0.75010579  0.22961500  0.56433592  1
  P  P21  1  0.75010579  0.27038500  0.06433592  1
  P  P22  1  0.75154819  0.82410982  0.81627916  1
  P  P23  1  0.75154819  0.67589018  0.31627916  1
  O  O24  1  0.08139533  0.41334483  0.72709431  1
  O  O25  1  0.08139533  0.08665517  0.22709431  1
  O  O26  1  0.17060690  0.62653883  0.00702338  1
  O  O27  1  0.14782667  0.60849673  0.87326919  1
  O  O28  1  0.22327157  0.42096164  0.60695778  1
  O  O29  1  0.26899693  0.01368269  0.68875318  1
  O  O30  1  0.17060690  0.87346117  0.50702338  1
  O  O31  1  0.14782667  0.89150327  0.37326919  1
  O  O32  1  0.22327157  0.07903836  0.10695778  1
  O  O33  1  0.26899693  0.48631731  0.18875318  1
  O  O34  1  0.24642209  0.04193368  0.93217973  1
  O  O35  1  0.24642209  0.45806632  0.43217973  1
  O  O36  1  0.40287004  0.47095175  0.72034408  1
  O  O37  1  0.40287004  0.02904825  0.22034408  1
  O  O38  1  0.44114933  0.61352483  0.93039763  1
  O  O39  1  0.44114933  0.88647517  0.43039763  1
  O  O40  1  0.55885067  0.11352483  0.56960237  1
  O  O41  1  0.55885067  0.38647517  0.06960237  1
  O  O42  1  0.59712996  0.97095175  0.77965592  1
  O  O43  1  0.59712996  0.52904825  0.27965592  1
  O  O44  1  0.75357791  0.54193368  0.56782027  1
  O  O45  1  0.75357791  0.95806632  0.06782027  1
  O  O46  1  0.73100307  0.51368269  0.81124682  1
  O  O47  1  0.77672843  0.92096164  0.89304222  1
  O  O48  1  0.85217333  0.10849673  0.62673081  1
  O  O49  1  0.82939310  0.12653883  0.49297662  1
  O  O50  1  0.73100307  0.98631731  0.31124682  1
  O  O51  1  0.77672843  0.57903836  0.39304222  1
  O  O52  1  0.85217333  0.39150327  0.12673081  1
  O  O53  1  0.82939310  0.37346117  0.99297662  1
  O  O54  1  0.91860467  0.91334483  0.77290569  1
  O  O55  1  0.91860467  0.58665517  0.27290569  1
