# generated using pymatgen
data_LiV2O3F
_symmetry_space_group_name_H-M   'P 1'
_cell_length_a   5.96929815
_cell_length_b   6.14769530
_cell_length_c   8.68551606
_cell_angle_alpha   89.97920196
_cell_angle_beta   89.99524751
_cell_angle_gamma   89.99266105
_symmetry_Int_Tables_number   1
_chemical_formula_structural   LiV2O3F
_chemical_formula_sum   'Li4 V8 O12 F4'
_cell_volume   318.73605966
_cell_formula_units_Z   4
loop_
 _symmetry_equiv_pos_site_id
 _symmetry_equiv_pos_as_xyz
  1  'x, y, z'
loop_
 _atom_site_type_symbol
 _atom_site_label
 _atom_site_symmetry_multiplicity
 _atom_site_fract_x
 _atom_site_fract_y
 _atom_site_fract_z
 _atom_site_occupancy
  Li  Li0  1  0.02183268  0.99982845  0.01768389  1
  Li  Li1  1  0.52166254  0.00000548  0.23202722  1
  Li  Li2  1  0.47842090  0.50019719  0.51851825  1
  Li  Li3  1  0.97808362  0.49956205  0.73186910  1
  V  V4  1  0.74350100  0.50009015  0.11535138  1
  V  V5  1  0.24283339  0.49999746  0.13496519  1
  V  V6  1  0.00093460  0.25001491  0.37477978  1
  V  V7  1  0.99983463  0.75019838  0.37511360  1
  V  V8  1  0.75614976  0.99992764  0.61496976  1
  V  V9  1  0.25638074  0.00000919  0.63521578  1
  V  V10  1  0.49976225  0.24990973  0.87487354  1
  V  V11  1  0.50026755  0.75022793  0.87480967  1
  O  O12  1  0.49176220  0.72054232  0.10598326  1
  O  O13  1  0.49190802  0.27948315  0.10600872  1
  O  O14  1  0.99195821  0.72027372  0.14433481  1
  O  O15  1  0.99180073  0.27947248  0.14398681  1
  O  O16  1  0.21655289  0.50021297  0.37180189  1
  O  O17  1  0.78446903  0.00027850  0.37843561  1
  O  O18  1  0.00793966  0.22059393  0.60590519  1
  O  O19  1  0.00832236  0.77953069  0.60615623  1
  O  O20  1  0.50768123  0.22028348  0.64384418  1
  O  O21  1  0.50761067  0.77909522  0.64376300  1
  O  O22  1  0.28436561  0.00004858  0.87190761  1
  O  O23  1  0.71550578  0.50001714  0.87828331  1
  F  F24  1  0.75349044  0.49990615  0.37218186  1
  F  F25  1  0.24726800  0.99972779  0.37770372  1
  F  F26  1  0.74699945  0.00033260  0.87137339  1
  F  F27  1  0.25270205  0.50023270  0.87815324  1
