# generated using pymatgen
data_RbTh3F13
_symmetry_space_group_name_H-M   'P 1'
_cell_length_a   8.86991382
_cell_length_b   8.04958088
_cell_length_c   7.13203090
_cell_angle_alpha   90.00000000
_cell_angle_beta   90.00000000
_cell_angle_gamma   90.00000000
_symmetry_Int_Tables_number   1
_chemical_formula_structural   RbTh3F13
_chemical_formula_sum   'Rb2 Th6 F26'
_cell_volume   509.22050679
_cell_formula_units_Z   2
loop_
 _symmetry_equiv_pos_site_id
 _symmetry_equiv_pos_as_xyz
  1  'x, y, z'
loop_
 _atom_site_type_symbol
 _atom_site_label
 _atom_site_symmetry_multiplicity
 _atom_site_fract_x
 _atom_site_fract_y
 _atom_site_fract_z
 _atom_site_occupancy
  Rb  Rb0  1  0.69283217  0.50000000  0.02174016  1
  Rb  Rb1  1  0.19283317  0.50000000  0.97825884  1
  Th  Th2  1  0.92479106  0.24403758  0.52233229  1
  Th  Th3  1  0.42479006  0.75596142  0.47766671  1
  Th  Th4  1  0.92479106  0.75596142  0.52233229  1
  Th  Th5  1  0.42479006  0.24403758  0.47766671  1
  Th  Th6  1  0.04759085  0.00000000  0.01360014  1
  Th  Th7  1  0.54758985  0.00000000  0.98640086  1
  F  F8  1  0.93805141  0.50000000  0.34713209  1
  F  F9  1  0.43805041  0.50000000  0.65286691  1
  F  F10  1  0.67975166  0.31315596  0.43232583  1
  F  F11  1  0.17975366  0.68684304  0.56767517  1
  F  F12  1  0.67975166  0.68684304  0.43232583  1
  F  F13  1  0.17975366  0.31315596  0.56767517  1
  F  F14  1  0.06080111  0.77692602  0.23405937  1
  F  F15  1  0.56080011  0.22307498  0.76594163  1
  F  F16  1  0.06080111  0.22307498  0.23405937  1
  F  F17  1  0.56080011  0.77692602  0.76594163  1
  F  F18  1  0.47325314  0.75967725  0.15820830  1
  F  F19  1  0.97325314  0.24032375  0.84179270  1
  F  F20  1  0.47325314  0.24032375  0.15820830  1
  F  F21  1  0.97325314  0.75967725  0.84179270  1
  F  F22  1  0.75244263  0.15382866  0.04905664  1
  F  F23  1  0.25244363  0.84617134  0.95094536  1
  F  F24  1  0.75244263  0.84617134  0.04905664  1
  F  F25  1  0.25244363  0.15382866  0.95094536  1
  F  F26  1  0.36786155  0.50000000  0.31991830  1
  F  F27  1  0.86786155  0.50000000  0.68008170  1
  F  F28  1  0.78908314  0.00000000  0.66475739  1
  F  F29  1  0.28908314  0.00000000  0.33524161  1
  F  F30  1  0.89229343  0.00000000  0.33603834  1
  F  F31  1  0.39229343  0.00000000  0.66396466  1
  F  F32  1  0.56870724  0.00000000  0.36503051  1
  F  F33  1  0.06870624  0.00000000  0.63496949  1
