# generated using pymatgen
data_LiNi2(PO3)5
_symmetry_space_group_name_H-M   'P 1'
_cell_length_a   5.13678775
_cell_length_b   13.02363331
_cell_length_c   8.53482353
_cell_angle_alpha   90.00000000
_cell_angle_beta   102.06403933
_cell_angle_gamma   90.00000000
_symmetry_Int_Tables_number   1
_chemical_formula_structural   LiNi2(PO3)5
_chemical_formula_sum   'Li2 Ni4 P10 O30'
_cell_volume   558.36637910
_cell_formula_units_Z   2
loop_
 _symmetry_equiv_pos_site_id
 _symmetry_equiv_pos_as_xyz
  1  'x, y, z'
loop_
 _atom_site_type_symbol
 _atom_site_label
 _atom_site_symmetry_multiplicity
 _atom_site_fract_x
 _atom_site_fract_y
 _atom_site_fract_z
 _atom_site_occupancy
  Li  Li0  1  0.50000000  0.00000000  0.50000000  1
  Li  Li1  1  0.50000000  0.50000000  0.50000000  1
  Ni  Ni2  1  0.13430774  0.08653086  0.14926648  1
  Ni  Ni3  1  0.13430774  0.41346914  0.14926648  1
  Ni  Ni4  1  0.86569226  0.58653086  0.85073352  1
  Ni  Ni5  1  0.86569226  0.91346914  0.85073352  1
  P  P6  1  0.02551751  0.63784931  0.50572956  1
  P  P7  1  0.02551751  0.86215069  0.50572956  1
  P  P8  1  0.34326301  0.07010586  0.81250404  1
  P  P9  1  0.34326301  0.42989414  0.81250404  1
  P  P10  1  0.44202551  0.75000000  0.97264015  1
  P  P11  1  0.55797449  0.25000000  0.02735985  1
  P  P12  1  0.65673699  0.57010586  0.18749596  1
  P  P13  1  0.65673699  0.92989414  0.18749596  1
  P  P14  1  0.97448249  0.36215069  0.49427044  1
  P  P15  1  0.97448249  0.13784931  0.49427044  1
  O  O16  1  0.04898303  0.25000000  0.44678940  1
  O  O17  1  0.14956105  0.03785288  0.91769080  1
  O  O18  1  0.14956105  0.46214712  0.91769080  1
  O  O19  1  0.16383474  0.75000000  0.87576611  1
  O  O20  1  0.18905315  0.13150767  0.66469584  1
  O  O21  1  0.18905315  0.36849233  0.66469584  1
  O  O22  1  0.07856262  0.42887262  0.37463770  1
  O  O23  1  0.07856262  0.07112738  0.37463770  1
  O  O24  1  0.29952136  0.62756026  0.48029705  1
  O  O25  1  0.29952136  0.87243974  0.48029705  1
  O  O26  1  0.54199700  0.15381543  0.90702459  1
  O  O27  1  0.54199700  0.34618457  0.90702459  1
  O  O28  1  0.51403334  0.98747841  0.76340712  1
  O  O29  1  0.51403334  0.51252159  0.76340712  1
  O  O30  1  0.31905022  0.25000000  0.10578084  1
  O  O31  1  0.68094978  0.75000000  0.89421916  1
  O  O32  1  0.48596666  0.48747841  0.23659288  1
  O  O33  1  0.48596666  0.01252159  0.23659288  1
  O  O34  1  0.45800300  0.65381543  0.09297541  1
  O  O35  1  0.45800300  0.84618457  0.09297541  1
  O  O36  1  0.70047864  0.12756026  0.51970295  1
  O  O37  1  0.70047864  0.37243974  0.51970295  1
  O  O38  1  0.92143738  0.57112738  0.62536230  1
  O  O39  1  0.92143738  0.92887262  0.62536230  1
  O  O40  1  0.81094685  0.63150767  0.33530416  1
  O  O41  1  0.81094685  0.86849233  0.33530416  1
  O  O42  1  0.83616526  0.25000000  0.12423389  1
  O  O43  1  0.85043895  0.53785288  0.08230920  1
  O  O44  1  0.85043895  0.96214712  0.08230920  1
  O  O45  1  0.95101697  0.75000000  0.55321060  1
