# generated using pymatgen
data_Np2Co17
_symmetry_space_group_name_H-M   'P 1'
_cell_length_a   7.84636023
_cell_length_b   8.08232649
_cell_length_c   8.08232649
_cell_angle_alpha   120.01415727
_cell_angle_beta   90.00000000
_cell_angle_gamma   90.00000000
_symmetry_Int_Tables_number   1
_chemical_formula_structural   Np2Co17
_chemical_formula_sum   'Np4 Co34'
_cell_volume   443.82287450
_cell_formula_units_Z   2
loop_
 _symmetry_equiv_pos_site_id
 _symmetry_equiv_pos_as_xyz
  1  'x, y, z'
loop_
 _atom_site_type_symbol
 _atom_site_label
 _atom_site_symmetry_multiplicity
 _atom_site_fract_x
 _atom_site_fract_y
 _atom_site_fract_z
 _atom_site_occupancy
  Np  Np0  1  0.75000000  0.00023269  -0.00023269  1
  Np  Np1  1  0.25000000  -0.00023269  0.00023269  1
  Np  Np2  1  0.25000000  0.66680581  0.33319419  1
  Np  Np3  1  0.75000000  0.33319419  0.66680581  1
  Co  Co4  1  0.60018234  0.66664757  0.33335243  1
  Co  Co5  1  0.39981766  0.33335243  0.66664757  1
  Co  Co6  1  0.10018234  0.33335243  0.66664757  1
  Co  Co7  1  0.89981766  0.66664757  0.33335243  1
  Co  Co8  1  0.50000000  0.50000000  0.00000000  1
  Co  Co9  1  0.50000000  0.50000000  0.50000000  1
  Co  Co10  1  0.50000000  0.00000000  0.50000000  1
  Co  Co11  1  0.00000000  0.50000000  0.00000000  1
  Co  Co12  1  0.00000000  0.50000000  0.50000000  1
  Co  Co13  1  0.00000000  0.00000000  0.50000000  1
  Co  Co14  1  0.75000000  0.67623519  0.04142035  1
  Co  Co15  1  0.75000000  0.36522049  0.32394778  1
  Co  Co16  1  0.75000000  0.95885552  0.63496203  1
  Co  Co17  1  0.75000000  0.36503797  0.04114448  1
  Co  Co18  1  0.75000000  0.95857965  0.32376481  1
  Co  Co19  1  0.75000000  0.67605222  0.63477951  1
  Co  Co20  1  0.25000000  0.32376481  0.95857965  1
  Co  Co21  1  0.25000000  0.63477951  0.67605222  1
  Co  Co22  1  0.25000000  0.04114448  0.36503797  1
  Co  Co23  1  0.25000000  0.63496203  0.95885552  1
  Co  Co24  1  0.25000000  0.04142035  0.67623519  1
  Co  Co25  1  0.25000000  0.32394778  0.36522049  1
  Co  Co26  1  0.47429559  0.83541253  0.67071620  1
  Co  Co27  1  0.47409523  0.83534118  0.16465882  1
  Co  Co28  1  0.47429559  0.32928380  0.16458747  1
  Co  Co29  1  0.52570441  0.16458747  0.32928380  1
  Co  Co30  1  0.52590477  0.16465882  0.83534118  1
  Co  Co31  1  0.52570441  0.67071620  0.83541253  1
  Co  Co32  1  0.97429559  0.16458747  0.32928380  1
  Co  Co33  1  0.97409523  0.16465882  0.83534118  1
  Co  Co34  1  0.97429559  0.67071620  0.83541253  1
  Co  Co35  1  0.02570441  0.83541253  0.67071620  1
  Co  Co36  1  0.02590477  0.83534118  0.16465882  1
  Co  Co37  1  0.02570441  0.32928380  0.16458747  1
