# generated using pymatgen
data_Mg14MnCr
_symmetry_space_group_name_H-M   'P 1'
_cell_length_a   6.31386046
_cell_length_b   6.31385995
_cell_length_c   10.02625703
_cell_angle_alpha   90.00000000
_cell_angle_beta   90.00000000
_cell_angle_gamma   120.00000265
_symmetry_Int_Tables_number   1
_chemical_formula_structural   Mg14MnCr
_chemical_formula_sum   'Mg14 Mn1 Cr1'
_cell_volume   346.14604846
_cell_formula_units_Z   1
loop_
 _symmetry_equiv_pos_site_id
 _symmetry_equiv_pos_as_xyz
  1  'x, y, z'
loop_
 _atom_site_type_symbol
 _atom_site_label
 _atom_site_symmetry_multiplicity
 _atom_site_fract_x
 _atom_site_fract_y
 _atom_site_fract_z
 _atom_site_occupancy
  Mg  Mg0  1  0.16789800  0.83394850  0.12500000  1
  Mg  Mg1  1  0.16843073  0.83421486  0.62500000  1
  Mg  Mg2  1  0.66605150  0.33210200  0.12500000  1
  Mg  Mg3  1  0.66578514  0.33156927  0.62500000  1
  Mg  Mg4  1  0.66605150  0.83394850  0.12500000  1
  Mg  Mg5  1  0.66578514  0.83421486  0.62500000  1
  Mg  Mg6  1  0.32920395  0.17079605  0.37412090  1
  Mg  Mg7  1  0.32920395  0.17079605  0.87587910  1
  Mg  Mg8  1  0.32920395  0.65840890  0.37412090  1
  Mg  Mg9  1  0.32920395  0.65840890  0.87587910  1
  Mg  Mg10  1  0.84159110  0.17079605  0.37412090  1
  Mg  Mg11  1  0.84159110  0.17079605  0.87587910  1
  Mg  Mg12  1  0.83333300  0.66666700  0.37434733  1
  Mg  Mg13  1  0.83333300  0.66666700  0.87565267  1
  Mn  Mn14  1  0.16666700  0.33333300  0.12500000  1
  Cr  Cr15  1  0.16666700  0.33333300  0.62500000  1
