# generated using pymatgen
data_Li2Ni3P9O28
_symmetry_space_group_name_H-M   'P 1'
_cell_length_a   7.00766910
_cell_length_b   9.08640209
_cell_length_c   9.01063427
_cell_angle_alpha   69.43501685
_cell_angle_beta   99.35786239
_cell_angle_gamma   69.94636210
_symmetry_Int_Tables_number   1
_chemical_formula_structural   Li2Ni3P9O28
_chemical_formula_sum   'Li2 Ni3 P9 O28'
_cell_volume   477.77028534
_cell_formula_units_Z   1
loop_
 _symmetry_equiv_pos_site_id
 _symmetry_equiv_pos_as_xyz
  1  'x, y, z'
loop_
 _atom_site_type_symbol
 _atom_site_label
 _atom_site_symmetry_multiplicity
 _atom_site_fract_x
 _atom_site_fract_y
 _atom_site_fract_z
 _atom_site_occupancy
  Li  Li0  1  0.94132585  0.53585983  0.96047330  1
  Li  Li1  1  0.55867415  0.96414017  0.03952670  1
  Ni  Ni2  1  0.75000000  0.75000000  0.50000000  1
  Ni  Ni3  1  0.49457961  0.50274479  0.98874680  1
  Ni  Ni4  1  0.00542039  0.99725521  0.01125320  1
  P  P5  1  0.55091941  0.30501076  0.75533349  1
  P  P6  1  0.04227109  0.81577019  0.76205088  1
  P  P7  1  0.93533666  0.33435792  0.69917368  1
  P  P8  1  0.42039092  0.84974206  0.68441757  1
  P  P9  1  0.25000000  0.25000000  0.50000000  1
  P  P10  1  0.56466334  0.16564208  0.30082632  1
  P  P11  1  0.07960908  0.65025794  0.31558243  1
  P  P12  1  0.94908059  0.19498924  0.24466651  1
  P  P13  1  0.45772891  0.68422981  0.23794912  1
  O  O14  1  0.66083647  0.12956429  0.90906732  1
  O  O15  1  0.16115633  0.63390840  0.90792388  1
  O  O16  1  0.55801372  0.72251277  0.86450639  1
  O  O17  1  0.06558803  0.20291470  0.87942170  1
  O  O18  1  0.97768114  0.96503097  0.81092025  1
  O  O19  1  0.47630647  0.46227241  0.78962889  1
  O  O20  1  0.89233265  0.51367079  0.69344006  1
  O  O21  1  0.37553954  0.04062890  0.66452756  1
  O  O22  1  0.83303286  0.84501960  0.64857439  1
  O  O23  1  0.35348341  0.32272573  0.62790823  1
  O  O24  1  0.71038844  0.32445001  0.64641367  1
  O  O25  1  0.18894460  0.84934898  0.64682280  1
  O  O26  1  0.48543378  0.80970984  0.54464209  1
  O  O27  1  0.02494956  0.29471909  0.56229613  1
  O  O28  1  0.01456622  0.69029016  0.45535791  1
  O  O29  1  0.47505044  0.20528091  0.43770387  1
  O  O30  1  0.78961156  0.17554999  0.35358633  1
  O  O31  1  0.31105540  0.65065102  0.35317720  1
  O  O32  1  0.66696714  0.65498040  0.35142561  1
  O  O33  1  0.14651559  0.17727427  0.37209177  1
  O  O34  1  0.60766735  0.98632921  0.30655994  1
  O  O35  1  0.12446046  0.45937110  0.33547244  1
  O  O36  1  0.52231886  0.53496903  0.18907975  1
  O  O37  1  0.02369353  0.03772759  0.21037111  1
  O  O38  1  0.94198628  0.77748723  0.13549361  1
  O  O39  1  0.43441197  0.29708530  0.12057830  1
  O  O40  1  0.83916353  0.37043571  0.09093268  1
  O  O41  1  0.33884367  0.86609160  0.09207612  1
