# generated using pymatgen
data_LiMn(PO4)2
_symmetry_space_group_name_H-M   'P 1'
_cell_length_a   4.80159399
_cell_length_b   17.05908237
_cell_length_c   6.61697026
_cell_angle_alpha   90.00000000
_cell_angle_beta   94.25429412
_cell_angle_gamma   90.00000000
_symmetry_Int_Tables_number   1
_chemical_formula_structural   LiMn(PO4)2
_chemical_formula_sum   'Li4 Mn4 P8 O32'
_cell_volume   540.50782908
_cell_formula_units_Z   4
loop_
 _symmetry_equiv_pos_site_id
 _symmetry_equiv_pos_as_xyz
  1  'x, y, z'
loop_
 _atom_site_type_symbol
 _atom_site_label
 _atom_site_symmetry_multiplicity
 _atom_site_fract_x
 _atom_site_fract_y
 _atom_site_fract_z
 _atom_site_occupancy
  Li  Li0  1  0.21379376  0.88492735  0.50052186  1
  Li  Li1  1  0.28620624  0.38492735  0.99947814  1
  Li  Li2  1  0.71379376  0.61507265  0.00052186  1
  Li  Li3  1  0.78620624  0.11507265  0.49947814  1
  Mn  Mn4  1  0.20558114  0.86976193  0.01224542  1
  Mn  Mn5  1  0.29441886  0.36976193  0.48775458  1
  Mn  Mn6  1  0.70558114  0.63023807  0.51224542  1
  Mn  Mn7  1  0.79441886  0.13023807  0.98775458  1
  P  P8  1  0.17291972  0.71218843  0.27074617  1
  P  P9  1  0.22578456  0.53434704  0.72595174  1
  P  P10  1  0.27421544  0.03434704  0.77404826  1
  P  P11  1  0.32708028  0.21218843  0.22925383  1
  P  P12  1  0.67291972  0.78781157  0.77074617  1
  P  P13  1  0.72578456  0.96565296  0.22595174  1
  P  P14  1  0.77421544  0.46565296  0.27404826  1
  P  P15  1  0.82708028  0.28781157  0.72925383  1
  O  O16  1  0.01027181  0.19246199  0.18703957  1
  O  O17  1  0.02156063  0.69287124  0.46533890  1
  O  O18  1  0.05938702  0.67164111  0.07792956  1
  O  O19  1  0.11928523  0.07047296  0.94618769  1
  O  O20  1  0.08106082  0.43443416  0.28756058  1
  O  O21  1  0.14849594  0.05233822  0.55673789  1
  O  O22  1  0.13704656  0.80350901  0.24413945  1
  O  O23  1  0.21642897  0.44308478  0.70569533  1
  O  O24  1  0.28357103  0.94308478  0.79430467  1
  O  O25  1  0.35150406  0.55233822  0.94326211  1
  O  O26  1  0.38071477  0.57047296  0.55381231  1
  O  O27  1  0.36295344  0.30350901  0.25586055  1
  O  O28  1  0.41893918  0.93443416  0.21243942  1
  O  O29  1  0.44061298  0.17164111  0.42207044  1
  O  O30  1  0.51027181  0.30753801  0.68703957  1
  O  O31  1  0.47843937  0.19287124  0.03466110  1
  O  O32  1  0.52156063  0.80712876  0.96533890  1
  O  O33  1  0.48972819  0.69246199  0.31296043  1
  O  O34  1  0.55938702  0.82835889  0.57792956  1
  O  O35  1  0.58106082  0.06556584  0.78756058  1
  O  O36  1  0.63704656  0.69649099  0.74413945  1
  O  O37  1  0.61928523  0.42952704  0.44618769  1
  O  O38  1  0.64849594  0.44766178  0.05673789  1
  O  O39  1  0.71642897  0.05691522  0.20569533  1
  O  O40  1  0.78357103  0.55691522  0.29430467  1
  O  O41  1  0.86295344  0.19649099  0.75586055  1
  O  O42  1  0.85150406  0.94766178  0.44326211  1
  O  O43  1  0.91893918  0.56556584  0.71243942  1
  O  O44  1  0.88071477  0.92952704  0.05381231  1
  O  O45  1  0.94061298  0.32835889  0.92207044  1
  O  O46  1  0.97843937  0.30712876  0.53466110  1
  O  O47  1  0.98972819  0.80753801  0.81296043  1
