# generated using pymatgen
data_Ba5Ru2O11
_symmetry_space_group_name_H-M   'P 1'
_cell_length_a   6.05838425
_cell_length_b   6.07543155
_cell_length_c   18.27009760
_cell_angle_alpha   90.46765122
_cell_angle_beta   89.76490036
_cell_angle_gamma   120.09447918
_symmetry_Int_Tables_number   1
_chemical_formula_structural   Ba5Ru2O11
_chemical_formula_sum   'Ba10 Ru4 O22'
_cell_volume   581.80403416
_cell_formula_units_Z   2
loop_
 _symmetry_equiv_pos_site_id
 _symmetry_equiv_pos_as_xyz
  1  'x, y, z'
loop_
 _atom_site_type_symbol
 _atom_site_label
 _atom_site_symmetry_multiplicity
 _atom_site_fract_x
 _atom_site_fract_y
 _atom_site_fract_z
 _atom_site_occupancy
  Ba  Ba0  1  0.33056241  0.65965445  0.01663562  1
  Ba  Ba1  1  0.33246155  0.66638203  0.25000751  1
  Ba  Ba2  1  0.00119287  0.00255313  0.13945764  1
  Ba  Ba3  1  0.00119761  0.99870539  0.36054509  1
  Ba  Ba4  1  0.99878113  0.00134938  0.63945429  1
  Ba  Ba5  1  0.99878999  0.99751048  0.86054506  1
  Ba  Ba6  1  0.33056219  0.67090192  0.48336744  1
  Ba  Ba7  1  0.66943976  0.32907926  0.51664057  1
  Ba  Ba8  1  0.66941189  0.34035091  0.98336499  1
  Ba  Ba9  1  0.66754654  0.33390868  0.75000708  1
  Ru  Ru10  1  0.33385859  0.66742999  0.67317519  1
  Ru  Ru11  1  0.33379350  0.66639706  0.82683000  1
  Ru  Ru12  1  0.66618465  0.33361870  0.17318806  1
  Ru  Ru13  1  0.66617376  0.33257559  0.32681187  1
  O  O14  1  0.07137104  0.92868230  0.50073499  1
  O  O15  1  0.02181350  0.51078993  0.88083813  1
  O  O16  1  0.02192966  0.51074291  0.61914060  1
  O  O17  1  0.18679799  0.81442514  0.75051857  1
  O  O18  1  0.48772542  0.97507655  0.88461406  1
  O  O19  1  0.18690880  0.37237973  0.74947177  1
  O  O20  1  0.07133645  0.14264701  0.99926609  1
  O  O21  1  0.48940409  0.97747319  0.61930142  1
  O  O22  1  0.62986163  0.81498336  0.75000724  1
  O  O23  1  0.48811306  0.51294281  0.61540098  1
  O  O24  1  0.48950871  0.51205444  0.88069536  1
  O  O25  1  0.51045968  0.48793803  0.11929192  1
  O  O26  1  0.51182660  0.48691611  0.38462167  1
  O  O27  1  0.37012550  0.18492222  0.24999593  1
  O  O28  1  0.81301924  0.62762873  0.25052692  1
  O  O29  1  0.92866914  0.85734172  0.00072990  1
  O  O30  1  0.51226672  0.02491143  0.11538763  1
  O  O31  1  0.51085983  0.02248557  0.38068393  1
  O  O32  1  0.81323042  0.18563421  0.24947119  1
  O  O33  1  0.97814705  0.48937668  0.38084256  1
  O  O34  1  0.97818527  0.48922934  0.11916149  1
  O  O35  1  0.92868675  0.07130165  0.49926626  1
