# generated using pymatgen
data_Eu2SiO5
_symmetry_space_group_name_H-M   'P 1'
_cell_length_a   10.65419495
_cell_length_b   10.98028670
_cell_length_c   3.74619111
_cell_angle_alpha   90.00000000
_cell_angle_beta   90.00000000
_cell_angle_gamma   90.00000000
_symmetry_Int_Tables_number   1
_chemical_formula_structural   Eu2SiO5
_chemical_formula_sum   'Eu8 Si4 O20'
_cell_volume   438.25234441
_cell_formula_units_Z   4
loop_
 _symmetry_equiv_pos_site_id
 _symmetry_equiv_pos_as_xyz
  1  'x, y, z'
loop_
 _atom_site_type_symbol
 _atom_site_label
 _atom_site_symmetry_multiplicity
 _atom_site_fract_x
 _atom_site_fract_y
 _atom_site_fract_z
 _atom_site_occupancy
  Eu  Eu0  1  0.09454052  0.71080552  0.25000000  1
  Eu  Eu1  1  0.13500224  0.05800281  0.25000000  1
  Eu  Eu2  1  0.36499776  0.55800281  0.75000000  1
  Eu  Eu3  1  0.40545948  0.21080552  0.75000000  1
  Eu  Eu4  1  0.59454052  0.78919448  0.25000000  1
  Eu  Eu5  1  0.63500224  0.44199719  0.25000000  1
  Eu  Eu6  1  0.86499776  0.94199719  0.75000000  1
  Eu  Eu7  1  0.90545948  0.28919448  0.75000000  1
  Si  Si8  1  0.18242169  0.37362129  0.25000000  1
  Si  Si9  1  0.31757831  0.87362129  0.75000000  1
  Si  Si10  1  0.68242169  0.12637871  0.25000000  1
  Si  Si11  1  0.81757831  0.62637871  0.75000000  1
  O  O12  1  0.00887597  0.10290010  0.75000000  1
  O  O13  1  0.03156482  0.34352414  0.25000000  1
  O  O14  1  0.22435349  0.52165715  0.25000000  1
  O  O15  1  0.21559466  0.37730212  0.75000000  1
  O  O16  1  0.23103061  0.74398506  0.75000000  1
  O  O17  1  0.26896939  0.24398506  0.25000000  1
  O  O18  1  0.28440534  0.87730212  0.25000000  1
  O  O19  1  0.27564651  0.02165715  0.75000000  1
  O  O20  1  0.46843518  0.84352414  0.75000000  1
  O  O21  1  0.49112403  0.60290010  0.25000000  1
  O  O22  1  0.50887597  0.39709990  0.75000000  1
  O  O23  1  0.53156482  0.15647586  0.25000000  1
  O  O24  1  0.72435349  0.97834285  0.25000000  1
  O  O25  1  0.71559466  0.12269788  0.75000000  1
  O  O26  1  0.73103061  0.75601494  0.75000000  1
  O  O27  1  0.76896939  0.25601494  0.25000000  1
  O  O28  1  0.78440534  0.62269788  0.25000000  1
  O  O29  1  0.77564651  0.47834285  0.75000000  1
  O  O30  1  0.96843518  0.65647586  0.75000000  1
  O  O31  1  0.99112403  0.89709990  0.25000000  1
