# generated using pymatgen
data_V2Si4O11
_symmetry_space_group_name_H-M   'P 1'
_cell_length_a   8.61889236
_cell_length_b   7.36345690
_cell_length_c   6.99444945
_cell_angle_alpha   104.63618847
_cell_angle_beta   101.29035508
_cell_angle_gamma   99.46959840
_symmetry_Int_Tables_number   1
_chemical_formula_structural   V2Si4O11
_chemical_formula_sum   'V4 Si8 O22'
_cell_volume   410.33322990
_cell_formula_units_Z   2
loop_
 _symmetry_equiv_pos_site_id
 _symmetry_equiv_pos_as_xyz
  1  'x, y, z'
loop_
 _atom_site_type_symbol
 _atom_site_label
 _atom_site_symmetry_multiplicity
 _atom_site_fract_x
 _atom_site_fract_y
 _atom_site_fract_z
 _atom_site_occupancy
  V  V0  1  0.38634189  0.62261514  0.88398581  1
  V  V1  1  0.38555617  0.62492358  0.38727547  1
  V  V2  1  0.61444383  0.37507742  0.61272453  1
  V  V3  1  0.61365811  0.37738486  0.11601419  1
  Si  Si4  1  0.02280864  0.38062667  0.23060607  1
  Si  Si5  1  0.22402318  0.21852092  0.95761345  1
  Si  Si6  1  0.22114798  0.22081278  0.51962850  1
  Si  Si7  1  0.60356062  0.98209047  0.77128289  1
  Si  Si8  1  0.39643938  0.01790953  0.22871711  1
  Si  Si9  1  0.77885202  0.77918722  0.48037150  1
  Si  Si10  1  0.77597682  0.78147908  0.04238655  1
  Si  Si11  1  0.97719136  0.61937333  0.76939393  1
  O  O12  1  0.16076323  0.59309761  0.81102056  1
  O  O13  1  0.05662619  0.25856961  0.39648904  1
  O  O14  1  0.16035858  0.58185679  0.30589463  1
  O  O15  1  0.05839173  0.24646400  0.02338467  1
  O  O16  1  0.18490718  0.16318509  0.71420366  1
  O  O17  1  0.28473470  0.04161082  0.39307559  1
  O  O18  1  0.37383996  0.41855360  0.58681843  1
  O  O19  1  0.44525911  0.79618294  0.67957204  1
  O  O20  1  0.42901689  0.79973538  0.18112855  1
  O  O21  1  0.29665751  0.04241208  0.01591076  1
  O  O22  1  0.37348154  0.41834409  0.06828422  1
  O  O23  1  0.62651846  0.58165591  0.93171578  1
  O  O24  1  0.70334249  0.95758792  0.98408924  1
  O  O25  1  0.57098311  0.20026462  0.81887145  1
  O  O26  1  0.55474089  0.20381706  0.32042796  1
  O  O27  1  0.62616004  0.58144640  0.41318157  1
  O  O28  1  0.71526530  0.95838918  0.60692441  1
  O  O29  1  0.81509282  0.83681491  0.28579634  1
  O  O30  1  0.94160827  0.75353600  0.97661533  1
  O  O31  1  0.83964142  0.41814321  0.69410537  1
  O  O32  1  0.94337381  0.74143039  0.60351096  1
  O  O33  1  0.83923677  0.40690239  0.18897944  1
