# generated using pymatgen
data_NiPd3
_symmetry_space_group_name_H-M   'P 1'
_cell_length_a   5.38998066
_cell_length_b   5.38998020
_cell_length_c   4.42051399
_cell_angle_alpha   90.00000000
_cell_angle_beta   90.00000000
_cell_angle_gamma   119.99999680
_symmetry_Int_Tables_number   1
_chemical_formula_structural   NiPd3
_chemical_formula_sum   'Ni2 Pd6'
_cell_volume   111.21869420
_cell_formula_units_Z   2
loop_
 _symmetry_equiv_pos_site_id
 _symmetry_equiv_pos_as_xyz
  1  'x, y, z'
loop_
 _atom_site_type_symbol
 _atom_site_label
 _atom_site_symmetry_multiplicity
 _atom_site_fract_x
 _atom_site_fract_y
 _atom_site_fract_z
 _atom_site_occupancy
  Ni  Ni0  1  0.66666600  0.33333300  0.25000100  1
  Ni  Ni1  1  0.33333400  0.66666800  0.75000200  1
  Pd  Pd2  1  0.83070393  0.16929607  0.75000200  1
  Pd  Pd3  1  0.33859114  0.16929607  0.75000200  1
  Pd  Pd4  1  0.83070393  0.66140886  0.75000200  1
  Pd  Pd5  1  0.16929407  0.83070493  0.25000100  1
  Pd  Pd6  1  0.66140886  0.83070493  0.25000100  1
  Pd  Pd7  1  0.16929507  0.33859014  0.25000100  1
