# generated using pymatgen
data_Ho3Hg
_symmetry_space_group_name_H-M   'P 1'
_cell_length_a   4.78693824
_cell_length_b   4.78694681
_cell_length_c   4.78695929
_cell_angle_alpha   89.99984237
_cell_angle_beta   90.00002873
_cell_angle_gamma   89.99975727
_symmetry_Int_Tables_number   1
_chemical_formula_structural   Ho3Hg
_chemical_formula_sum   'Ho3 Hg1'
_cell_volume   109.69230443
_cell_formula_units_Z   1
loop_
 _symmetry_equiv_pos_site_id
 _symmetry_equiv_pos_as_xyz
  1  'x, y, z'
loop_
 _atom_site_type_symbol
 _atom_site_label
 _atom_site_symmetry_multiplicity
 _atom_site_fract_x
 _atom_site_fract_y
 _atom_site_fract_z
 _atom_site_occupancy
  Ho  Ho0  1  0.99999887  0.50000119  0.50000108  1
  Ho  Ho1  1  0.50000089  0.99999957  0.49999953  1
  Ho  Ho2  1  0.50000205  0.50000133  0.00000131  1
  Hg  Hg3  1  0.00000019  0.99999991  0.00000008  1
