# generated using pymatgen
data_Mn3Be
_symmetry_space_group_name_H-M   'P 1'
_cell_length_a   4.79077122
_cell_length_b   4.79077069
_cell_length_c   4.03335684
_cell_angle_alpha   90.00000000
_cell_angle_beta   90.00000000
_cell_angle_gamma   119.99999651
_symmetry_Int_Tables_number   1
_chemical_formula_structural   Mn3Be
_chemical_formula_sum   'Mn6 Be2'
_cell_volume   80.16930326
_cell_formula_units_Z   2
loop_
 _symmetry_equiv_pos_site_id
 _symmetry_equiv_pos_as_xyz
  1  'x, y, z'
loop_
 _atom_site_type_symbol
 _atom_site_label
 _atom_site_symmetry_multiplicity
 _atom_site_fract_x
 _atom_site_fract_y
 _atom_site_fract_z
 _atom_site_occupancy
  Mn  Mn0  1  0.17217273  0.34434546  0.25000100  1
  Mn  Mn1  1  0.65565554  0.82782627  0.25000100  1
  Mn  Mn2  1  0.17217073  0.82782627  0.25000100  1
  Mn  Mn3  1  0.82782827  0.65565454  0.75000100  1
  Mn  Mn4  1  0.34434446  0.17217173  0.75000100  1
  Mn  Mn5  1  0.82782727  0.17217173  0.75000100  1
  Be  Be6  1  0.33333300  0.66666600  0.75000100  1
  Be  Be7  1  0.66666700  0.33333200  0.25000100  1
