# generated using pymatgen
data_CsScBr3
_symmetry_space_group_name_H-M   'P 1'
_cell_length_a   5.51935186
_cell_length_b   5.52396854
_cell_length_c   5.52290281
_cell_angle_alpha   90.01028793
_cell_angle_beta   90.02789052
_cell_angle_gamma   89.98919473
_symmetry_Int_Tables_number   1
_chemical_formula_structural   CsScBr3
_chemical_formula_sum   'Cs1 Sc1 Br3'
_cell_volume   168.38624487
_cell_formula_units_Z   1
loop_
 _symmetry_equiv_pos_site_id
 _symmetry_equiv_pos_as_xyz
  1  'x, y, z'
loop_
 _atom_site_type_symbol
 _atom_site_label
 _atom_site_symmetry_multiplicity
 _atom_site_fract_x
 _atom_site_fract_y
 _atom_site_fract_z
 _atom_site_occupancy
  Cs  Cs0  1  0.99959551  0.00574717  0.99940544  1
  Sc  Sc1  1  0.50047258  0.51457378  0.50346075  1
  Br  Br2  1  0.00042327  0.51323301  0.50434981  1
  Br  Br3  1  0.49802102  0.01430433  0.49931820  1
  Br  Br4  1  0.50148663  0.51213971  0.00346981  1
