# generated using pymatgen
data_CaV4O8
_symmetry_space_group_name_H-M   'P 1'
_cell_length_a   3.10547213
_cell_length_b   7.35215061
_cell_length_c   7.25599388
_cell_angle_alpha   82.83335495
_cell_angle_beta   77.55413310
_cell_angle_gamma   77.64964041
_symmetry_Int_Tables_number   1
_chemical_formula_structural   CaV4O8
_chemical_formula_sum   'Ca1 V4 O8'
_cell_volume   157.49292859
_cell_formula_units_Z   1
loop_
 _symmetry_equiv_pos_site_id
 _symmetry_equiv_pos_as_xyz
  1  'x, y, z'
loop_
 _atom_site_type_symbol
 _atom_site_label
 _atom_site_symmetry_multiplicity
 _atom_site_fract_x
 _atom_site_fract_y
 _atom_site_fract_z
 _atom_site_occupancy
  Ca  Ca0  1  0.38395326  0.10321721  0.13854393  1
  V  V1  1  0.63373112  0.17627151  0.55488023  1
  V  V2  1  0.14670332  0.51002283  0.20805640  1
  V  V3  1  0.83805004  0.49226192  0.83403863  1
  V  V4  1  0.34767072  0.80971850  0.50758718  1
  O  O5  1  0.84891820  0.68076798  0.62938702  1
  O  O6  1  0.46186977  0.33287082  0.74383272  1
  O  O7  1  0.53479673  0.64150630  0.29530407  1
  O  O8  1  0.14827805  0.30185807  0.40316367  1
  O  O9  1  0.15453112  0.03082832  0.66053186  1
  O  O10  1  0.78515470  0.34164237  0.09401030  1
  O  O11  1  0.83708635  0.98140761  0.35665833  1
  O  O12  1  0.20934763  0.62026955  0.96731265  1
