# generated using pymatgen
data_CuO2F
_symmetry_space_group_name_H-M   'P 1'
_cell_length_a   3.18199113
_cell_length_b   4.62407114
_cell_length_c   5.89627473
_cell_angle_alpha   90.00000000
_cell_angle_beta   90.00000000
_cell_angle_gamma   90.00000000
_symmetry_Int_Tables_number   1
_chemical_formula_structural   CuO2F
_chemical_formula_sum   'Cu2 O4 F2'
_cell_volume   86.75633207
_cell_formula_units_Z   2
loop_
 _symmetry_equiv_pos_site_id
 _symmetry_equiv_pos_as_xyz
  1  'x, y, z'
loop_
 _atom_site_type_symbol
 _atom_site_label
 _atom_site_symmetry_multiplicity
 _atom_site_fract_x
 _atom_site_fract_y
 _atom_site_fract_z
 _atom_site_occupancy
  Cu  Cu0  1  0.00000000  0.67611568  0.20646440  1
  Cu  Cu1  1  0.50000000  0.17611568  0.79353560  1
  O  O2  1  0.00000000  0.99610886  0.61871688  1
  O  O3  1  0.50000000  0.49610886  0.38128312  1
  O  O4  1  0.50000000  0.52136217  0.60336720  1
  O  O5  1  0.00000000  0.02136217  0.39663280  1
  F  F6  1  0.00000000  0.35188329  0.98297243  1
  F  F7  1  0.50000000  0.85188329  0.01702757  1
