# generated using pymatgen
data_Ta2Bi2O9
_symmetry_space_group_name_H-M   'P 1'
_cell_length_a   5.40949787
_cell_length_b   5.53818532
_cell_length_c   12.45523334
_cell_angle_alpha   90.00000000
_cell_angle_beta   102.54214529
_cell_angle_gamma   90.00000000
_symmetry_Int_Tables_number   1
_chemical_formula_structural   Ta2Bi2O9
_chemical_formula_sum   'Ta4 Bi4 O18'
_cell_volume   364.23936026
_cell_formula_units_Z   2
loop_
 _symmetry_equiv_pos_site_id
 _symmetry_equiv_pos_as_xyz
  1  'x, y, z'
loop_
 _atom_site_type_symbol
 _atom_site_label
 _atom_site_symmetry_multiplicity
 _atom_site_fract_x
 _atom_site_fract_y
 _atom_site_fract_z
 _atom_site_occupancy
  Ta  Ta0  1  0.82413470  0.95724352  0.15402591  1
  Ta  Ta1  1  0.17586530  0.45724352  0.84597409  1
  Ta  Ta2  1  0.32989121  0.45724352  0.15402591  1
  Ta  Ta3  1  0.67010879  0.95724352  0.84597409  1
  Bi  Bi4  1  0.02428272  0.06116689  0.60953644  1
  Bi  Bi5  1  0.41474627  0.06116689  0.39046356  1
  Bi  Bi6  1  0.58525373  0.56116689  0.60953644  1
  Bi  Bi7  1  0.97571728  0.56116689  0.39046356  1
  O  O8  1  0.68681681  0.93911354  0.67959503  1
  O  O9  1  0.56801425  0.16030461  0.20239763  1
  O  O10  1  0.66780466  0.92939827  1.00000000  1
  O  O11  1  0.33219534  0.42939827  0.00000000  1
  O  O12  1  0.36561662  0.16030461  0.79760237  1
  O  O13  1  0.26718548  0.77833101  0.51087986  1
  O  O14  1  0.99277822  0.43911354  0.67959503  1
  O  O15  1  0.95323133  0.71355579  0.85845029  1
  O  O16  1  0.09478104  0.71355579  0.14154971  1
  O  O17  1  0.63438338  0.66030461  0.20239763  1
  O  O18  1  0.31318319  0.43911354  0.32040497  1
  O  O19  1  0.04676867  0.21355579  0.14154971  1
  O  O20  1  0.73281452  0.27833101  0.48912014  1
  O  O21  1  0.43198575  0.66030461  0.79760237  1
  O  O22  1  0.24369437  0.27833101  0.51087986  1
  O  O23  1  0.90521896  0.21355579  0.85845029  1
  O  O24  1  0.00722178  0.93911354  0.32040497  1
  O  O25  1  0.75630563  0.77833101  0.48912014  1
