# generated using pymatgen
data_Ca3Bi2(AsO6)2
_symmetry_space_group_name_H-M   'P 1'
_cell_length_a   5.51660367
_cell_length_b   7.66112212
_cell_length_c   7.20353696
_cell_angle_alpha   103.23301719
_cell_angle_beta   91.56047134
_cell_angle_gamma   88.43409207
_symmetry_Int_Tables_number   1
_chemical_formula_structural   Ca3Bi2(AsO6)2
_chemical_formula_sum   'Ca3 Bi2 As2 O12'
_cell_volume   296.18236017
_cell_formula_units_Z   1
loop_
 _symmetry_equiv_pos_site_id
 _symmetry_equiv_pos_as_xyz
  1  'x, y, z'
loop_
 _atom_site_type_symbol
 _atom_site_label
 _atom_site_symmetry_multiplicity
 _atom_site_fract_x
 _atom_site_fract_y
 _atom_site_fract_z
 _atom_site_occupancy
  Ca  Ca0  1  0.76351104  0.69738347  0.91638824  1
  Ca  Ca1  1  0.76551311  0.08968657  0.28389471  1
  Ca  Ca2  1  0.26032544  0.92747345  0.71575881  1
  Bi  Bi3  1  0.24441036  0.41516215  0.60285079  1
  Bi  Bi4  1  0.73010913  0.57172142  0.40636028  1
  As  As5  1  0.79855813  0.19364599  0.79698425  1
  As  As6  1  0.31911535  0.80978446  0.19471807  1
  O  O7  1  0.49618296  0.64069195  0.65877932  1
  O  O8  1  0.92318896  0.40374175  0.86552788  1
  O  O9  1  0.44320088  0.91408195  0.41216483  1
  O  O10  1  0.51690978  0.33501751  0.39358037  1
  O  O11  1  0.00665304  0.80106666  0.19528151  1
  O  O12  1  0.00233349  0.35657082  0.36076820  1
  O  O13  1  0.48436665  0.20812079  0.76767066  1
  O  O14  1  0.00845783  0.66292363  0.64136948  1
  O  O15  1  0.42744125  0.91800101  0.03060085  1
  O  O16  1  0.46991885  0.60203801  0.13068934  1
  O  O17  1  0.87587449  0.05210699  0.94462359  1
  O  O18  1  0.94990226  0.09577640  0.58955183  1
