# generated using pymatgen
data_ZnWF5
_symmetry_space_group_name_H-M   'P 1'
_cell_length_a   5.58122186
_cell_length_b   5.58122139
_cell_length_c   7.91080220
_cell_angle_alpha   99.01546322
_cell_angle_beta   110.83462109
_cell_angle_gamma   105.88841414
_symmetry_Int_Tables_number   1
_chemical_formula_structural   ZnWF5
_chemical_formula_sum   'Zn2 W2 F10'
_cell_volume   212.47775349
_cell_formula_units_Z   2
loop_
 _symmetry_equiv_pos_site_id
 _symmetry_equiv_pos_as_xyz
  1  'x, y, z'
loop_
 _atom_site_type_symbol
 _atom_site_label
 _atom_site_symmetry_multiplicity
 _atom_site_fract_x
 _atom_site_fract_y
 _atom_site_fract_z
 _atom_site_occupancy
  Zn  Zn0  1  0.25314186  0.50314186  0.75000000  1
  Zn  Zn1  1  0.74685814  0.49685814  0.25000000  1
  W  W2  1  0.00000000  0.00000000  0.00000000  1
  W  W3  1  0.50000000  0.00000000  0.50000000  1
  F  F4  1  0.37320381  0.12320381  0.25000000  1
  F  F5  1  0.62679619  0.87679619  0.75000000  1
  F  F6  1  0.58334916  0.69827776  0.36189884  1
  F  F7  1  0.83637792  0.22145032  0.13810116  1
  F  F8  1  0.75523270  0.68105058  0.04865928  1
  F  F9  1  0.13239129  0.70657342  0.45134072  1
  F  F10  1  0.24476730  0.31894942  0.95134072  1
  F  F11  1  0.86760871  0.29342658  0.54865928  1
  F  F12  1  0.16362208  0.77854968  0.86189884  1
  F  F13  1  0.41665084  0.30172224  0.63810116  1
