# generated using pymatgen
data_Y8Cu3(SnS7)3
_symmetry_space_group_name_H-M   'P 1'
_cell_length_a   9.64823607
_cell_length_b   9.70762877
_cell_length_c   19.04704846
_cell_angle_alpha   90.00000000
_cell_angle_beta   90.00000000
_cell_angle_gamma   119.14945840
_symmetry_Int_Tables_number   1
_chemical_formula_structural   Y8Cu3(SnS7)3
_chemical_formula_sum   'Y16 Cu6 Sn6 S42'
_cell_volume   1558.03830401
_cell_formula_units_Z   2
loop_
 _symmetry_equiv_pos_site_id
 _symmetry_equiv_pos_as_xyz
  1  'x, y, z'
loop_
 _atom_site_type_symbol
 _atom_site_label
 _atom_site_symmetry_multiplicity
 _atom_site_fract_x
 _atom_site_fract_y
 _atom_site_fract_z
 _atom_site_occupancy
  Y  Y0  1  0.20924574  0.36350787  0.28822216  1
  Y  Y1  1  0.21638775  0.37384793  0.62278681  1
  Y  Y2  1  0.21171785  0.36485559  0.95647532  1
  Y  Y3  1  0.37340680  0.15054588  0.12288037  1
  Y  Y4  1  0.36004042  0.14241457  0.45798447  1
  Y  Y5  1  0.36470488  0.14752423  0.78916639  1
  Y  Y6  1  0.63529512  0.85247577  0.28916639  1
  Y  Y7  1  0.62659320  0.84945412  0.62288037  1
  Y  Y8  1  0.63995958  0.85758543  0.95798447  1
  Y  Y9  1  0.78361225  0.62615207  0.12278681  1
  Y  Y10  1  0.78828215  0.63514441  0.45647532  1
  Y  Y11  1  0.79075426  0.63649213  0.78822216  1
  Y  Y12  1  0.84589012  0.21193752  0.45776674  1
  Y  Y13  1  0.84982470  0.21182267  0.79398686  1
  Y  Y14  1  0.15017530  0.78817733  0.29398686  1
  Y  Y15  1  0.15410988  0.78806248  0.95776674  1
  Cu  Cu16  1  0.00113071  0.99484190  0.33850889  1
  Cu  Cu17  1  0.00605277  0.98823678  0.66184906  1
  Cu  Cu18  1  0.00094543  0.00038558  0.99576524  1
  Cu  Cu19  1  0.99394723  0.01176322  0.16184906  1
  Cu  Cu20  1  0.99905457  0.99961442  0.49576524  1
  Cu  Cu21  1  0.99886929  0.00515810  0.83850889  1
  Sn  Sn22  1  0.32930698  0.66534137  0.10095728  1
  Sn  Sn23  1  0.33408466  0.66464022  0.44016734  1
  Sn  Sn24  1  0.32492105  0.67410616  0.76620545  1
  Sn  Sn25  1  0.67507895  0.32589384  0.26620545  1
  Sn  Sn26  1  0.67069302  0.33465863  0.60095728  1
  Sn  Sn27  1  0.66591534  0.33535978  0.94016734  1
  S  S28  1  0.67458106  0.32769521  0.06512144  1
  S  S29  1  0.66354815  0.33135229  0.39459789  1
  S  S30  1  0.66789048  0.33348139  0.72832000  1
  S  S31  1  0.33210952  0.66651861  0.22832000  1
  S  S32  1  0.32541894  0.67230479  0.56512144  1
  S  S33  1  0.33645185  0.66864771  0.89459789  1
  S  S34  1  0.48356443  0.56724221  0.04046078  1
  S  S35  1  0.48117426  0.56599391  0.37361275  1
  S  S36  1  0.48364659  0.57117881  0.70901585  1
  S  S37  1  0.92632705  0.50009386  0.21338677  1
  S  S38  1  0.91853389  0.47602019  0.54047253  1
  S  S39  1  0.91594002  0.48048724  0.87654854  1
  S  S40  1  0.53987579  0.06404795  0.21749719  1
  S  S41  1  0.56498412  0.08016726  0.54368655  1
  S  S42  1  0.56639374  0.08537658  0.87853031  1
  S  S43  1  0.43501588  0.91983274  0.04368655  1
  S  S44  1  0.43360626  0.91462342  0.37853031  1
  S  S45  1  0.46012421  0.93595205  0.71749719  1
  S  S46  1  0.08146611  0.52397981  0.04047253  1
  S  S47  1  0.08405998  0.51951276  0.37654854  1
  S  S48  1  0.07367295  0.49990614  0.71338677  1
  S  S49  1  0.51635341  0.42882119  0.20901585  1
  S  S50  1  0.51643557  0.43275779  0.54046078  1
  S  S51  1  0.51882574  0.43400609  0.87361275  1
  S  S52  1  0.73713214  0.87386237  0.15388468  1
  S  S53  1  0.73576200  0.88403436  0.48582712  1
  S  S54  1  0.73940013  0.88095328  0.82012179  1
  S  S55  1  0.84729645  0.73897856  0.31830524  1
  S  S56  1  0.84259939  0.73876210  0.65091765  1
  S  S57  1  0.85377048  0.73993308  0.98562318  1
  S  S58  1  0.26059987  0.11904672  0.32012179  1
  S  S59  1  0.26286786  0.12613763  0.65388468  1
  S  S60  1  0.26423800  0.11596564  0.98582712  1
  S  S61  1  0.15740061  0.26123790  0.15091765  1
  S  S62  1  0.14622952  0.26006692  0.48562318  1
  S  S63  1  0.15270355  0.26102144  0.81830524  1
  S  S64  1  0.10740427  0.85933892  0.15437417  1
  S  S65  1  0.10495904  0.84991883  0.47209398  1
  S  S66  1  0.11224794  0.85498941  0.82046221  1
  S  S67  1  0.88775206  0.14501059  0.32046221  1
  S  S68  1  0.89259573  0.14066108  0.65437417  1
  S  S69  1  0.89504096  0.15008117  0.97209398  1
