# generated using pymatgen
data_Ca3Ni2(WO6)2
_symmetry_space_group_name_H-M   'P 1'
_cell_length_a   5.45375926
_cell_length_b   5.54886196
_cell_length_c   7.68110543
_cell_angle_alpha   90.15888419
_cell_angle_beta   89.93080052
_cell_angle_gamma   91.26192885
_symmetry_Int_Tables_number   1
_chemical_formula_structural   Ca3Ni2(WO6)2
_chemical_formula_sum   'Ca3 Ni2 W2 O12'
_cell_volume   232.38939753
_cell_formula_units_Z   1
loop_
 _symmetry_equiv_pos_site_id
 _symmetry_equiv_pos_as_xyz
  1  'x, y, z'
loop_
 _atom_site_type_symbol
 _atom_site_label
 _atom_site_symmetry_multiplicity
 _atom_site_fract_x
 _atom_site_fract_y
 _atom_site_fract_z
 _atom_site_occupancy
  Ca  Ca0  1  0.00525650  0.95498359  0.24991459  1
  Ca  Ca1  1  0.48523027  0.44683124  0.25189418  1
  Ca  Ca2  1  0.99101733  0.04660261  0.75222071  1
  Ni  Ni3  1  0.99830450  0.49721794  0.00067016  1
  Ni  Ni4  1  0.50021363  0.99506438  0.50026612  1
  W  W5  1  0.49419197  0.98158119  0.99083934  1
  W  W6  1  -0.00138581  0.50456938  0.50959958  1
  O  O7  1  0.07209312  0.48920501  0.74760437  1
  O  O8  1  0.41718643  0.97281560  0.75296441  1
  O  O9  1  0.91076392  0.51456063  0.25434062  1
  O  O10  1  0.58347490  0.03161684  0.24411270  1
  O  O11  1  0.70808548  0.27364503  0.96435809  1
  O  O12  1  0.81494583  0.79773673  0.52973357  1
  O  O13  1  0.29445644  0.71542030  0.05884739  1
  O  O14  1  0.20001783  0.22164463  0.45602882  1
  O  O15  1  0.21800846  0.19531033  0.03894374  1
  O  O16  1  0.27983811  0.71023258  0.44172373  1
  O  O17  1  0.79510857  0.80746556  0.96975662  1
  O  O18  1  0.72035650  0.29023341  0.53894923  1
