# generated using pymatgen
data_CaCr2(P2O7)2
_symmetry_space_group_name_H-M   'P 1'
_cell_length_a   6.34952127
_cell_length_b   6.43396495
_cell_length_c   7.12362855
_cell_angle_alpha   83.61082938
_cell_angle_beta   89.14596734
_cell_angle_gamma   68.27318446
_symmetry_Int_Tables_number   1
_chemical_formula_structural   CaCr2(P2O7)2
_chemical_formula_sum   'Ca1 Cr2 P4 O14'
_cell_volume   268.55651816
_cell_formula_units_Z   1
loop_
 _symmetry_equiv_pos_site_id
 _symmetry_equiv_pos_as_xyz
  1  'x, y, z'
loop_
 _atom_site_type_symbol
 _atom_site_label
 _atom_site_symmetry_multiplicity
 _atom_site_fract_x
 _atom_site_fract_y
 _atom_site_fract_z
 _atom_site_occupancy
  Ca  Ca0  1  0.30557920  0.71473789  0.62122112  1
  Cr  Cr1  1  0.25850000  0.12999538  0.20029086  1
  Cr  Cr2  1  0.74567344  0.87441840  0.80124054  1
  P  P3  1  0.15052371  0.66464024  0.11944780  1
  P  P4  1  0.84593622  0.33453342  0.88539582  1
  P  P5  1  0.25251848  0.21494310  0.61684347  1
  P  P6  1  0.74225648  0.78988684  0.38339390  1
  O  O7  1  0.06145506  0.74887487  0.91107672  1
  O  O8  1  0.95230616  0.25621442  0.08253525  1
  O  O9  1  0.25660777  0.81556195  0.19600313  1
  O  O10  1  0.73368057  0.18339935  0.81791648  1
  O  O11  1  0.30570446  0.41688513  0.13112294  1
  O  O12  1  0.68384545  0.58475339  0.86059767  1
  O  O13  1  0.63121542  0.63153462  0.45843650  1
  O  O14  1  0.35513545  0.37979873  0.54455602  1
  O  O15  1  0.15388812  0.12299845  0.46093606  1
  O  O16  1  0.87362595  0.84246818  0.54773703  1
  O  O17  1  0.05003601  0.33706922  0.74731320  1
  O  O18  1  0.58771288  0.00354877  0.26212666  1
  O  O19  1  0.41215737  0.00153998  0.74315946  1
  O  O20  1  0.93846783  0.66517369  0.24396136  1
