# generated using pymatgen
data_Al(BiO3)3
_symmetry_space_group_name_H-M   'P 1'
_cell_length_a   5.79432557
_cell_length_b   17.43301448
_cell_length_c   5.79348095
_cell_angle_alpha   54.66112932
_cell_angle_beta   54.34891061
_cell_angle_gamma   54.65752717
_symmetry_Int_Tables_number   1
_chemical_formula_structural   Al(BiO3)3
_chemical_formula_sum   'Al2 Bi6 O18'
_cell_volume   361.29072124
_cell_formula_units_Z   2
loop_
 _symmetry_equiv_pos_site_id
 _symmetry_equiv_pos_as_xyz
  1  'x, y, z'
loop_
 _atom_site_type_symbol
 _atom_site_label
 _atom_site_symmetry_multiplicity
 _atom_site_fract_x
 _atom_site_fract_y
 _atom_site_fract_z
 _atom_site_occupancy
  Al  Al0  1  0.72408689  0.57030303  0.71189377  1
  Al  Al1  1  0.21180016  0.07032105  0.22418794  1
  Bi  Bi2  1  0.04658397  0.33414633  0.02708929  1
  Bi  Bi3  1  0.01082700  0.68577712  0.00627606  1
  Bi  Bi4  1  0.00195779  0.00406797  0.03025944  1
  Bi  Bi5  1  0.50625070  0.18600336  0.51047178  1
  Bi  Bi6  1  0.53027922  0.50409607  0.50185922  1
  Bi  Bi7  1  0.52709058  0.83394996  0.54707262  1
  O  O8  1  0.45449901  0.26718249  0.09146464  1
  O  O9  1  0.46043125  0.59741322  0.07728122  1
  O  O10  1  0.38887803  0.94520048  0.15921218  1
  O  O11  1  0.96022367  0.19314067  0.30151893  1
  O  O12  1  0.90519004  0.55150807  0.33216872  1
  O  O13  1  0.93078641  0.86770579  0.30125496  1
  O  O14  1  0.14063202  0.13032796  0.84929893  1
  O  O15  1  0.09432457  0.48615562  0.78592673  1
  O  O16  1  0.10350626  0.81594607  0.79819622  1
  O  O17  1  0.57738916  0.09737396  0.96043066  1
  O  O18  1  0.65927955  0.44517422  0.88886028  1
  O  O19  1  0.59110213  0.76729745  0.95432348  1
  O  O20  1  0.29832715  0.31584067  0.60336688  1
  O  O21  1  0.34910876  0.63037083  0.64071492  1
  O  O22  1  0.28598824  0.98615061  0.59429494  1
  O  O23  1  0.80117482  0.36768248  0.43071210  1
  O  O24  1  0.80146188  0.69323085  0.46009534  1
  O  O25  1  0.83226074  0.05144866  0.40520376  1
