# generated using pymatgen
data_Sr2CoCu2O7
_symmetry_space_group_name_H-M   'P 1'
_cell_length_a   5.13956219
_cell_length_b   5.17184299
_cell_length_c   12.83986197
_cell_angle_alpha   101.62960619
_cell_angle_beta   101.37169505
_cell_angle_gamma   90.01735642
_symmetry_Int_Tables_number   1
_chemical_formula_structural   Sr2CoCu2O7
_chemical_formula_sum   'Sr4 Co2 Cu4 O14'
_cell_volume   327.44235657
_cell_formula_units_Z   2
loop_
 _symmetry_equiv_pos_site_id
 _symmetry_equiv_pos_as_xyz
  1  'x, y, z'
loop_
 _atom_site_type_symbol
 _atom_site_label
 _atom_site_symmetry_multiplicity
 _atom_site_fract_x
 _atom_site_fract_y
 _atom_site_fract_z
 _atom_site_occupancy
  Sr  Sr0  1  0.33138325  0.35012045  0.70446972  1
  Sr  Sr1  1  0.62927138  0.64954159  0.29597312  1
  Sr  Sr2  1  0.83124848  0.85403442  0.70451172  1
  Sr  Sr3  1  0.12938603  0.14583024  0.29590431  1
  Co  Co4  1  0.27227204  0.68389418  0.50033923  1
  Co  Co5  1  0.77227345  0.31534768  0.50023629  1
  Cu  Cu6  1  0.92129431  0.44249467  0.88349864  1
  Cu  Cu7  1  0.04382970  0.55775069  0.11728596  1
  Cu  Cu8  1  0.42094427  0.94123733  0.88327155  1
  Cu  Cu9  1  0.54388282  0.05887151  0.11728428  1
  O  O10  1  0.13935733  0.34491863  0.50025386  1
  O  O11  1  0.63934857  0.65404106  0.50027000  1
  O  O12  1  0.15570079  0.17600734  0.85070437  1
  O  O13  1  0.31035354  0.82416695  0.14971261  1
  O  O14  1  0.65598991  0.17505931  0.85106466  1
  O  O15  1  0.81052052  0.82508309  0.14979762  1
  O  O16  1  0.65395300  0.67448706  0.84977909  1
  O  O17  1  0.80963898  0.32593326  0.15099370  1
  O  O18  1  0.15392356  0.67523894  0.84947574  1
  O  O19  1  0.30961957  0.32451363  0.15090580  1
  O  O20  1  0.29559261  0.82696244  0.63753939  1
  O  O21  1  0.66034439  0.17219416  0.36304552  1
  O  O22  1  0.79536202  0.30927240  0.63736640  1
  O  O23  1  0.16021348  0.69024098  0.36322343  1
