# generated using pymatgen
data_ZnWF5
_symmetry_space_group_name_H-M   'P 1'
_cell_length_a   5.34846290
_cell_length_b   8.06747446
_cell_length_c   10.51362378
_cell_angle_alpha   90.00000000
_cell_angle_beta   90.00000000
_cell_angle_gamma   109.13980844
_symmetry_Int_Tables_number   1
_chemical_formula_structural   ZnWF5
_chemical_formula_sum   'Zn4 W4 F20'
_cell_volume   428.57096362
_cell_formula_units_Z   4
loop_
 _symmetry_equiv_pos_site_id
 _symmetry_equiv_pos_as_xyz
  1  'x, y, z'
loop_
 _atom_site_type_symbol
 _atom_site_label
 _atom_site_symmetry_multiplicity
 _atom_site_fract_x
 _atom_site_fract_y
 _atom_site_fract_z
 _atom_site_occupancy
  Zn  Zn0  1  0.51782619  0.77828443  0.98687877  1
  Zn  Zn1  1  0.48217381  0.72171557  0.48687877  1
  Zn  Zn2  1  0.48217381  0.22171557  0.01312123  1
  Zn  Zn3  1  0.51782619  0.27828443  0.51312123  1
  W  W4  1  0.92706578  0.62154994  0.75662574  1
  W  W5  1  0.07293422  0.87845006  0.25662574  1
  W  W6  1  0.07293422  0.37845006  0.24337426  1
  W  W7  1  0.92706578  0.12154994  0.74337426  1
  F  F8  1  0.61242668  0.59685009  0.88614428  1
  F  F9  1  0.38757332  0.90314991  0.38614428  1
  F  F10  1  0.38757332  0.40314991  0.11385572  1
  F  F11  1  0.61242668  0.09685009  0.61385572  1
  F  F12  1  0.67162693  0.51166954  0.60194129  1
  F  F13  1  0.32837307  0.98833046  0.10194129  1
  F  F14  1  0.32837307  0.48833046  0.39805871  1
  F  F15  1  0.67162693  0.01166954  0.89805871  1
  F  F16  1  0.83474171  0.77864268  0.41684176  1
  F  F17  1  0.16525829  0.72135732  0.91684176  1
  F  F18  1  0.16525829  0.22135732  0.58315824  1
  F  F19  1  0.83474171  0.27864268  0.08315824  1
  F  F20  1  0.73553086  0.83163770  0.13725580  1
  F  F21  1  0.26446914  0.66836230  0.63725580  1
  F  F22  1  0.26446914  0.16836230  0.86274420  1
  F  F23  1  0.73553086  0.33163770  0.36274420  1
  F  F24  1  0.90772301  0.86476057  0.68830104  1
  F  F25  1  0.09227699  0.63523943  0.18830104  1
  F  F26  1  0.09227699  0.13523943  0.31169896  1
  F  F27  1  0.90772301  0.36476057  0.81169896  1
