# generated using pymatgen
data_Mg(CuO2)2
_symmetry_space_group_name_H-M   'P 1'
_cell_length_a   5.93346662
_cell_length_b   5.93346809
_cell_length_c   5.94276556
_cell_angle_alpha   119.94826066
_cell_angle_beta   119.94825820
_cell_angle_gamma   89.99999544
_symmetry_Int_Tables_number   1
_chemical_formula_structural   Mg(CuO2)2
_chemical_formula_sum   'Mg2 Cu4 O8'
_cell_volume   148.17284030
_cell_formula_units_Z   2
loop_
 _symmetry_equiv_pos_site_id
 _symmetry_equiv_pos_as_xyz
  1  'x, y, z'
loop_
 _atom_site_type_symbol
 _atom_site_label
 _atom_site_symmetry_multiplicity
 _atom_site_fract_x
 _atom_site_fract_y
 _atom_site_fract_z
 _atom_site_occupancy
  Mg  Mg0  1  0.37500000  0.62500000  0.75000000  1
  Mg  Mg1  1  0.62500000  0.37500000  0.25000000  1
  Cu  Cu2  1  0.00000000  0.00000000  0.50000000  1
  Cu  Cu3  1  0.00000000  0.50000000  0.00000000  1
  Cu  Cu4  1  0.50000000  0.00000000  0.50000000  1
  Cu  Cu5  1  0.00000000  0.00000000  0.00000000  1
  O  O6  1  0.76114170  0.78310907  0.52228439  1
  O  O7  1  0.76082567  0.23885830  0.97771561  1
  O  O8  1  0.21689093  0.23885830  0.97771561  1
  O  O9  1  0.23885830  0.21689093  0.47771561  1
  O  O10  1  0.23885830  0.76082567  0.47771561  1
  O  O11  1  0.23917433  0.76114170  0.02228439  1
  O  O12  1  0.76114170  0.23917433  0.52228439  1
  O  O13  1  0.78310907  0.76114170  0.02228439  1
