# generated using pymatgen
data_MgCuO2
_symmetry_space_group_name_H-M   'P 1'
_cell_length_a   2.87889776
_cell_length_b   8.08172040
_cell_length_c   7.56488043
_cell_angle_alpha   96.10389626
_cell_angle_beta   89.71190766
_cell_angle_gamma   69.11622332
_symmetry_Int_Tables_number   1
_chemical_formula_structural   MgCuO2
_chemical_formula_sum   'Mg4 Cu4 O8'
_cell_volume   163.33814407
_cell_formula_units_Z   4
loop_
 _symmetry_equiv_pos_site_id
 _symmetry_equiv_pos_as_xyz
  1  'x, y, z'
loop_
 _atom_site_type_symbol
 _atom_site_label
 _atom_site_symmetry_multiplicity
 _atom_site_fract_x
 _atom_site_fract_y
 _atom_site_fract_z
 _atom_site_occupancy
  Mg  Mg0  1  0.19670778  0.03603190  0.18845076  1
  Mg  Mg1  1  0.79664698  0.94506057  0.84020191  1
  Mg  Mg2  1  0.06078171  0.67552649  0.08049690  1
  Mg  Mg3  1  0.93504143  0.30582016  0.94803357  1
  Cu  Cu4  1  0.56426840  0.17571149  0.57008932  1
  Cu  Cu5  1  0.33738430  0.39725891  0.30457992  1
  Cu  Cu6  1  0.66076869  0.58339781  0.72498046  1
  Cu  Cu7  1  0.43430192  0.79909579  0.45496098  1
  O  O8  1  0.01873075  0.72208787  0.61405827  1
  O  O9  1  0.27257626  0.47104855  0.84877326  1
  O  O10  1  0.72403930  0.51169166  0.18200599  1
  O  O11  1  0.98026550  0.25491283  0.41329090  1
  O  O12  1  0.14102311  0.10067906  0.72037058  1
  O  O13  1  0.57915104  0.15784515  0.05426998  1
  O  O14  1  0.85194628  0.87918143  0.30702738  1
  O  O15  1  0.41464156  0.82398431  0.97402583  1
