# generated using pymatgen
data_Ca2TaBiO6
_symmetry_space_group_name_H-M   'P 1'
_cell_length_a   5.77288677
_cell_length_b   5.98532517
_cell_length_c   8.13101468
_cell_angle_alpha   90.00000000
_cell_angle_beta   90.00000000
_cell_angle_gamma   88.95349349
_symmetry_Int_Tables_number   1
_chemical_formula_structural   Ca2TaBiO6
_chemical_formula_sum   'Ca4 Ta2 Bi2 O12'
_cell_volume   280.90087236
_cell_formula_units_Z   2
loop_
 _symmetry_equiv_pos_site_id
 _symmetry_equiv_pos_as_xyz
  1  'x, y, z'
loop_
 _atom_site_type_symbol
 _atom_site_label
 _atom_site_symmetry_multiplicity
 _atom_site_fract_x
 _atom_site_fract_y
 _atom_site_fract_z
 _atom_site_occupancy
  Ca  Ca0  1  0.01160874  0.94550888  0.25000000  1
  Ca  Ca1  1  0.49370131  0.44388770  0.25000000  1
  Ca  Ca2  1  0.50629869  0.55611230  0.75000000  1
  Ca  Ca3  1  0.98839126  0.05449112  0.75000000  1
  Ta  Ta4  1  0.00000000  0.50000000  0.00000000  1
  Ta  Ta5  1  0.00000000  0.50000000  0.50000000  1
  Bi  Bi6  1  0.50000000  0.00000000  0.00000000  1
  Bi  Bi7  1  0.50000000  0.00000000  0.50000000  1
  O  O8  1  0.84037638  0.78493398  0.56008929  1
  O  O9  1  0.28606179  0.66444407  0.44019320  1
  O  O10  1  0.15962362  0.21506602  0.43991071  1
  O  O11  1  0.71393821  0.33555593  0.94019320  1
  O  O12  1  0.10506033  0.45383553  0.75000000  1
  O  O13  1  0.71393821  0.33555593  0.55980680  1
  O  O14  1  0.28606179  0.66444407  0.05980680  1
  O  O15  1  0.84037638  0.78493398  0.93991071  1
  O  O16  1  0.64518177  0.07502394  0.25000000  1
  O  O17  1  0.15962362  0.21506602  0.06008929  1
  O  O18  1  0.35481823  0.92497606  0.75000000  1
  O  O19  1  0.89493967  0.54616447  0.25000000  1
