# generated using pymatgen
data_Li3Ti2(GeO4)3
_symmetry_space_group_name_H-M   'P 1'
_cell_length_a   10.54827889
_cell_length_b   10.54827859
_cell_length_c   10.54827920
_cell_angle_alpha   109.47122006
_cell_angle_beta   109.47121945
_cell_angle_gamma   109.47121987
_symmetry_Int_Tables_number   1
_chemical_formula_structural   Li3Ti2(GeO4)3
_chemical_formula_sum   'Li12 Ti8 Ge12 O48'
_cell_volume   903.48913526
_cell_formula_units_Z   4
loop_
 _symmetry_equiv_pos_site_id
 _symmetry_equiv_pos_as_xyz
  1  'x, y, z'
loop_
 _atom_site_type_symbol
 _atom_site_label
 _atom_site_symmetry_multiplicity
 _atom_site_fract_x
 _atom_site_fract_y
 _atom_site_fract_z
 _atom_site_occupancy
  Li  Li0  1  0.62500000  0.25000000  0.87500000  1
  Li  Li1  1  0.87500000  0.75000000  0.62500000  1
  Li  Li2  1  0.75000000  0.62500000  0.87500000  1
  Li  Li3  1  0.25000000  0.87500000  0.62500000  1
  Li  Li4  1  0.87500000  0.62500000  0.25000000  1
  Li  Li5  1  0.62500000  0.87500000  0.75000000  1
  Li  Li6  1  0.37500000  0.75000000  0.12500000  1
  Li  Li7  1  0.12500000  0.25000000  0.37500000  1
  Li  Li8  1  0.25000000  0.37500000  0.12500000  1
  Li  Li9  1  0.75000000  0.12500000  0.37500000  1
  Li  Li10  1  0.12500000  0.37500000  0.75000000  1
  Li  Li11  1  0.37500000  0.12500000  0.25000000  1
  Ti  Ti12  1  0.50000000  0.50000000  0.50000000  1
  Ti  Ti13  1  0.50000000  0.50000000  0.00000000  1
  Ti  Ti14  1  0.50000000  0.00000000  0.50000000  1
  Ti  Ti15  1  -0.00000000  0.50000000  0.50000000  1
  Ti  Ti16  1  0.50000000  0.00000000  0.00000000  1
  Ti  Ti17  1  -0.00000000  0.00000000  0.50000000  1
  Ti  Ti18  1  -0.00000000  0.50000000  0.00000000  1
  Ti  Ti19  1  -0.00000000  0.00000000  0.00000000  1
  Ge  Ge20  1  0.87500000  0.12500000  0.75000000  1
  Ge  Ge21  1  0.12500000  0.87500000  0.25000000  1
  Ge  Ge22  1  0.25000000  0.62500000  0.37500000  1
  Ge  Ge23  1  0.12500000  0.75000000  0.87500000  1
  Ge  Ge24  1  0.75000000  0.87500000  0.12500000  1
  Ge  Ge25  1  0.37500000  0.25000000  0.62500000  1
  Ge  Ge26  1  0.62500000  0.75000000  0.37500000  1
  Ge  Ge27  1  0.87500000  0.25000000  0.12500000  1
  Ge  Ge28  1  0.25000000  0.12500000  0.87500000  1
  Ge  Ge29  1  0.75000000  0.37500000  0.62500000  1
  Ge  Ge30  1  0.37500000  0.62500000  0.75000000  1
  Ge  Ge31  1  0.62500000  0.37500000  0.25000000  1
  O  O32  1  0.80033624  0.41788508  0.81785128  1
  O  O33  1  0.08211492  0.88245116  0.39996620  1
  O  O34  1  0.68214872  0.10003380  0.98248396  1
  O  O35  1  0.69966376  0.51751604  0.61754884  1
  O  O36  1  0.69966376  0.68214872  0.08211492  1
  O  O37  1  0.51751604  0.61754884  0.69966376  1
  O  O38  1  0.10003380  0.61754884  0.41788508  1
  O  O39  1  0.61754884  0.69966376  0.51751604  1
  O  O40  1  0.39996620  0.81785128  0.51751604  1
  O  O41  1  0.88245116  0.98248396  0.80033624  1
  O  O42  1  0.98248396  0.80033624  0.88245116  1
  O  O43  1  0.08211492  0.69966376  0.68214872  1
  O  O44  1  0.61754884  0.41788508  0.10003380  1
  O  O45  1  0.51751604  0.39996620  0.81785128  1
  O  O46  1  0.68214872  0.08211492  0.69966376  1
  O  O47  1  0.41788508  0.10003380  0.61754884  1
  O  O48  1  0.81785128  0.51751604  0.39996620  1
  O  O49  1  0.39996620  0.08211492  0.88245116  1
  O  O50  1  0.10003380  0.98248396  0.68214872  1
  O  O51  1  0.60003380  0.18214872  0.48248396  1
  O  O52  1  0.98248396  0.68214872  0.10003380  1
  O  O53  1  0.81785128  0.80033624  0.41788508  1
  O  O54  1  0.88245116  0.39996620  0.08211492  1
  O  O55  1  0.80033624  0.88245116  0.98248396  1
  O  O56  1  0.19966376  0.58211492  0.18214872  1
  O  O57  1  0.91788508  0.11754884  0.60003380  1
  O  O58  1  0.31785128  0.89996620  0.01751604  1
  O  O59  1  0.30033624  0.48248396  0.38245116  1
  O  O60  1  0.30033624  0.31785128  0.91788508  1
  O  O61  1  0.48248396  0.38245116  0.30033624  1
  O  O62  1  0.89996620  0.38245116  0.58211492  1
  O  O63  1  0.38245116  0.30033624  0.48248396  1
  O  O64  1  0.19966376  0.11754884  0.01751604  1
  O  O65  1  0.11754884  0.60003380  0.91788508  1
  O  O66  1  0.18214872  0.19966376  0.58211492  1
  O  O67  1  0.58211492  0.18214872  0.19966376  1
  O  O68  1  0.01751604  0.31785128  0.89996620  1
  O  O69  1  0.89996620  0.01751604  0.31785128  1
  O  O70  1  0.60003380  0.91788508  0.11754884  1
  O  O71  1  0.18214872  0.48248396  0.60003380  1
  O  O72  1  0.58211492  0.89996620  0.38245116  1
  O  O73  1  0.31785128  0.91788508  0.30033624  1
  O  O74  1  0.48248396  0.60003380  0.18214872  1
  O  O75  1  0.38245116  0.58211492  0.89996620  1
  O  O76  1  0.91788508  0.30033624  0.31785128  1
  O  O77  1  0.01751604  0.19966376  0.11754884  1
  O  O78  1  0.11754884  0.01751604  0.19966376  1
  O  O79  1  0.41788508  0.81785128  0.80033624  1
