# generated using pymatgen
data_Ca2VIrO6
_symmetry_space_group_name_H-M   'P 1'
_cell_length_a   5.35795126
_cell_length_b   5.53764516
_cell_length_c   7.66450839
_cell_angle_alpha   90.00000000
_cell_angle_beta   89.63249479
_cell_angle_gamma   90.00000000
_symmetry_Int_Tables_number   1
_chemical_formula_structural   Ca2VIrO6
_chemical_formula_sum   'Ca4 V2 Ir2 O12'
_cell_volume   227.40460368
_cell_formula_units_Z   2
loop_
 _symmetry_equiv_pos_site_id
 _symmetry_equiv_pos_as_xyz
  1  'x, y, z'
loop_
 _atom_site_type_symbol
 _atom_site_label
 _atom_site_symmetry_multiplicity
 _atom_site_fract_x
 _atom_site_fract_y
 _atom_site_fract_z
 _atom_site_occupancy
  Ca  Ca0  1  0.01474832  0.94447873  0.25091092  1
  Ca  Ca1  1  0.48525168  0.44447873  0.24908908  1
  Ca  Ca2  1  0.51474832  0.55552127  0.75091092  1
  Ca  Ca3  1  0.98525168  0.05552127  0.74908908  1
  V  V4  1  0.00000000  0.50000000  0.00000000  1
  V  V5  1  0.50000000  0.00000000  0.50000000  1
  Ir  Ir6  1  0.00000000  0.50000000  0.50000000  1
  Ir  Ir7  1  0.50000000  0.00000000  0.00000000  1
  O  O8  1  0.08875229  0.47917025  0.75818404  1
  O  O9  1  0.19415865  0.21457899  0.04728177  1
  O  O10  1  0.20926263  0.19610768  0.45694222  1
  O  O11  1  0.29073737  0.69610768  0.04305778  1
  O  O12  1  0.30584135  0.71457899  0.45271823  1
  O  O13  1  0.41124771  0.97917025  0.74181596  1
  O  O14  1  0.58875229  0.02082975  0.25818404  1
  O  O15  1  0.69415865  0.28542101  0.54728177  1
  O  O16  1  0.70926263  0.30389232  0.95694222  1
  O  O17  1  0.80584135  0.78542101  0.95271823  1
  O  O18  1  0.79073737  0.80389232  0.54305778  1
  O  O19  1  0.91124771  0.52082975  0.24181596  1
