# generated using pymatgen
data_Sb2O5
_symmetry_space_group_name_H-M   'P 1'
_cell_length_a   3.96937820
_cell_length_b   3.84047858
_cell_length_c   12.97219019
_cell_angle_alpha   90.00161332
_cell_angle_beta   90.00052301
_cell_angle_gamma   89.99995753
_symmetry_Int_Tables_number   1
_chemical_formula_structural   Sb2O5
_chemical_formula_sum   'Sb4 O10'
_cell_volume   197.75211398
_cell_formula_units_Z   2
loop_
 _symmetry_equiv_pos_site_id
 _symmetry_equiv_pos_as_xyz
  1  'x, y, z'
loop_
 _atom_site_type_symbol
 _atom_site_label
 _atom_site_symmetry_multiplicity
 _atom_site_fract_x
 _atom_site_fract_y
 _atom_site_fract_z
 _atom_site_occupancy
  Sb  Sb0  1  0.01841938  0.99214899  0.14795583  1
  Sb  Sb1  1  0.51842147  0.00792312  0.35204636  1
  Sb  Sb2  1  0.51844031  0.00799796  0.64797222  1
  Sb  Sb3  1  0.01845065  0.99224122  0.85201607  1
  O  O4  1  0.51847534  0.99527729  0.18792617  1
  O  O5  1  0.01845849  0.00473963  0.31206714  1
  O  O6  1  0.01848139  0.00472841  0.68792396  1
  O  O7  1  0.51850640  0.99531051  0.81207582  1
  O  O8  1  0.01887851  0.49153937  0.84642781  1
  O  O9  1  0.51861909  0.50826312  0.65355879  1
  O  O10  1  0.51861932  0.50827529  0.34648664  1
  O  O11  1  0.51885595  0.03166715  0.49999041  1
  O  O12  1  0.01854296  0.96817983  0.00001405  1
  O  O13  1  0.01882274  0.49170710  0.15353672  1
