# generated using pymatgen
data_Mg3Si4(AgO7)2
_symmetry_space_group_name_H-M   'P 1'
_cell_length_a   7.73598224
_cell_length_b   9.70753860
_cell_length_c   9.66001698
_cell_angle_alpha   64.16939905
_cell_angle_beta   66.39603381
_cell_angle_gamma   66.51853808
_symmetry_Int_Tables_number   1
_chemical_formula_structural   Mg3Si4(AgO7)2
_chemical_formula_sum   'Mg6 Si8 Ag4 O28'
_cell_volume   575.84362823
_cell_formula_units_Z   2
loop_
 _symmetry_equiv_pos_site_id
 _symmetry_equiv_pos_as_xyz
  1  'x, y, z'
loop_
 _atom_site_type_symbol
 _atom_site_label
 _atom_site_symmetry_multiplicity
 _atom_site_fract_x
 _atom_site_fract_y
 _atom_site_fract_z
 _atom_site_occupancy
  Mg  Mg0  1  0.94443491  0.87594320  0.46147656  1
  Mg  Mg1  1  0.28185467  0.62405680  0.03852344  1
  Mg  Mg2  1  0.71814533  0.37594320  0.96147656  1
  Mg  Mg3  1  0.61120064  0.25000000  0.75000000  1
  Mg  Mg4  1  0.05556509  0.12405680  0.53852344  1
  Mg  Mg5  1  0.38879936  0.75000000  0.25000000  1
  Si  Si6  1  0.43200373  0.29357349  0.32251230  1
  Si  Si7  1  0.95190948  0.79357349  0.82251230  1
  Si  Si8  1  0.51017163  0.88996957  0.87500962  1
  Si  Si9  1  0.72485018  0.38996957  0.37500962  1
  Si  Si10  1  0.04809052  0.20642651  0.17748770  1
  Si  Si11  1  0.48982837  0.11003043  0.12499038  1
  Si  Si12  1  0.27514982  0.61003043  0.62499038  1
  Si  Si13  1  0.56799627  0.70642651  0.67748770  1
  Ag  Ag14  1  0.22340039  0.25000000  0.75000000  1
  Ag  Ag15  1  0.77659961  0.75000000  0.25000000  1
  Ag  Ag16  1  0.00000000  0.00000000  0.00000000  1
  Ag  Ag17  1  0.00000000  0.50000000  0.50000000  1
  O  O18  1  0.19752946  0.69186265  0.46396321  1
  O  O19  1  0.03806577  0.59584014  0.26412470  1
  O  O20  1  0.52495860  0.91765343  0.17599905  1
  O  O21  1  0.10196939  0.09584014  0.76412470  1
  O  O22  1  0.79079781  0.70566209  0.55391520  1
  O  O23  1  0.91029402  0.37327478  0.21483535  1
  O  O24  1  0.38138792  0.41765343  0.67599905  1
  O  O25  1  0.05037509  0.79433791  0.94608480  1
  O  O26  1  0.08970598  0.62672522  0.78516465  1
  O  O27  1  0.42202220  0.71567594  0.58639642  1
  O  O28  1  0.96193423  0.40415986  0.73587530  1
  O  O29  1  0.20920219  0.29433791  0.44608480  1
  O  O30  1  0.49840514  0.12672522  0.28516465  1
  O  O31  1  0.64664368  0.19186265  0.96396321  1
  O  O32  1  0.27590543  0.21567594  0.08639642  1
  O  O33  1  0.94962491  0.20566209  0.05391520  1
  O  O34  1  0.04957776  0.06424824  0.34590817  1
  O  O35  1  0.57797780  0.28432406  0.41360358  1
  O  O36  1  0.45973317  0.43575176  0.15409183  1
  O  O37  1  0.72409457  0.78432406  0.91360358  1
  O  O38  1  0.50159486  0.87327478  0.71483535  1
  O  O39  1  0.89803061  0.90415986  0.23587530  1
  O  O40  1  0.54026683  0.56424824  0.84590817  1
  O  O41  1  0.47504140  0.08234657  0.82400095  1
  O  O42  1  0.95042224  0.93575176  0.65409183  1
  O  O43  1  0.61861208  0.58234657  0.32400095  1
  O  O44  1  0.35335632  0.80813735  0.03603679  1
  O  O45  1  0.80247054  0.30813735  0.53603679  1
