# generated using pymatgen
data_AlPO4
_symmetry_space_group_name_H-M   'P 1'
_cell_length_a   6.19673457
_cell_length_b   14.50439661
_cell_length_c   8.68609613
_cell_angle_alpha   90.00000000
_cell_angle_beta   104.60549153
_cell_angle_gamma   90.00000000
_symmetry_Int_Tables_number   1
_chemical_formula_structural   AlPO4
_chemical_formula_sum   'Al12 P12 O48'
_cell_volume   755.47692523
_cell_formula_units_Z   12
loop_
 _symmetry_equiv_pos_site_id
 _symmetry_equiv_pos_as_xyz
  1  'x, y, z'
loop_
 _atom_site_type_symbol
 _atom_site_label
 _atom_site_symmetry_multiplicity
 _atom_site_fract_x
 _atom_site_fract_y
 _atom_site_fract_z
 _atom_site_occupancy
  Al  Al0  1  0.79558930  0.90728935  0.11995278  1
  Al  Al1  1  0.20441070  0.40728935  0.38004722  1
  Al  Al2  1  0.20441070  0.09271065  0.88004722  1
  Al  Al3  1  0.79558930  0.59271065  0.61995278  1
  Al  Al4  1  0.15638551  0.80149665  0.35044566  1
  Al  Al5  1  0.84361449  0.30149665  0.14955434  1
  Al  Al6  1  0.84361449  0.19850335  0.64955434  1
  Al  Al7  1  0.15638551  0.69850335  0.85044566  1
  Al  Al8  1  0.45298438  0.39714083  0.93576091  1
  Al  Al9  1  0.54701562  0.89714083  0.56423909  1
  Al  Al10  1  0.54701562  0.60285917  0.06423909  1
  Al  Al11  1  0.45298438  0.10285917  0.43576091  1
  P  P12  1  0.31943402  0.25219550  0.64066462  1
  P  P13  1  0.68056598  0.75219550  0.85933538  1
  P  P14  1  0.68056598  0.74780450  0.35933538  1
  P  P15  1  0.31943402  0.24780450  0.14066462  1
  P  P16  1  0.66675395  0.45293513  0.32509315  1
  P  P17  1  0.33324605  0.95293513  0.17490685  1
  P  P18  1  0.33324605  0.54706487  0.67490685  1
  P  P19  1  0.66675395  0.04706487  0.82509315  1
  P  P20  1  0.91349746  0.39683641  0.82921123  1
  P  P21  1  0.08650254  0.89683641  0.67078877  1
  P  P22  1  0.08650254  0.60316359  0.17078877  1
  P  P23  1  0.91349746  0.10316359  0.32921123  1
  O  O24  1  0.42708295  0.31637787  0.77346268  1
  O  O25  1  0.57291705  0.81637787  0.72653732  1
  O  O26  1  0.57291705  0.68362213  0.22653732  1
  O  O27  1  0.42708295  0.18362213  0.27346268  1
  O  O28  1  0.15599586  0.18154955  0.69151180  1
  O  O29  1  0.84400414  0.68154955  0.80848820  1
  O  O30  1  0.84400414  0.81845045  0.30848820  1
  O  O31  1  0.15599586  0.31845045  0.19151180  1
  O  O32  1  0.51646004  0.19483538  0.59754056  1
  O  O33  1  0.48353996  0.69483538  0.90245944  1
  O  O34  1  0.48353996  0.80516462  0.40245944  1
  O  O35  1  0.51646004  0.30516462  0.09754056  1
  O  O36  1  0.18514847  0.29809167  0.49078708  1
  O  O37  1  0.81485153  0.79809167  0.00921292  1
  O  O38  1  0.81485153  0.70190833  0.50921292  1
  O  O39  1  0.18514847  0.20190833  0.99078708  1
  O  O40  1  0.54894730  0.48521669  0.14929202  1
  O  O41  1  0.45105270  0.98521669  0.35070798  1
  O  O42  1  0.45105270  0.51478331  0.85070798  1
  O  O43  1  0.54894730  0.01478331  0.64929202  1
  O  O44  1  0.77323656  0.53211445  0.42936249  1
  O  O45  1  0.22676344  0.03211445  0.07063751  1
  O  O46  1  0.22676344  0.46788555  0.57063751  1
  O  O47  1  0.77323656  0.96788555  0.92936249  1
  O  O48  1  0.50520430  0.39676871  0.39289362  1
  O  O49  1  0.49479570  0.89676871  0.10710638  1
  O  O50  1  0.49479570  0.60323129  0.60710638  1
  O  O51  1  0.50520430  0.10323129  0.89289362  1
  O  O52  1  0.86554931  0.38798006  0.30633646  1
  O  O53  1  0.13445069  0.88798006  0.19366354  1
  O  O54  1  0.13445069  0.61201994  0.69366354  1
  O  O55  1  0.86554931  0.11201994  0.80633646  1
  O  O56  1  0.78122030  0.37592935  0.96469086  1
  O  O57  1  0.21877970  0.87592935  0.53530914  1
  O  O58  1  0.21877970  0.62407065  0.03530914  1
  O  O59  1  0.78122030  0.12407065  0.46469086  1
  O  O60  1  0.86504371  0.31506758  0.71197180  1
  O  O61  1  0.13495629  0.81506758  0.78802820  1
  O  O62  1  0.13495629  0.68493242  0.28802820  1
  O  O63  1  0.86504371  0.18493242  0.21197180  1
  O  O64  1  0.15659835  0.40390068  0.91937938  1
  O  O65  1  0.84340165  0.90390068  0.58062062  1
  O  O66  1  0.84340165  0.59609932  0.08062062  1
  O  O67  1  0.15659835  0.09609932  0.41937938  1
  O  O68  1  0.82735375  0.48571919  0.74391431  1
  O  O69  1  0.17264625  0.98571919  0.75608569  1
  O  O70  1  0.17264625  0.51428081  0.25608569  1
  O  O71  1  0.82735375  0.01428081  0.24391431  1
