# generated using pymatgen
data_NaMg6Ga
_symmetry_space_group_name_H-M   'P 1'
_cell_length_a   6.43698964
_cell_length_b   6.37553689
_cell_length_c   5.11094312
_cell_angle_alpha   90.00000000
_cell_angle_beta   90.00000000
_cell_angle_gamma   119.68469868
_symmetry_Int_Tables_number   1
_chemical_formula_structural   NaMg6Ga
_chemical_formula_sum   'Na1 Mg6 Ga1'
_cell_volume   182.22264121
_cell_formula_units_Z   1
loop_
 _symmetry_equiv_pos_site_id
 _symmetry_equiv_pos_as_xyz
  1  'x, y, z'
loop_
 _atom_site_type_symbol
 _atom_site_label
 _atom_site_symmetry_multiplicity
 _atom_site_fract_x
 _atom_site_fract_y
 _atom_site_fract_z
 _atom_site_occupancy
  Na  Na0  1  0.16611480  0.33305690  0.25000000  1
  Mg  Mg1  1  0.66671871  0.33172285  0.25000000  1
  Mg  Mg2  1  0.66671871  0.83499487  0.25000000  1
  Mg  Mg3  1  0.33242467  0.16115160  0.75000000  1
  Mg  Mg4  1  0.33242467  0.67127407  0.75000000  1
  Mg  Mg5  1  0.82956398  0.16478249  0.75000000  1
  Mg  Mg6  1  0.83617978  0.66809039  0.75000000  1
  Ga  Ga7  1  0.16985468  0.83492684  0.25000000  1
