# generated using pymatgen
data_LiCaMg6
_symmetry_space_group_name_H-M   'P 1'
_cell_length_a   6.62747984
_cell_length_b   6.51239603
_cell_length_c   5.27969404
_cell_angle_alpha   90.00000000
_cell_angle_beta   90.00000000
_cell_angle_gamma   119.42723135
_symmetry_Int_Tables_number   1
_chemical_formula_structural   LiCaMg6
_chemical_formula_sum   'Li1 Ca1 Mg6'
_cell_volume   198.47524866
_cell_formula_units_Z   1
loop_
 _symmetry_equiv_pos_site_id
 _symmetry_equiv_pos_as_xyz
  1  'x, y, z'
loop_
 _atom_site_type_symbol
 _atom_site_label
 _atom_site_symmetry_multiplicity
 _atom_site_fract_x
 _atom_site_fract_y
 _atom_site_fract_z
 _atom_site_occupancy
  Li  Li0  1  0.16922373  0.83461137  0.25000000  1
  Ca  Ca1  1  0.16564480  0.33282190  0.25000000  1
  Mg  Mg2  1  0.66362211  0.32841965  0.25000000  1
  Mg  Mg3  1  0.66362211  0.83520146  0.25000000  1
  Mg  Mg4  1  0.33694515  0.16141030  0.75000000  1
  Mg  Mg5  1  0.33694515  0.67553585  0.75000000  1
  Mg  Mg6  1  0.82740364  0.16370232  0.75000000  1
  Mg  Mg7  1  0.83659332  0.66829716  0.75000000  1
