# generated using pymatgen
data_KCaMg14
_symmetry_space_group_name_H-M   'P 1'
_cell_length_a   6.71617712
_cell_length_b   6.71617652
_cell_length_c   10.54856865
_cell_angle_alpha   90.00000000
_cell_angle_beta   90.00000000
_cell_angle_gamma   120.00000295
_symmetry_Int_Tables_number   1
_chemical_formula_structural   KCaMg14
_chemical_formula_sum   'K1 Ca1 Mg14'
_cell_volume   412.06753092
_cell_formula_units_Z   1
loop_
 _symmetry_equiv_pos_site_id
 _symmetry_equiv_pos_as_xyz
  1  'x, y, z'
loop_
 _atom_site_type_symbol
 _atom_site_label
 _atom_site_symmetry_multiplicity
 _atom_site_fract_x
 _atom_site_fract_y
 _atom_site_fract_z
 _atom_site_occupancy
  K  K0  1  0.16666700  0.33333300  0.62500000  1
  Ca  Ca1  1  0.16666700  0.33333300  0.12500000  1
  Mg  Mg2  1  0.17200207  0.83600053  0.12500000  1
  Mg  Mg3  1  0.17049526  0.83524713  0.62500000  1
  Mg  Mg4  1  0.66399947  0.32799793  0.12500000  1
  Mg  Mg5  1  0.66475287  0.32950474  0.62500000  1
  Mg  Mg6  1  0.66399947  0.83600053  0.12500000  1
  Mg  Mg7  1  0.66475287  0.83524713  0.62500000  1
  Mg  Mg8  1  0.33984063  0.16015937  0.37131067  1
  Mg  Mg9  1  0.33984063  0.16015937  0.87868933  1
  Mg  Mg10  1  0.33984063  0.67968225  0.37131067  1
  Mg  Mg11  1  0.33984063  0.67968225  0.87868933  1
  Mg  Mg12  1  0.82031775  0.16015937  0.37131067  1
  Mg  Mg13  1  0.82031775  0.16015937  0.87868933  1
  Mg  Mg14  1  0.83333300  0.66666700  0.37506572  1
  Mg  Mg15  1  0.83333300  0.66666700  0.87493428  1
