# generated using pymatgen
data_NaMg6Ga
_symmetry_space_group_name_H-M   'P 1'
_cell_length_a   6.41047157
_cell_length_b   6.41047105
_cell_length_c   5.13105559
_cell_angle_alpha   90.00000000
_cell_angle_beta   90.00000000
_cell_angle_gamma   119.96477846
_symmetry_Int_Tables_number   1
_chemical_formula_structural   NaMg6Ga
_chemical_formula_sum   'Na1 Mg6 Ga1'
_cell_volume   182.67171314
_cell_formula_units_Z   1
loop_
 _symmetry_equiv_pos_site_id
 _symmetry_equiv_pos_as_xyz
  1  'x, y, z'
loop_
 _atom_site_type_symbol
 _atom_site_label
 _atom_site_symmetry_multiplicity
 _atom_site_fract_x
 _atom_site_fract_y
 _atom_site_fract_z
 _atom_site_occupancy
  Na  Na0  1  0.16919426  0.33080574  0.25000000  1
  Mg  Mg1  1  0.17104574  0.83929220  0.25000000  1
  Mg  Mg2  1  0.66070780  0.32895426  0.25000000  1
  Mg  Mg3  1  0.66549846  0.83450154  0.25000000  1
  Mg  Mg4  1  0.33651911  0.67112460  0.75000000  1
  Mg  Mg5  1  0.82887540  0.16348089  0.75000000  1
  Mg  Mg6  1  0.83284466  0.66715534  0.75000000  1
  Ga  Ga7  1  0.33531457  0.16468543  0.75000000  1
