# generated using pymatgen
data_Mg6CdSb
_symmetry_space_group_name_H-M   'P 1'
_cell_length_a   6.34770791
_cell_length_b   6.34770741
_cell_length_c   5.35942047
_cell_angle_alpha   90.00000000
_cell_angle_beta   90.00000000
_cell_angle_gamma   121.50580117
_symmetry_Int_Tables_number   1
_chemical_formula_structural   Mg6CdSb
_chemical_formula_sum   'Mg6 Cd1 Sb1'
_cell_volume   184.11556390
_cell_formula_units_Z   1
loop_
 _symmetry_equiv_pos_site_id
 _symmetry_equiv_pos_as_xyz
  1  'x, y, z'
loop_
 _atom_site_type_symbol
 _atom_site_label
 _atom_site_symmetry_multiplicity
 _atom_site_fract_x
 _atom_site_fract_y
 _atom_site_fract_z
 _atom_site_occupancy
  Mg  Mg0  1  0.16454475  0.84201995  0.25000000  1
  Mg  Mg1  1  0.65798005  0.33545525  0.25000000  1
  Mg  Mg2  1  0.66785464  0.83214536  0.25000000  1
  Mg  Mg3  1  0.33811824  0.65710620  0.75000000  1
  Mg  Mg4  1  0.84289380  0.16188176  0.75000000  1
  Mg  Mg5  1  0.83354018  0.66645982  0.75000000  1
  Cd  Cd6  1  0.14650790  0.35349210  0.25000000  1
  Sb  Sb7  1  0.34856045  0.15143955  0.75000000  1
