# generated using pymatgen
data_CaMg14V
_symmetry_space_group_name_H-M   'P 1'
_cell_length_a   6.48322170
_cell_length_b   6.44793651
_cell_length_c   10.36609275
_cell_angle_alpha   90.00000000
_cell_angle_beta   90.00000000
_cell_angle_gamma   119.82013060
_symmetry_Int_Tables_number   1
_chemical_formula_structural   CaMg14V
_chemical_formula_sum   'Ca1 Mg14 V1'
_cell_volume   375.96000690
_cell_formula_units_Z   1
loop_
 _symmetry_equiv_pos_site_id
 _symmetry_equiv_pos_as_xyz
  1  'x, y, z'
loop_
 _atom_site_type_symbol
 _atom_site_label
 _atom_site_symmetry_multiplicity
 _atom_site_fract_x
 _atom_site_fract_y
 _atom_site_fract_z
 _atom_site_occupancy
  Ca  Ca0  1  0.16514669  0.33257284  0.12500000  1
  Mg  Mg1  1  0.16796878  0.33398389  0.62500000  1
  Mg  Mg2  1  0.16551909  0.83275905  0.62500000  1
  Mg  Mg3  1  0.66067271  0.32538862  0.12500000  1
  Mg  Mg4  1  0.66580807  0.33467838  0.62500000  1
  Mg  Mg5  1  0.66067271  0.83528309  0.12500000  1
  Mg  Mg6  1  0.66580807  0.83112869  0.62500000  1
  Mg  Mg7  1  0.33431884  0.15865460  0.37721078  1
  Mg  Mg8  1  0.33431884  0.15865460  0.87278922  1
  Mg  Mg9  1  0.33431884  0.67566524  0.37721078  1
  Mg  Mg10  1  0.33431884  0.67566524  0.87278922  1
  Mg  Mg11  1  0.82958947  0.16479523  0.38378280  1
  Mg  Mg12  1  0.82958947  0.16479523  0.86621720  1
  Mg  Mg13  1  0.84079662  0.67039881  0.36581055  1
  Mg  Mg14  1  0.84079662  0.67039881  0.88418945  1
  V  V15  1  0.17035636  0.83517768  0.12500000  1
