# generated using pymatgen
data_Te4Mo(WS)2
_symmetry_space_group_name_H-M   'P 1'
_cell_length_a   3.41745807
_cell_length_b   3.41745844
_cell_length_c   31.78352303
_cell_angle_alpha   90.00039750
_cell_angle_beta   90.00000000
_cell_angle_gamma   119.99999651
_symmetry_Int_Tables_number   1
_chemical_formula_structural   Te4Mo(WS)2
_chemical_formula_sum   'Te4 Mo1 W2 S2'
_cell_volume   321.46901409
_cell_formula_units_Z   1
loop_
 _symmetry_equiv_pos_site_id
 _symmetry_equiv_pos_as_xyz
  1  'x, y, z'
loop_
 _atom_site_type_symbol
 _atom_site_label
 _atom_site_symmetry_multiplicity
 _atom_site_fract_x
 _atom_site_fract_y
 _atom_site_fract_z
 _atom_site_occupancy
  Te  Te0  1  0.33335157  0.66670415  0.40608420  1
  Te  Te1  1  0.66664691  0.33329281  0.05689969  1
  Te  Te2  1  0.66665005  0.33329909  0.17429505  1
  Te  Te3  1  0.33335045  0.66670191  0.28803793  1
  Mo  Mo4  1  0.33331251  0.66662503  0.11554780  1
  W  W5  1  0.33331189  0.66662377  0.57828645  1
  W  W6  1  0.66668742  0.33337484  0.34704717  1
  S  S7  1  0.66664510  0.33328921  0.53111093  1
  S  S8  1  0.66664510  0.33328920  0.62553179  1
