# generated using pymatgen
data_Te2MoW2(SeS)2
_symmetry_space_group_name_H-M   'P 1'
_cell_length_a   3.34871367
_cell_length_b   3.34871229
_cell_length_c   31.06646250
_cell_angle_alpha   90.00010701
_cell_angle_beta   90.00000077
_cell_angle_gamma   120.00000122
_symmetry_Int_Tables_number   1
_chemical_formula_structural   Te2MoW2(SeS)2
_chemical_formula_sum   'Te2 Mo1 W2 Se2 S2'
_cell_volume   301.70206400
_cell_formula_units_Z   1
loop_
 _symmetry_equiv_pos_site_id
 _symmetry_equiv_pos_as_xyz
  1  'x, y, z'
loop_
 _atom_site_type_symbol
 _atom_site_label
 _atom_site_symmetry_multiplicity
 _atom_site_fract_x
 _atom_site_fract_y
 _atom_site_fract_z
 _atom_site_occupancy
  Te  Te0  1  0.33335666  0.66671361  0.40831606  1
  Te  Te1  1  0.33334868  0.66669797  0.28569358  1
  Mo  Mo2  1  0.33331312  0.66662592  0.11557790  1
  W  W3  1  0.33331244  0.66662427  0.57835283  1
  W  W4  1  0.66668604  0.33337251  0.34701130  1
  Se  Se5  1  0.66664574  0.33329108  0.06200889  1
  Se  Se6  1  0.66664860  0.33329664  0.16919757  1
  S  S7  1  0.66664120  0.33328175  0.52939563  1
  S  S8  1  0.66664852  0.33329624  0.62728725  1
