# generated using pymatgen
data_Te2W3S4
_symmetry_space_group_name_H-M   'P 1'
_cell_length_a   3.30011874
_cell_length_b   3.30010782
_cell_length_c   30.55128026
_cell_angle_alpha   90.00000000
_cell_angle_beta   90.00000000
_cell_angle_gamma   120.00010942
_symmetry_Int_Tables_number   1
_chemical_formula_structural   Te2W3S4
_chemical_formula_sum   'Te2 W3 S4'
_cell_volume   288.14909715
_cell_formula_units_Z   1
loop_
 _symmetry_equiv_pos_site_id
 _symmetry_equiv_pos_as_xyz
  1  'x, y, z'
loop_
 _atom_site_type_symbol
 _atom_site_label
 _atom_site_symmetry_multiplicity
 _atom_site_fract_x
 _atom_site_fract_y
 _atom_site_fract_z
 _atom_site_occupancy
  Te  Te0  1  0.33335539  0.66671179  0.40992208  1
  Te  Te1  1  0.33335539  0.66671179  0.28404292  1
  W  W2  1  0.33330973  0.66661945  0.11561242  1
  W  W3  1  0.33330973  0.66661945  0.57835258  1
  W  W4  1  0.66668900  0.33337799  0.34698200  1
  S  S5  1  0.66664448  0.33328796  0.06536485  1
  S  S6  1  0.66664640  0.33329180  0.52807254  1
  S  S7  1  0.66664640  0.33329180  0.16589246  1
  S  S8  1  0.66664448  0.33328796  0.62859915  1
