# generated using pymatgen
data_Te2MoW2(SeS)2
_symmetry_space_group_name_H-M   'P 1'
_cell_length_a   3.34925187
_cell_length_b   3.34924599
_cell_length_c   31.00619144
_cell_angle_alpha   89.99949158
_cell_angle_beta   90.00000000
_cell_angle_gamma   120.00005818
_symmetry_Int_Tables_number   1
_chemical_formula_structural   Te2MoW2(SeS)2
_chemical_formula_sum   'Te2 Mo1 W2 Se2 S2'
_cell_volume   301.21296129
_cell_formula_units_Z   1
loop_
 _symmetry_equiv_pos_site_id
 _symmetry_equiv_pos_as_xyz
  1  'x, y, z'
loop_
 _atom_site_type_symbol
 _atom_site_label
 _atom_site_symmetry_multiplicity
 _atom_site_fract_x
 _atom_site_fract_y
 _atom_site_fract_z
 _atom_site_occupancy
  Te  Te0  1  0.66664876  0.33329653  0.51691361  1
  Te  Te1  1  0.66664741  0.33329383  0.63974642  1
  Mo  Mo2  1  0.66669193  0.33338387  0.34695644  1
  W  W3  1  0.33330770  0.66661540  0.11565513  1
  W  W4  1  0.33330928  0.66661856  0.57836486  1
  Se  Se5  1  0.33335383  0.66670867  0.40061570  1
  Se  Se6  1  0.33335407  0.66670913  0.29327276  1
  S  S7  1  0.66664696  0.33329292  0.06657931  1
  S  S8  1  0.66664105  0.33328109  0.16473677  1
