# generated using pymatgen
data_Te2W3S4
_symmetry_space_group_name_H-M   'P 1'
_cell_length_a   3.30067774
_cell_length_b   3.30068766
_cell_length_c   30.56994254
_cell_angle_alpha   90.00025426
_cell_angle_beta   90.00000000
_cell_angle_gamma   119.99990056
_symmetry_Int_Tables_number   1
_chemical_formula_structural   Te2W3S4
_chemical_formula_sum   'Te2 W3 S4'
_cell_volume   288.42522721
_cell_formula_units_Z   1
loop_
 _symmetry_equiv_pos_site_id
 _symmetry_equiv_pos_as_xyz
  1  'x, y, z'
loop_
 _atom_site_type_symbol
 _atom_site_label
 _atom_site_symmetry_multiplicity
 _atom_site_fract_x
 _atom_site_fract_y
 _atom_site_fract_z
 _atom_site_occupancy
  Te  Te0  1  0.66664696  0.33329292  0.51529327  1
  Te  Te1  1  0.66664883  0.33329667  0.64137326  1
  W  W2  1  0.33330903  0.66661806  0.11565216  1
  W  W3  1  0.33330946  0.66661892  0.57836168  1
  W  W4  1  0.66668924  0.33337849  0.34693877  1
  S  S5  1  0.33335432  0.66670964  0.39717994  1
  S  S6  1  0.66664580  0.33329059  0.06540508  1
  S  S7  1  0.66664462  0.33328823  0.16590584  1
  S  S8  1  0.33335274  0.66670648  0.29673099  1
