# generated using pymatgen
data_Mg14MnBi
_symmetry_space_group_name_H-M   'P 1'
_cell_length_a   6.34619241
_cell_length_b   6.34801093
_cell_length_c   10.36181546
_cell_angle_alpha   90.00000000
_cell_angle_beta   90.00000000
_cell_angle_gamma   120.00948489
_symmetry_Int_Tables_number   1
_chemical_formula_structural   Mg14MnBi
_chemical_formula_sum   'Mg14 Mn1 Bi1'
_cell_volume   361.47300531
_cell_formula_units_Z   1
loop_
 _symmetry_equiv_pos_site_id
 _symmetry_equiv_pos_as_xyz
  1  'x, y, z'
loop_
 _atom_site_type_symbol
 _atom_site_label
 _atom_site_symmetry_multiplicity
 _atom_site_fract_x
 _atom_site_fract_y
 _atom_site_fract_z
 _atom_site_occupancy
  Mg  Mg0  1  0.16694296  0.33347098  0.62500000  1
  Mg  Mg1  1  0.16639923  0.83319911  0.62500000  1
  Mg  Mg2  1  0.66763873  0.33304812  0.12500000  1
  Mg  Mg3  1  0.66651016  0.33340285  0.62500000  1
  Mg  Mg4  1  0.66763873  0.83458961  0.12500000  1
  Mg  Mg5  1  0.66651016  0.83310631  0.62500000  1
  Mg  Mg6  1  0.33364265  0.17233334  0.37500447  1
  Mg  Mg7  1  0.33364265  0.17233334  0.87499553  1
  Mg  Mg8  1  0.33364265  0.66131032  0.37500447  1
  Mg  Mg9  1  0.33364265  0.66131032  0.87499553  1
  Mg  Mg10  1  0.83712979  0.16856540  0.37243914  1
  Mg  Mg11  1  0.83712979  0.16856540  0.87756086  1
  Mg  Mg12  1  0.82956763  0.66478432  0.37912204  1
  Mg  Mg13  1  0.82956763  0.66478432  0.87087796  1
  Mn  Mn14  1  0.16682427  0.33341163  0.12500000  1
  Bi  Bi15  1  0.16357029  0.83178465  0.12500000  1
