# generated using pymatgen
data_Mg14MnZn
_symmetry_space_group_name_H-M   'P 1'
_cell_length_a   6.25904499
_cell_length_b   6.25904450
_cell_length_c   10.14168390
_cell_angle_alpha   90.00000000
_cell_angle_beta   90.00000000
_cell_angle_gamma   120.00000255
_symmetry_Int_Tables_number   1
_chemical_formula_structural   Mg14MnZn
_chemical_formula_sum   'Mg14 Mn1 Zn1'
_cell_volume   344.07791918
_cell_formula_units_Z   1
loop_
 _symmetry_equiv_pos_site_id
 _symmetry_equiv_pos_as_xyz
  1  'x, y, z'
loop_
 _atom_site_type_symbol
 _atom_site_label
 _atom_site_symmetry_multiplicity
 _atom_site_fract_x
 _atom_site_fract_y
 _atom_site_fract_z
 _atom_site_occupancy
  Mg  Mg0  1  0.16753806  0.83376853  0.12500000  1
  Mg  Mg1  1  0.16513379  0.83256640  0.62500000  1
  Mg  Mg2  1  0.66623147  0.33246194  0.12500000  1
  Mg  Mg3  1  0.66743360  0.33486621  0.62500000  1
  Mg  Mg4  1  0.66623147  0.83376853  0.12500000  1
  Mg  Mg5  1  0.66743360  0.83256640  0.62500000  1
  Mg  Mg6  1  0.32990451  0.17009549  0.37469481  1
  Mg  Mg7  1  0.32990451  0.17009549  0.87530519  1
  Mg  Mg8  1  0.32990451  0.65981001  0.37469481  1
  Mg  Mg9  1  0.32990451  0.65981001  0.87530519  1
  Mg  Mg10  1  0.84018999  0.17009549  0.37469481  1
  Mg  Mg11  1  0.84018999  0.17009549  0.87530519  1
  Mg  Mg12  1  0.83333300  0.66666700  0.37510411  1
  Mg  Mg13  1  0.83333300  0.66666700  0.87489589  1
  Mn  Mn14  1  0.16666700  0.33333300  0.12500000  1
  Zn  Zn15  1  0.16666700  0.33333300  0.62500000  1
