# generated using pymatgen
data_CaMg14Si
_symmetry_space_group_name_H-M   'P 1'
_cell_length_a   6.39609916
_cell_length_b   6.39609864
_cell_length_c   10.51526413
_cell_angle_alpha   90.00000000
_cell_angle_beta   90.00000000
_cell_angle_gamma   120.00000268
_symmetry_Int_Tables_number   1
_chemical_formula_structural   CaMg14Si
_chemical_formula_sum   'Ca1 Mg14 Si1'
_cell_volume   372.54706568
_cell_formula_units_Z   1
loop_
 _symmetry_equiv_pos_site_id
 _symmetry_equiv_pos_as_xyz
  1  'x, y, z'
loop_
 _atom_site_type_symbol
 _atom_site_label
 _atom_site_symmetry_multiplicity
 _atom_site_fract_x
 _atom_site_fract_y
 _atom_site_fract_z
 _atom_site_occupancy
  Ca  Ca0  1  0.16666700  0.33333300  0.12500000  1
  Mg  Mg1  1  0.17455792  0.83727846  0.12500000  1
  Mg  Mg2  1  0.16149724  0.83074812  0.62500000  1
  Mg  Mg3  1  0.66272154  0.32544208  0.12500000  1
  Mg  Mg4  1  0.66925188  0.33850276  0.62500000  1
  Mg  Mg5  1  0.66272154  0.83727846  0.12500000  1
  Mg  Mg6  1  0.66925188  0.83074812  0.62500000  1
  Mg  Mg7  1  0.33223470  0.16776530  0.38569968  1
  Mg  Mg8  1  0.33223470  0.16776530  0.86430032  1
  Mg  Mg9  1  0.33223470  0.66447041  0.38569968  1
  Mg  Mg10  1  0.33223470  0.66447041  0.86430032  1
  Mg  Mg11  1  0.83552959  0.16776530  0.38569968  1
  Mg  Mg12  1  0.83552959  0.16776530  0.86430032  1
  Mg  Mg13  1  0.83333300  0.66666700  0.36742154  1
  Mg  Mg14  1  0.83333300  0.66666700  0.88257846  1
  Si  Si15  1  0.16666700  0.33333300  0.62500000  1
