# generated using pymatgen
data_Te2MoWS2
_symmetry_space_group_name_H-M   'P 1'
_cell_length_a   3.35497830
_cell_length_b   3.35499906
_cell_length_c   38.57229831
_cell_angle_alpha   90.00042861
_cell_angle_beta   90.00000000
_cell_angle_gamma   119.99979530
_symmetry_Int_Tables_number   1
_chemical_formula_structural   Te2MoWS2
_chemical_formula_sum   'Te4 Mo2 W2 S4'
_cell_volume   376.00114102
_cell_formula_units_Z   2
loop_
 _symmetry_equiv_pos_site_id
 _symmetry_equiv_pos_as_xyz
  1  'x, y, z'
loop_
 _atom_site_type_symbol
 _atom_site_label
 _atom_site_symmetry_multiplicity
 _atom_site_fract_x
 _atom_site_fract_y
 _atom_site_fract_z
 _atom_site_occupancy
  Te  Te0  1  0.33335903  0.66671907  0.33057913  1
  Te  Te1  1  0.66664097  0.33328093  0.42087887  1
  Te  Te2  1  0.66664559  0.33329018  0.51889450  1
  Te  Te3  1  0.33335441  0.66670982  0.23256350  1
  Mo  Mo4  1  0.33331434  0.66662868  0.46990626  1
  Mo  Mo5  1  0.66668566  0.33337132  0.28155174  1
  W  W6  1  0.33331036  0.66662071  0.09391476  1
  W  W7  1  0.66668964  0.33337929  0.65754324  1
  S  S8  1  0.33335834  0.66671768  0.69691477  1
  S  S9  1  0.66664166  0.33328232  0.05454323  1
  S  S10  1  0.66664637  0.33329174  0.13330476  1
  S  S11  1  0.33335363  0.66670826  0.61815324  1
