# generated using pymatgen
data_Mg30ZnBiO32
_symmetry_space_group_name_H-M   'P 1'
_cell_length_a   8.64243238
_cell_length_b   8.64443867
_cell_length_c   8.64443867
_cell_angle_alpha   90.00000000
_cell_angle_beta   90.00000000
_cell_angle_gamma   90.00000000
_symmetry_Int_Tables_number   1
_chemical_formula_structural   Mg30ZnBiO32
_chemical_formula_sum   'Mg30 Zn1 Bi1 O32'
_cell_volume   645.81716691
_cell_formula_units_Z   1
loop_
 _symmetry_equiv_pos_site_id
 _symmetry_equiv_pos_as_xyz
  1  'x, y, z'
loop_
 _atom_site_type_symbol
 _atom_site_label
 _atom_site_symmetry_multiplicity
 _atom_site_fract_x
 _atom_site_fract_y
 _atom_site_fract_z
 _atom_site_occupancy
  Mg  Mg0  1  -0.00000000  0.00000000  0.50000000  1
  Mg  Mg1  1  -0.00000000  0.50000000  -0.00000000  1
  Mg  Mg2  1  0.50000000  0.00000000  -0.00000000  1
  Mg  Mg3  1  0.50000000  0.00000000  0.50000000  1
  Mg  Mg4  1  0.50000000  0.50000000  -0.00000000  1
  Mg  Mg5  1  0.50000000  0.50000000  0.50000000  1
  Mg  Mg6  1  -0.00000000  0.24285214  0.24285214  1
  Mg  Mg7  1  -0.00000000  0.24285214  0.75714786  1
  Mg  Mg8  1  -0.00000000  0.75714786  0.24285214  1
  Mg  Mg9  1  -0.00000000  0.75714786  0.75714786  1
  Mg  Mg10  1  0.50000000  0.24941287  0.24941287  1
  Mg  Mg11  1  0.50000000  0.24941287  0.75058713  1
  Mg  Mg12  1  0.50000000  0.75058713  0.24941287  1
  Mg  Mg13  1  0.50000000  0.75058713  0.75058713  1
  Mg  Mg14  1  0.25015423  0.00000000  0.24934989  1
  Mg  Mg15  1  0.25015423  0.00000000  0.75065011  1
  Mg  Mg16  1  0.25655026  0.50000000  0.24310119  1
  Mg  Mg17  1  0.25655026  0.50000000  0.75689881  1
  Mg  Mg18  1  0.74984577  0.00000000  0.24934989  1
  Mg  Mg19  1  0.74984577  0.00000000  0.75065011  1
  Mg  Mg20  1  0.74344974  0.50000000  0.24310119  1
  Mg  Mg21  1  0.74344974  0.50000000  0.75689881  1
  Mg  Mg22  1  0.25015423  0.24934989  -0.00000000  1
  Mg  Mg23  1  0.25655026  0.24310119  0.50000000  1
  Mg  Mg24  1  0.25015423  0.75065011  -0.00000000  1
  Mg  Mg25  1  0.25655026  0.75689881  0.50000000  1
  Mg  Mg26  1  0.74984577  0.24934989  -0.00000000  1
  Mg  Mg27  1  0.74344974  0.24310119  0.50000000  1
  Mg  Mg28  1  0.74984577  0.75065011  -0.00000000  1
  Mg  Mg29  1  0.74344974  0.75689881  0.50000000  1
  Zn  Zn30  1  -0.00000000  0.00000000  -0.00000000  1
  Bi  Bi31  1  -0.00000000  0.50000000  0.50000000  1
  O  O32  1  0.25486254  0.00000000  -0.00000000  1
  O  O33  1  0.25295010  0.00000000  0.50000000  1
  O  O34  1  0.25295010  0.50000000  -0.00000000  1
  O  O35  1  0.26828522  0.50000000  0.50000000  1
  O  O36  1  0.74513746  0.00000000  -0.00000000  1
  O  O37  1  0.74704990  0.00000000  0.50000000  1
  O  O38  1  0.74704990  0.50000000  -0.00000000  1
  O  O39  1  0.73171478  0.50000000  0.50000000  1
  O  O40  1  0.24870352  0.25118306  0.25118306  1
  O  O41  1  0.24870352  0.25118306  0.74881694  1
  O  O42  1  0.24870352  0.74881694  0.25118306  1
  O  O43  1  0.24870352  0.74881694  0.74881694  1
  O  O44  1  0.75129648  0.25118306  0.25118306  1
  O  O45  1  0.75129648  0.25118306  0.74881694  1
  O  O46  1  0.75129648  0.74881694  0.25118306  1
  O  O47  1  0.75129648  0.74881694  0.74881694  1
  O  O48  1  -0.00000000  0.00000000  0.25302568  1
  O  O49  1  -0.00000000  0.00000000  0.74697432  1
  O  O50  1  -0.00000000  0.50000000  0.23226956  1
  O  O51  1  -0.00000000  0.50000000  0.76773044  1
  O  O52  1  0.50000000  0.00000000  0.25069335  1
  O  O53  1  0.50000000  0.00000000  0.74930665  1
  O  O54  1  0.50000000  0.50000000  0.24784832  1
  O  O55  1  0.50000000  0.50000000  0.75215168  1
  O  O56  1  -0.00000000  0.25302568  -0.00000000  1
  O  O57  1  -0.00000000  0.23226956  0.50000000  1
  O  O58  1  -0.00000000  0.74697432  -0.00000000  1
  O  O59  1  -0.00000000  0.76773044  0.50000000  1
  O  O60  1  0.50000000  0.25069335  -0.00000000  1
  O  O61  1  0.50000000  0.24784832  0.50000000  1
  O  O62  1  0.50000000  0.74930665  -0.00000000  1
  O  O63  1  0.50000000  0.75215168  0.50000000  1
