# generated using pymatgen
data_Mg30MnBiO32
_symmetry_space_group_name_H-M   'P 1'
_cell_length_a   8.65152117
_cell_length_b   8.64788932
_cell_length_c   8.64788932
_cell_angle_alpha   90.00000000
_cell_angle_beta   90.00000000
_cell_angle_gamma   90.00000000
_symmetry_Int_Tables_number   1
_chemical_formula_structural   Mg30MnBiO32
_chemical_formula_sum   'Mg30 Mn1 Bi1 O32'
_cell_volume   647.01257303
_cell_formula_units_Z   1
loop_
 _symmetry_equiv_pos_site_id
 _symmetry_equiv_pos_as_xyz
  1  'x, y, z'
loop_
 _atom_site_type_symbol
 _atom_site_label
 _atom_site_symmetry_multiplicity
 _atom_site_fract_x
 _atom_site_fract_y
 _atom_site_fract_z
 _atom_site_occupancy
  Mg  Mg0  1  -0.00000000  0.00000000  0.50000000  1
  Mg  Mg1  1  -0.00000000  0.50000000  -0.00000000  1
  Mg  Mg2  1  0.50000000  0.00000000  0.00000000  1
  Mg  Mg3  1  0.50000000  0.00000000  0.50000000  1
  Mg  Mg4  1  0.50000000  0.50000000  -0.00000000  1
  Mg  Mg5  1  0.50000000  0.50000000  0.50000000  1
  Mg  Mg6  1  -0.00000000  0.24403012  0.24403012  1
  Mg  Mg7  1  -0.00000000  0.24403012  0.75596988  1
  Mg  Mg8  1  -0.00000000  0.75596988  0.24403012  1
  Mg  Mg9  1  -0.00000000  0.75596988  0.75596988  1
  Mg  Mg10  1  0.50000000  0.24936220  0.24936220  1
  Mg  Mg11  1  0.50000000  0.24936220  0.75063780  1
  Mg  Mg12  1  0.50000000  0.75063780  0.24936220  1
  Mg  Mg13  1  0.50000000  0.75063780  0.75063780  1
  Mg  Mg14  1  0.25157606  0.00000000  0.25021404  1
  Mg  Mg15  1  0.25157606  0.00000000  0.74978596  1
  Mg  Mg16  1  0.25673010  0.50000000  0.24336424  1
  Mg  Mg17  1  0.25673010  0.50000000  0.75663576  1
  Mg  Mg18  1  0.74842394  0.00000000  0.25021404  1
  Mg  Mg19  1  0.74842394  0.00000000  0.74978596  1
  Mg  Mg20  1  0.74326990  0.50000000  0.24336424  1
  Mg  Mg21  1  0.74326990  0.50000000  0.75663576  1
  Mg  Mg22  1  0.25157606  0.25021404  0.00000000  1
  Mg  Mg23  1  0.25673010  0.24336424  0.50000000  1
  Mg  Mg24  1  0.25157606  0.74978596  0.00000000  1
  Mg  Mg25  1  0.25673010  0.75663576  0.50000000  1
  Mg  Mg26  1  0.74842394  0.25021404  -0.00000000  1
  Mg  Mg27  1  0.74326990  0.24336424  0.50000000  1
  Mg  Mg28  1  0.74842394  0.74978596  -0.00000000  1
  Mg  Mg29  1  0.74326990  0.75663576  0.50000000  1
  Mn  Mn30  1  -0.00000000  0.00000000  0.00000000  1
  Bi  Bi31  1  -0.00000000  0.50000000  0.50000000  1
  O  O32  1  0.25642299  0.00000000  -0.00000000  1
  O  O33  1  0.25310241  0.00000000  0.50000000  1
  O  O34  1  0.25310241  0.50000000  -0.00000000  1
  O  O35  1  0.26971135  0.50000000  0.50000000  1
  O  O36  1  0.74357701  0.00000000  0.00000000  1
  O  O37  1  0.74689759  0.00000000  0.50000000  1
  O  O38  1  0.74689759  0.50000000  0.00000000  1
  O  O39  1  0.73028865  0.50000000  0.50000000  1
  O  O40  1  0.24871958  0.25086133  0.25086133  1
  O  O41  1  0.24871958  0.25086133  0.74913867  1
  O  O42  1  0.24871958  0.74913867  0.25086133  1
  O  O43  1  0.24871958  0.74913867  0.74913867  1
  O  O44  1  0.75128042  0.25086133  0.25086133  1
  O  O45  1  0.75128042  0.25086133  0.74913867  1
  O  O46  1  0.75128042  0.74913867  0.25086133  1
  O  O47  1  0.75128042  0.74913867  0.74913867  1
  O  O48  1  -0.00000000  0.00000000  0.25423807  1
  O  O49  1  -0.00000000  0.00000000  0.74576193  1
  O  O50  1  -0.00000000  0.50000000  0.23150440  1
  O  O51  1  -0.00000000  0.50000000  0.76849560  1
  O  O52  1  0.50000000  0.00000000  0.25080730  1
  O  O53  1  0.50000000  0.00000000  0.74919270  1
  O  O54  1  0.50000000  0.50000000  0.24747649  1
  O  O55  1  0.50000000  0.50000000  0.75252351  1
  O  O56  1  -0.00000000  0.25423807  -0.00000000  1
  O  O57  1  -0.00000000  0.23150440  0.50000000  1
  O  O58  1  -0.00000000  0.74576193  -0.00000000  1
  O  O59  1  -0.00000000  0.76849560  0.50000000  1
  O  O60  1  0.50000000  0.25080730  -0.00000000  1
  O  O61  1  0.50000000  0.24747649  0.50000000  1
  O  O62  1  0.50000000  0.74919270  0.00000000  1
  O  O63  1  0.50000000  0.75252351  0.50000000  1
