# generated using pymatgen
data_Mg14AlFeO16
_symmetry_space_group_name_H-M   'P 1'
_cell_length_a   8.50152375
_cell_length_b   8.54855595
_cell_length_c   4.24257075
_cell_angle_alpha   90.00000000
_cell_angle_beta   90.00000000
_cell_angle_gamma   90.00000000
_symmetry_Int_Tables_number   1
_chemical_formula_structural   Mg14AlFeO16
_chemical_formula_sum   'Mg14 Al1 Fe1 O16'
_cell_volume   308.33201728
_cell_formula_units_Z   1
loop_
 _symmetry_equiv_pos_site_id
 _symmetry_equiv_pos_as_xyz
  1  'x, y, z'
loop_
 _atom_site_type_symbol
 _atom_site_label
 _atom_site_symmetry_multiplicity
 _atom_site_fract_x
 _atom_site_fract_y
 _atom_site_fract_z
 _atom_site_occupancy
  Mg  Mg0  1  0.50000000  0.00000000  0.00000000  1
  Mg  Mg1  1  0.50000000  0.50000000  0.00000000  1
  Mg  Mg2  1  0.00000000  0.25565371  0.50000000  1
  Mg  Mg3  1  0.00000000  0.74434629  0.50000000  1
  Mg  Mg4  1  0.50000000  0.25145015  0.50000000  1
  Mg  Mg5  1  0.50000000  0.74854985  0.50000000  1
  Mg  Mg6  1  0.24958040  0.00000000  0.50000000  1
  Mg  Mg7  1  0.24863899  0.50000000  0.50000000  1
  Mg  Mg8  1  0.75041960  0.00000000  0.50000000  1
  Mg  Mg9  1  0.75136101  0.50000000  0.50000000  1
  Mg  Mg10  1  0.24739348  0.25465529  0.00000000  1
  Mg  Mg11  1  0.24739348  0.74534471  0.00000000  1
  Mg  Mg12  1  0.75260652  0.25465529  0.00000000  1
  Mg  Mg13  1  0.75260652  0.74534471  0.00000000  1
  Al  Al14  1  0.00000000  0.00000000  0.00000000  1
  Fe  Fe15  1  0.00000000  0.50000000  0.00000000  1
  O  O16  1  0.23660558  0.00000000  0.00000000  1
  O  O17  1  0.26196634  0.50000000  0.00000000  1
  O  O18  1  0.76339442  0.00000000  0.00000000  1
  O  O19  1  0.73803366  0.50000000  0.00000000  1
  O  O20  1  0.24903229  0.24932696  0.50000000  1
  O  O21  1  0.24903229  0.75067304  0.50000000  1
  O  O22  1  0.75096771  0.24932696  0.50000000  1
  O  O23  1  0.75096771  0.75067304  0.50000000  1
  O  O24  1  0.00000000  0.00000000  0.50000000  1
  O  O25  1  0.00000000  0.50000000  0.50000000  1
  O  O26  1  0.50000000  0.00000000  0.50000000  1
  O  O27  1  0.50000000  0.50000000  0.50000000  1
  O  O28  1  0.00000000  0.21546909  0.00000000  1
  O  O29  1  0.00000000  0.78453091  0.00000000  1
  O  O30  1  0.50000000  0.24410989  0.00000000  1
  O  O31  1  0.50000000  0.75589011  0.00000000  1
