# generated using pymatgen
data_BaMg30VO32
_symmetry_space_group_name_H-M   'P 1'
_cell_length_a   8.65452437
_cell_length_b   8.66271439
_cell_length_c   8.66271439
_cell_angle_alpha   90.00000000
_cell_angle_beta   90.00000000
_cell_angle_gamma   90.00000000
_symmetry_Int_Tables_number   1
_chemical_formula_structural   BaMg30VO32
_chemical_formula_sum   'Ba1 Mg30 V1 O32'
_cell_volume   649.45818879
_cell_formula_units_Z   1
loop_
 _symmetry_equiv_pos_site_id
 _symmetry_equiv_pos_as_xyz
  1  'x, y, z'
loop_
 _atom_site_type_symbol
 _atom_site_label
 _atom_site_symmetry_multiplicity
 _atom_site_fract_x
 _atom_site_fract_y
 _atom_site_fract_z
 _atom_site_occupancy
  Ba  Ba0  1  0.00000000  0.50000000  0.50000000  1
  Mg  Mg1  1  0.00000000  0.00000000  0.50000000  1
  Mg  Mg2  1  0.00000000  0.50000000  0.00000000  1
  Mg  Mg3  1  0.50000000  0.00000000  0.00000000  1
  Mg  Mg4  1  0.50000000  0.00000000  0.50000000  1
  Mg  Mg5  1  0.50000000  0.50000000  0.00000000  1
  Mg  Mg6  1  0.50000000  0.50000000  0.50000000  1
  Mg  Mg7  1  0.00000000  0.24284526  0.24284526  1
  Mg  Mg8  1  0.00000000  0.24284526  0.75715474  1
  Mg  Mg9  1  0.00000000  0.75715474  0.24284526  1
  Mg  Mg10  1  0.00000000  0.75715474  0.75715474  1
  Mg  Mg11  1  0.50000000  0.24921523  0.24921523  1
  Mg  Mg12  1  0.50000000  0.24921523  0.75078477  1
  Mg  Mg13  1  0.50000000  0.75078477  0.24921523  1
  Mg  Mg14  1  0.50000000  0.75078477  0.75078477  1
  Mg  Mg15  1  0.25098221  0.00000000  0.24973324  1
  Mg  Mg16  1  0.25098221  0.00000000  0.75026676  1
  Mg  Mg17  1  0.25742572  0.50000000  0.24234143  1
  Mg  Mg18  1  0.25742572  0.50000000  0.75765857  1
  Mg  Mg19  1  0.74901779  0.00000000  0.24973324  1
  Mg  Mg20  1  0.74901779  0.00000000  0.75026676  1
  Mg  Mg21  1  0.74257428  0.50000000  0.24234143  1
  Mg  Mg22  1  0.74257428  0.50000000  0.75765857  1
  Mg  Mg23  1  0.25098221  0.24973324  0.00000000  1
  Mg  Mg24  1  0.25742572  0.24234143  0.50000000  1
  Mg  Mg25  1  0.25098221  0.75026676  0.00000000  1
  Mg  Mg26  1  0.25742572  0.75765857  0.50000000  1
  Mg  Mg27  1  0.74901779  0.24973324  0.00000000  1
  Mg  Mg28  1  0.74257428  0.24234143  0.50000000  1
  Mg  Mg29  1  0.74901779  0.75026676  0.00000000  1
  Mg  Mg30  1  0.74257428  0.75765857  0.50000000  1
  V  V31  1  0.00000000  0.00000000  0.00000000  1
  O  O32  1  0.25520001  0.00000000  0.00000000  1
  O  O33  1  0.25610008  0.00000000  0.50000000  1
  O  O34  1  0.25610008  0.50000000  0.00000000  1
  O  O35  1  0.27900949  0.50000000  0.50000000  1
  O  O36  1  0.74479999  0.00000000  0.00000000  1
  O  O37  1  0.74389992  0.00000000  0.50000000  1
  O  O38  1  0.74389992  0.50000000  0.00000000  1
  O  O39  1  0.72099051  0.50000000  0.50000000  1
  O  O40  1  0.24936416  0.25024707  0.25024707  1
  O  O41  1  0.24936416  0.25024707  0.74975293  1
  O  O42  1  0.24936416  0.74975293  0.25024707  1
  O  O43  1  0.24936416  0.74975293  0.74975293  1
  O  O44  1  0.75063584  0.25024707  0.25024707  1
  O  O45  1  0.75063584  0.25024707  0.74975293  1
  O  O46  1  0.75063584  0.74975293  0.25024707  1
  O  O47  1  0.75063584  0.74975293  0.74975293  1
  O  O48  1  0.00000000  0.00000000  0.25007945  1
  O  O49  1  0.00000000  0.00000000  0.74992055  1
  O  O50  1  0.00000000  0.50000000  0.22128018  1
  O  O51  1  0.00000000  0.50000000  0.77871982  1
  O  O52  1  0.50000000  0.00000000  0.24848432  1
  O  O53  1  0.50000000  0.00000000  0.75151568  1
  O  O54  1  0.50000000  0.50000000  0.24433918  1
  O  O55  1  0.50000000  0.50000000  0.75566082  1
  O  O56  1  0.00000000  0.25007945  0.00000000  1
  O  O57  1  0.00000000  0.22128018  0.50000000  1
  O  O58  1  0.00000000  0.74992055  0.00000000  1
  O  O59  1  0.00000000  0.77871982  0.50000000  1
  O  O60  1  0.50000000  0.24848432  0.00000000  1
  O  O61  1  0.50000000  0.24433918  0.50000000  1
  O  O62  1  0.50000000  0.75151568  0.00000000  1
  O  O63  1  0.50000000  0.75566082  0.50000000  1
