# generated using pymatgen
data_SrYMg30O32
_symmetry_space_group_name_H-M   'P 1'
_cell_length_a   8.66751985
_cell_length_b   8.66751985
_cell_length_c   8.74572403
_cell_angle_alpha   90.00000000
_cell_angle_beta   90.00000000
_cell_angle_gamma   90.00000000
_symmetry_Int_Tables_number   1
_chemical_formula_structural   SrYMg30O32
_chemical_formula_sum   'Sr1 Y1 Mg30 O32'
_cell_volume   657.03039197
_cell_formula_units_Z   1
loop_
 _symmetry_equiv_pos_site_id
 _symmetry_equiv_pos_as_xyz
  1  'x, y, z'
loop_
 _atom_site_type_symbol
 _atom_site_label
 _atom_site_symmetry_multiplicity
 _atom_site_fract_x
 _atom_site_fract_y
 _atom_site_fract_z
 _atom_site_occupancy
  Sr  Sr0  1  0.00000000  0.00000000  0.50000000  1
  Y  Y1  1  0.00000000  0.00000000  0.00000000  1
  Mg  Mg2  1  0.00000000  0.50000000  0.00000000  1
  Mg  Mg3  1  0.00000000  0.50000000  0.50000000  1
  Mg  Mg4  1  0.50000000  0.00000000  0.00000000  1
  Mg  Mg5  1  0.50000000  0.00000000  0.50000000  1
  Mg  Mg6  1  0.50000000  0.50000000  0.00000000  1
  Mg  Mg7  1  0.50000000  0.50000000  0.50000000  1
  Mg  Mg8  1  0.00000000  0.26146302  0.25182734  1
  Mg  Mg9  1  0.00000000  0.26146302  0.74817266  1
  Mg  Mg10  1  0.00000000  0.73853698  0.25182734  1
  Mg  Mg11  1  0.00000000  0.73853698  0.74817266  1
  Mg  Mg12  1  0.50000000  0.25154991  0.25063622  1
  Mg  Mg13  1  0.50000000  0.25154991  0.74936378  1
  Mg  Mg14  1  0.50000000  0.74845009  0.25063622  1
  Mg  Mg15  1  0.50000000  0.74845009  0.74936378  1
  Mg  Mg16  1  0.26146302  0.00000000  0.25182734  1
  Mg  Mg17  1  0.26146302  0.00000000  0.74817266  1
  Mg  Mg18  1  0.25154991  0.50000000  0.25063622  1
  Mg  Mg19  1  0.25154991  0.50000000  0.74936378  1
  Mg  Mg20  1  0.73853698  0.00000000  0.25182734  1
  Mg  Mg21  1  0.73853698  0.00000000  0.74817266  1
  Mg  Mg22  1  0.74845009  0.50000000  0.25063622  1
  Mg  Mg23  1  0.74845009  0.50000000  0.74936378  1
  Mg  Mg24  1  0.25681757  0.25681757  0.00000000  1
  Mg  Mg25  1  0.25606563  0.25606563  0.50000000  1
  Mg  Mg26  1  0.25681757  0.74318243  0.00000000  1
  Mg  Mg27  1  0.25606563  0.74393437  0.50000000  1
  Mg  Mg28  1  0.74318243  0.25681757  0.00000000  1
  Mg  Mg29  1  0.74393437  0.25606563  0.50000000  1
  Mg  Mg30  1  0.74318243  0.74318243  0.00000000  1
  Mg  Mg31  1  0.74393437  0.74393437  0.50000000  1
  O  O32  1  0.26053014  0.00000000  0.00000000  1
  O  O33  1  0.27097161  0.00000000  0.50000000  1
  O  O34  1  0.25170968  0.50000000  0.00000000  1
  O  O35  1  0.25358996  0.50000000  0.50000000  1
  O  O36  1  0.73946986  0.00000000  0.00000000  1
  O  O37  1  0.72902839  0.00000000  0.50000000  1
  O  O38  1  0.74829032  0.50000000  0.00000000  1
  O  O39  1  0.74641004  0.50000000  0.50000000  1
  O  O40  1  0.24917507  0.24917507  0.24983763  1
  O  O41  1  0.24917507  0.24917507  0.75016237  1
  O  O42  1  0.24917507  0.75082493  0.24983763  1
  O  O43  1  0.24917507  0.75082493  0.75016237  1
  O  O44  1  0.75082493  0.24917507  0.24983763  1
  O  O45  1  0.75082493  0.24917507  0.75016237  1
  O  O46  1  0.75082493  0.75082493  0.24983763  1
  O  O47  1  0.75082493  0.75082493  0.75016237  1
  O  O48  1  0.00000000  0.00000000  0.24242140  1
  O  O49  1  0.00000000  0.00000000  0.75757860  1
  O  O50  1  0.00000000  0.50000000  0.24720893  1
  O  O51  1  0.00000000  0.50000000  0.75279107  1
  O  O52  1  0.50000000  0.00000000  0.24720893  1
  O  O53  1  0.50000000  0.00000000  0.75279107  1
  O  O54  1  0.50000000  0.50000000  0.24913958  1
  O  O55  1  0.50000000  0.50000000  0.75086042  1
  O  O56  1  0.00000000  0.26053014  0.00000000  1
  O  O57  1  0.00000000  0.27097161  0.50000000  1
  O  O58  1  0.00000000  0.73946986  0.00000000  1
  O  O59  1  0.00000000  0.72902839  0.50000000  1
  O  O60  1  0.50000000  0.25170968  0.00000000  1
  O  O61  1  0.50000000  0.25358996  0.50000000  1
  O  O62  1  0.50000000  0.74829032  0.00000000  1
  O  O63  1  0.50000000  0.74641004  0.50000000  1
