# generated using pymatgen
data_Li2Th5OF22
_symmetry_space_group_name_H-M   'P 1'
_cell_length_a   6.93500567
_cell_length_b   11.31247137
_cell_length_c   11.31247137
_cell_angle_alpha   90.00000000
_cell_angle_beta   90.00000000
_cell_angle_gamma   90.00000000
_symmetry_Int_Tables_number   1
_chemical_formula_structural   Li2Th5OF22
_chemical_formula_sum   'Li4 Th10 O2 F44'
_cell_volume   887.48660453
_cell_formula_units_Z   2
loop_
 _symmetry_equiv_pos_site_id
 _symmetry_equiv_pos_as_xyz
  1  'x, y, z'
loop_
 _atom_site_type_symbol
 _atom_site_label
 _atom_site_symmetry_multiplicity
 _atom_site_fract_x
 _atom_site_fract_y
 _atom_site_fract_z
 _atom_site_occupancy
  Li  Li0  1  0.24930617  0.50000000  0.50000000  1
  Li  Li1  1  0.75069383  0.00000000  0.00000000  1
  Li  Li2  1  0.75069383  0.50000000  0.50000000  1
  Li  Li3  1  0.24930617  -0.00000000  0.00000000  1
  Th  Th4  1  0.50000000  0.34539940  0.65460060  1
  Th  Th5  1  0.50000000  0.65460060  0.34539940  1
  Th  Th6  1  0.50000000  0.84539940  0.84539940  1
  Th  Th7  1  0.50000000  0.15460060  0.15460060  1
  Th  Th8  1  0.00000000  0.15601595  0.84398405  1
  Th  Th9  1  0.00000000  0.84398405  0.15601595  1
  Th  Th10  1  0.00000000  0.65601595  0.65601595  1
  Th  Th11  1  0.00000000  0.34398405  0.34398405  1
  Th  Th12  1  0.25675176  0.00000000  0.50000000  1
  Th  Th13  1  0.74324824  0.50000000  0.00000000  1
  O  O14  1  0.69367346  -0.00000000  0.50000000  1
  O  O15  1  0.30632654  0.50000000  0.00000000  1
  F  F16  1  0.06401628  0.08719244  0.65157840  1
  F  F17  1  0.06401628  0.91280756  0.34842160  1
  F  F18  1  0.93598372  0.58719244  0.84842160  1
  F  F19  1  0.93598372  0.41280756  0.15157840  1
  F  F20  1  0.93598372  0.65157840  0.08719244  1
  F  F21  1  0.93598372  0.34842160  0.91280756  1
  F  F22  1  0.06401628  0.84842160  0.58719244  1
  F  F23  1  0.06401628  0.15157840  0.41280756  1
  F  F24  1  0.24899568  0.99729780  0.83266322  1
  F  F25  1  0.24899568  0.00270220  0.16733678  1
  F  F26  1  0.75100432  0.49729780  0.66733678  1
  F  F27  1  0.75100432  0.50270220  0.33266322  1
  F  F28  1  0.75100432  0.83266322  0.99729780  1
  F  F29  1  0.75100432  0.16733678  0.00270220  1
  F  F30  1  0.24899568  0.66733678  0.49729780  1
  F  F31  1  0.24899568  0.33266322  0.50270220  1
  F  F32  1  0.25101649  0.50435930  0.67658673  1
  F  F33  1  0.25101649  0.49564070  0.32341327  1
  F  F34  1  0.74898351  0.00435930  0.82341327  1
  F  F35  1  0.74898351  0.99564070  0.17658673  1
  F  F36  1  0.74898351  0.67658673  0.50435930  1
  F  F37  1  0.74898351  0.32341327  0.49564070  1
  F  F38  1  0.25101649  0.82341327  0.00435930  1
  F  F39  1  0.25101649  0.17658673  0.99564070  1
  F  F40  1  0.44370346  0.15325675  0.58869760  1
  F  F41  1  0.44370346  0.84674325  0.41130240  1
  F  F42  1  0.55629654  0.65325675  0.91130240  1
  F  F43  1  0.55629654  0.34674325  0.08869760  1
  F  F44  1  0.55629654  0.58869760  0.15325675  1
  F  F45  1  0.55629654  0.41130240  0.84674325  1
  F  F46  1  0.44370346  0.91130240  0.65325675  1
  F  F47  1  0.44370346  0.08869760  0.34674325  1
  F  F48  1  0.24776921  0.26813818  0.76467855  1
  F  F49  1  0.24776921  0.73186182  0.23532145  1
  F  F50  1  0.75223079  0.76813818  0.73532145  1
  F  F51  1  0.75223079  0.23186182  0.26467855  1
  F  F52  1  0.75223079  0.76467855  0.26813818  1
  F  F53  1  0.75223079  0.23532145  0.73186182  1
  F  F54  1  0.24776921  0.73532145  0.76813818  1
  F  F55  1  0.24776921  0.26467855  0.23186182  1
  F  F56  1  0.00000000  0.50000000  0.50000000  1
  F  F57  1  0.00000000  -0.00000000  0.00000000  1
  F  F58  1  0.50000000  0.50000000  0.50000000  1
  F  F59  1  0.50000000  -0.00000000  0.00000000  1
