# generated using pymatgen
data_LiMg30BO31
_symmetry_space_group_name_H-M   'P 1'
_cell_length_a   8.55027243
_cell_length_b   8.60013354
_cell_length_c   8.43952210
_cell_angle_alpha   90.00000000
_cell_angle_beta   90.00000000
_cell_angle_gamma   90.00000000
_symmetry_Int_Tables_number   1
_chemical_formula_structural   LiMg30BO31
_chemical_formula_sum   'Li1 Mg30 B1 O31'
_cell_volume   620.58746923
_cell_formula_units_Z   1
loop_
 _symmetry_equiv_pos_site_id
 _symmetry_equiv_pos_as_xyz
  1  'x, y, z'
loop_
 _atom_site_type_symbol
 _atom_site_label
 _atom_site_symmetry_multiplicity
 _atom_site_fract_x
 _atom_site_fract_y
 _atom_site_fract_z
 _atom_site_occupancy
  Li  Li0  1  0.99109041  0.00000000  -0.00000000  1
  Mg  Mg1  1  0.00111742  0.50000000  -0.00000000  1
  Mg  Mg2  1  0.00255356  0.50000000  0.50000000  1
  Mg  Mg3  1  0.50238815  0.00000000  -0.00000000  1
  Mg  Mg4  1  0.50470507  0.00000000  0.50000000  1
  Mg  Mg5  1  0.49915748  0.50000000  -0.00000000  1
  Mg  Mg6  1  0.49841471  0.50000000  0.50000000  1
  Mg  Mg7  1  0.00041209  0.25304152  0.25607513  1
  Mg  Mg8  1  0.00041209  0.25304152  0.74392487  1
  Mg  Mg9  1  0.00041209  0.74695848  0.25607513  1
  Mg  Mg10  1  0.00041209  0.74695848  0.74392487  1
  Mg  Mg11  1  0.50041642  0.24963845  0.24964192  1
  Mg  Mg12  1  0.50041642  0.24963845  0.75035808  1
  Mg  Mg13  1  0.50041642  0.75036155  0.24964192  1
  Mg  Mg14  1  0.50041642  0.75036155  0.75035808  1
  Mg  Mg15  1  0.25159119  0.00000000  0.26429767  1
  Mg  Mg16  1  0.25159119  0.00000000  0.73570233  1
  Mg  Mg17  1  0.25020824  0.50000000  0.25014096  1
  Mg  Mg18  1  0.25020824  0.50000000  0.74985904  1
  Mg  Mg19  1  0.74920491  0.00000000  0.24498749  1
  Mg  Mg20  1  0.74920491  0.00000000  0.75501251  1
  Mg  Mg21  1  0.75048203  0.50000000  0.24786003  1
  Mg  Mg22  1  0.75048203  0.50000000  0.75213997  1
  Mg  Mg23  1  0.24493171  0.24559960  -0.00000000  1
  Mg  Mg24  1  0.24617651  0.24427075  0.50000000  1
  Mg  Mg25  1  0.24493171  0.75440040  0.00000000  1
  Mg  Mg26  1  0.24617651  0.75572925  0.50000000  1
  Mg  Mg27  1  0.75479891  0.24834762  -0.00000000  1
  Mg  Mg28  1  0.75217980  0.26121168  0.50000000  1
  Mg  Mg29  1  0.75479891  0.75165238  -0.00000000  1
  Mg  Mg30  1  0.75217980  0.73878832  0.50000000  1
  B  B31  1  0.93822940  0.00000000  0.50000000  1
  O  O32  1  0.27546436  0.00000000  0.50000000  1
  O  O33  1  0.25032214  0.50000000  -0.00000000  1
  O  O34  1  0.25357998  0.50000000  0.50000000  1
  O  O35  1  0.75447773  0.00000000  -0.00000000  1
  O  O36  1  0.76650813  0.00000000  0.50000000  1
  O  O37  1  0.75001120  0.50000000  -0.00000000  1
  O  O38  1  0.74644082  0.50000000  0.50000000  1
  O  O39  1  0.24837859  0.24762701  0.25136790  1
  O  O40  1  0.24837859  0.24762701  0.74863210  1
  O  O41  1  0.24837859  0.75237299  0.25136790  1
  O  O42  1  0.24837859  0.75237299  0.74863210  1
  O  O43  1  0.75250324  0.24741786  0.25026758  1
  O  O44  1  0.75250324  0.24741786  0.74973242  1
  O  O45  1  0.75250324  0.75258214  0.25026758  1
  O  O46  1  0.75250324  0.75258214  0.74973242  1
  O  O47  1  0.99287068  0.00000000  0.33752004  1
  O  O48  1  0.99287068  0.00000000  0.66247996  1
  O  O49  1  0.00012421  0.50000000  0.24670323  1
  O  O50  1  0.00012421  0.50000000  0.75329677  1
  O  O51  1  0.50747002  0.00000000  0.25060055  1
  O  O52  1  0.50747002  0.00000000  0.74939945  1
  O  O53  1  0.50049715  0.50000000  0.24931185  1
  O  O54  1  0.50049715  0.50000000  0.75068815  1
  O  O55  1  0.99969716  0.24617796  0.00000000  1
  O  O56  1  0.99661693  0.26798315  0.50000000  1
  O  O57  1  0.99969716  0.75382204  0.00000000  1
  O  O58  1  0.99661693  0.73201685  0.50000000  1
  O  O59  1  0.50095183  0.24933548  0.00000000  1
  O  O60  1  0.50654926  0.24942640  0.50000000  1
  O  O61  1  0.50095183  0.75066452  0.00000000  1
  O  O62  1  0.50654926  0.75057360  0.50000000  1
