# generated using pymatgen
data_HfMg30TiO32
_symmetry_space_group_name_H-M   'P 1'
_cell_length_a   8.62228214
_cell_length_b   8.62228214
_cell_length_c   8.59338043
_cell_angle_alpha   90.00000000
_cell_angle_beta   90.00000000
_cell_angle_gamma   90.00000000
_symmetry_Int_Tables_number   1
_chemical_formula_structural   HfMg30TiO32
_chemical_formula_sum   'Hf1 Mg30 Ti1 O32'
_cell_volume   638.86412034
_cell_formula_units_Z   1
loop_
 _symmetry_equiv_pos_site_id
 _symmetry_equiv_pos_as_xyz
  1  'x, y, z'
loop_
 _atom_site_type_symbol
 _atom_site_label
 _atom_site_symmetry_multiplicity
 _atom_site_fract_x
 _atom_site_fract_y
 _atom_site_fract_z
 _atom_site_occupancy
  Hf  Hf0  1  0.00000000  0.00000000  0.50000000  1
  Mg  Mg1  1  0.00000000  0.50000000  -0.00000000  1
  Mg  Mg2  1  0.00000000  0.50000000  0.50000000  1
  Mg  Mg3  1  0.50000000  0.00000000  -0.00000000  1
  Mg  Mg4  1  0.50000000  0.00000000  0.50000000  1
  Mg  Mg5  1  0.50000000  0.50000000  -0.00000000  1
  Mg  Mg6  1  0.50000000  0.50000000  0.50000000  1
  Mg  Mg7  1  0.00000000  0.25557990  0.24363806  1
  Mg  Mg8  1  0.00000000  0.25557990  0.75636194  1
  Mg  Mg9  1  0.00000000  0.74442010  0.24363806  1
  Mg  Mg10  1  0.00000000  0.74442010  0.75636194  1
  Mg  Mg11  1  0.50000000  0.25093282  0.24831614  1
  Mg  Mg12  1  0.50000000  0.25093282  0.75168386  1
  Mg  Mg13  1  0.50000000  0.74906718  0.24831614  1
  Mg  Mg14  1  0.50000000  0.74906718  0.75168386  1
  Mg  Mg15  1  0.25557990  0.00000000  0.24363806  1
  Mg  Mg16  1  0.25557990  0.00000000  0.75636194  1
  Mg  Mg17  1  0.25093282  0.50000000  0.24831614  1
  Mg  Mg18  1  0.25093282  0.50000000  0.75168386  1
  Mg  Mg19  1  0.74442010  0.00000000  0.24363806  1
  Mg  Mg20  1  0.74442010  -0.00000000  0.75636194  1
  Mg  Mg21  1  0.74906718  0.50000000  0.24831614  1
  Mg  Mg22  1  0.74906718  0.50000000  0.75168386  1
  Mg  Mg23  1  0.25050269  0.25050269  -0.00000000  1
  Mg  Mg24  1  0.25589936  0.25589936  0.50000000  1
  Mg  Mg25  1  0.25050269  0.74949731  0.00000000  1
  Mg  Mg26  1  0.25589936  0.74410064  0.50000000  1
  Mg  Mg27  1  0.74949731  0.25050269  -0.00000000  1
  Mg  Mg28  1  0.74410064  0.25589936  0.50000000  1
  Mg  Mg29  1  0.74949731  0.74949731  0.00000000  1
  Mg  Mg30  1  0.74410064  0.74410064  0.50000000  1
  Ti  Ti31  1  0.00000000  0.00000000  -0.00000000  1
  O  O32  1  0.26136304  0.00000000  0.00000000  1
  O  O33  1  0.24896425  -0.00000000  0.50000000  1
  O  O34  1  0.25138564  0.50000000  -0.00000000  1
  O  O35  1  0.24956166  0.50000000  0.50000000  1
  O  O36  1  0.73863696  0.00000000  -0.00000000  1
  O  O37  1  0.75103575  0.00000000  0.50000000  1
  O  O38  1  0.74861436  0.50000000  0.00000000  1
  O  O39  1  0.75043834  0.50000000  0.50000000  1
  O  O40  1  0.24927756  0.24927756  0.25109680  1
  O  O41  1  0.24927756  0.24927756  0.74890320  1
  O  O42  1  0.24927756  0.75072244  0.25109680  1
  O  O43  1  0.24927756  0.75072244  0.74890320  1
  O  O44  1  0.75072244  0.24927756  0.25109680  1
  O  O45  1  0.75072244  0.24927756  0.74890320  1
  O  O46  1  0.75072244  0.75072244  0.25109680  1
  O  O47  1  0.75072244  0.75072244  0.74890320  1
  O  O48  1  0.00000000  0.00000000  0.25402818  1
  O  O49  1  0.00000000  -0.00000000  0.74597182  1
  O  O50  1  0.00000000  0.50000000  0.25271050  1
  O  O51  1  0.00000000  0.50000000  0.74728950  1
  O  O52  1  0.50000000  0.00000000  0.25271050  1
  O  O53  1  0.50000000  0.00000000  0.74728950  1
  O  O54  1  0.50000000  0.50000000  0.25103265  1
  O  O55  1  0.50000000  0.50000000  0.74896735  1
  O  O56  1  0.00000000  0.26136304  -0.00000000  1
  O  O57  1  0.00000000  0.24896425  0.50000000  1
  O  O58  1  0.00000000  0.73863696  0.00000000  1
  O  O59  1  0.00000000  0.75103575  0.50000000  1
  O  O60  1  0.50000000  0.25138564  0.00000000  1
  O  O61  1  0.50000000  0.24956166  0.50000000  1
  O  O62  1  0.50000000  0.74861436  -0.00000000  1
  O  O63  1  0.50000000  0.75043834  0.50000000  1
