# generated using pymatgen
data_LiMg30BO31
_symmetry_space_group_name_H-M   'P 1'
_cell_length_a   8.52597593
_cell_length_b   8.59669086
_cell_length_c   8.39421799
_cell_angle_alpha   90.00000000
_cell_angle_beta   90.00000000
_cell_angle_gamma   90.00000000
_symmetry_Int_Tables_number   1
_chemical_formula_structural   LiMg30BO31
_chemical_formula_sum   'Li1 Mg30 B1 O31'
_cell_volume   615.25571308
_cell_formula_units_Z   1
loop_
 _symmetry_equiv_pos_site_id
 _symmetry_equiv_pos_as_xyz
  1  'x, y, z'
loop_
 _atom_site_type_symbol
 _atom_site_label
 _atom_site_symmetry_multiplicity
 _atom_site_fract_x
 _atom_site_fract_y
 _atom_site_fract_z
 _atom_site_occupancy
  Li  Li0  1  0.99733716  0.00000000  -0.00000000  1
  Mg  Mg1  1  0.99841897  0.50000000  -0.00000000  1
  Mg  Mg2  1  0.99658421  0.50000000  0.50000000  1
  Mg  Mg3  1  0.49947248  0.00000000  -0.00000000  1
  Mg  Mg4  1  0.49783670  0.00000000  0.50000000  1
  Mg  Mg5  1  0.50058281  0.50000000  -0.00000000  1
  Mg  Mg6  1  0.50109624  0.50000000  0.50000000  1
  Mg  Mg7  1  0.99960482  0.25374347  0.25597857  1
  Mg  Mg8  1  0.99960482  0.25374347  0.74402143  1
  Mg  Mg9  1  0.99960482  0.74625653  0.25597857  1
  Mg  Mg10  1  0.99960482  0.74625653  0.74402143  1
  Mg  Mg11  1  0.49872457  0.24972567  0.24985527  1
  Mg  Mg12  1  0.49872457  0.24972567  0.75014473  1
  Mg  Mg13  1  0.49872457  0.75027433  0.24985527  1
  Mg  Mg14  1  0.49872457  0.75027433  0.75014473  1
  Mg  Mg15  1  0.24860428  0.00000000  0.24709849  1
  Mg  Mg16  1  0.24860428  0.00000000  0.75290151  1
  Mg  Mg17  1  0.24945274  0.50000000  0.24790488  1
  Mg  Mg18  1  0.24945274  0.50000000  0.75209512  1
  Mg  Mg19  1  0.74691977  0.00000000  0.25930206  1
  Mg  Mg20  1  0.74691977  0.00000000  0.74069794  1
  Mg  Mg21  1  0.74929618  0.50000000  0.25005376  1
  Mg  Mg22  1  0.74929618  0.50000000  0.74994624  1
  Mg  Mg23  1  0.24466019  0.24648055  -0.00000000  1
  Mg  Mg24  1  0.24594692  0.26020762  0.50000000  1
  Mg  Mg25  1  0.24466019  0.75351945  -0.00000000  1
  Mg  Mg26  1  0.24594692  0.73979238  0.50000000  1
  Mg  Mg27  1  0.75410575  0.24429481  -0.00000000  1
  Mg  Mg28  1  0.75421168  0.24267844  0.50000000  1
  Mg  Mg29  1  0.75410575  0.75570519  -0.00000000  1
  Mg  Mg30  1  0.75421168  0.75732156  0.50000000  1
  B  B31  1  0.07003855  0.00000000  0.50000000  1
  O  O32  1  0.24434531  0.00000000  -0.00000000  1
  O  O33  1  0.24977154  0.50000000  -0.00000000  1
  O  O34  1  0.25309086  0.50000000  0.50000000  1
  O  O35  1  0.75138490  0.00000000  -0.00000000  1
  O  O36  1  0.72699055  0.00000000  0.50000000  1
  O  O37  1  0.74922196  0.50000000  -0.00000000  1
  O  O38  1  0.74570084  0.50000000  0.50000000  1
  O  O39  1  0.24735126  0.24744402  0.25063050  1
  O  O40  1  0.24735126  0.24744402  0.74936950  1
  O  O41  1  0.24735126  0.75255598  0.25063050  1
  O  O42  1  0.24735126  0.75255598  0.74936950  1
  O  O43  1  0.75162503  0.24606965  0.25067505  1
  O  O44  1  0.75162503  0.24606965  0.74932495  1
  O  O45  1  0.75162503  0.75393035  0.25067505  1
  O  O46  1  0.75162503  0.75393035  0.74932495  1
  O  O47  1  0.01123832  0.00000000  0.33701377  1
  O  O48  1  0.01123832  0.00000000  0.66298623  1
  O  O49  1  0.99948252  0.50000000  0.24657546  1
  O  O50  1  0.99948252  0.50000000  0.75342454  1
  O  O51  1  0.49237130  0.00000000  0.25052960  1
  O  O52  1  0.49237130  0.00000000  0.74947040  1
  O  O53  1  0.49946063  0.50000000  0.24938727  1
  O  O54  1  0.49946063  0.50000000  0.75061273  1
  O  O55  1  0.99957333  0.24573161  -0.00000000  1
  O  O56  1  0.00173358  0.26913042  0.50000000  1
  O  O57  1  0.99957333  0.75426839  -0.00000000  1
  O  O58  1  0.00173358  0.73086958  0.50000000  1
  O  O59  1  0.49903640  0.24886954  -0.00000000  1
  O  O60  1  0.49335952  0.24915230  0.50000000  1
  O  O61  1  0.49903640  0.75113046  -0.00000000  1
  O  O62  1  0.49335952  0.75084770  0.50000000  1
