# generated using pymatgen
data_RbLiMg30O31
_symmetry_space_group_name_H-M   'P 1'
_cell_length_a   8.47872837
_cell_length_b   8.65935323
_cell_length_c   8.62642122
_cell_angle_alpha   90.00000000
_cell_angle_beta   90.00000000
_cell_angle_gamma   90.00000000
_symmetry_Int_Tables_number   1
_chemical_formula_structural   RbLiMg30O31
_chemical_formula_sum   'Rb1 Li1 Mg30 O31'
_cell_volume   633.35446752
_cell_formula_units_Z   1
loop_
 _symmetry_equiv_pos_site_id
 _symmetry_equiv_pos_as_xyz
  1  'x, y, z'
loop_
 _atom_site_type_symbol
 _atom_site_label
 _atom_site_symmetry_multiplicity
 _atom_site_fract_x
 _atom_site_fract_y
 _atom_site_fract_z
 _atom_site_occupancy
  Rb  Rb0  1  0.09177973  -0.00000000  0.50000000  1
  Li  Li1  1  0.98670177  -0.00000000  0.00000000  1
  Mg  Mg2  1  0.99589118  0.50000000  0.00000000  1
  Mg  Mg3  1  0.99027874  0.50000000  0.50000000  1
  Mg  Mg4  1  0.50271922  -0.00000000  0.00000000  1
  Mg  Mg5  1  0.52199818  -0.00000000  0.50000000  1
  Mg  Mg6  1  0.50071976  0.50000000  0.00000000  1
  Mg  Mg7  1  0.50434821  0.50000000  0.50000000  1
  Mg  Mg8  1  0.99603967  0.24874527  0.24360728  1
  Mg  Mg9  1  0.99603967  0.24874527  0.75639272  1
  Mg  Mg10  1  0.99603967  0.75125473  0.24360728  1
  Mg  Mg11  1  0.99603967  0.75125473  0.75639272  1
  Mg  Mg12  1  0.49849711  0.24710690  0.25103798  1
  Mg  Mg13  1  0.49849711  0.24710690  0.74896202  1
  Mg  Mg14  1  0.49849711  0.75289310  0.25103798  1
  Mg  Mg15  1  0.49849711  0.75289310  0.74896202  1
  Mg  Mg16  1  0.24325687  -0.00000000  0.21760965  1
  Mg  Mg17  1  0.24325687  -0.00000000  0.78239035  1
  Mg  Mg18  1  0.24698734  0.50000000  0.24558890  1
  Mg  Mg19  1  0.24698734  0.50000000  0.75441110  1
  Mg  Mg20  1  0.76059420  -0.00000000  0.24815538  1
  Mg  Mg21  1  0.76059420  -0.00000000  0.75184462  1
  Mg  Mg22  1  0.74807831  0.50000000  0.24883777  1
  Mg  Mg23  1  0.74807831  0.50000000  0.75116223  1
  Mg  Mg24  1  0.24560190  0.25083999  0.00000000  1
  Mg  Mg25  1  0.24838321  0.27924705  0.50000000  1
  Mg  Mg26  1  0.24560190  0.74916001  0.00000000  1
  Mg  Mg27  1  0.24838321  0.72075295  0.50000000  1
  Mg  Mg28  1  0.75076148  0.24627320  0.00000000  1
  Mg  Mg29  1  0.75787511  0.24526324  0.50000000  1
  Mg  Mg30  1  0.75076148  0.75372680  0.00000000  1
  Mg  Mg31  1  0.75787511  0.75473676  0.50000000  1
  O  O32  1  0.26438691  -0.00000000  0.00000000  1
  O  O33  1  0.25221104  0.50000000  0.00000000  1
  O  O34  1  0.25580847  0.50000000  0.50000000  1
  O  O35  1  0.73797020  -0.00000000  0.00000000  1
  O  O36  1  0.75238011  -0.00000000  0.50000000  1
  O  O37  1  0.74525798  0.50000000  0.00000000  1
  O  O38  1  0.74330058  0.50000000  0.50000000  1
  O  O39  1  0.24714611  0.24408676  0.25689116  1
  O  O40  1  0.24714611  0.24408676  0.74310884  1
  O  O41  1  0.24714611  0.75591324  0.25689116  1
  O  O42  1  0.24714611  0.75591324  0.74310884  1
  O  O43  1  0.74688582  0.24909728  0.25071885  1
  O  O44  1  0.74688582  0.24909728  0.74928115  1
  O  O45  1  0.74688582  0.75090272  0.25071885  1
  O  O46  1  0.74688582  0.75090272  0.74928115  1
  O  O47  1  0.00036597  -0.00000000  0.22813824  1
  O  O48  1  0.00036597  -0.00000000  0.77186176  1
  O  O49  1  0.99949958  0.50000000  0.24837406  1
  O  O50  1  0.99949958  0.50000000  0.75162594  1
  O  O51  1  0.48904610  -0.00000000  0.25968922  1
  O  O52  1  0.48904610  -0.00000000  0.74031078  1
  O  O53  1  0.49595373  0.50000000  0.25167835  1
  O  O54  1  0.49595373  0.50000000  0.74832165  1
  O  O55  1  0.00028055  0.26192096  0.00000000  1
  O  O56  1  0.00050059  0.27137821  0.50000000  1
  O  O57  1  0.00028055  0.73807904  0.00000000  1
  O  O58  1  0.00050059  0.72862179  0.50000000  1
  O  O59  1  0.49609285  0.25028874  0.00000000  1
  O  O60  1  0.49170876  0.24365463  0.50000000  1
  O  O61  1  0.49609285  0.74971126  0.00000000  1
  O  O62  1  0.49170876  0.75634537  0.50000000  1
