# generated using pymatgen
data_BaTaF7
_symmetry_space_group_name_H-M   'P 1'
_cell_length_a   5.76189329
_cell_length_b   10.42293196
_cell_length_c   10.18692594
_cell_angle_alpha   90.00000000
_cell_angle_beta   90.00000000
_cell_angle_gamma   92.30972162
_symmetry_Int_Tables_number   1
_chemical_formula_structural   BaTaF7
_chemical_formula_sum   'Ba4 Ta4 F28'
_cell_volume   611.28717779
_cell_formula_units_Z   4
loop_
 _symmetry_equiv_pos_site_id
 _symmetry_equiv_pos_as_xyz
  1  'x, y, z'
loop_
 _atom_site_type_symbol
 _atom_site_label
 _atom_site_symmetry_multiplicity
 _atom_site_fract_x
 _atom_site_fract_y
 _atom_site_fract_z
 _atom_site_occupancy
  Ba  Ba0  1  0.30990317  0.49058049  0.33105133  1
  Ba  Ba1  1  0.69009683  0.00941951  0.83105133  1
  Ba  Ba2  1  0.69009683  0.50941951  0.66894867  1
  Ba  Ba3  1  0.30990317  0.99058049  0.16894867  1
  Ta  Ta4  1  0.18454362  0.81451032  0.61059837  1
  Ta  Ta5  1  0.81545638  0.18548968  0.38940163  1
  Ta  Ta6  1  0.18454362  0.31451032  0.88940163  1
  Ta  Ta7  1  0.81545638  0.68548968  0.11059837  1
  F  F8  1  0.10146119  0.11958432  0.44868428  1
  F  F9  1  0.33148618  0.36524860  0.05010248  1
  F  F10  1  0.46891900  0.75940238  0.69102686  1
  F  F11  1  0.53108100  0.24059762  0.30897314  1
  F  F12  1  0.88045784  0.35860162  0.45454826  1
  F  F13  1  0.25569247  0.47723855  0.80419877  1
  F  F14  1  0.00077826  0.75938364  0.76171114  1
  F  F15  1  0.11954216  0.14139838  0.95454826  1
  F  F16  1  0.33148618  0.86524860  0.44989752  1
  F  F17  1  0.53108100  0.74059762  0.19102686  1
  F  F18  1  0.10146119  0.61958432  0.05131572  1
  F  F19  1  0.89853881  0.88041568  0.55131572  1
  F  F20  1  0.99922174  0.74061636  0.26171114  1
  F  F21  1  0.38796510  0.88686352  0.95805302  1
  F  F22  1  0.11954216  0.64139838  0.54545174  1
  F  F23  1  0.88045784  0.85860162  0.04545174  1
  F  F24  1  0.99922174  0.24061636  0.23828886  1
  F  F25  1  0.89853881  0.38041568  0.94868428  1
  F  F26  1  0.61203490  0.61313648  0.45805302  1
  F  F27  1  0.66851382  0.63475140  0.94989752  1
  F  F28  1  0.61203490  0.11313648  0.04194698  1
  F  F29  1  0.00077826  0.25938364  0.73828886  1
  F  F30  1  0.38796510  0.38686352  0.54194698  1
  F  F31  1  0.74430753  0.02276145  0.30419877  1
  F  F32  1  0.74430753  0.52276145  0.19580123  1
  F  F33  1  0.25569247  0.97723855  0.69580123  1
  F  F34  1  0.66851382  0.13475140  0.55010248  1
  F  F35  1  0.46891900  0.25940238  0.80897314  1
