# generated using pymatgen
data_Zn(MoO2)2
_symmetry_space_group_name_H-M   'P 1'
_cell_length_a   6.32409518
_cell_length_b   6.38940804
_cell_length_c   19.05264326
_cell_angle_alpha   59.00095272
_cell_angle_beta   60.11417288
_cell_angle_gamma   60.33669097
_symmetry_Int_Tables_number   1
_chemical_formula_structural   Zn(MoO2)2
_chemical_formula_sum   'Zn6 Mo12 O24'
_cell_volume   541.94964621
_cell_formula_units_Z   6
loop_
 _symmetry_equiv_pos_site_id
 _symmetry_equiv_pos_as_xyz
  1  'x, y, z'
loop_
 _atom_site_type_symbol
 _atom_site_label
 _atom_site_symmetry_multiplicity
 _atom_site_fract_x
 _atom_site_fract_y
 _atom_site_fract_z
 _atom_site_occupancy
  Zn  Zn0  1  0.11937300  0.12570437  0.04544015  1
  Zn  Zn1  1  0.12389110  0.12543407  0.37582995  1
  Zn  Zn2  1  0.49547090  0.49653970  0.00390667  1
  Zn  Zn3  1  0.12896390  0.11987184  0.70757513  1
  Zn  Zn4  1  0.87567360  0.87866662  0.29052066  1
  Zn  Zn5  1  0.87605700  0.87331723  0.62454983  1
  Mo  Mo6  1  0.00193487  0.50594945  0.16548527  1
  Mo  Mo7  1  0.49779822  0.50623711  0.16528801  1
  Mo  Mo8  1  0.99928728  0.49918001  0.49955775  1
  Mo  Mo9  1  0.49452614  0.01228552  0.16683984  1
  Mo  Mo10  1  0.50006814  0.50191236  0.33269936  1
  Mo  Mo11  1  0.49914530  0.49857181  0.49975473  1
  Mo  Mo12  1  0.00254662  0.49384264  0.83378984  1
  Mo  Mo13  1  0.49961190  0.99818715  0.49986193  1
  Mo  Mo14  1  0.50318745  0.99158275  0.83436408  1
  Mo  Mo15  1  0.50212731  0.49422513  0.66671987  1
  Mo  Mo16  1  0.50380287  0.49379040  0.83375212  1
  Mo  Mo17  1  0.87517700  0.87702681  0.95764188  1
  O  O18  1  0.24763805  0.26535086  0.08688918  1
  O  O19  1  0.25657097  0.26154885  0.24253131  1
  O  O20  1  0.26112267  0.73378177  0.08200528  1
  O  O21  1  0.72733235  0.26655449  0.08644757  1
  O  O22  1  0.27062868  0.74464435  0.24672011  1
  O  O23  1  0.25194939  0.25915612  0.41978968  1
  O  O24  1  0.73992081  0.27676939  0.24835305  1
  O  O25  1  0.72982083  0.76519663  0.09260287  1
  O  O26  1  0.25770316  0.72913237  0.41745422  1
  O  O27  1  0.25892676  0.24997465  0.57589981  1
  O  O28  1  0.74583648  0.74423056  0.24687400  1
  O  O29  1  0.72812374  0.25797751  0.42003651  1
  O  O30  1  0.27131143  0.73702134  0.58046623  1
  O  O31  1  0.25504441  0.25065283  0.75408351  1
  O  O32  1  0.74061980  0.26833502  0.58222419  1
  O  O33  1  0.73864520  0.74685845  0.42389627  1
  O  O34  1  0.26308581  0.24607939  0.90973995  1
  O  O35  1  0.26450416  0.72096883  0.75059731  1
  O  O36  1  0.74732843  0.73771909  0.58030465  1
  O  O37  1  0.73196583  0.25188839  0.75365758  1
  O  O38  1  0.27591857  0.73395991  0.90909952  1
  O  O39  1  0.74320266  0.74257275  0.75754076  1
  O  O40  1  0.72863653  0.28190693  0.92085051  1
  O  O41  1  0.76552268  0.73539355  0.90835885  1
