# generated using pymatgen
data_MgV4O9
_symmetry_space_group_name_H-M   'P 1'
_cell_length_a   4.99781868
_cell_length_b   8.29525958
_cell_length_c   8.29525958
_cell_angle_alpha   90.00000000
_cell_angle_beta   90.00000000
_cell_angle_gamma   90.00000000
_symmetry_Int_Tables_number   1
_chemical_formula_structural   MgV4O9
_chemical_formula_sum   'Mg2 V8 O18'
_cell_volume   343.90655796
_cell_formula_units_Z   2
loop_
 _symmetry_equiv_pos_site_id
 _symmetry_equiv_pos_as_xyz
  1  'x, y, z'
loop_
 _atom_site_type_symbol
 _atom_site_label
 _atom_site_symmetry_multiplicity
 _atom_site_fract_x
 _atom_site_fract_y
 _atom_site_fract_z
 _atom_site_occupancy
  Mg  Mg0  1  0.16018563  0.25000000  0.25000000  1
  Mg  Mg1  1  0.83981537  0.75000000  0.74999900  1
  V  V2  1  0.63146034  0.53203526  0.34028145  1
  V  V3  1  0.36854066  0.84028045  0.46796574  1
  V  V4  1  0.63146034  0.34028045  0.96796574  1
  V  V5  1  0.36854066  0.03203426  0.84028045  1
  V  V6  1  0.63146034  0.96796574  0.15971855  1
  V  V7  1  0.63146034  0.15971955  0.53203526  1
  V  V8  1  0.36854066  0.46796574  0.65971855  1
  V  V9  1  0.36854066  0.65971855  0.03203426  1
  O  O10  1  0.49999900  0.75000000  0.25000000  1
  O  O11  1  0.49999900  0.25000100  0.75000000  1
  O  O12  1  0.05215608  0.68542769  0.98031022  1
  O  O13  1  0.05215608  0.51969078  0.68542669  1
  O  O14  1  0.05215608  0.98031022  0.81457331  1
  O  O15  1  0.05215608  0.81457331  0.51968978  1
  O  O16  1  0.94784492  0.31457331  0.01968978  1
  O  O17  1  0.94784492  0.48030922  0.31457331  1
  O  O18  1  0.94784492  0.01968978  0.18542669  1
  O  O19  1  0.94784492  0.18542669  0.48030922  1
  O  O20  1  0.44680872  0.04740111  0.35570361  1
  O  O21  1  0.44680872  0.14429539  0.04740211  1
  O  O22  1  0.44680872  0.35570361  0.45259889  1
  O  O23  1  0.44680872  0.45259889  0.14429639  1
  O  O24  1  0.55319028  0.54740111  0.85570361  1
  O  O25  1  0.55319028  0.85570361  0.95259889  1
  O  O26  1  0.55319028  0.64429639  0.54740111  1
  O  O27  1  0.55319028  0.95259789  0.64429639  1
