# generated using pymatgen
data_LaCrAgO6
_symmetry_space_group_name_H-M   'P 1'
_cell_length_a   4.61538387
_cell_length_b   7.10598373
_cell_length_c   8.69269393
_cell_angle_alpha   90.00000000
_cell_angle_beta   79.60382664
_cell_angle_gamma   90.00000000
_symmetry_Int_Tables_number   1
_chemical_formula_structural   LaCrAgO6
_chemical_formula_sum   'La2 Cr2 Ag2 O12'
_cell_volume   280.41269459
_cell_formula_units_Z   2
loop_
 _symmetry_equiv_pos_site_id
 _symmetry_equiv_pos_as_xyz
  1  'x, y, z'
loop_
 _atom_site_type_symbol
 _atom_site_label
 _atom_site_symmetry_multiplicity
 _atom_site_fract_x
 _atom_site_fract_y
 _atom_site_fract_z
 _atom_site_occupancy
  La  La0  1  0.08600340  0.84370279  0.76354271  1
  La  La1  1  0.58600340  0.65629721  0.26354271  1
  Cr  Cr2  1  0.51352789  0.08985484  0.43009990  1
  Cr  Cr3  1  0.01352789  0.41014516  0.93009990  1
  Ag  Ag4  1  0.50203621  0.03104383  0.01087140  1
  Ag  Ag5  1  0.00203621  0.46895617  0.51087140  1
  O  O6  1  0.08340055  0.55281097  0.28945948  1
  O  O7  1  0.18392373  0.20077864  0.92665850  1
  O  O8  1  0.21528829  0.10210902  0.56782399  1
  O  O9  1  0.22393883  0.58703131  0.96625991  1
  O  O10  1  0.29865173  0.66187118  0.53540898  1
  O  O11  1  0.40325937  0.03235130  0.26008112  1
  O  O12  1  0.58340055  0.94718903  0.78945948  1
  O  O13  1  0.68392373  0.29922136  0.42665850  1
  O  O14  1  0.71528829  0.39789098  0.06782399  1
  O  O15  1  0.72393883  0.91296869  0.46625991  1
  O  O16  1  0.79865173  0.83812882  0.03540898  1
  O  O17  1  0.90325937  0.46764870  0.76008112  1
