# generated using pymatgen
data_BaTiZnF7
_symmetry_space_group_name_H-M   'P 1'
_cell_length_a   5.71604525
_cell_length_b   9.68163115
_cell_length_c   10.08126219
_cell_angle_alpha   90.00000000
_cell_angle_beta   90.00000000
_cell_angle_gamma   92.69840468
_symmetry_Int_Tables_number   1
_chemical_formula_structural   BaTiZnF7
_chemical_formula_sum   'Ba4 Ti4 Zn4 F28'
_cell_volume   557.28490833
_cell_formula_units_Z   4
loop_
 _symmetry_equiv_pos_site_id
 _symmetry_equiv_pos_as_xyz
  1  'x, y, z'
loop_
 _atom_site_type_symbol
 _atom_site_label
 _atom_site_symmetry_multiplicity
 _atom_site_fract_x
 _atom_site_fract_y
 _atom_site_fract_z
 _atom_site_occupancy
  Ba  Ba0  1  0.26509116  0.49896936  0.31541380  1
  Ba  Ba1  1  0.73490884  0.00103064  0.81541380  1
  Ba  Ba2  1  0.73490884  0.50103064  0.68458620  1
  Ba  Ba3  1  0.26509116  0.99896936  0.18458620  1
  Ti  Ti4  1  0.19627925  0.81089558  0.61072951  1
  Ti  Ti5  1  0.80372075  0.18910442  0.38927049  1
  Ti  Ti6  1  0.19627925  0.31089558  0.88927049  1
  Ti  Ti7  1  0.80372075  0.68910442  0.11072951  1
  Zn  Zn8  1  0.69622610  0.80967393  0.39904898  1
  Zn  Zn9  1  0.30377390  0.69032607  0.89904898  1
  Zn  Zn10  1  0.69622610  0.30967393  0.10095102  1
  Zn  Zn11  1  0.30377390  0.19032607  0.60095102  1
  F  F12  1  0.11799826  0.12042132  0.44423196  1
  F  F13  1  0.36734238  0.37319194  0.05497188  1
  F  F14  1  0.48385203  0.75190723  0.71038227  1
  F  F15  1  0.51614797  0.24809277  0.28961773  1
  F  F16  1  0.89240377  0.36713680  0.45773807  1
  F  F17  1  0.25751700  0.49515500  0.80643996  1
  F  F18  1  0.02269582  0.75000749  0.78073870  1
  F  F19  1  0.10759623  0.13286320  0.95773807  1
  F  F20  1  0.36734238  0.87319194  0.44502812  1
  F  F21  1  0.51614797  0.74809277  0.21038227  1
  F  F22  1  0.11799826  0.62042132  0.05576804  1
  F  F23  1  0.88200174  0.87957868  0.55576804  1
  F  F24  1  0.97730418  0.74999251  0.28073870  1
  F  F25  1  0.38953338  0.87807403  0.95888941  1
  F  F26  1  0.10759623  0.63286320  0.54226193  1
  F  F27  1  0.89240377  0.86713680  0.04226193  1
  F  F28  1  0.97730418  0.24999251  0.21926130  1
  F  F29  1  0.88200174  0.37957868  0.94423196  1
  F  F30  1  0.61046662  0.62192597  0.45888941  1
  F  F31  1  0.63265762  0.62680806  0.94502812  1
  F  F32  1  0.61046662  0.12192597  0.04111059  1
  F  F33  1  0.02269582  0.25000749  0.71926130  1
  F  F34  1  0.38953338  0.37807403  0.54111059  1
  F  F35  1  0.74248300  0.00484500  0.30643996  1
  F  F36  1  0.74248300  0.50484500  0.19356004  1
  F  F37  1  0.25751700  0.99515500  0.69356004  1
  F  F38  1  0.63265762  0.12680806  0.55497188  1
  F  F39  1  0.48385203  0.25190723  0.78961773  1
