# generated using pymatgen
data_ZnCr(SiO3)2
_symmetry_space_group_name_H-M   'P 1'
_cell_length_a   5.32678519
_cell_length_b   9.18934863
_cell_length_c   18.72667949
_cell_angle_alpha   90.00000000
_cell_angle_beta   90.00000000
_cell_angle_gamma   90.00000000
_symmetry_Int_Tables_number   1
_chemical_formula_structural   ZnCr(SiO3)2
_chemical_formula_sum   'Zn8 Cr8 Si16 O48'
_cell_volume   916.66508438
_cell_formula_units_Z   8
loop_
 _symmetry_equiv_pos_site_id
 _symmetry_equiv_pos_as_xyz
  1  'x, y, z'
loop_
 _atom_site_type_symbol
 _atom_site_label
 _atom_site_symmetry_multiplicity
 _atom_site_fract_x
 _atom_site_fract_y
 _atom_site_fract_z
 _atom_site_occupancy
  Zn  Zn0  1  0.61793155  0.15010131  0.62430241  1
  Zn  Zn1  1  0.38206845  0.84989869  0.37569759  1
  Zn  Zn2  1  0.61793155  0.65010131  0.87569759  1
  Zn  Zn3  1  0.11793155  0.84989869  0.87569759  1
  Zn  Zn4  1  0.88206845  0.15010131  0.12430241  1
  Zn  Zn5  1  0.38206845  0.34989869  0.12430241  1
  Zn  Zn6  1  0.11793155  0.34989869  0.62430241  1
  Zn  Zn7  1  0.88206845  0.65010131  0.37569759  1
  Cr  Cr8  1  0.37604095  0.98262229  0.12370805  1
  Cr  Cr9  1  0.62395905  0.01737771  0.87629195  1
  Cr  Cr10  1  0.87604095  0.01737771  0.37629195  1
  Cr  Cr11  1  0.12395905  0.98262229  0.62370805  1
  Cr  Cr12  1  0.37604095  0.48262229  0.37629195  1
  Cr  Cr13  1  0.62395905  0.51737771  0.62370805  1
  Cr  Cr14  1  0.87604095  0.51737771  0.12370805  1
  Cr  Cr15  1  0.12395905  0.48262229  0.87629195  1
  Si  Si16  1  0.56462643  0.66234929  0.22814265  1
  Si  Si17  1  0.71231848  0.83570368  0.52474462  1
  Si  Si18  1  0.78768152  0.83570368  0.02474462  1
  Si  Si19  1  0.93537357  0.16234929  0.77185735  1
  Si  Si20  1  0.06462643  0.33765071  0.27185735  1
  Si  Si21  1  0.43537357  0.83765071  0.72814265  1
  Si  Si22  1  0.21231848  0.66429632  0.52474462  1
  Si  Si23  1  0.71231848  0.33570368  0.97525538  1
  Si  Si24  1  0.78768152  0.33570368  0.47525538  1
  Si  Si25  1  0.93537357  0.66234929  0.72814265  1
  Si  Si26  1  0.43537357  0.33765071  0.77185735  1
  Si  Si27  1  0.56462643  0.16234929  0.27185735  1
  Si  Si28  1  0.28768152  0.16429632  0.47525538  1
  Si  Si29  1  0.06462643  0.83765071  0.22814265  1
  Si  Si30  1  0.28768152  0.66429632  0.02474462  1
  Si  Si31  1  0.21231848  0.16429632  0.97525538  1
  O  O32  1  0.93228086  0.50480326  0.68909427  1
  O  O33  1  0.29711115  0.01671765  0.93437185  1
  O  O34  1  0.06771914  0.49519674  0.31090573  1
  O  O35  1  0.71065589  0.33945965  0.06303797  1
  O  O36  1  0.21065589  0.16054035  0.06303797  1
  O  O37  1  0.92271143  0.21028023  0.94919375  1
  O  O38  1  0.94170657  0.66440743  0.81522749  1
  O  O39  1  0.05829343  0.83559257  0.31522749  1
  O  O40  1  0.71065589  0.83945965  0.43696203  1
  O  O41  1  0.94170657  0.16440743  0.68477251  1
  O  O42  1  0.43228086  0.49519674  0.81090573  1
  O  O43  1  0.78934411  0.33945965  0.56303797  1
  O  O44  1  0.70288885  0.98328235  0.06562815  1
  O  O45  1  0.44170657  0.83559257  0.81522749  1
  O  O46  1  0.56771914  0.00480326  0.31090573  1
  O  O47  1  0.29711115  0.51671765  0.56562815  1
  O  O48  1  0.43228086  0.99519674  0.68909427  1
  O  O49  1  0.16523039  0.76749562  0.69740893  1
  O  O50  1  0.33476961  0.76749562  0.19740893  1
  O  O51  1  0.57728857  0.71028023  0.05080625  1
  O  O52  1  0.78934411  0.83945965  0.93696203  1
  O  O53  1  0.55829343  0.66440743  0.31522749  1
  O  O54  1  0.79711115  0.48328235  0.93437185  1
  O  O55  1  0.16523039  0.26749562  0.80259107  1
  O  O56  1  0.28934411  0.16054035  0.56303797  1
  O  O57  1  0.55829343  0.16440743  0.18477251  1
  O  O58  1  0.70288885  0.48328235  0.43437185  1
  O  O59  1  0.21065589  0.66054035  0.43696203  1
  O  O60  1  0.20288885  0.51671765  0.06562815  1
  O  O61  1  0.66523039  0.73250438  0.69740893  1
  O  O62  1  0.06771914  0.99519674  0.18909427  1
  O  O63  1  0.83476961  0.73250438  0.19740893  1
  O  O64  1  0.83476961  0.23250438  0.30259107  1
  O  O65  1  0.79711115  0.98328235  0.56562815  1
  O  O66  1  0.28934411  0.66054035  0.93696203  1
  O  O67  1  0.20288885  0.01671765  0.43437185  1
  O  O68  1  0.33476961  0.26749562  0.30259107  1
  O  O69  1  0.07728857  0.78971977  0.05080625  1
  O  O70  1  0.42271143  0.78971977  0.55080625  1
  O  O71  1  0.66523039  0.23250438  0.80259107  1
  O  O72  1  0.42271143  0.28971977  0.94919375  1
  O  O73  1  0.57728857  0.21028023  0.44919375  1
  O  O74  1  0.07728857  0.28971977  0.44919375  1
  O  O75  1  0.44170657  0.33559257  0.68477251  1
  O  O76  1  0.56771914  0.50480326  0.18909427  1
  O  O77  1  0.92271143  0.71028023  0.55080625  1
  O  O78  1  0.05829343  0.33559257  0.18477251  1
  O  O79  1  0.93228086  0.00480326  0.81090573  1
