# generated using pymatgen
data_ZnAg3P3O13
_symmetry_space_group_name_H-M   'P 1'
_cell_length_a   6.44571096
_cell_length_b   7.88718803
_cell_length_c   10.77346981
_cell_angle_alpha   97.03933265
_cell_angle_beta   90.00000000
_cell_angle_gamma   90.00000000
_symmetry_Int_Tables_number   1
_chemical_formula_structural   ZnAg3P3O13
_chemical_formula_sum   'Zn2 Ag6 P6 O26'
_cell_volume   543.57893673
_cell_formula_units_Z   2
loop_
 _symmetry_equiv_pos_site_id
 _symmetry_equiv_pos_as_xyz
  1  'x, y, z'
loop_
 _atom_site_type_symbol
 _atom_site_label
 _atom_site_symmetry_multiplicity
 _atom_site_fract_x
 _atom_site_fract_y
 _atom_site_fract_z
 _atom_site_occupancy
  Zn  Zn0  1  0.75000000  0.60449613  0.14412259  1
  Zn  Zn1  1  0.25000000  0.39550387  0.85587741  1
  Ag  Ag2  1  0.25000000  0.32854734  0.21967574  1
  Ag  Ag3  1  0.75000000  0.67145266  0.78032426  1
  Ag  Ag4  1  0.25000000  0.74482371  0.43395706  1
  Ag  Ag5  1  0.50000000  -0.00000000  0.00000000  1
  Ag  Ag6  1  0.75000000  0.25517629  0.56604294  1
  Ag  Ag7  1  0.00000000  -0.00000000  0.00000000  1
  P  P8  1  0.25000000  0.22481720  0.50120682  1
  P  P9  1  0.75000000  0.77518280  0.49879318  1
  P  P10  1  0.25000000  0.73913027  0.75699287  1
  P  P11  1  0.75000000  0.26086973  0.24300713  1
  P  P12  1  0.75000000  0.33127755  0.88179505  1
  P  P13  1  0.25000000  0.66872245  0.11820495  1
  O  O14  1  0.75000000  0.38842912  0.74691591  1
  O  O15  1  0.56795026  0.75035141  0.40257186  1
  O  O16  1  0.25000000  0.80717102  0.63015119  1
  O  O17  1  0.54075079  0.23427919  0.89210111  1
  O  O18  1  0.75000000  0.62242938  0.57858851  1
  O  O19  1  0.75000000  0.88983532  0.90836087  1
  O  O20  1  0.25000000  0.37757062  0.42141149  1
  O  O21  1  0.04075079  0.76572081  0.10789889  1
  O  O22  1  0.25000000  0.05977357  0.41315399  1
  O  O23  1  0.75000000  0.94022643  0.58684601  1
  O  O24  1  0.07155529  0.61211770  0.78179746  1
  O  O25  1  0.25000000  0.11016468  0.09163913  1
  O  O26  1  0.57155529  0.38788230  0.21820254  1
  O  O27  1  0.75000000  0.50062900  0.96943922  1
  O  O28  1  0.75000000  0.19282898  0.36984881  1
  O  O29  1  0.45924921  0.76572081  0.10789889  1
  O  O30  1  0.93204974  0.75035141  0.40257186  1
  O  O31  1  0.43204974  0.24964859  0.59742814  1
  O  O32  1  0.42844471  0.61211770  0.78179746  1
  O  O33  1  0.25000000  0.61157088  0.25308409  1
  O  O34  1  0.75000000  0.10261011  0.14354158  1
  O  O35  1  0.25000000  0.89738989  0.85645842  1
  O  O36  1  0.92844471  0.38788230  0.21820254  1
  O  O37  1  0.95924921  0.23427919  0.89210111  1
  O  O38  1  0.06795026  0.24964859  0.59742814  1
  O  O39  1  0.25000000  0.49937100  0.03056078  1
