# generated using pymatgen
data_Sn3P3O13
_symmetry_space_group_name_H-M   'P 1'
_cell_length_a   6.62241375
_cell_length_b   7.75046254
_cell_length_c   11.05316305
_cell_angle_alpha   97.06634439
_cell_angle_beta   90.00000000
_cell_angle_gamma   90.00000000
_symmetry_Int_Tables_number   1
_chemical_formula_structural   Sn3P3O13
_chemical_formula_sum   'Sn6 P6 O26'
_cell_volume   563.01397749
_cell_formula_units_Z   2
loop_
 _symmetry_equiv_pos_site_id
 _symmetry_equiv_pos_as_xyz
  1  'x, y, z'
loop_
 _atom_site_type_symbol
 _atom_site_label
 _atom_site_symmetry_multiplicity
 _atom_site_fract_x
 _atom_site_fract_y
 _atom_site_fract_z
 _atom_site_occupancy
  Sn  Sn0  1  0.25000000  0.36262112  0.20248076  1
  Sn  Sn1  1  0.75000000  0.63737888  0.79751924  1
  Sn  Sn2  1  0.25000000  0.78187408  0.45071135  1
  Sn  Sn3  1  0.50000000  0.00000000  0.00000000  1
  Sn  Sn4  1  0.75000000  0.21812592  0.54928865  1
  Sn  Sn5  1  0.00000000  0.00000000  0.00000000  1
  P  P6  1  0.25000000  0.21861081  0.47946423  1
  P  P7  1  0.75000000  0.78138919  0.52053577  1
  P  P8  1  0.25000000  0.74868799  0.77188038  1
  P  P9  1  0.75000000  0.25131201  0.22811962  1
  P  P10  1  0.75000000  0.30846427  0.88067031  1
  P  P11  1  0.25000000  0.69153573  0.11932969  1
  O  O12  1  0.75000000  0.34829534  0.74276158  1
  O  O13  1  0.56610025  0.75056157  0.43449402  1
  O  O14  1  0.25000000  0.82277941  0.65124865  1
  O  O15  1  0.55534012  0.20998337  0.90763475  1
  O  O16  1  0.75000000  0.64370029  0.61349606  1
  O  O17  1  0.75000000  0.87465610  0.90874520  1
  O  O18  1  0.25000000  0.35629971  0.38650394  1
  O  O19  1  0.05534012  0.79001663  0.09236525  1
  O  O20  1  0.25000000  0.03575608  0.40326671  1
  O  O21  1  0.75000000  0.96424392  0.59673329  1
  O  O22  1  0.06235054  0.64297938  0.79725103  1
  O  O23  1  0.25000000  0.12534390  0.09125480  1
  O  O24  1  0.56235054  0.35702062  0.20274897  1
  O  O25  1  0.75000000  0.49810176  0.94629097  1
  O  O26  1  0.75000000  0.17722059  0.34875135  1
  O  O27  1  0.44465988  0.79001663  0.09236525  1
  O  O28  1  0.93389975  0.75056157  0.43449402  1
  O  O29  1  0.43389975  0.24943843  0.56550598  1
  O  O30  1  0.43764946  0.64297938  0.79725103  1
  O  O31  1  0.25000000  0.65170466  0.25723842  1
  O  O32  1  0.75000000  0.08381783  0.12149756  1
  O  O33  1  0.25000000  0.91618217  0.87850244  1
  O  O34  1  0.93764946  0.35702062  0.20274897  1
  O  O35  1  0.94465988  0.20998337  0.90763475  1
  O  O36  1  0.06610025  0.24943843  0.56550598  1
  O  O37  1  0.25000000  0.50189824  0.05370903  1
