# generated using pymatgen
data_LaCrWO6
_symmetry_space_group_name_H-M   'P 1'
_cell_length_a   5.53735402
_cell_length_b   5.53915804
_cell_length_c   5.51171114
_cell_angle_alpha   59.98381634
_cell_angle_beta   119.98874558
_cell_angle_gamma   89.82971441
_symmetry_Int_Tables_number   1
_chemical_formula_structural   LaCrWO6
_chemical_formula_sum   'La1 Cr1 W1 O6'
_cell_volume   119.35338489
_cell_formula_units_Z   1
loop_
 _symmetry_equiv_pos_site_id
 _symmetry_equiv_pos_as_xyz
  1  'x, y, z'
loop_
 _atom_site_type_symbol
 _atom_site_label
 _atom_site_symmetry_multiplicity
 _atom_site_fract_x
 _atom_site_fract_y
 _atom_site_fract_z
 _atom_site_occupancy
  La  La0  1  0.76026021  0.25805220  0.50460118  1
  Cr  Cr1  1  0.00178016  0.51018722  0.00046428  1
  W  W2  1  0.50205279  0.00949367  0.00282317  1
  O  O3  1  0.32299978  0.25118549  0.50784031  1
  O  O4  1  0.22115604  0.28904273  0.93396759  1
  O  O5  1  0.76636519  0.71726779  0.06597962  1
  O  O6  1  0.21353037  0.80504021  0.94107776  1
  O  O7  1  0.77339403  0.23004881  0.05113823  1
  O  O8  1  0.69869642  0.77109288  0.49251986  1
