# generated using pymatgen
data_ZnCrAs2O7
_symmetry_space_group_name_H-M   'P 1'
_cell_length_a   7.35977196
_cell_length_b   8.65619182
_cell_length_c   9.79367774
_cell_angle_alpha   90.00000000
_cell_angle_beta   112.88019018
_cell_angle_gamma   90.00000000
_symmetry_Int_Tables_number   1
_chemical_formula_structural   ZnCrAs2O7
_chemical_formula_sum   'Zn4 Cr4 As8 O28'
_cell_volume   574.84066865
_cell_formula_units_Z   4
loop_
 _symmetry_equiv_pos_site_id
 _symmetry_equiv_pos_as_xyz
  1  'x, y, z'
loop_
 _atom_site_type_symbol
 _atom_site_label
 _atom_site_symmetry_multiplicity
 _atom_site_fract_x
 _atom_site_fract_y
 _atom_site_fract_z
 _atom_site_occupancy
  Zn  Zn0  1  0.26992123  0.92974285  0.89625952  1
  Zn  Zn1  1  0.73007877  0.42974285  0.60374048  1
  Zn  Zn2  1  0.73007877  0.07025715  0.10374048  1
  Zn  Zn3  1  0.26992123  0.57025715  0.39625952  1
  Cr  Cr4  1  0.79949554  0.05615135  0.66712976  1
  Cr  Cr5  1  0.20050446  0.55615135  0.83287024  1
  Cr  Cr6  1  0.20050446  0.94384865  0.33287024  1
  Cr  Cr7  1  0.79949554  0.44384865  0.16712976  1
  As  As8  1  0.43539050  0.22563978  0.74940038  1
  As  As9  1  0.56460950  0.72563978  0.75059962  1
  As  As10  1  0.56460950  0.77436022  0.25059962  1
  As  As11  1  0.43539050  0.27436022  0.24939938  1
  As  As12  1  0.03083709  0.27202058  0.96291990  1
  As  As13  1  0.96916291  0.77202058  0.53708010  1
  As  As14  1  0.96916291  0.72797942  0.03708010  1
  As  As15  1  0.03083709  0.22797942  0.46291990  1
  O  O16  1  0.86461924  0.26549936  0.04704068  1
  O  O17  1  0.13538076  0.76549936  0.45295932  1
  O  O18  1  0.13538076  0.73450064  0.95295932  1
  O  O19  1  0.86461924  0.23450064  0.54704068  1
  O  O20  1  0.35705485  0.40315503  0.76572538  1
  O  O21  1  0.64294515  0.90315503  0.73427462  1
  O  O22  1  0.64294515  0.59684497  0.23427462  1
  O  O23  1  0.35705485  0.09684497  0.26572538  1
  O  O24  1  0.46616249  0.10074299  0.89300907  1
  O  O25  1  0.53383751  0.60074299  0.60699093  1
  O  O26  1  0.53383751  0.89925701  0.10699093  1
  O  O27  1  0.46616249  0.39925701  0.39300907  1
  O  O28  1  0.25389442  0.13889043  0.58759282  1
  O  O29  1  0.74610558  0.63889043  0.91240718  1
  O  O30  1  0.74610558  0.86110957  0.41240718  1
  O  O31  1  0.25389442  0.36110957  0.08759282  1
  O  O32  1  0.97749856  0.08717824  0.32968724  1
  O  O33  1  0.02250144  0.58717824  0.17031276  1
  O  O34  1  0.02250144  0.91282176  0.67031276  1
  O  O35  1  0.97749856  0.41282176  0.82968724  1
  O  O36  1  0.63624622  0.26407239  0.20117445  1
  O  O37  1  0.36375378  0.76407239  0.29882555  1
  O  O38  1  0.36375378  0.73592761  0.79882555  1
  O  O39  1  0.63624622  0.23592761  0.70117445  1
  O  O40  1  0.06347679  0.40319488  0.39982787  1
  O  O41  1  0.93652321  0.90319488  0.10017213  1
  O  O42  1  0.93652321  0.59680512  0.60017213  1
  O  O43  1  0.06347679  0.09680512  0.89982787  1
