# generated using pymatgen
data_MgVAsO5
_symmetry_space_group_name_H-M   'P 1'
_cell_length_a   8.18340902
_cell_length_b   6.24280332
_cell_length_c   8.46834802
_cell_angle_alpha   90.01427805
_cell_angle_beta   89.99376770
_cell_angle_gamma   89.99830813
_symmetry_Int_Tables_number   1
_chemical_formula_structural   MgVAsO5
_chemical_formula_sum   'Mg4 V4 As4 O20'
_cell_volume   432.62597635
_cell_formula_units_Z   4
loop_
 _symmetry_equiv_pos_site_id
 _symmetry_equiv_pos_as_xyz
  1  'x, y, z'
loop_
 _atom_site_type_symbol
 _atom_site_label
 _atom_site_symmetry_multiplicity
 _atom_site_fract_x
 _atom_site_fract_y
 _atom_site_fract_z
 _atom_site_occupancy
  Mg  Mg0  1  0.90477430  0.63419447  0.06835454  1
  Mg  Mg1  1  0.59551779  0.36625406  0.56905054  1
  Mg  Mg2  1  0.40485042  0.86571216  0.93164726  1
  Mg  Mg3  1  0.09554079  0.13364543  0.43092162  1
  V  V4  1  0.99213159  0.48759957  0.74326231  1
  V  V5  1  0.50793174  0.51226642  0.24395985  1
  V  V6  1  0.49218444  0.01242662  0.25669430  1
  V  V7  1  0.00800153  0.98775499  0.75609282  1
  As  As8  1  0.65974316  0.26623605  0.93024648  1
  As  As9  1  0.84021118  0.73430564  0.43004112  1
  As  As10  1  0.15971833  0.23377314  0.06975887  1
  As  As11  1  0.34021690  0.76569198  0.56995477  1
  O  O12  1  0.84812594  0.23432351  0.83840329  1
  O  O13  1  0.65118294  0.76581587  0.33969016  1
  O  O14  1  0.34808289  0.26571514  0.16161805  1
  O  O15  1  0.15119660  0.73420701  0.66035290  1
  O  O16  1  0.52310932  0.33189677  0.78803026  1
  O  O17  1  0.97647594  0.66939735  0.28729709  1
  O  O18  1  0.02306138  0.16822150  0.21197943  1
  O  O19  1  0.47648876  0.83068737  0.71266791  1
  O  O20  1  0.60192304  0.03484498  0.02545426  1
  O  O21  1  0.89804392  0.96579839  0.52515653  1
  O  O22  1  0.10189111  0.46512530  0.97449263  1
  O  O23  1  0.39799976  0.53413352  0.47489462  1
  O  O24  1  0.68401961  0.47285035  0.06667044  1
  O  O25  1  0.81640994  0.52738130  0.56624398  1
  O  O26  1  0.18408931  0.02713359  0.93334446  1
  O  O27  1  0.31645455  0.97258170  0.43374204  1
  O  O28  1  0.90392476  0.74660618  0.85365605  1
  O  O29  1  0.59639393  0.25350662  0.35424668  1
  O  O30  1  0.40393379  0.75342107  0.14636057  1
  O  O31  1  0.09637131  0.24649693  0.64571619  1
