# generated using pymatgen
data_Mg2Ta2TiO8
_symmetry_space_group_name_H-M   'P 1'
_cell_length_a   5.23067058
_cell_length_b   6.00343268
_cell_length_c   10.03753947
_cell_angle_alpha   107.40993533
_cell_angle_beta   90.07965275
_cell_angle_gamma   89.99902505
_symmetry_Int_Tables_number   1
_chemical_formula_structural   Mg2Ta2TiO8
_chemical_formula_sum   'Mg4 Ta4 Ti2 O16'
_cell_volume   300.75855049
_cell_formula_units_Z   2
loop_
 _symmetry_equiv_pos_site_id
 _symmetry_equiv_pos_as_xyz
  1  'x, y, z'
loop_
 _atom_site_type_symbol
 _atom_site_label
 _atom_site_symmetry_multiplicity
 _atom_site_fract_x
 _atom_site_fract_y
 _atom_site_fract_z
 _atom_site_occupancy
  Mg  Mg0  1  0.76189348  0.41949184  0.54984274  1
  Mg  Mg1  1  0.73852969  0.86955791  0.44948672  1
  Mg  Mg2  1  0.23867346  0.58093079  0.44977864  1
  Mg  Mg3  1  0.26182214  0.13096133  0.55006626  1
  Ta  Ta4  1  0.74459487  0.27004518  0.23350729  1
  Ta  Ta5  1  0.75640093  0.03630440  0.76608327  1
  Ta  Ta6  1  0.25633128  0.73023516  0.76620309  1
  Ta  Ta7  1  0.24459627  0.96431843  0.23354962  1
  Ti  Ti8  1  0.75080722  0.62580412  0.99982909  1
  Ti  Ti9  1  0.25058751  0.37470224  0.99976860  1
  O  O10  1  0.08205652  0.19174677  0.14096538  1
  O  O11  1  0.41899894  0.05034829  0.85865549  1
  O  O12  1  0.91878070  0.80852517  0.85862056  1
  O  O13  1  0.58231175  0.94950428  0.14120461  1
  O  O14  1  0.59071808  0.42721613  0.11634166  1
  O  O15  1  0.91053466  0.31081788  0.88302227  1
  O  O16  1  0.41071379  0.57307835  0.88319597  1
  O  O17  1  0.09081119  0.68977988  0.11645203  1
  O  O18  1  0.44409045  0.28538297  0.36909463  1
  O  O19  1  0.05676649  0.91590243  0.63063052  1
  O  O20  1  0.37223796  0.83984088  0.38414134  1
  O  O21  1  0.12811286  0.45543354  0.61561172  1
  O  O22  1  0.62813847  0.16065795  0.61561208  1
  O  O23  1  0.87247613  0.54513534  0.38396163  1
  O  O24  1  0.94399194  0.08477807  0.36916407  1
  O  O25  1  0.55663522  0.71499765  0.63056072  1
