# generated using pymatgen
data_AlV2O4
_symmetry_space_group_name_H-M   'P 1'
_cell_length_a   6.03508402
_cell_length_b   6.04478541
_cell_length_c   6.03690542
_cell_angle_alpha   121.80606815
_cell_angle_beta   121.97325999
_cell_angle_gamma   86.73321508
_symmetry_Int_Tables_number   1
_chemical_formula_structural   AlV2O4
_chemical_formula_sum   'Al2 V4 O8'
_cell_volume   151.04505492
_cell_formula_units_Z   2
loop_
 _symmetry_equiv_pos_site_id
 _symmetry_equiv_pos_as_xyz
  1  'x, y, z'
loop_
 _atom_site_type_symbol
 _atom_site_label
 _atom_site_symmetry_multiplicity
 _atom_site_fract_x
 _atom_site_fract_y
 _atom_site_fract_z
 _atom_site_occupancy
  Al  Al0  1  0.00002202  0.50012433  0.00009600  1
  Al  Al1  1  0.00001487  0.99992721  0.49991110  1
  V  V2  1  0.37137958  0.62006814  0.74845423  1
  V  V3  1  0.62851547  0.37982131  0.25150112  1
  V  V4  1  0.49996035  0.00001418  0.49995211  1
  V  V5  1  0.00007487  0.00000987  0.00007121  1
  O  O6  1  0.78123183  0.78251382  0.50122658  1
  O  O7  1  0.78114067  0.28068492  0.99957471  1
  O  O8  1  0.21391404  0.24177534  0.97186378  1
  O  O9  1  0.21867234  0.21727746  0.49869276  1
  O  O10  1  0.23022554  0.75819270  0.47207928  1
  O  O11  1  0.21876788  0.71931456  0.00053697  1
  O  O12  1  0.76989311  0.24193536  0.52791884  1
  O  O13  1  0.78618842  0.75834680  0.02812431  1
