# generated using pymatgen
data_ZnCoNiP2O9
_symmetry_space_group_name_H-M   'P 1'
_cell_length_a   6.23776261
_cell_length_b   7.28007057
_cell_length_c   14.06452664
_cell_angle_alpha   89.97522784
_cell_angle_beta   90.00079317
_cell_angle_gamma   90.00167852
_symmetry_Int_Tables_number   1
_chemical_formula_structural   ZnCoNiP2O9
_chemical_formula_sum   'Zn4 Co4 Ni4 P8 O36'
_cell_volume   638.68911006
_cell_formula_units_Z   4
loop_
 _symmetry_equiv_pos_site_id
 _symmetry_equiv_pos_as_xyz
  1  'x, y, z'
loop_
 _atom_site_type_symbol
 _atom_site_label
 _atom_site_symmetry_multiplicity
 _atom_site_fract_x
 _atom_site_fract_y
 _atom_site_fract_z
 _atom_site_occupancy
  Zn  Zn0  1  0.74998141  0.87787908  0.77504234  1
  Zn  Zn1  1  0.75004412  0.62192325  0.27509705  1
  Zn  Zn2  1  0.25002948  0.12196427  0.22490490  1
  Zn  Zn3  1  0.24988937  0.37767385  0.72494992  1
  Co  Co4  1  0.74999018  0.34892190  0.88194487  1
  Co  Co5  1  0.25001882  0.65109085  0.11806148  1
  Co  Co6  1  0.24999313  0.84883581  0.61801703  1
  Co  Co7  1  0.75004610  0.15124701  0.38197848  1
  Ni  Ni8  1  0.50003675  0.99989738  0.99994437  1
  Ni  Ni9  1  0.50017225  0.49986455  0.50016152  1
  Ni  Ni10  1  0.00005329  0.50007075  0.49999265  1
  Ni  Ni11  1  0.00001910  0.00002602  0.00005947  1
  P  P12  1  0.25000824  0.35446807  0.93338687  1
  P  P13  1  0.75000302  0.64551107  0.06663816  1
  P  P14  1  0.74997585  0.85454385  0.56661676  1
  P  P15  1  0.24996411  0.14546374  0.43336618  1
  P  P16  1  0.74993687  0.38428069  0.69993268  1
  P  P17  1  0.25004990  0.61582338  0.30007167  1
  P  P18  1  0.24997239  0.88444327  0.80001534  1
  P  P19  1  0.74999563  0.11561710  0.19996470  1
  O  O20  1  0.03840417  0.60560835  0.35848585  1
  O  O21  1  0.53827507  0.39445289  0.64155050  1
  O  O22  1  0.96159778  0.10566869  0.14151722  1
  O  O23  1  0.46161537  0.89430320  0.85845881  1
  O  O24  1  0.96156588  0.39444668  0.64151066  1
  O  O25  1  0.46169548  0.60558904  0.35849114  1
  O  O26  1  0.03835723  0.89437755  0.85846279  1
  O  O27  1  0.53843649  0.10574508  0.14149480  1
  O  O28  1  0.24995574  0.33403183  0.48233902  1
  O  O29  1  0.74995999  0.66598599  0.51762572  1
  O  O30  1  0.75005284  0.83424313  0.01775463  1
  O  O31  1  0.25003277  0.16578791  0.98231283  1
  O  O32  1  0.75002470  0.14861796  0.94974514  1
  O  O33  1  0.25000300  0.85138769  0.05028488  1
  O  O34  1  0.24997248  0.64854992  0.55029486  1
  O  O35  1  0.75004098  0.35141368  0.44967589  1
  O  O36  1  0.74993303  0.20378142  0.76100941  1
  O  O37  1  0.25006086  0.79632661  0.23899785  1
  O  O38  1  0.24997676  0.70407718  0.73899176  1
  O  O39  1  0.75000014  0.29596765  0.26096057  1
  O  O40  1  0.43819963  0.13141963  0.36154056  1
  O  O41  1  0.93824883  0.86859188  0.63844135  1
  O  O42  1  0.56174761  0.63134384  0.13845837  1
  O  O43  1  0.06175954  0.36861073  0.86153011  1
  O  O44  1  0.56176369  0.86854681  0.63847920  1
  O  O45  1  0.06169473  0.13129709  0.36153282  1
  O  O46  1  0.43823664  0.36859937  0.86152687  1
  O  O47  1  0.93825817  0.63127472  0.13845702  1
  O  O48  1  0.74995163  0.96006616  0.27776054  1
  O  O49  1  0.25001213  0.04011405  0.72221284  1
  O  O50  1  0.25002669  0.46037051  0.22229936  1
  O  O51  1  0.74996833  0.53971942  0.77768871  1
  O  O52  1  0.74996422  0.00239442  0.49176351  1
  O  O53  1  0.25008351  0.99763862  0.50826092  1
  O  O54  1  0.24999118  0.50220382  0.00832146  1
  O  O55  1  0.74995673  0.49789959  0.99161360  1
