# generated using pymatgen
data_MgSi4SnO10
_symmetry_space_group_name_H-M   'P 1'
_cell_length_a   7.64281276
_cell_length_b   7.64281276
_cell_length_c   15.05076171
_cell_angle_alpha   90.00000000
_cell_angle_beta   90.00000000
_cell_angle_gamma   90.00000000
_symmetry_Int_Tables_number   1
_chemical_formula_structural   MgSi4SnO10
_chemical_formula_sum   'Mg4 Si16 Sn4 O40'
_cell_volume   879.15392606
_cell_formula_units_Z   4
loop_
 _symmetry_equiv_pos_site_id
 _symmetry_equiv_pos_as_xyz
  1  'x, y, z'
loop_
 _atom_site_type_symbol
 _atom_site_label
 _atom_site_symmetry_multiplicity
 _atom_site_fract_x
 _atom_site_fract_y
 _atom_site_fract_z
 _atom_site_occupancy
  Mg  Mg0  1  0.25000000  0.75000000  0.50000000  1
  Mg  Mg1  1  0.75000000  0.25000000  0.50000000  1
  Mg  Mg2  1  0.75000000  0.25000000  -0.00000000  1
  Mg  Mg3  1  0.25000000  0.75000000  -0.00000000  1
  Si  Si4  1  0.88764118  0.48928551  0.64836238  1
  Si  Si5  1  0.61235882  0.01071449  0.64836238  1
  Si  Si6  1  0.98928551  0.38764118  0.85163762  1
  Si  Si7  1  0.48928551  0.61235882  0.64836238  1
  Si  Si8  1  0.01071449  0.88764118  0.64836238  1
  Si  Si9  1  0.11235882  0.98928551  0.85163762  1
  Si  Si10  1  0.38764118  0.51071449  0.85163762  1
  Si  Si11  1  0.51071449  0.11235882  0.85163762  1
  Si  Si12  1  0.11235882  0.51071449  0.35163762  1
  Si  Si13  1  0.38764118  0.98928551  0.35163762  1
  Si  Si14  1  0.01071449  0.61235882  0.14836238  1
  Si  Si15  1  0.51071449  0.38764118  0.35163762  1
  Si  Si16  1  0.98928551  0.11235882  0.35163762  1
  Si  Si17  1  0.88764118  0.01071449  0.14836238  1
  Si  Si18  1  0.61235882  0.48928551  0.14836238  1
  Si  Si19  1  0.48928551  0.88764118  0.14836238  1
  Sn  Sn20  1  0.25000000  0.25000000  0.59754240  1
  Sn  Sn21  1  0.75000000  0.75000000  0.90245760  1
  Sn  Sn22  1  0.75000000  0.75000000  0.40245760  1
  Sn  Sn23  1  0.25000000  0.25000000  0.09754240  1
  O  O24  1  0.95026820  0.34530035  0.57617317  1
  O  O25  1  0.54973180  0.15469965  0.57617317  1
  O  O26  1  0.84530035  0.45026820  0.92382683  1
  O  O27  1  0.34530035  0.54973180  0.57617317  1
  O  O28  1  0.15469965  0.95026820  0.57617317  1
  O  O29  1  0.04973180  0.84530035  0.92382683  1
  O  O30  1  0.45026820  0.65469965  0.92382683  1
  O  O31  1  0.65469965  0.04973180  0.92382683  1
  O  O32  1  0.04973180  0.65469965  0.42382683  1
  O  O33  1  0.45026820  0.84530035  0.42382683  1
  O  O34  1  0.15469965  0.54973180  0.07617317  1
  O  O35  1  0.65469965  0.45026820  0.42382683  1
  O  O36  1  0.84530035  0.04973180  0.42382683  1
  O  O37  1  0.95026820  0.15469965  0.07617317  1
  O  O38  1  0.54973180  0.34530035  0.07617317  1
  O  O39  1  0.01636702  0.32213782  0.36607593  1
  O  O40  1  0.34530035  0.95026820  0.07617317  1
  O  O41  1  0.51636702  0.82213782  0.63392407  1
  O  O42  1  0.17786218  0.48363298  0.86607593  1
  O  O43  1  0.67786218  0.51636702  0.63392407  1
  O  O44  1  0.82213782  0.98363298  0.63392407  1
  O  O45  1  0.01636702  0.17786218  0.86607593  1
  O  O46  1  0.48363298  0.32213782  0.86607593  1
  O  O47  1  0.32213782  0.01636702  0.86607593  1
  O  O48  1  0.42683818  0.92683818  0.25000000  1
  O  O49  1  0.57316182  0.42683818  0.25000000  1
  O  O50  1  0.92683818  0.07316282  0.25000000  1
  O  O51  1  0.07316282  0.57316182  0.25000000  1
  O  O52  1  0.57316182  0.07316282  0.75000000  1
  O  O53  1  0.42683818  0.57316182  0.75000000  1
  O  O54  1  0.07316282  0.92683818  0.75000000  1
  O  O55  1  0.92683818  0.42683818  0.75000000  1
  O  O56  1  0.67786218  0.98363298  0.13392407  1
  O  O57  1  0.51636702  0.67786218  0.13392407  1
  O  O58  1  0.98363298  0.82213782  0.13392407  1
  O  O59  1  0.17786218  0.01636702  0.36607593  1
  O  O60  1  0.32213782  0.48363298  0.36607593  1
  O  O61  1  0.82213782  0.51636702  0.13392407  1
  O  O62  1  0.48363298  0.17786218  0.36607593  1
  O  O63  1  0.98363298  0.67786218  0.63392407  1
