# generated using pymatgen
data_PrMg(CoO3)2
_symmetry_space_group_name_H-M   'P 1'
_cell_length_a   5.26863257
_cell_length_b   5.36992259
_cell_length_c   7.62825922
_cell_angle_alpha   90.59682322
_cell_angle_beta   89.90708583
_cell_angle_gamma   91.06007129
_symmetry_Int_Tables_number   1
_chemical_formula_structural   PrMg(CoO3)2
_chemical_formula_sum   'Pr2 Mg2 Co4 O12'
_cell_volume   215.77098188
_cell_formula_units_Z   2
loop_
 _symmetry_equiv_pos_site_id
 _symmetry_equiv_pos_as_xyz
  1  'x, y, z'
loop_
 _atom_site_type_symbol
 _atom_site_label
 _atom_site_symmetry_multiplicity
 _atom_site_fract_x
 _atom_site_fract_y
 _atom_site_fract_z
 _atom_site_occupancy
  Pr  Pr0  1  0.00168869  0.95750608  0.74608454  1
  Pr  Pr1  1  0.51446146  0.54341043  0.25367484  1
  Mg  Mg2  1  0.47031306  0.44059994  0.74521572  1
  Mg  Mg3  1  0.97772077  0.05754499  0.25181696  1
  Co  Co4  1  0.99903851  0.49913547  0.99862045  1
  Co  Co5  1  0.99970790  0.49720843  0.50066275  1
  Co  Co6  1  0.49232202  0.00613804  0.49773938  1
  Co  Co7  1  0.49246433  0.00261284  0.00027337  1
  O  O8  1  0.08144595  0.44802546  0.26250300  1
  O  O9  1  0.21401207  0.24094192  0.94827078  1
  O  O10  1  0.21894790  0.24025482  0.55957393  1
  O  O11  1  0.30805790  0.70335575  0.55514932  1
  O  O12  1  0.32538038  0.70783923  0.93978747  1
  O  O13  1  0.36975468  0.98121669  0.24707772  1
  O  O14  1  0.57163946  0.05068064  0.75158876  1
  O  O15  1  0.71918499  0.25899157  0.05729243  1
  O  O16  1  0.72440797  0.26559488  0.44762536  1
  O  O17  1  0.82973727  0.78716816  0.05665120  1
  O  O18  1  0.82002646  0.79324454  0.44125691  1
  O  O19  1  0.86968223  0.51852910  0.73913413  1
