# generated using pymatgen
data_Mg(Fe2O3)2
_symmetry_space_group_name_H-M   'P 1'
_cell_length_a   2.96976728
_cell_length_b   5.27662455
_cell_length_c   15.34268795
_cell_angle_alpha   90.00000000
_cell_angle_beta   90.00000000
_cell_angle_gamma   106.34424837
_symmetry_Int_Tables_number   1
_chemical_formula_structural   Mg(Fe2O3)2
_chemical_formula_sum   'Mg2 Fe8 O12'
_cell_volume   230.70923886
_cell_formula_units_Z   2
loop_
 _symmetry_equiv_pos_site_id
 _symmetry_equiv_pos_as_xyz
  1  'x, y, z'
loop_
 _atom_site_type_symbol
 _atom_site_label
 _atom_site_symmetry_multiplicity
 _atom_site_fract_x
 _atom_site_fract_y
 _atom_site_fract_z
 _atom_site_occupancy
  Mg  Mg0  1  0.65178792  0.30357785  0.75000000  1
  Mg  Mg1  1  0.34821208  0.69642215  0.25000000  1
  Fe  Fe2  1  0.86544653  0.73089707  0.04634627  1
  Fe  Fe3  1  0.39965673  0.79931246  0.63768568  1
  Fe  Fe4  1  0.13455147  0.26910193  0.95365373  1
  Fe  Fe5  1  0.60034327  0.20068754  0.36231532  1
  Fe  Fe6  1  0.86544653  0.73089707  0.45365373  1
  Fe  Fe7  1  0.13455147  0.26910193  0.54634627  1
  Fe  Fe8  1  0.60034327  0.20068754  0.13768468  1
  Fe  Fe9  1  0.39965673  0.79931246  0.86231432  1
  O  O10  1  0.49999900  0.00000000  0.50000000  1
  O  O11  1  0.49999900  0.00000000  0.00000000  1
  O  O12  1  0.03638848  0.07277496  0.83562646  1
  O  O13  1  0.96361152  0.92722504  0.16437454  1
  O  O14  1  0.96361152  0.92722504  0.33562546  1
  O  O15  1  0.03638848  0.07277496  0.66437454  1
  O  O16  1  0.78663893  0.57328087  0.91596958  1
  O  O17  1  0.21336007  0.42672013  0.08403042  1
  O  O18  1  0.21336007  0.42672013  0.41596958  1
  O  O19  1  0.78663893  0.57328087  0.58403042  1
  O  O20  1  0.29816042  0.59632184  0.75000000  1
  O  O21  1  0.70183758  0.40367716  0.25000000  1
