# generated using pymatgen
data_CaPr(AgO3)2
_symmetry_space_group_name_H-M   'P 1'
_cell_length_a   5.64149118
_cell_length_b   5.93541997
_cell_length_c   7.99501874
_cell_angle_alpha   89.98663633
_cell_angle_beta   89.98096427
_cell_angle_gamma   89.95659297
_symmetry_Int_Tables_number   1
_chemical_formula_structural   CaPr(AgO3)2
_chemical_formula_sum   'Ca2 Pr2 Ag4 O12'
_cell_volume   267.71006057
_cell_formula_units_Z   2
loop_
 _symmetry_equiv_pos_site_id
 _symmetry_equiv_pos_as_xyz
  1  'x, y, z'
loop_
 _atom_site_type_symbol
 _atom_site_label
 _atom_site_symmetry_multiplicity
 _atom_site_fract_x
 _atom_site_fract_y
 _atom_site_fract_z
 _atom_site_occupancy
  Ca  Ca0  1  0.47942103  0.43440741  0.74982567  1
  Ca  Ca1  1  0.98007271  0.06608879  0.25010121  1
  Pr  Pr2  1  0.02172007  0.93562627  0.74990621  1
  Pr  Pr3  1  0.52120468  0.56403611  0.25017041  1
  Ag  Ag4  1  0.00086219  0.49746132  0.99903076  1
  Ag  Ag5  1  0.00081198  0.49752908  0.50098246  1
  Ag  Ag6  1  0.50120014  0.00285876  0.49897312  1
  Ag  Ag7  1  0.50116787  0.00285973  0.00099355  1
  O  O8  1  0.11257483  0.45293120  0.24956893  1
  O  O9  1  0.20169984  0.20275613  0.94102102  1
  O  O10  1  0.20176228  0.20296659  0.55853471  1
  O  O11  1  0.29819784  0.70267777  0.55935549  1
  O  O12  1  0.29832223  0.70316253  0.94045646  1
  O  O13  1  0.38260196  0.95517176  0.24923011  1
  O  O14  1  0.61162409  0.04674098  0.75071911  1
  O  O15  1  0.70236621  0.29806079  0.05910642  1
  O  O16  1  0.70274532  0.29829864  0.44133950  1
  O  O17  1  0.79925060  0.79623581  0.05925833  1
  O  O18  1  0.79937926  0.79623202  0.44096697  1
  O  O19  1  0.88300987  0.54389830  0.75046055  1
