# generated using pymatgen
data_Sr7CaTi5Mn3O20
_symmetry_space_group_name_H-M   'P 1'
_cell_length_a   11.20135987
_cell_length_b   11.42603077
_cell_length_c   17.84131561
_cell_angle_alpha   108.64224116
_cell_angle_beta   108.52397537
_cell_angle_gamma   89.85423195
_symmetry_Int_Tables_number   1
_chemical_formula_structural   Sr7CaTi5Mn3O20
_chemical_formula_sum   'Sr28 Ca4 Ti20 Mn12 O80'
_cell_volume   2039.05869307
_cell_formula_units_Z   4
loop_
 _symmetry_equiv_pos_site_id
 _symmetry_equiv_pos_as_xyz
  1  'x, y, z'
loop_
 _atom_site_type_symbol
 _atom_site_label
 _atom_site_symmetry_multiplicity
 _atom_site_fract_x
 _atom_site_fract_y
 _atom_site_fract_z
 _atom_site_occupancy
  Sr  Sr0  1  0.30802064  0.05920303  0.61041381  1
  Sr  Sr1  1  0.31429395  0.55864840  0.61168111  1
  Sr  Sr2  1  0.80779986  0.06229525  0.60880433  1
  Sr  Sr3  1  0.80663752  0.56486007  0.10793048  1
  Sr  Sr4  1  0.80461892  0.55797291  0.61133618  1
  Sr  Sr5  1  0.19982755  0.43339766  0.39055990  1
  Sr  Sr6  1  0.20140999  0.44005369  0.89083019  1
  Sr  Sr7  1  0.19852400  0.93698084  0.38957193  1
  Sr  Sr8  1  0.20218546  0.93931651  0.89263709  1
  Sr  Sr9  1  0.69758707  0.43653425  0.39343189  1
  Sr  Sr10  1  0.69596298  0.44352983  0.88962708  1
  Sr  Sr11  1  0.69583699  0.93722275  0.38734399  1
  Sr  Sr12  1  0.69552777  0.93617258  0.89063046  1
  Sr  Sr13  1  0.05923203  0.29348058  0.10882010  1
  Sr  Sr14  1  0.05375705  0.29608697  0.61032740  1
  Sr  Sr15  1  0.05812391  0.80486823  0.61211771  1
  Sr  Sr16  1  0.55553942  0.29110650  0.10693046  1
  Sr  Sr17  1  0.56232886  0.29786873  0.60881940  1
  Sr  Sr18  1  0.55835682  0.79973239  0.11315627  1
  Sr  Sr19  1  0.56082678  0.79878752  0.61031605  1
  Sr  Sr20  1  0.44436954  0.19969748  0.38476822  1
  Sr  Sr21  1  0.44448673  0.19870218  0.89022156  1
  Sr  Sr22  1  0.44615600  0.70297530  0.38809225  1
  Sr  Sr23  1  0.44891091  0.70436061  0.89309234  1
  Sr  Sr24  1  0.94398846  0.20053678  0.38729121  1
  Sr  Sr25  1  0.95221189  0.19653108  0.88995106  1
  Sr  Sr26  1  0.94806656  0.70673026  0.39132328  1
  Sr  Sr27  1  0.94892569  0.70132553  0.89090832  1
  Ca  Ca28  1  0.30281209  0.06698788  0.10834487  1
  Ca  Ca29  1  0.30353113  0.56585041  0.10408709  1
  Ca  Ca30  1  0.79790509  0.06508758  0.10445293  1
  Ca  Ca31  1  0.05385537  0.78614612  0.10419761  1
  Ti  Ti32  1  0.00433892  0.99620282  0.99824715  1
  Ti  Ti33  1  0.00325679  0.00032566  0.49759203  1
  Ti  Ti34  1  0.00243654  0.49379088  0.99256842  1
  Ti  Ti35  1  0.00811499  0.50518681  0.50661840  1
  Ti  Ti36  1  0.50629082  0.00124344  0.00457535  1
  Ti  Ti37  1  0.50327656  0.99991148  0.49757345  1
  Ti  Ti38  1  0.50360162  0.49783055  0.99770161  1
  Ti  Ti39  1  0.50385335  0.49974312  0.49828356  1
  Ti  Ti40  1  0.25705154  0.25274810  0.00390820  1
  Ti  Ti41  1  0.25963469  0.25223728  0.50939409  1
  Ti  Ti42  1  0.25713922  0.75408861  0.00598692  1
  Ti  Ti43  1  0.26005401  0.75226311  0.50960788  1
  Ti  Ti44  1  0.75233216  0.24844949  0.99434497  1
  Ti  Ti45  1  0.75192977  0.24727946  0.49701202  1
  Ti  Ti46  1  0.75847840  0.75496960  0.00509931  1
  Ti  Ti47  1  0.75762350  0.75169868  0.50615034  1
  Ti  Ti48  1  0.09950718  0.08077785  0.24220665  1
  Ti  Ti49  1  0.11061621  0.58897433  0.24866894  1
  Ti  Ti50  1  0.60443450  0.58551734  0.24657708  1
  Ti  Ti51  1  0.85222771  0.41046811  0.24913153  1
  Mn  Mn52  1  0.11216514  0.09613461  0.75104077  1
  Mn  Mn53  1  0.11300489  0.59646051  0.75316636  1
  Mn  Mn54  1  0.60446829  0.09474383  0.24760635  1
  Mn  Mn55  1  0.61109204  0.09368051  0.74885694  1
  Mn  Mn56  1  0.61293587  0.59660483  0.75169544  1
  Mn  Mn57  1  0.36504890  0.39953201  0.24755316  1
  Mn  Mn58  1  0.36117185  0.40866571  0.75264718  1
  Mn  Mn59  1  0.35531978  0.90585469  0.24578900  1
  Mn  Mn60  1  0.36326987  0.90734259  0.75415532  1
  Mn  Mn61  1  0.86070065  0.40469423  0.74852029  1
  Mn  Mn62  1  0.86044171  0.90291299  0.24771807  1
  Mn  Mn63  1  0.86128781  0.90684466  0.75133515  1
  O  O64  1  0.12578751  0.12327193  0.48941739  1
  O  O65  1  0.12719852  0.12236049  0.99642894  1
  O  O66  1  0.12372654  0.61964208  0.48623231  1
  O  O67  1  0.12655362  0.62212033  0.99768739  1
  O  O68  1  0.62371783  0.12106559  0.48968082  1
  O  O69  1  0.63046725  0.12562637  0.99480898  1
  O  O70  1  0.62559922  0.62248365  0.49091096  1
  O  O71  1  0.62751074  0.62397690  0.99621169  1
  O  O72  1  0.13935523  0.38666522  0.01795750  1
  O  O73  1  0.13006701  0.37362235  0.50093290  1
  O  O74  1  0.13678275  0.88236453  0.01857616  1
  O  O75  1  0.13348818  0.87273012  0.50410054  1
  O  O76  1  0.63627079  0.37863095  0.01151230  1
  O  O77  1  0.63152797  0.37778365  0.50604264  1
  O  O78  1  0.63990315  0.88081574  0.01326928  1
  O  O79  1  0.63170144  0.87301026  0.50283384  1
  O  O80  1  0.37073696  0.12062125  0.48837222  1
  O  O81  1  0.37740240  0.12123074  0.99520821  1
  O  O82  1  0.37127311  0.61932992  0.48749185  1
  O  O83  1  0.37811662  0.61945969  0.99673412  1
  O  O84  1  0.87511451  0.11798221  0.48926311  1
  O  O85  1  0.87839091  0.12160404  0.00014895  1
  O  O86  1  0.87397442  0.61866060  0.48762282  1
  O  O87  1  0.88246967  0.61962288  0.99659980  1
  O  O88  1  0.38665603  0.38678810  0.01538708  1
  O  O89  1  0.37876884  0.37583274  0.50327581  1
  O  O90  1  0.38519173  0.88589500  0.01569863  1
  O  O91  1  0.37963765  0.87529521  0.50449303  1
  O  O92  1  0.88913503  0.38404403  0.01549293  1
  O  O93  1  0.88376922  0.38145207  0.50486294  1
  O  O94  1  0.89160439  0.88757878  0.01869252  1
  O  O95  1  0.88075339  0.87660270  0.50361371  1
  O  O96  1  0.09683941  0.10158762  0.14414084  1
  O  O97  1  0.07456709  0.07803366  0.62374338  1
  O  O98  1  0.09052709  0.60968391  0.14793828  1
  O  O99  1  0.07567710  0.58294049  0.62423573  1
  O  O100  1  0.58613629  0.08591376  0.12716740  1
  O  O101  1  0.56973964  0.07851519  0.62221678  1
  O  O102  1  0.58917454  0.59201809  0.14117261  1
  O  O103  1  0.56819499  0.58167935  0.62440543  1
  O  O104  1  0.44495508  0.41881694  0.37038264  1
  O  O105  1  0.44802975  0.41670161  0.87707817  1
  O  O106  1  0.43868627  0.91855560  0.37038311  1
  O  O107  1  0.45083938  0.91896034  0.87851184  1
  O  O108  1  0.93432515  0.40856125  0.35747129  1
  O  O109  1  0.94933328  0.41488481  0.87605644  1
  O  O110  1  0.95024598  0.91795730  0.37121170  1
  O  O111  1  0.94895943  0.91944227  0.87852985  1
  O  O112  1  0.32558198  0.28449069  0.12885102  1
  O  O113  1  0.32314759  0.29508640  0.62629636  1
  O  O114  1  0.32442378  0.78112483  0.12893500  1
  O  O115  1  0.32273881  0.79146470  0.62644540  1
  O  O116  1  0.82696922  0.29345619  0.14323376  1
  O  O117  1  0.82348639  0.29337387  0.62361217  1
  O  O118  1  0.83331103  0.78900681  0.12836301  1
  O  O119  1  0.82434447  0.79188532  0.62540298  1
  O  O120  1  0.18569429  0.19528881  0.34576640  1
  O  O121  1  0.19593107  0.21050961  0.87847446  1
  O  O122  1  0.19030743  0.70481608  0.35169479  1
  O  O123  1  0.19766810  0.70899272  0.87968458  1
  O  O124  1  0.69419776  0.20701823  0.37232762  1
  O  O125  1  0.70344064  0.20957413  0.87629052  1
  O  O126  1  0.68478381  0.69732207  0.35395846  1
  O  O127  1  0.70495111  0.70763748  0.87871739  1
  O  O128  1  0.41545425  0.07207644  0.23979065  1
  O  O129  1  0.42882779  0.07393451  0.75089736  1
  O  O130  1  0.43456624  0.56870762  0.24014531  1
  O  O131  1  0.42926554  0.57572475  0.75313102  1
  O  O132  1  0.93266284  0.07016574  0.23898941  1
  O  O133  1  0.92735350  0.07320120  0.74954886  1
  O  O134  1  0.94643251  0.55567064  0.24849300  1
  O  O135  1  0.92894892  0.57437607  0.75122823  1
  O  O136  1  0.18095803  0.44377775  0.24899182  1
  O  O137  1  0.17706685  0.42599453  0.74992742  1
  O  O138  1  0.15754845  0.92849413  0.24009776  1
  O  O139  1  0.17934980  0.92708588  0.75230618  1
  O  O140  1  0.67701770  0.43343694  0.24947390  1
  O  O141  1  0.67851966  0.42579616  0.74997236  1
  O  O142  1  0.68085954  0.93183087  0.25019459  1
  O  O143  1  0.67858554  0.92602873  0.75120283  1
