# generated using pymatgen
data_Ba2Ti2O5
_symmetry_space_group_name_H-M   'P 1'
_cell_length_a   5.83141162
_cell_length_b   5.83201392
_cell_length_c   9.02154032
_cell_angle_alpha   108.85820326
_cell_angle_beta   108.85618218
_cell_angle_gamma   90.00000000
_symmetry_Int_Tables_number   1
_chemical_formula_structural   Ba2Ti2O5
_chemical_formula_sum   'Ba4 Ti4 O10'
_cell_volume   272.88545824
_cell_formula_units_Z   2
loop_
 _symmetry_equiv_pos_site_id
 _symmetry_equiv_pos_as_xyz
  1  'x, y, z'
loop_
 _atom_site_type_symbol
 _atom_site_label
 _atom_site_symmetry_multiplicity
 _atom_site_fract_x
 _atom_site_fract_y
 _atom_site_fract_z
 _atom_site_occupancy
  Ba  Ba0  1  0.60817683  0.12063628  0.23657978  1
  Ba  Ba1  1  0.37159705  0.87936372  0.76342022  1
  Ba  Ba2  1  0.10817683  0.61594350  0.23657978  1
  Ba  Ba3  1  0.87159705  0.38405650  0.76342022  1
  Ti  Ti4  1  0.98976424  0.00000000  0.00000000  1
  Ti  Ti5  1  0.48976424  0.50000000  0.00000000  1
  Ti  Ti6  1  0.24088863  0.21207009  0.50000000  1
  Ti  Ti7  1  0.74088863  0.78792991  0.50000000  1
  O  O8  1  0.23684386  0.24702406  0.99377584  1
  O  O9  1  0.24306802  0.75297594  0.00622416  1
  O  O10  1  0.73684386  0.24675178  0.99377584  1
  O  O11  1  0.74306802  0.75324822  0.00622416  1
  O  O12  1  0.12079795  0.15019363  0.26099613  1
  O  O13  1  0.85980182  0.84980637  0.73900387  1
  O  O14  1  0.62079795  0.61080250  0.26099613  1
  O  O15  1  0.35980182  0.38919750  0.73900387  1
  O  O16  1  0.99306159  0.99805895  0.50000000  1
  O  O17  1  0.49306159  0.00194105  0.50000000  1
