# generated using pymatgen
data_Mg(CuO2)2
_symmetry_space_group_name_H-M   'P 1'
_cell_length_a   2.94201606
_cell_length_b   5.04462466
_cell_length_c   9.32132499
_cell_angle_alpha   90.00000000
_cell_angle_beta   90.00000000
_cell_angle_gamma   106.95372145
_symmetry_Int_Tables_number   1
_chemical_formula_structural   Mg(CuO2)2
_chemical_formula_sum   'Mg2 Cu4 O8'
_cell_volume   132.32897687
_cell_formula_units_Z   2
loop_
 _symmetry_equiv_pos_site_id
 _symmetry_equiv_pos_as_xyz
  1  'x, y, z'
loop_
 _atom_site_type_symbol
 _atom_site_label
 _atom_site_symmetry_multiplicity
 _atom_site_fract_x
 _atom_site_fract_y
 _atom_site_fract_z
 _atom_site_occupancy
  Mg  Mg0  1  0.39219246  0.78438591  0.75000000  1
  Mg  Mg1  1  0.60780754  0.21561409  0.25000000  1
  Cu  Cu2  1  0.86725269  0.73450539  0.07082353  1
  Cu  Cu3  1  0.13274731  0.26549461  0.92917647  1
  Cu  Cu4  1  0.86725269  0.73450539  0.42917647  1
  Cu  Cu5  1  0.13274731  0.26549461  0.57082353  1
  O  O6  1  0.21991717  0.43983434  0.38594783  1
  O  O7  1  0.78008283  0.56016566  0.61405217  1
  O  O8  1  0.78008283  0.56016566  0.88594783  1
  O  O9  1  0.21991717  0.43983434  0.11405217  1
  O  O10  1  0.95943012  0.91886023  0.25000000  1
  O  O11  1  0.04056988  0.08113977  0.75000000  1
  O  O12  1  0.50000000  -0.00000000  -0.00000000  1
  O  O13  1  0.50000000  -0.00000000  0.50000000  1
