# generated using pymatgen
data_K2Na6V5Mo3O20
_symmetry_space_group_name_H-M   'P 1'
_cell_length_a   11.27070895
_cell_length_b   11.59464087
_cell_length_c   16.75489857
_cell_angle_alpha   110.41072839
_cell_angle_beta   109.04696476
_cell_angle_gamma   89.97550712
_symmetry_Int_Tables_number   1
_chemical_formula_structural   K2Na6V5Mo3O20
_chemical_formula_sum   'K8 Na24 V20 Mo12 O80'
_cell_volume   1923.76157381
_cell_formula_units_Z   4
loop_
 _symmetry_equiv_pos_site_id
 _symmetry_equiv_pos_as_xyz
  1  'x, y, z'
loop_
 _atom_site_type_symbol
 _atom_site_label
 _atom_site_symmetry_multiplicity
 _atom_site_fract_x
 _atom_site_fract_y
 _atom_site_fract_z
 _atom_site_occupancy
  K  K0  1  0.30690064  0.07003345  0.11702641  1
  K  K1  1  0.30773647  0.57020024  0.11707224  1
  K  K2  1  0.80637033  0.07076645  0.11719905  1
  K  K3  1  0.80565917  0.57010903  0.11669304  1
  K  K4  1  0.18566321  0.92626938  0.87819775  1
  K  K5  1  0.05532279  0.79659774  0.11705717  1
  K  K6  1  0.55775819  0.29699794  0.11618331  1
  K  K7  1  0.55762764  0.79663685  0.11692053  1
  Na  Na8  1  0.29860090  0.07376889  0.60729519  1
  Na  Na9  1  0.29854301  0.56576759  0.60807027  1
  Na  Na10  1  0.80761746  0.06529350  0.60684030  1
  Na  Na11  1  0.81258402  0.57329166  0.60694605  1
  Na  Na12  1  0.19403859  0.42881082  0.39534681  1
  Na  Na13  1  0.19554208  0.42846439  0.88790196  1
  Na  Na14  1  0.19410838  0.93738096  0.39628365  1
  Na  Na15  1  0.70969392  0.43793019  0.39848897  1
  Na  Na16  1  0.69493484  0.42833440  0.88796106  1
  Na  Na17  1  0.70442772  0.93052440  0.39830434  1
  Na  Na18  1  0.69663451  0.92939268  0.88825989  1
  Na  Na19  1  0.05484855  0.29143654  0.10751558  1
  Na  Na20  1  0.06011945  0.28773608  0.60512159  1
  Na  Na21  1  0.04876010  0.78642474  0.60493535  1
  Na  Na22  1  0.55022311  0.28641768  0.60780041  1
  Na  Na23  1  0.55959899  0.78881575  0.60738338  1
  Na  Na24  1  0.44423354  0.21018237  0.39753268  1
  Na  Na25  1  0.44576174  0.20898966  0.88832602  1
  Na  Na26  1  0.45533045  0.71330127  0.39762227  1
  Na  Na27  1  0.44418300  0.70893761  0.88822169  1
  Na  Na28  1  0.95701818  0.21683074  0.39876502  1
  Na  Na29  1  0.94650418  0.20883145  0.88883392  1
  Na  Na30  1  0.94323516  0.71509642  0.39720344  1
  Na  Na31  1  0.94581770  0.70906488  0.88840821  1
  V  V32  1  0.00864004  0.99803110  0.50021758  1
  V  V33  1  0.00635223  0.49921627  0.50115303  1
  V  V34  1  0.25238098  0.25112431  0.50148658  1
  V  V35  1  0.76133344  0.75091153  0.50105324  1
  V  V36  1  0.11215671  0.09554736  0.25791261  1
  V  V37  1  0.09963460  0.08702821  0.74314059  1
  V  V38  1  0.10855915  0.58671785  0.25536453  1
  V  V39  1  0.10116092  0.57951212  0.74527766  1
  V  V40  1  0.61181914  0.09104654  0.25810621  1
  V  V41  1  0.60388513  0.08710122  0.74796592  1
  V  V42  1  0.61154993  0.59012960  0.25819967  1
  V  V43  1  0.60055276  0.58406341  0.74708489  1
  V  V44  1  0.35629971  0.41527980  0.25619136  1
  V  V45  1  0.35071645  0.41096554  0.74615872  1
  V  V46  1  0.36049889  0.91706291  0.25729672  1
  V  V47  1  0.35347044  0.91324161  0.74361518  1
  V  V48  1  0.86375591  0.41629215  0.25779839  1
  V  V49  1  0.85102133  0.41175990  0.74713011  1
  V  V50  1  0.86298794  0.91741204  0.25814460  1
  V  V51  1  0.84949789  0.91223006  0.74671134  1
  Mo  Mo52  1  0.00028199  0.99890274  0.99679229  1
  Mo  Mo53  1  0.00042610  0.49623673  0.99465767  1
  Mo  Mo54  1  0.49985449  0.99645501  0.99349326  1
  Mo  Mo55  1  0.50781349  0.00054356  0.50074016  1
  Mo  Mo56  1  0.50029916  0.49610555  0.99334881  1
  Mo  Mo57  1  0.50562105  0.50024591  0.50024657  1
  Mo  Mo58  1  0.25059291  0.24860723  0.99509355  1
  Mo  Mo59  1  0.25039607  0.74660669  0.99493534  1
  Mo  Mo60  1  0.25380854  0.75110464  0.49995923  1
  Mo  Mo61  1  0.75228630  0.24806217  0.99537770  1
  Mo  Mo62  1  0.76139375  0.25190823  0.50105992  1
  Mo  Mo63  1  0.75001222  0.74710785  0.99360655  1
  O  O64  1  0.11332847  0.11070988  0.48911383  1
  O  O65  1  0.11801331  0.12252834  0.98694468  1
  O  O66  1  0.13440498  0.62672142  0.48989516  1
  O  O67  1  0.11866949  0.61345256  0.98008500  1
  O  O68  1  0.62343968  0.11768588  0.48552326  1
  O  O69  1  0.61828830  0.11331546  0.97772037  1
  O  O70  1  0.62306775  0.60816297  0.48990202  1
  O  O71  1  0.61768792  0.61426056  0.97793928  1
  O  O72  1  0.13075561  0.37765411  0.00798112  1
  O  O73  1  0.13875745  0.38012900  0.51173896  1
  O  O74  1  0.12930143  0.87650619  0.00753220  1
  O  O75  1  0.14104726  0.88278886  0.51627159  1
  O  O76  1  0.63035858  0.37616071  0.00311672  1
  O  O77  1  0.64234884  0.37454436  0.51358071  1
  O  O78  1  0.62872208  0.87555768  0.00205626  1
  O  O79  1  0.63827846  0.87871232  0.51252901  1
  O  O80  1  0.37189256  0.11673873  0.49014861  1
  O  O81  1  0.37064377  0.11749123  0.98180894  1
  O  O82  1  0.37577350  0.61553914  0.48283286  1
  O  O83  1  0.36877560  0.61389976  0.97995831  1
  O  O84  1  0.86712259  0.12568144  0.48724353  1
  O  O85  1  0.87001930  0.11700159  0.98132563  1
  O  O86  1  0.87901647  0.62305333  0.49032881  1
  O  O87  1  0.86720963  0.61303186  0.97806831  1
  O  O88  1  0.37931157  0.37722943  0.00296550  1
  O  O89  1  0.39566631  0.38960767  0.51345880  1
  O  O90  1  0.38140646  0.87659194  0.00535664  1
  O  O91  1  0.38416551  0.87394271  0.51228906  1
  O  O92  1  0.88519098  0.37752137  0.00876843  1
  O  O93  1  0.88805984  0.38450831  0.51623741  1
  O  O94  1  0.87964463  0.87849347  0.00514375  1
  O  O95  1  0.89537236  0.89445097  0.51135238  1
  O  O96  1  0.07438682  0.09882122  0.14564103  1
  O  O97  1  0.07490794  0.10621421  0.63941536  1
  O  O98  1  0.07424822  0.58826243  0.14453725  1
  O  O99  1  0.08422977  0.60258430  0.64379220  1
  O  O100  1  0.57558290  0.08543102  0.14472091  1
  O  O101  1  0.58449194  0.10462655  0.64372888  1
  O  O102  1  0.57384173  0.58516085  0.14415612  1
  O  O103  1  0.57899947  0.60061742  0.64100546  1
  O  O104  1  0.44171561  0.39216538  0.35951661  1
  O  O105  1  0.43606697  0.39349674  0.85044180  1
  O  O106  1  0.44196708  0.88914821  0.35719793  1
  O  O107  1  0.43078492  0.89664059  0.84912805  1
  O  O108  1  0.94553591  0.39247840  0.35823456  1
  O  O109  1  0.93500829  0.39380156  0.85110699  1
  O  O110  1  0.94682651  0.89363586  0.35943649  1
  O  O111  1  0.93090660  0.89599558  0.85244688  1
  O  O112  1  0.32720144  0.30793847  0.14423975  1
  O  O113  1  0.32931140  0.29156041  0.64029469  1
  O  O114  1  0.32481782  0.80782919  0.14414444  1
  O  O115  1  0.33627760  0.78787201  0.63956140  1
  O  O116  1  0.82907463  0.30783126  0.14363167  1
  O  O117  1  0.83026940  0.28963220  0.64121978  1
  O  O118  1  0.82369751  0.80861998  0.14383217  1
  O  O119  1  0.82929825  0.79274017  0.64114809  1
  O  O120  1  0.19782946  0.21572099  0.36156334  1
  O  O121  1  0.18361734  0.20375263  0.85130653  1
  O  O122  1  0.19425474  0.71281339  0.35909672  1
  O  O123  1  0.18695396  0.69555610  0.85215006  1
  O  O124  1  0.69676562  0.21854556  0.36042006  1
  O  O125  1  0.68921254  0.20778202  0.85220846  1
  O  O126  1  0.69613019  0.71419581  0.36016093  1
  O  O127  1  0.68605533  0.70602844  0.85039405  1
  O  O128  1  0.45523194  0.05803190  0.26738304  1
  O  O129  1  0.43763764  0.05476914  0.74621010  1
  O  O130  1  0.45302276  0.55481312  0.26721284  1
  O  O131  1  0.43601444  0.55292304  0.74726243  1
  O  O132  1  0.95570765  0.05816142  0.26691452  1
  O  O133  1  0.93737314  0.05122589  0.74732856  1
  O  O134  1  0.95342497  0.56050326  0.26756379  1
  O  O135  1  0.93463715  0.55111886  0.74667366  1
  O  O136  1  0.19200500  0.44644137  0.25665733  1
  O  O137  1  0.18501633  0.43878064  0.74593199  1
  O  O138  1  0.20346635  0.96176252  0.26518239  1
  O  O139  1  0.18732003  0.94687785  0.73345940  1
  O  O140  1  0.70523296  0.45885326  0.26606596  1
  O  O141  1  0.68527142  0.44396128  0.74688475  1
  O  O142  1  0.70578477  0.96086249  0.26794885  1
  O  O143  1  0.68438720  0.94454617  0.74718708  1
