# generated using pymatgen
data_Ba2YNi3O8
_symmetry_space_group_name_H-M   'P 1'
_cell_length_a   3.94354260
_cell_length_b   3.94327420
_cell_length_c   11.55825431
_cell_angle_alpha   90.00000938
_cell_angle_beta   90.00002366
_cell_angle_gamma   90.00001467
_symmetry_Int_Tables_number   1
_chemical_formula_structural   Ba2YNi3O8
_chemical_formula_sum   'Ba2 Y1 Ni3 O8'
_cell_volume   179.73628449
_cell_formula_units_Z   1
loop_
 _symmetry_equiv_pos_site_id
 _symmetry_equiv_pos_as_xyz
  1  'x, y, z'
loop_
 _atom_site_type_symbol
 _atom_site_label
 _atom_site_symmetry_multiplicity
 _atom_site_fract_x
 _atom_site_fract_y
 _atom_site_fract_z
 _atom_site_occupancy
  Ba  Ba0  1  0.50000000  0.50000000  0.17177991  1
  Ba  Ba1  1  0.50000000  0.50000000  0.82818709  1
  Y  Y2  1  0.50000000  0.50000000  0.50004863  1
  Ni  Ni3  1  0.00000100  0.00000100  0.34307423  1
  Ni  Ni4  1  0.99999900  0.00000000  -0.00006777  1
  Ni  Ni5  1  1.00000000  0.99999800  0.65692288  1
  O  O6  1  1.00000000  0.50000000  0.37830997  1
  O  O7  1  0.50000000  1.00000000  0.37830584  1
  O  O8  1  0.49999900  -0.00000000  0.00001890  1
  O  O9  1  1.00000000  1.00000000  0.17158629  1
  O  O10  1  0.00000000  0.49999900  0.62175226  1
  O  O11  1  0.50000000  0.00000000  0.62175845  1
  O  O12  1  0.99999900  0.00000000  0.82829903  1
  O  O13  1  -0.00000000  0.50000000  0.00002428  1
