# generated using pymatgen
data_Ca2AgWO6
_symmetry_space_group_name_H-M   'P 1'
_cell_length_a   5.80540501
_cell_length_b   6.02778037
_cell_length_c   8.02897878
_cell_angle_alpha   93.32816952
_cell_angle_beta   131.51343044
_cell_angle_gamma   121.29918129
_symmetry_Int_Tables_number   1
_chemical_formula_structural   Ca2AgWO6
_chemical_formula_sum   'Ca2 Ag1 W1 O6'
_cell_volume   139.76767083
_cell_formula_units_Z   1
loop_
 _symmetry_equiv_pos_site_id
 _symmetry_equiv_pos_as_xyz
  1  'x, y, z'
loop_
 _atom_site_type_symbol
 _atom_site_label
 _atom_site_symmetry_multiplicity
 _atom_site_fract_x
 _atom_site_fract_y
 _atom_site_fract_z
 _atom_site_occupancy
  Ca  Ca0  1  0.99395976  0.54942729  0.21067316  1
  Ca  Ca1  1  0.01244489  0.56940627  0.71734437  1
  Ag  Ag2  1  0.99375323  0.00534841  0.49063796  1
  W  W3  1  0.00094838  0.98285814  0.00277475  1
  O  O4  1  0.75686706  0.83186748  0.11409606  1
  O  O5  1  0.20856030  0.06119525  0.87776827  1
  O  O6  1  0.35609362  0.43370171  0.24199921  1
  O  O7  1  0.42796110  0.81357337  0.67013912  1
  O  O8  1  0.49751376  0.05863890  0.32642344  1
  O  O9  1  0.68858091  0.50806818  0.80688267  1
