# generated using pymatgen
data_SmGe5
_symmetry_space_group_name_H-M   'P 1'
_cell_length_a   4.02164264
_cell_length_b   6.19725637
_cell_length_c   6.19267789
_cell_angle_alpha   120.02446598
_cell_angle_beta   108.94797585
_cell_angle_gamma   90.00000000
_symmetry_Int_Tables_number   1
_chemical_formula_structural   SmGe5
_chemical_formula_sum   'Sm1 Ge5'
_cell_volume   123.87672560
_cell_formula_units_Z   1
loop_
 _symmetry_equiv_pos_site_id
 _symmetry_equiv_pos_as_xyz
  1  'x, y, z'
loop_
 _atom_site_type_symbol
 _atom_site_label
 _atom_site_symmetry_multiplicity
 _atom_site_fract_x
 _atom_site_fract_y
 _atom_site_fract_z
 _atom_site_occupancy
  Sm  Sm0  1  -0.00000000  -0.00000000  -0.00000000  1
  Ge  Ge1  1  0.33009333  0.53808779  0.66018666  1
  Ge  Ge2  1  0.66990667  0.46191221  0.33981334  1
  Ge  Ge3  1  0.66990667  0.87790113  0.33981334  1
  Ge  Ge4  1  0.33009333  0.12209887  0.66018666  1
  Ge  Ge5  1  -0.00000000  0.50000000  -0.00000000  1
