# generated using pymatgen
data_Ba3Y5(NiO5)3
_symmetry_space_group_name_H-M   'P 1'
_cell_length_a   11.32310274
_cell_length_b   5.80364912
_cell_length_c   6.62655040
_cell_angle_alpha   115.97052944
_cell_angle_beta   106.69303081
_cell_angle_gamma   90.00000345
_symmetry_Int_Tables_number   1
_chemical_formula_structural   Ba3Y5(NiO5)3
_chemical_formula_sum   'Ba3 Y5 Ni3 O15'
_cell_volume   370.97160424
_cell_formula_units_Z   1
loop_
 _symmetry_equiv_pos_site_id
 _symmetry_equiv_pos_as_xyz
  1  'x, y, z'
loop_
 _atom_site_type_symbol
 _atom_site_label
 _atom_site_symmetry_multiplicity
 _atom_site_fract_x
 _atom_site_fract_y
 _atom_site_fract_z
 _atom_site_occupancy
  Ba  Ba0  1  0.00030981  0.99799236  0.99598372  1
  Ba  Ba1  1  0.33711361  0.00649035  0.01297969  1
  Ba  Ba2  1  0.65791448  0.98964091  0.97928183  1
  Y  Y3  1  0.26244601  0.29429347  0.58858795  1
  Y  Y4  1  0.59672390  0.28964973  0.57929946  1
  Y  Y5  1  0.93393085  0.29318603  0.58637007  1
  Y  Y6  1  0.07004917  0.70535663  0.41071225  1
  Y  Y7  1  0.73415682  0.70270786  0.40541173  1
  Ni  Ni8  1  0.17467551  0.51407543  0.02815185  1
  Ni  Ni9  1  0.83364259  0.49910209  0.99820419  1
  Ni  Ni10  1  0.50122652  0.50786377  0.01572953  1
  O  O11  1  0.45640323  0.16074471  0.74849525  1
  O  O12  1  0.45640323  0.58775055  0.74849425  1
  O  O13  1  0.11807386  0.11606388  0.70679902  1
  O  O14  1  0.78323033  0.11751253  0.70266186  1
  O  O15  1  0.19553415  0.89156328  0.28081150  1
  O  O16  1  0.56311912  0.88407770  0.27637906  1
  O  O17  1  0.88312291  0.88162965  0.29239566  1
  O  O18  1  0.19553315  0.38924822  0.28081150  1
  O  O19  1  0.56311912  0.39230137  0.27637906  1
  O  O20  1  0.88312291  0.41076701  0.29239566  1
  O  O21  1  0.11807386  0.59073314  0.70679802  1
  O  O22  1  0.78323133  0.58514833  0.70266086  1
  O  O23  1  0.00045781  0.49670615  0.99341229  1
  O  O24  1  0.33207581  0.49577576  0.99155153  1
  O  O25  1  0.66520086  0.49628810  0.99257619  1
