# generated using pymatgen
data_Ba3Sr5Co4(CuO5)4
_symmetry_space_group_name_H-M   'P 1'
_cell_length_a   11.21515295
_cell_length_b   11.16550553
_cell_length_c   18.08489029
_cell_angle_alpha   108.11930204
_cell_angle_beta   108.00040160
_cell_angle_gamma   89.87717392
_symmetry_Int_Tables_number   1
_chemical_formula_structural   Ba3Sr5Co4(CuO5)4
_chemical_formula_sum   'Ba12 Sr20 Co16 Cu16 O80'
_cell_volume   2035.90258061
_cell_formula_units_Z   4
loop_
 _symmetry_equiv_pos_site_id
 _symmetry_equiv_pos_as_xyz
  1  'x, y, z'
loop_
 _atom_site_type_symbol
 _atom_site_label
 _atom_site_symmetry_multiplicity
 _atom_site_fract_x
 _atom_site_fract_y
 _atom_site_fract_z
 _atom_site_occupancy
  Ba  Ba0  1  0.30781378  0.05821216  0.11869587  1
  Ba  Ba1  1  0.30878821  0.55762364  0.11852155  1
  Ba  Ba2  1  0.80500325  0.05828635  0.11919423  1
  Ba  Ba3  1  0.80837172  0.55491210  0.11706645  1
  Ba  Ba4  1  0.18769800  0.94365683  0.38192138  1
  Ba  Ba5  1  0.18453844  0.93868598  0.87484078  1
  Ba  Ba6  1  0.68674448  0.43385826  0.87490659  1
  Ba  Ba7  1  0.05618568  0.31225282  0.11793337  1
  Ba  Ba8  1  0.05809500  0.81017164  0.11687930  1
  Ba  Ba9  1  0.55711173  0.30940818  0.11827287  1
  Ba  Ba10  1  0.55916572  0.81163601  0.11865951  1
  Ba  Ba11  1  0.93533240  0.68722611  0.87493702  1
  Sr  Sr12  1  0.30339559  0.05949306  0.61477494  1
  Sr  Sr13  1  0.30959437  0.55924241  0.61438387  1
  Sr  Sr14  1  0.80723137  0.05858218  0.61432514  1
  Sr  Sr15  1  0.80187987  0.55878801  0.61265335  1
  Sr  Sr16  1  0.19446979  0.44451105  0.39029344  1
  Sr  Sr17  1  0.19383566  0.43969111  0.88322114  1
  Sr  Sr18  1  0.69405703  0.44440338  0.38978183  1
  Sr  Sr19  1  0.69459685  0.94412039  0.38948537  1
  Sr  Sr20  1  0.69146734  0.94256750  0.88454444  1
  Sr  Sr21  1  0.05241364  0.30544059  0.61350472  1
  Sr  Sr22  1  0.05556104  0.80270034  0.61245881  1
  Sr  Sr23  1  0.55738800  0.30510252  0.61282450  1
  Sr  Sr24  1  0.55534937  0.80250454  0.61248081  1
  Sr  Sr25  1  0.44286507  0.19546169  0.38920986  1
  Sr  Sr26  1  0.44040169  0.19188423  0.88408837  1
  Sr  Sr27  1  0.44520372  0.69580594  0.39019580  1
  Sr  Sr28  1  0.44520692  0.69335093  0.88354800  1
  Sr  Sr29  1  0.94334250  0.19538403  0.39008683  1
  Sr  Sr30  1  0.94203044  0.19304176  0.88453952  1
  Sr  Sr31  1  0.94244231  0.69335295  0.38983709  1
  Co  Co32  1  0.99149421  0.99785739  0.99217418  1
  Co  Co33  1  -0.00000136  0.00079170  0.50478661  1
  Co  Co34  1  0.99164190  0.49007600  0.98804123  1
  Co  Co35  1  0.00204189  0.50019350  0.50279515  1
  Co  Co36  1  0.49407004  0.99448642  0.98546108  1
  Co  Co37  1  0.50222414  0.00232118  0.50485423  1
  Co  Co38  1  0.49440509  0.49271527  0.98906167  1
  Co  Co39  1  0.50074107  0.49981255  0.50168104  1
  Co  Co40  1  0.24310419  0.24546784  0.98847427  1
  Co  Co41  1  0.25178700  0.25440817  0.50580411  1
  Co  Co42  1  0.24781399  0.74389404  0.98978847  1
  Co  Co43  1  0.25266199  0.75115503  0.50366237  1
  Co  Co44  1  0.74276409  0.24207152  0.98917116  1
  Co  Co45  1  0.75111236  0.25098193  0.50202639  1
  Co  Co46  1  0.74331094  0.74541878  0.99019949  1
  Co  Co47  1  0.75055058  0.75241852  0.50261772  1
  Cu  Cu48  1  0.11883959  0.11130966  0.25392152  1
  Cu  Cu49  1  0.11197988  0.10293888  0.74612801  1
  Cu  Cu50  1  0.12132663  0.60340776  0.25726344  1
  Cu  Cu51  1  0.11889542  0.59438808  0.74591730  1
  Cu  Cu52  1  0.62271599  0.11087456  0.25844191  1
  Cu  Cu53  1  0.61232146  0.09429642  0.74783361  1
  Cu  Cu54  1  0.62091308  0.60734070  0.25682496  1
  Cu  Cu55  1  0.61118640  0.60266138  0.74625559  1
  Cu  Cu56  1  0.37155760  0.39910417  0.25685501  1
  Cu  Cu57  1  0.36109446  0.39746691  0.74759220  1
  Cu  Cu58  1  0.37432231  0.89823849  0.25446984  1
  Cu  Cu59  1  0.36736783  0.89954049  0.74616108  1
  Cu  Cu60  1  0.87026184  0.39820331  0.25657568  1
  Cu  Cu61  1  0.86787304  0.39193581  0.74403202  1
  Cu  Cu62  1  0.86892436  0.89727604  0.25587553  1
  Cu  Cu63  1  0.85811760  0.90372237  0.74771377  1
  O  O64  1  0.13088691  0.13630315  0.49910689  1
  O  O65  1  0.12675472  0.13614283  0.99311741  1
  O  O66  1  0.13234891  0.63222967  0.49738885  1
  O  O67  1  0.13341912  0.63099247  0.99249747  1
  O  O68  1  0.63042290  0.13268617  0.49568367  1
  O  O69  1  0.62084387  0.12369795  0.99160743  1
  O  O70  1  0.63191918  0.63262244  0.49624965  1
  O  O71  1  0.63005274  0.62973832  0.99291951  1
  O  O72  1  0.11505569  0.38336856  0.99580249  1
  O  O73  1  0.11981550  0.38583688  0.50624781  1
  O  O74  1  0.11119247  0.88577730  0.99743826  1
  O  O75  1  0.11761025  0.88530046  0.50808999  1
  O  O76  1  0.61118756  0.37756115  0.99573189  1
  O  O77  1  0.61989348  0.38609248  0.50649630  1
  O  O78  1  0.61088500  0.88044952  0.99710389  1
  O  O79  1  0.61917876  0.88661044  0.50679677  1
  O  O80  1  0.38436659  0.11641381  0.49899497  1
  O  O81  1  0.37725029  0.11112374  0.99110503  1
  O  O82  1  0.38222583  0.61340233  0.49589441  1
  O  O83  1  0.38221096  0.61159747  0.99220436  1
  O  O84  1  0.87982647  0.11305566  0.49565799  1
  O  O85  1  0.87551317  0.11369419  0.99440129  1
  O  O86  1  0.88228399  0.61302158  0.49685586  1
  O  O87  1  0.88221624  0.61173445  0.99291566  1
  O  O88  1  0.36242909  0.36472007  0.99673285  1
  O  O89  1  0.36950787  0.37040012  0.50613603  1
  O  O90  1  0.36400897  0.86393373  0.99541111  1
  O  O91  1  0.37017906  0.87085665  0.50789692  1
  O  O92  1  0.86938812  0.36593923  0.99606284  1
  O  O93  1  0.86999420  0.37097420  0.50706139  1
  O  O94  1  0.86039683  0.86629032  0.99787479  1
  O  O95  1  0.86911605  0.87035879  0.50731133  1
  O  O96  1  0.06523705  0.08290747  0.14130389  1
  O  O97  1  0.06708965  0.08992423  0.63503168  1
  O  O98  1  0.07419685  0.58284591  0.14620299  1
  O  O99  1  0.08042029  0.58869452  0.63702117  1
  O  O100  1  0.57214176  0.08378579  0.14705744  1
  O  O101  1  0.57657713  0.08959591  0.63850744  1
  O  O102  1  0.57273978  0.58079392  0.14466517  1
  O  O103  1  0.56958429  0.58810094  0.63500168  1
  O  O104  1  0.44242373  0.41044273  0.36660164  1
  O  O105  1  0.42826173  0.41129713  0.85961832  1
  O  O106  1  0.44122099  0.90898887  0.36395034  1
  O  O107  1  0.43604726  0.91477099  0.85867234  1
  O  O108  1  0.94145334  0.40943186  0.36619432  1
  O  O109  1  0.93824635  0.41094699  0.85672298  1
  O  O110  1  0.93022802  0.90668802  0.36555235  1
  O  O111  1  0.92570460  0.92640699  0.86127611  1
  O  O112  1  0.32181490  0.31428845  0.14462773  1
  O  O113  1  0.32557828  0.30168788  0.63636266  1
  O  O114  1  0.32462805  0.81176772  0.14221184  1
  O  O115  1  0.32841119  0.79680972  0.63575464  1
  O  O116  1  0.81967915  0.31314314  0.14433617  1
  O  O117  1  0.82152120  0.29300393  0.63330822  1
  O  O118  1  0.82234708  0.81221649  0.14364071  1
  O  O119  1  0.82435718  0.80106881  0.63780151  1
  O  O120  1  0.19032805  0.20530117  0.36455213  1
  O  O121  1  0.18562950  0.19554713  0.85922033  1
  O  O122  1  0.19292196  0.69621508  0.36796920  1
  O  O123  1  0.19157506  0.68492886  0.85833401  1
  O  O124  1  0.69303172  0.20787328  0.36823564  1
  O  O125  1  0.68535131  0.18255230  0.86031079  1
  O  O126  1  0.69076290  0.70549209  0.36693249  1
  O  O127  1  0.67659280  0.69707826  0.85962090  1
  O  O128  1  0.47409361  0.04509721  0.26253673  1
  O  O129  1  0.45044374  0.05425069  0.74821081  1
  O  O130  1  0.47155809  0.54381283  0.26254135  1
  O  O131  1  0.45118656  0.54883057  0.74864665  1
  O  O132  1  0.97593923  0.03913471  0.26375607  1
  O  O133  1  0.95098940  0.05326988  0.74919770  1
  O  O134  1  0.96972803  0.54315077  0.26140242  1
  O  O135  1  0.95837021  0.53110470  0.73595449  1
  O  O136  1  0.22036503  0.46369184  0.26176197  1
  O  O137  1  0.19990039  0.43916081  0.74650225  1
  O  O138  1  0.22803024  0.97949528  0.25158211  1
  O  O139  1  0.20718022  0.95935313  0.73644069  1
  O  O140  1  0.72118866  0.46806588  0.26235867  1
  O  O141  1  0.71286701  0.46402860  0.73869029  1
  O  O142  1  0.72183377  0.97156467  0.26200416  1
  O  O143  1  0.69484127  0.94033219  0.74649233  1
