# generated using pymatgen
data_Sr3Cr2Cu2S2O5
_symmetry_space_group_name_H-M   'P 1'
_cell_length_a   3.95897312
_cell_length_b   3.95897312
_cell_length_c   13.45725511
_cell_angle_alpha   98.45858052
_cell_angle_beta   98.45858052
_cell_angle_gamma   90.00000000
_symmetry_Int_Tables_number   1
_chemical_formula_structural   Sr3Cr2Cu2S2O5
_chemical_formula_sum   'Sr3 Cr2 Cu2 S2 O5'
_cell_volume   206.30772344
_cell_formula_units_Z   1
loop_
 _symmetry_equiv_pos_site_id
 _symmetry_equiv_pos_as_xyz
  1  'x, y, z'
loop_
 _atom_site_type_symbol
 _atom_site_label
 _atom_site_symmetry_multiplicity
 _atom_site_fract_x
 _atom_site_fract_y
 _atom_site_fract_z
 _atom_site_occupancy
  Sr  Sr0  1  0.50000000  0.50000000  0.00000000  1
  Sr  Sr1  1  0.64101935  0.64101935  0.28203871  1
  Sr  Sr2  1  0.35898065  0.35898065  0.71796129  1
  Cr  Cr3  1  0.07271858  0.07271858  0.14543717  1
  Cr  Cr4  1  0.92728142  0.92728142  0.85456283  1
  Cu  Cu5  1  0.25000000  0.75000000  0.50000000  1
  Cu  Cu6  1  0.75000000  0.25000000  0.50000000  1
  S  S7  1  0.19724228  0.19724228  0.39448456  1
  S  S8  1  0.80275772  0.80275772  0.60551544  1
  O  O9  1  0.08188187  0.58188187  0.16376274  1
  O  O10  1  0.58188187  0.08188187  0.16376274  1
  O  O11  1  0.91811813  0.41811813  0.83623726  1
  O  O12  1  0.41811813  0.91811813  0.83623726  1
  O  O13  1  0.00000000  0.00000000  0.00000000  1
