# generated using pymatgen
data_NaMg14V
_symmetry_space_group_name_H-M   'P 1'
_cell_length_a   6.42593922
_cell_length_b   6.42593869
_cell_length_c   10.16553338
_cell_angle_alpha   90.00000000
_cell_angle_beta   90.00000000
_cell_angle_gamma   120.00000271
_symmetry_Int_Tables_number   1
_chemical_formula_structural   NaMg14V
_chemical_formula_sum   'Na1 Mg14 V1'
_cell_volume   363.52474789
_cell_formula_units_Z   1
loop_
 _symmetry_equiv_pos_site_id
 _symmetry_equiv_pos_as_xyz
  1  'x, y, z'
loop_
 _atom_site_type_symbol
 _atom_site_label
 _atom_site_symmetry_multiplicity
 _atom_site_fract_x
 _atom_site_fract_y
 _atom_site_fract_z
 _atom_site_occupancy
  Na  Na0  1  0.16666700  0.33333300  0.62500000  1
  Mg  Mg1  1  0.16754767  0.83377334  0.12500000  1
  Mg  Mg2  1  0.17034907  0.83517404  0.62500000  1
  Mg  Mg3  1  0.66622666  0.33245233  0.12500000  1
  Mg  Mg4  1  0.66482596  0.32965093  0.62500000  1
  Mg  Mg5  1  0.66622666  0.83377334  0.12500000  1
  Mg  Mg6  1  0.66482596  0.83517404  0.62500000  1
  Mg  Mg7  1  0.33174448  0.16825552  0.36760776  1
  Mg  Mg8  1  0.33174448  0.16825552  0.88239224  1
  Mg  Mg9  1  0.33174448  0.66348995  0.36760776  1
  Mg  Mg10  1  0.33174448  0.66348995  0.88239224  1
  Mg  Mg11  1  0.83651005  0.16825552  0.36760776  1
  Mg  Mg12  1  0.83651005  0.16825552  0.88239224  1
  Mg  Mg13  1  0.83333300  0.66666700  0.37651009  1
  Mg  Mg14  1  0.83333300  0.66666700  0.87348991  1
  V  V15  1  0.16666700  0.33333300  0.12500000  1
