# generated using pymatgen
data_LiTbSn2
_symmetry_space_group_name_H-M   'P 1'
_cell_length_a   4.35114016
_cell_length_b   4.53372409
_cell_length_c   9.79390213
_cell_angle_alpha   90.00000000
_cell_angle_beta   102.83447262
_cell_angle_gamma   90.00000000
_symmetry_Int_Tables_number   1
_chemical_formula_structural   LiTbSn2
_chemical_formula_sum   'Li2 Tb2 Sn4'
_cell_volume   188.37601653
_cell_formula_units_Z   2
loop_
 _symmetry_equiv_pos_site_id
 _symmetry_equiv_pos_as_xyz
  1  'x, y, z'
loop_
 _atom_site_type_symbol
 _atom_site_label
 _atom_site_symmetry_multiplicity
 _atom_site_fract_x
 _atom_site_fract_y
 _atom_site_fract_z
 _atom_site_occupancy
  Li  Li0  1  0.82663995  0.25000000  0.65327991  1
  Li  Li1  1  0.17336005  0.75000000  0.34672009  1
  Tb  Tb2  1  0.60608370  0.25000000  0.21216741  1
  Tb  Tb3  1  0.39391630  0.75000000  0.78783259  1
  Sn  Sn4  1  0.95633765  0.25000000  0.91267530  1
  Sn  Sn5  1  0.04366235  0.75000000  0.08732470  1
  Sn  Sn6  1  0.24758934  0.25000000  0.49517867  1
  Sn  Sn7  1  0.75241066  0.75000000  0.50482133  1
