# generated using pymatgen
data_SrMg
_symmetry_space_group_name_H-M   'P 1'
_cell_length_a   14.49700693
_cell_length_b   3.99958738
_cell_length_c   7.94869274
_cell_angle_alpha   90.00000000
_cell_angle_beta   103.11755002
_cell_angle_gamma   90.00000000
_symmetry_Int_Tables_number   1
_chemical_formula_structural   SrMg
_chemical_formula_sum   'Sr6 Mg6'
_cell_volume   448.85545588
_cell_formula_units_Z   6
loop_
 _symmetry_equiv_pos_site_id
 _symmetry_equiv_pos_as_xyz
  1  'x, y, z'
loop_
 _atom_site_type_symbol
 _atom_site_label
 _atom_site_symmetry_multiplicity
 _atom_site_fract_x
 _atom_site_fract_y
 _atom_site_fract_z
 _atom_site_occupancy
  Sr  Sr0  1  0.39513426  -0.00000000  0.25859991  1
  Sr  Sr1  1  0.17325694  0.50000000  0.38505833  1
  Sr  Sr2  1  0.20231259  0.50000000  0.88634272  1
  Sr  Sr3  1  0.89513426  0.50000000  0.25859991  1
  Sr  Sr4  1  0.67325694  -0.00000000  0.38505833  1
  Sr  Sr5  1  0.70231259  0.00000000  0.88634272  1
  Mg  Mg6  1  0.00485668  0.00000000  0.99034927  1
  Mg  Mg7  1  0.02145431  0.00000000  0.60496105  1
  Mg  Mg8  1  0.36965223  -0.00000000  0.70802173  1
  Mg  Mg9  1  0.50485668  0.50000000  0.99034927  1
  Mg  Mg10  1  0.52145431  0.50000000  0.60496105  1
  Mg  Mg11  1  0.86965223  0.50000000  0.70802173  1
