# generated using pymatgen
data_Cr2FeS4
_symmetry_space_group_name_H-M   'P 1'
_cell_length_a   3.18432645
_cell_length_b   5.67351823
_cell_length_c   6.17496297
_cell_angle_alpha   114.06908206
_cell_angle_beta   104.94204148
_cell_angle_gamma   90.00000028
_symmetry_Int_Tables_number   1
_chemical_formula_structural   Cr2FeS4
_chemical_formula_sum   'Cr2 Fe1 S4'
_cell_volume   97.71353082
_cell_formula_units_Z   1
loop_
 _symmetry_equiv_pos_site_id
 _symmetry_equiv_pos_as_xyz
  1  'x, y, z'
loop_
 _atom_site_type_symbol
 _atom_site_label
 _atom_site_symmetry_multiplicity
 _atom_site_fract_x
 _atom_site_fract_y
 _atom_site_fract_z
 _atom_site_occupancy
  Cr  Cr0  1  0.73812893  0.68053600  0.47625786  1
  Cr  Cr1  1  0.26187107  0.31946400  0.52374214  1
  Fe  Fe2  1  -0.00000000  -0.00000000  -0.00000000  1
  S  S3  1  0.63821347  0.97865594  0.27642695  1
  S  S4  1  0.36178653  0.02134406  0.72357305  1
  S  S5  1  0.89350565  0.56019539  0.78701130  1
  S  S6  1  0.10649435  0.43980461  0.21298870  1
