# generated using pymatgen
data_MgSn
_symmetry_space_group_name_H-M   'P 1'
_cell_length_a   5.27566598
_cell_length_b   3.32623901
_cell_length_c   16.81709834
_cell_angle_alpha   90.00000000
_cell_angle_beta   90.00000000
_cell_angle_gamma   90.00000000
_symmetry_Int_Tables_number   1
_chemical_formula_structural   MgSn
_chemical_formula_sum   'Mg6 Sn6'
_cell_volume   295.10856040
_cell_formula_units_Z   6
loop_
 _symmetry_equiv_pos_site_id
 _symmetry_equiv_pos_as_xyz
  1  'x, y, z'
loop_
 _atom_site_type_symbol
 _atom_site_label
 _atom_site_symmetry_multiplicity
 _atom_site_fract_x
 _atom_site_fract_y
 _atom_site_fract_z
 _atom_site_occupancy
  Mg  Mg0  1  -0.00000000  0.50000000  0.16742792  1
  Mg  Mg1  1  0.50000000  0.50000000  0.38868025  1
  Mg  Mg2  1  0.50000000  0.50000000  0.05446195  1
  Mg  Mg3  1  -0.00000000  -0.00000000  0.66742792  1
  Mg  Mg4  1  0.50000000  -0.00000000  0.88868025  1
  Mg  Mg5  1  0.50000000  0.00000000  0.55446195  1
  Sn  Sn6  1  0.00000000  0.00000000  0.00614028  1
  Sn  Sn7  1  -0.00000000  0.00000000  0.33216601  1
  Sn  Sn8  1  0.50000000  0.00000000  0.21779059  1
  Sn  Sn9  1  -0.00000000  0.50000000  0.50614028  1
  Sn  Sn10  1  0.00000000  0.50000000  0.83216601  1
  Sn  Sn11  1  0.50000000  0.50000000  0.71779059  1
