# generated using pymatgen
data_MgZn
_symmetry_space_group_name_H-M   'P 1'
_cell_length_a   4.82237174
_cell_length_b   8.84521142
_cell_length_c   5.12719517
_cell_angle_alpha   90.00000000
_cell_angle_beta   90.00000000
_cell_angle_gamma   90.00000000
_symmetry_Int_Tables_number   1
_chemical_formula_structural   MgZn
_chemical_formula_sum   'Mg6 Zn6'
_cell_volume   218.69998488
_cell_formula_units_Z   6
loop_
 _symmetry_equiv_pos_site_id
 _symmetry_equiv_pos_as_xyz
  1  'x, y, z'
loop_
 _atom_site_type_symbol
 _atom_site_label
 _atom_site_symmetry_multiplicity
 _atom_site_fract_x
 _atom_site_fract_y
 _atom_site_fract_z
 _atom_site_occupancy
  Mg  Mg0  1  -0.00000000  0.17304502  0.15474013  1
  Mg  Mg1  1  -0.00000000  0.32695498  0.65474013  1
  Mg  Mg2  1  0.50000000  0.50000000  0.85546962  1
  Mg  Mg3  1  -0.00000000  0.67304502  0.65474013  1
  Mg  Mg4  1  -0.00000000  0.82695498  0.15474013  1
  Mg  Mg5  1  0.50000000  0.00000000  0.35546962  1
  Zn  Zn6  1  -0.00000000  0.50000000  0.17176920  1
  Zn  Zn7  1  0.50000000  0.34153815  0.33164046  1
  Zn  Zn8  1  0.50000000  0.15846185  0.83164046  1
  Zn  Zn9  1  -0.00000000  0.00000000  0.67176920  1
  Zn  Zn10  1  0.50000000  0.84153815  0.83164046  1
  Zn  Zn11  1  0.50000000  0.65846185  0.33164046  1
