# generated using pymatgen
data_Sr2Ca6Fe3Co5O24
_symmetry_space_group_name_H-M   'P 1'
_cell_length_a   7.66350109
_cell_length_b   7.66691294
_cell_length_c   7.66691294
_cell_angle_alpha   89.84420822
_cell_angle_beta   90.00000000
_cell_angle_gamma   90.00000000
_symmetry_Int_Tables_number   1
_chemical_formula_structural   Sr2Ca6Fe3Co5O24
_chemical_formula_sum   'Sr2 Ca6 Fe3 Co5 O24'
_cell_volume   450.47083760
_cell_formula_units_Z   1
loop_
 _symmetry_equiv_pos_site_id
 _symmetry_equiv_pos_as_xyz
  1  'x, y, z'
loop_
 _atom_site_type_symbol
 _atom_site_label
 _atom_site_symmetry_multiplicity
 _atom_site_fract_x
 _atom_site_fract_y
 _atom_site_fract_z
 _atom_site_occupancy
  Sr  Sr0  1  0.25118055  0.24903725  0.75096275  1
  Sr  Sr1  1  0.74881945  0.24903725  0.75096275  1
  Ca  Ca2  1  0.25029326  0.24691629  0.24731561  1
  Ca  Ca3  1  0.24974310  0.75275024  0.24724976  1
  Ca  Ca4  1  0.25029326  0.75268439  0.75308371  1
  Ca  Ca5  1  0.74970674  0.24691629  0.24731561  1
  Ca  Ca6  1  0.75025690  0.75275024  0.24724976  1
  Ca  Ca7  1  0.74970674  0.75268439  0.75308371  1
  Fe  Fe8  1  -0.00000000  -0.00128326  0.00128326  1
  Fe  Fe9  1  -0.00000000  0.99842420  0.49901682  1
  Fe  Fe10  1  -0.00000000  0.50098318  0.00157580  1
  Co  Co11  1  -0.00000000  0.50098957  0.49901043  1
  Co  Co12  1  0.50000000  0.99866320  0.00133680  1
  Co  Co13  1  0.50000000  0.99820449  0.49801630  1
  Co  Co14  1  0.50000000  0.50198370  0.00179551  1
  Co  Co15  1  0.50000000  0.50199948  0.49800052  1
  O  O16  1  0.25109801  0.99564680  0.00435320  1
  O  O17  1  0.25248415  0.99616098  0.49579974  1
  O  O18  1  0.25248415  0.50420026  0.00383902  1
  O  O19  1  0.26049603  0.50346674  0.49653326  1
  O  O20  1  0.74890199  0.99564680  0.00435320  1
  O  O21  1  0.74751585  0.99616098  0.49579974  1
  O  O22  1  0.74751585  0.50420026  0.00383902  1
  O  O23  1  0.73950397  0.50346674  0.49653326  1
  O  O24  1  -0.00000000  0.24827441  0.00572382  1
  O  O25  1  -0.00000000  0.25486285  0.49328825  1
  O  O26  1  -0.00000000  0.75155868  0.00220901  1
  O  O27  1  -0.00000000  0.74438773  0.49830632  1
  O  O28  1  0.50000000  0.24624275  0.00684832  1
  O  O29  1  0.50000000  0.23810643  0.49389887  1
  O  O30  1  0.50000000  0.75380546  0.00187267  1
  O  O31  1  0.50000000  0.76111770  0.49789918  1
  O  O32  1  -0.00000000  0.99779099  0.24844132  1
  O  O33  1  -0.00000000  0.99427618  0.75172559  1
  O  O34  1  -0.00000000  0.50169368  0.25561227  1
  O  O35  1  -0.00000000  0.50671175  0.74513715  1
  O  O36  1  0.50000000  0.99812733  0.24619454  1
  O  O37  1  0.50000000  0.99315168  0.75375725  1
  O  O38  1  0.50000000  0.50210082  0.23888230  1
  O  O39  1  0.50000000  0.50610113  0.76189357  1
