# generated using pymatgen
data_GaAgO2
_symmetry_space_group_name_H-M   'P 1'
_cell_length_a   3.00972136
_cell_length_b   3.00972105
_cell_length_c   6.43050816
_cell_angle_alpha   76.46619689
_cell_angle_beta   76.46620103
_cell_angle_gamma   59.99999191
_symmetry_Int_Tables_number   1
_chemical_formula_structural   GaAgO2
_chemical_formula_sum   'Ga1 Ag1 O2'
_cell_volume   48.56950180
_cell_formula_units_Z   1
loop_
 _symmetry_equiv_pos_site_id
 _symmetry_equiv_pos_as_xyz
  1  'x, y, z'
loop_
 _atom_site_type_symbol
 _atom_site_label
 _atom_site_symmetry_multiplicity
 _atom_site_fract_x
 _atom_site_fract_y
 _atom_site_fract_z
 _atom_site_occupancy
  Ga  Ga0  1  0.00203962  0.00203962  0.99388114  1
  Ag  Ag1  1  0.84010794  0.84010794  0.47967618  1
  O  O2  1  0.72202982  0.72202982  0.83391055  1
  O  O3  1  0.27682262  0.27682262  0.16953214  1
