# generated using pymatgen
data_La7SmMn5Fe3O20
_symmetry_space_group_name_H-M   'P 1'
_cell_length_a   11.17519862
_cell_length_b   11.86709988
_cell_length_c   17.84769446
_cell_angle_alpha   109.41240131
_cell_angle_beta   108.30647583
_cell_angle_gamma   89.96609367
_symmetry_Int_Tables_number   1
_chemical_formula_structural   La7SmMn5Fe3O20
_chemical_formula_sum   'La28 Sm4 Mn20 Fe12 O80'
_cell_volume   2105.08495535
_cell_formula_units_Z   4
loop_
 _symmetry_equiv_pos_site_id
 _symmetry_equiv_pos_as_xyz
  1  'x, y, z'
loop_
 _atom_site_type_symbol
 _atom_site_label
 _atom_site_symmetry_multiplicity
 _atom_site_fract_x
 _atom_site_fract_y
 _atom_site_fract_z
 _atom_site_occupancy
  La  La0  1  0.29973052  0.06592815  0.11060093  1
  La  La1  1  0.30591774  0.06364073  0.60900707  1
  La  La2  1  0.29916357  0.56609091  0.61060120  1
  La  La3  1  0.79928960  0.06504269  0.61055866  1
  La  La4  1  0.80111088  0.56798114  0.10941256  1
  La  La5  1  0.80278438  0.56486769  0.60944358  1
  La  La6  1  0.19124294  0.43538073  0.39010496  1
  La  La7  1  0.19044438  0.43464706  0.89168302  1
  La  La8  1  0.19173446  0.93322919  0.38729703  1
  La  La9  1  0.19350991  0.93544284  0.89073196  1
  La  La10  1  0.69545042  0.43528213  0.38936705  1
  La  La11  1  0.68612380  0.93385703  0.38989390  1
  La  La12  1  0.69261025  0.93305616  0.89002969  1
  La  La13  1  0.04719959  0.29430932  0.11060542  1
  La  La14  1  0.05238309  0.29436132  0.61121136  1
  La  La15  1  0.05233069  0.79429224  0.61012525  1
  La  La16  1  0.55447733  0.29265796  0.10993408  1
  La  La17  1  0.55394324  0.29611440  0.61200080  1
  La  La18  1  0.54742190  0.79478711  0.11112294  1
  La  La19  1  0.55026228  0.79114860  0.60840001  1
  La  La20  1  0.44331283  0.20942349  0.38957421  1
  La  La21  1  0.44674854  0.20659180  0.89011144  1
  La  La22  1  0.43722414  0.70464979  0.38738590  1
  La  La23  1  0.44350541  0.70425002  0.89035675  1
  La  La24  1  0.93978677  0.20380933  0.38814641  1
  La  La25  1  0.93583806  0.20668715  0.88999129  1
  La  La26  1  0.94062969  0.70498036  0.38943653  1
  La  La27  1  0.94336325  0.70503505  0.89058988  1
  Sm  Sm28  1  0.29560790  0.56712392  0.10818449  1
  Sm  Sm29  1  0.79937223  0.06497179  0.10796494  1
  Sm  Sm30  1  0.68979550  0.43472772  0.89235454  1
  Sm  Sm31  1  0.04948426  0.79321071  0.10880218  1
  Mn  Mn32  1  0.00365774  0.99861176  0.49973180  1
  Mn  Mn33  1  0.25460318  0.25185907  0.00131008  1
  Mn  Mn34  1  0.25491710  0.24986445  0.49954567  1
  Mn  Mn35  1  0.75381164  0.25024845  0.50026123  1
  Mn  Mn36  1  0.10549312  0.09598057  0.24796078  1
  Mn  Mn37  1  0.10979937  0.09870241  0.75098900  1
  Mn  Mn38  1  0.10848031  0.59800547  0.24791128  1
  Mn  Mn39  1  0.10936872  0.59709357  0.75091810  1
  Mn  Mn40  1  0.61033248  0.09640029  0.24874390  1
  Mn  Mn41  1  0.60966889  0.09712029  0.75044539  1
  Mn  Mn42  1  0.60468914  0.59764600  0.24816288  1
  Mn  Mn43  1  0.60986359  0.59660154  0.75103728  1
  Mn  Mn44  1  0.35771656  0.40398577  0.24827768  1
  Mn  Mn45  1  0.36127860  0.40199573  0.75062636  1
  Mn  Mn46  1  0.35521797  0.90191852  0.24786940  1
  Mn  Mn47  1  0.36025250  0.90236618  0.75092033  1
  Mn  Mn48  1  0.85888978  0.40182166  0.24890879  1
  Mn  Mn49  1  0.85746131  0.40321841  0.75203520  1
  Mn  Mn50  1  0.85871589  0.90235578  0.24789052  1
  Mn  Mn51  1  0.85859094  0.90162873  0.75026688  1
  Fe  Fe52  1  0.00527189  0.99961477  0.00116078  1
  Fe  Fe53  1  0.00391879  0.50242193  0.00152471  1
  Fe  Fe54  1  0.00510358  0.49965982  0.49997284  1
  Fe  Fe55  1  0.50698889  0.99899772  0.00083354  1
  Fe  Fe56  1  0.50336851  -0.00051168  0.49918495  1
  Fe  Fe57  1  0.50496187  0.50052472  0.00080816  1
  Fe  Fe58  1  0.50472526  0.50203162  0.50026165  1
  Fe  Fe59  1  0.25503359  0.75044395  0.00118469  1
  Fe  Fe60  1  0.25468293  0.74958398  0.50007136  1
  Fe  Fe61  1  0.75484577  0.24980995  0.00058348  1
  Fe  Fe62  1  0.75611817  0.75060805  0.00113036  1
  Fe  Fe63  1  0.75285300  0.74932478  0.49928133  1
  O  O64  1  0.11342601  0.11661729  0.47516624  1
  O  O65  1  0.11216954  0.11717570  0.97749948  1
  O  O66  1  0.11403083  0.61659322  0.47789720  1
  O  O67  1  0.11543699  0.61913293  0.98192834  1
  O  O68  1  0.61146193  0.11927394  0.47846735  1
  O  O69  1  0.61777793  0.11593780  0.97967096  1
  O  O70  1  0.61459553  0.61804970  0.47770745  1
  O  O71  1  0.61513112  0.61378270  0.97480719  1
  O  O72  1  0.13732357  0.38715615  0.02615901  1
  O  O73  1  0.13615362  0.38282421  0.52237003  1
  O  O74  1  0.13753335  0.88074967  0.02565353  1
  O  O75  1  0.13949250  0.88061515  0.52280092  1
  O  O76  1  0.63486366  0.38085090  0.01923157  1
  O  O77  1  0.63761850  0.38412941  0.52294009  1
  O  O78  1  0.64181528  0.88351238  0.02496741  1
  O  O79  1  0.63591984  0.88505223  0.52161741  1
  O  O80  1  0.36534375  0.10773110  0.47658976  1
  O  O81  1  0.36756578  0.10981875  0.97713499  1
  O  O82  1  0.36256596  0.61209153  0.47642956  1
  O  O83  1  0.36485237  0.61070810  0.97956127  1
  O  O84  1  0.86163487  0.10694311  0.47618695  1
  O  O85  1  0.86432068  0.11039314  0.98016407  1
  O  O86  1  0.86528718  0.60905025  0.47746242  1
  O  O87  1  0.86182796  0.60978096  0.97504367  1
  O  O88  1  0.38828366  0.39740993  0.02799185  1
  O  O89  1  0.38866688  0.39406839  0.52244618  1
  O  O90  1  0.38799325  0.88993958  0.02167473  1
  O  O91  1  0.38727552  0.88855798  0.52148688  1
  O  O92  1  0.88234339  0.39025670  0.01855606  1
  O  O93  1  0.88988238  0.38939600  0.52244035  1
  O  O94  1  0.89124257  0.89384211  0.02867691  1
  O  O95  1  0.88556040  0.88581388  0.52239813  1
  O  O96  1  0.09921279  0.12008287  0.13982475  1
  O  O97  1  0.09901649  0.11692342  0.63964087  1
  O  O98  1  0.10114156  0.62032434  0.13890032  1
  O  O99  1  0.09593868  0.61697125  0.64019144  1
  O  O100  1  0.60636942  0.11555542  0.13955304  1
  O  O101  1  0.59623873  0.11746296  0.63968209  1
  O  O102  1  0.60254498  0.61909537  0.13971254  1
  O  O103  1  0.59786503  0.61534832  0.63987166  1
  O  O104  1  0.45864915  0.38770006  0.36056488  1
  O  O105  1  0.46590194  0.38357490  0.86043051  1
  O  O106  1  0.45271026  0.88257339  0.35908254  1
  O  O107  1  0.45907845  0.88125740  0.86114646  1
  O  O108  1  0.95543589  0.38229770  0.36014097  1
  O  O109  1  0.95991404  0.38339136  0.86172637  1
  O  O110  1  0.95980800  0.88076450  0.35830991  1
  O  O111  1  0.95674002  0.88315396  0.86172176  1
  O  O112  1  0.35258156  0.26972483  0.14086861  1
  O  O113  1  0.35086973  0.27215185  0.63949058  1
  O  O114  1  0.34891570  0.76990546  0.13947963  1
  O  O115  1  0.34626480  0.77212197  0.63981416  1
  O  O116  1  0.84500663  0.27003356  0.13846014  1
  O  O117  1  0.84738305  0.27283516  0.64110435  1
  O  O118  1  0.85782963  0.77134686  0.13976857  1
  O  O119  1  0.84568714  0.77219530  0.63916850  1
  O  O120  1  0.20874780  0.22645953  0.35869153  1
  O  O121  1  0.21260683  0.22961906  0.86094965  1
  O  O122  1  0.20733399  0.72734690  0.35944104  1
  O  O123  1  0.20612170  0.72737429  0.86205794  1
  O  O124  1  0.70781994  0.22807185  0.35945685  1
  O  O125  1  0.70536477  0.22936646  0.86111300  1
  O  O126  1  0.70418348  0.72664554  0.35989603  1
  O  O127  1  0.70827244  0.72845831  0.86110429  1
  O  O128  1  0.41960997  0.07155870  0.25015204  1
  O  O129  1  0.41953874  0.07150912  0.75016826  1
  O  O130  1  0.41097908  0.57285601  0.24396053  1
  O  O131  1  0.41812887  0.57207592  0.75027012  1
  O  O132  1  0.91264764  0.07243187  0.24495287  1
  O  O133  1  0.91819351  0.07245099  0.75086996  1
  O  O134  1  0.91882624  0.57083639  0.24898037  1
  O  O135  1  0.91832060  0.57092844  0.75035417  1
  O  O136  1  0.16729999  0.42842175  0.24979639  1
  O  O137  1  0.17048524  0.42787290  0.75093911  1
  O  O138  1  0.16234251  0.92393722  0.24404556  1
  O  O139  1  0.16932653  0.92874031  0.75102224  1
  O  O140  1  0.66846393  0.42932855  0.24942129  1
  O  O141  1  0.66810586  0.42761595  0.75574097  1
  O  O142  1  0.66866449  0.92720558  0.25045383  1
  O  O143  1  0.66763470  0.92732850  0.74953893  1
