# generated using pymatgen
data_AlAgS2
_symmetry_space_group_name_H-M   'P 1'
_cell_length_a   3.54537426
_cell_length_b   3.54537497
_cell_length_c   7.22879812
_cell_angle_alpha   75.80482435
_cell_angle_beta   75.80482288
_cell_angle_gamma   59.99999330
_symmetry_Int_Tables_number   1
_chemical_formula_structural   AlAgS2
_chemical_formula_sum   'Al1 Ag1 S2'
_cell_volume   75.46962162
_cell_formula_units_Z   1
loop_
 _symmetry_equiv_pos_site_id
 _symmetry_equiv_pos_as_xyz
  1  'x, y, z'
loop_
 _atom_site_type_symbol
 _atom_site_label
 _atom_site_symmetry_multiplicity
 _atom_site_fract_x
 _atom_site_fract_y
 _atom_site_fract_z
 _atom_site_occupancy
  Al  Al0  1  0.00099454  0.00099454  0.99701638  1
  Ag  Ag1  1  0.84466588  0.84466588  0.46600237  1
  S  S2  1  0.72771518  0.72771518  0.81685446  1
  S  S3  1  0.26762441  0.26762441  0.19712678  1
