# generated using pymatgen
data_CaSn2S5
_symmetry_space_group_name_H-M   'P 1'
_cell_length_a   7.50429215
_cell_length_b   9.53189044
_cell_length_c   10.86511375
_cell_angle_alpha   90.00000000
_cell_angle_beta   90.00000000
_cell_angle_gamma   90.00000000
_symmetry_Int_Tables_number   1
_chemical_formula_structural   CaSn2S5
_chemical_formula_sum   'Ca4 Sn8 S20'
_cell_volume   777.18257096
_cell_formula_units_Z   4
loop_
 _symmetry_equiv_pos_site_id
 _symmetry_equiv_pos_as_xyz
  1  'x, y, z'
loop_
 _atom_site_type_symbol
 _atom_site_label
 _atom_site_symmetry_multiplicity
 _atom_site_fract_x
 _atom_site_fract_y
 _atom_site_fract_z
 _atom_site_occupancy
  Ca  Ca0  1  0.50000000  0.37037267  0.17150474  1
  Ca  Ca1  1  0.50000000  0.62962733  0.82849526  1
  Ca  Ca2  1  0.50000000  0.87037267  0.32849526  1
  Ca  Ca3  1  0.50000000  0.12962733  0.67150474  1
  Sn  Sn4  1  0.73585899  0.50000000  0.50000000  1
  Sn  Sn5  1  0.26414101  -0.00000000  -0.00000000  1
  Sn  Sn6  1  0.26414101  0.50000000  0.50000000  1
  Sn  Sn7  1  0.73585899  -0.00000000  0.00000000  1
  Sn  Sn8  1  -0.00000000  0.60571293  0.14772741  1
  Sn  Sn9  1  -0.00000000  0.39428707  0.85227259  1
  Sn  Sn10  1  -0.00000000  0.10571293  0.35227259  1
  Sn  Sn11  1  -0.00000000  0.89428707  0.64772741  1
  S  S12  1  0.72708174  0.38547354  0.71361464  1
  S  S13  1  0.72708174  0.61452646  0.28638536  1
  S  S14  1  0.27291826  0.88547354  0.78638536  1
  S  S15  1  0.27291826  0.11452646  0.21361464  1
  S  S16  1  0.27291826  0.61452646  0.28638536  1
  S  S17  1  0.27291826  0.38547354  0.71361464  1
  S  S18  1  0.72708174  0.11452646  0.21361464  1
  S  S19  1  0.72708174  0.88547354  0.78638536  1
  S  S20  1  0.77325258  0.50000000  0.00000000  1
  S  S21  1  0.22674742  -0.00000000  0.50000000  1
  S  S22  1  0.22674742  0.50000000  -0.00000000  1
  S  S23  1  0.77325258  -0.00000000  0.50000000  1
  S  S24  1  0.50000000  0.32009915  0.43823400  1
  S  S25  1  0.50000000  0.67990085  0.56176600  1
  S  S26  1  0.50000000  0.82009915  0.06176600  1
  S  S27  1  0.50000000  0.17990085  0.93823400  1
  S  S28  1  -0.00000000  0.85992747  0.09879640  1
  S  S29  1  -0.00000000  0.14007253  0.90120360  1
  S  S30  1  -0.00000000  0.35992747  0.40120360  1
  S  S31  1  -0.00000000  0.64007253  0.59879640  1
