# generated using pymatgen
data_Ce5Mg
_symmetry_space_group_name_H-M   'P 1'
_cell_length_a   12.74265771
_cell_length_b   3.24043450
_cell_length_c   8.01724145
_cell_angle_alpha   90.00000000
_cell_angle_beta   109.45984355
_cell_angle_gamma   90.00000000
_symmetry_Int_Tables_number   1
_chemical_formula_structural   Ce5Mg
_chemical_formula_sum   'Ce10 Mg2'
_cell_volume   312.13498344
_cell_formula_units_Z   2
loop_
 _symmetry_equiv_pos_site_id
 _symmetry_equiv_pos_as_xyz
  1  'x, y, z'
loop_
 _atom_site_type_symbol
 _atom_site_label
 _atom_site_symmetry_multiplicity
 _atom_site_fract_x
 _atom_site_fract_y
 _atom_site_fract_z
 _atom_site_occupancy
  Ce  Ce0  1  0.99865577  -0.00000000  0.01692626  1
  Ce  Ce1  1  0.16668570  0.50000000  0.33024017  1
  Ce  Ce2  1  0.06192124  -0.00000000  0.62508706  1
  Ce  Ce3  1  0.34868521  -0.00000000  0.67561684  1
  Ce  Ce4  1  0.20461485  0.50000000  0.90816747  1
  Ce  Ce5  1  0.49865577  0.50000000  0.01692626  1
  Ce  Ce6  1  0.66668570  -0.00000000  0.33024017  1
  Ce  Ce7  1  0.56192124  0.50000000  0.62508706  1
  Ce  Ce8  1  0.84868521  0.50000000  0.67561684  1
  Ce  Ce9  1  0.70461485  -0.00000000  0.90816747  1
  Mg  Mg10  1  0.38610422  -0.00000000  0.27729519  1
  Mg  Mg11  1  0.88610422  0.50000000  0.27729519  1
