# generated using pymatgen
data_Li9Mn2Co5O16
_symmetry_space_group_name_H-M   'P 1'
_cell_length_a   5.78741385
_cell_length_b   5.85339168
_cell_length_c   8.44861016
_cell_angle_alpha   89.70492088
_cell_angle_beta   90.00000000
_cell_angle_gamma   90.00000000
_symmetry_Int_Tables_number   1
_chemical_formula_structural   Li9Mn2Co5O16
_chemical_formula_sum   'Li9 Mn2 Co5 O16'
_cell_volume   286.20132281
_cell_formula_units_Z   1
loop_
 _symmetry_equiv_pos_site_id
 _symmetry_equiv_pos_as_xyz
  1  'x, y, z'
loop_
 _atom_site_type_symbol
 _atom_site_label
 _atom_site_symmetry_multiplicity
 _atom_site_fract_x
 _atom_site_fract_y
 _atom_site_fract_z
 _atom_site_occupancy
  Li  Li0  1  0.75000000  0.25181310  0.25279839  1
  Li  Li1  1  0.75000000  0.74990903  0.74145054  1
  Li  Li2  1  0.49413353  0.99442197  0.49244773  1
  Li  Li3  1  0.49607085  0.50235136  0.00945510  1
  Li  Li4  1  0.25000000  0.74561946  0.74668088  1
  Li  Li5  1  0.25000000  0.25111050  0.25735117  1
  Li  Li6  1  0.00392915  0.50235136  0.00945510  1
  Li  Li7  1  0.00586647  0.99442197  0.49244773  1
  Li  Li8  1  0.25000000  0.74959059  0.25201018  1
  Mn  Mn9  1  0.00196240  0.99728823  0.00292692  1
  Mn  Mn10  1  0.49803760  0.99728823  0.00292692  1
  Co  Co11  1  0.00507948  0.50798744  0.49231807  1
  Co  Co12  1  0.75000000  0.74662383  0.24979522  1
  Co  Co13  1  0.75000000  0.25722185  0.74107368  1
  Co  Co14  1  0.49492052  0.50798744  0.49231807  1
  Co  Co15  1  0.25000000  0.25179789  0.74644752  1
  O  O16  1  0.75000000  0.22574345  0.99126727  1
  O  O17  1  0.75000000  0.74366759  0.50623225  1
  O  O18  1  0.51688383  0.98226353  0.22758775  1
  O  O19  1  0.48872514  0.47810012  0.74867778  1
  O  O20  1  0.25000000  0.73422521  0.50103428  1
  O  O21  1  0.25000000  0.22194618  0.01322541  1
  O  O22  1  0.01127486  0.47810012  0.74867778  1
  O  O23  1  0.98311617  0.98226353  0.22758775  1
  O  O24  1  0.75000000  0.26100288  0.51472249  1
  O  O25  1  0.75000000  0.77629759  0.98559060  1
  O  O26  1  0.48892815  0.02288509  0.77004781  1
  O  O27  1  0.51772556  0.51605095  0.25908907  1
  O  O28  1  0.25000000  0.77663487  0.99765805  1
  O  O29  1  0.25000000  0.25409859  0.49756154  1
  O  O30  1  0.98227444  0.51605095  0.25908907  1
  O  O31  1  0.01107185  0.02288509  0.77004781  1
