# generated using pymatgen
data_Li9Mn2Co5O16
_symmetry_space_group_name_H-M   'P 1'
_cell_length_a   2.91493106
_cell_length_b   10.09103781
_cell_length_c   9.81678353
_cell_angle_alpha   99.92477783
_cell_angle_beta   90.00000000
_cell_angle_gamma   90.00000000
_symmetry_Int_Tables_number   1
_chemical_formula_structural   Li9Mn2Co5O16
_chemical_formula_sum   'Li9 Mn2 Co5 O16'
_cell_volume   284.43625105
_cell_formula_units_Z   1
loop_
 _symmetry_equiv_pos_site_id
 _symmetry_equiv_pos_as_xyz
  1  'x, y, z'
loop_
 _atom_site_type_symbol
 _atom_site_label
 _atom_site_symmetry_multiplicity
 _atom_site_fract_x
 _atom_site_fract_y
 _atom_site_fract_z
 _atom_site_occupancy
  Li  Li0  1  0.50000000  0.12366601  0.24942543  1
  Li  Li1  1  0.50000000  0.37633399  0.75057457  1
  Li  Li2  1  0.50000000  0.62887684  0.24439914  1
  Li  Li3  1  -0.00000000  0.37402126  0.25167287  1
  Li  Li4  1  -0.00000000  0.63470187  0.75764683  1
  Li  Li5  1  -0.00000000  0.86529813  0.24235317  1
  Li  Li6  1  0.50000000  0.87112316  0.75560086  1
  Li  Li7  1  -0.00000000  0.12597874  0.74832713  1
  Li  Li8  1  0.50000000  0.75000000  0.00000000  1
  Mn  Mn9  1  0.00000000  0.99513620  0.99701337  1
  Mn  Mn10  1  -0.00000000  0.50486380  0.00298663  1
  Co  Co11  1  0.00000000  0.25000000  0.50000000  1
  Co  Co12  1  -0.00000000  0.75000000  0.50000000  1
  Co  Co13  1  0.50000000  0.50044898  0.50168791  1
  Co  Co14  1  0.50000000  0.99955102  0.49831209  1
  Co  Co15  1  0.50000000  0.25000000  0.00000000  1
  O  O16  1  0.50000000  0.94853764  0.11003071  1
  O  O17  1  0.50000000  0.18964545  0.61611533  1
  O  O18  1  0.50000000  0.43071265  0.10619031  1
  O  O19  1  0.00000000  0.18827573  0.10567798  1
  O  O20  1  0.00000000  0.43899996  0.61733462  1
  O  O21  1  -0.00000000  0.66826767  0.11793215  1
  O  O22  1  0.50000000  0.68957016  0.61625562  1
  O  O23  1  -0.00000000  0.94066620  0.61309610  1
  O  O24  1  0.50000000  0.31035455  0.38388467  1
  O  O25  1  0.50000000  0.55146236  0.88996929  1
  O  O26  1  0.50000000  0.81042984  0.38374438  1
  O  O27  1  0.00000000  0.55933380  0.38690390  1
  O  O28  1  0.00000000  0.83173233  0.88206785  1
  O  O29  1  -0.00000000  0.06100004  0.38266538  1
  O  O30  1  0.50000000  0.06928735  0.89380969  1
  O  O31  1  -0.00000000  0.31172427  0.89432202  1
