# generated using pymatgen
data_Li9Mn2Co5O16
_symmetry_space_group_name_H-M   'P 1'
_cell_length_a   5.17123294
_cell_length_b   5.81018061
_cell_length_c   9.76897972
_cell_angle_alpha   90.00000000
_cell_angle_beta   99.30019964
_cell_angle_gamma   90.00000000
_symmetry_Int_Tables_number   1
_chemical_formula_structural   Li9Mn2Co5O16
_chemical_formula_sum   'Li9 Mn2 Co5 O16'
_cell_volume   289.65855163
_cell_formula_units_Z   1
loop_
 _symmetry_equiv_pos_site_id
 _symmetry_equiv_pos_as_xyz
  1  'x, y, z'
loop_
 _atom_site_type_symbol
 _atom_site_label
 _atom_site_symmetry_multiplicity
 _atom_site_fract_x
 _atom_site_fract_y
 _atom_site_fract_z
 _atom_site_occupancy
  Li  Li0  1  0.50000000  0.25699308  0.00000000  1
  Li  Li1  1  0.74637870  0.50000000  0.23696465  1
  Li  Li2  1  -0.00000000  0.75242363  0.50000000  1
  Li  Li3  1  0.25362130  0.50000000  0.76303535  1
  Li  Li4  1  0.50000000  0.74300692  0.00000000  1
  Li  Li5  1  0.75132877  -0.00000000  0.24674389  1
  Li  Li6  1  0.24867123  0.00000000  0.75325611  1
  Li  Li7  1  -0.00000000  0.24757637  0.50000000  1
  Li  Li8  1  -0.00000000  0.50000000  0.00000000  1
  Mn  Mn9  1  -0.00000000  0.00000000  0.00000000  1
  Mn  Mn10  1  0.50000000  0.50000000  0.50000000  1
  Co  Co11  1  0.23650543  0.25461888  0.24305202  1
  Co  Co12  1  0.76349457  0.74538112  0.75694798  1
  Co  Co13  1  0.23650543  0.74538112  0.24305202  1
  Co  Co14  1  0.50000000  -0.00000000  0.50000000  1
  Co  Co15  1  0.76349457  0.25461888  0.75694798  1
  O  O16  1  0.11018454  0.23625493  0.87863512  1
  O  O17  1  0.37213538  0.50000000  0.14077455  1
  O  O18  1  0.61509558  0.74329925  0.38665907  1
  O  O19  1  0.84166475  0.50000000  0.61946244  1
  O  O20  1  0.11018454  0.76374507  0.87863512  1
  O  O21  1  0.34010494  -0.00000000  0.11644228  1
  O  O22  1  0.85528282  0.00000000  0.63432979  1
  O  O23  1  0.61509558  0.25670075  0.38665907  1
  O  O24  1  0.88981546  0.23625493  0.12136488  1
  O  O25  1  0.15833525  0.50000000  0.38053756  1
  O  O26  1  0.38490442  0.74329925  0.61334093  1
  O  O27  1  0.62786462  0.50000000  0.85922545  1
  O  O28  1  0.88981546  0.76374507  0.12136488  1
  O  O29  1  0.14471718  -0.00000000  0.36567021  1
  O  O30  1  0.65989506  -0.00000000  0.88355772  1
  O  O31  1  0.38490442  0.25670075  0.61334093  1
