# generated using pymatgen
data_ZrAg2H24(N4F3)2
_symmetry_space_group_name_H-M   'P 1'
_cell_length_a   8.21302609
_cell_length_b   13.60781073
_cell_length_c   15.37262537
_cell_angle_alpha   90.00000000
_cell_angle_beta   92.24719663
_cell_angle_gamma   90.00000000
_symmetry_Int_Tables_number   1
_chemical_formula_structural   ZrAg2H24(N4F3)2
_chemical_formula_sum   'Zr4 Ag8 H96 N32 F24'
_cell_volume   1716.74339883
_cell_formula_units_Z   4
loop_
 _symmetry_equiv_pos_site_id
 _symmetry_equiv_pos_as_xyz
  1  'x, y, z'
loop_
 _atom_site_type_symbol
 _atom_site_label
 _atom_site_symmetry_multiplicity
 _atom_site_fract_x
 _atom_site_fract_y
 _atom_site_fract_z
 _atom_site_occupancy
  Zr  Zr0  1  0.26595283  0.19383959  0.67825382  1
  Zr  Zr1  1  0.26595283  0.30616041  0.17825382  1
  Zr  Zr2  1  0.74336535  0.69460639  0.81787086  1
  Zr  Zr3  1  0.74336535  0.80539361  0.31787086  1
  Ag  Ag4  1  0.25408736  0.61949556  0.55991191  1
  Ag  Ag5  1  0.24893491  0.66832570  0.06968875  1
  Ag  Ag6  1  0.25408736  0.88050444  0.05991191  1
  Ag  Ag7  1  0.24893491  0.83167430  0.56968875  1
  Ag  Ag8  1  0.75008240  0.11319396  0.94723580  1
  Ag  Ag9  1  0.73535108  0.16388405  0.43064553  1
  Ag  Ag10  1  0.73535108  0.33611595  0.93064553  1
  Ag  Ag11  1  0.75008240  0.38680604  0.44723580  1
  H  H12  1  0.98422559  0.01876201  0.37702144  1
  H  H13  1  0.98422559  0.48123799  0.87702144  1
  H  H14  1  0.05566852  0.15661435  0.03016369  1
  H  H15  1  0.05566852  0.34338565  0.53016369  1
  H  H16  1  0.05957509  0.31403198  0.42664765  1
  H  H17  1  0.05957509  0.18596802  0.92664765  1
  H  H18  1  0.07885785  0.08203189  0.45739012  1
  H  H19  1  0.07885785  0.41796811  0.95739012  1
  H  H20  1  0.07138316  0.12541594  0.35815983  1
  H  H21  1  0.07138316  0.37458406  0.85815983  1
  H  H22  1  0.09042264  0.07166657  0.95507572  1
  H  H23  1  0.09042264  0.42833343  0.45507572  1
  H  H24  1  0.15008975  0.96605640  0.21879665  1
  H  H25  1  0.15008975  0.53394360  0.71879665  1
  H  H26  1  0.15168937  0.58864187  0.35813679  1
  H  H27  1  0.15168937  0.91135813  0.85813679  1
  H  H28  1  0.14779212  0.79324243  0.39368030  1
  H  H29  1  0.14779212  0.70675757  0.89368030  1
  H  H30  1  0.25048841  0.06107486  0.17853491  1
  H  H31  1  0.24259133  0.49346229  0.31759082  1
  H  H32  1  0.25048841  0.43892514  0.67853491  1
  H  H33  1  0.24595827  0.60179937  0.89392198  1
  H  H34  1  0.24259133  0.00653771  0.81759082  1
  H  H35  1  0.24595827  0.89820063  0.39392198  1
  H  H36  1  0.34083416  0.70098118  0.23548625  1
  H  H37  1  0.34083416  0.79901882  0.73548625  1
  H  H38  1  0.34837678  0.79490577  0.39776869  1
  H  H39  1  0.34837678  0.70509423  0.89776869  1
  H  H40  1  0.35038786  0.58341613  0.36176288  1
  H  H41  1  0.35038786  0.91658387  0.86176288  1
  H  H42  1  0.35175879  0.96579473  0.22118247  1
  H  H43  1  0.35175879  0.53420527  0.72118247  1
  H  H44  1  0.41079967  0.42779221  0.44826225  1
  H  H45  1  0.41079967  0.07220779  0.94826225  1
  H  H46  1  0.40077977  0.11480575  0.36424046  1
  H  H47  1  0.40077977  0.38519425  0.86424046  1
  H  H48  1  0.40359613  0.43127882  0.96252408  1
  H  H49  1  0.40359613  0.06872118  0.46252408  1
  H  H50  1  0.43781319  0.31459897  0.41620229  1
  H  H51  1  0.43781319  0.18540103  0.91620229  1
  H  H52  1  0.45114288  0.15944517  0.02091282  1
  H  H53  1  0.45114288  0.34055483  0.52091282  1
  H  H54  1  0.49074341  0.00708938  0.38116114  1
  H  H55  1  0.49074341  0.49291062  0.88116114  1
  H  H56  1  0.48722039  0.52456004  0.11987096  1
  H  H57  1  0.48722039  0.97543996  0.61987096  1
  H  H58  1  0.54622998  0.66500827  0.47929585  1
  H  H59  1  0.54622998  0.83499173  0.97929585  1
  H  H60  1  0.56959452  0.68582414  0.58514060  1
  H  H61  1  0.56959452  0.81417586  0.08514060  1
  H  H62  1  0.57262788  0.91105894  0.54079214  1
  H  H63  1  0.57262788  0.58894106  0.04079214  1
  H  H64  1  0.57707412  0.63183327  0.14112220  1
  H  H65  1  0.57707412  0.86816673  0.64112220  1
  H  H66  1  0.58433247  0.57380725  0.54844642  1
  H  H67  1  0.58433247  0.92619275  0.04844642  1
  H  H68  1  0.64648506  0.02380364  0.77989396  1
  H  H69  1  0.64648506  0.47619636  0.27989396  1
  H  H70  1  0.65353703  0.07806860  0.13487441  1
  H  H71  1  0.65353703  0.42193140  0.63487441  1
  H  H72  1  0.65827844  0.21182323  0.60384595  1
  H  H73  1  0.65827844  0.28817677  0.10384595  1
  H  H74  1  0.65212335  0.22085198  0.77401180  1
  H  H75  1  0.65212335  0.27914802  0.27401180  1
  H  H76  1  0.58958737  0.16666424  0.25863755  1
  H  H77  1  0.58958737  0.33333576  0.75863755  1
  H  H78  1  0.75569761  0.98650469  0.18022804  1
  H  H79  1  0.75930544  0.10823124  0.60798743  1
  H  H80  1  0.75930544  0.39176876  0.10798743  1
  H  H81  1  0.75569761  0.51349531  0.68022804  1
  H  H82  1  0.74353382  0.56955525  0.32814719  1
  H  H83  1  0.74353382  0.93044475  0.82814719  1
  H  H84  1  0.78450386  0.19298140  0.25296034  1
  H  H85  1  0.78450386  0.30701860  0.75296034  1
  H  H86  1  0.90621516  0.18385915  0.81605644  1
  H  H87  1  0.90621516  0.31614085  0.31605644  1
  H  H88  1  0.85956266  0.21226463  0.60129982  1
  H  H89  1  0.85956266  0.28773537  0.10129982  1
  H  H90  1  0.85298565  0.07939178  0.13868304  1
  H  H91  1  0.85298565  0.42060822  0.63868304  1
  H  H92  1  0.84725394  0.01934063  0.78330260  1
  H  H93  1  0.84725394  0.48065937  0.28330260  1
  H  H94  1  0.95787064  0.17871961  0.77749370  1
  H  H95  1  0.95787064  0.32128039  0.27749370  1
  H  H96  1  0.91946116  0.57372977  0.54965172  1
  H  H97  1  0.91946116  0.92627023  0.04965172  1
  H  H98  1  0.93487265  0.63126900  0.13921879  1
  H  H99  1  0.93487265  0.86873100  0.63921879  1
  H  H100  1  0.91777873  0.58532563  0.03965282  1
  H  H101  1  0.91777873  0.91467437  0.53965282  1
  H  H102  1  0.94331053  0.68570298  0.58598553  1
  H  H103  1  0.94331053  0.81429702  0.08598553  1
  H  H104  1  0.94822837  0.66451528  0.47993863  1
  H  H105  1  0.94822837  0.83548472  0.97993863  1
  H  H106  1  0.02234271  0.52429163  0.11973458  1
  H  H107  1  0.02234271  0.97570837  0.61973458  1
  N  N108  1  0.00562185  0.08744766  0.40219590  1
  N  N109  1  0.00562185  0.41255234  0.90219590  1
  N  N110  1  0.02289016  0.13282765  0.96849778  1
  N  N111  1  0.02289016  0.36717235  0.46849778  1
  N  N112  1  0.24978279  0.51347820  0.68520722  1
  N  N113  1  0.24798311  0.54174195  0.36905559  1
  N  N114  1  0.24511160  0.72802917  0.19594219  1
  N  N115  1  0.24978279  0.98652180  0.18520722  1
  N  N116  1  0.24734174  0.67073034  0.92021227  1
  N  N117  1  0.24511160  0.77197083  0.69594219  1
  N  N118  1  0.24798311  0.95825805  0.86905559  1
  N  N119  1  0.24734174  0.82926966  0.42021227  1
  N  N120  1  0.47945536  0.36593203  0.46034225  1
  N  N121  1  0.47945536  0.13406797  0.96034225  1
  N  N122  1  0.47012658  0.07450611  0.40790411  1
  N  N123  1  0.47012658  0.42549389  0.90790411  1
  N  N124  1  0.50704734  0.59361288  0.09596764  1
  N  N125  1  0.50704734  0.90638712  0.59596764  1
  N  N126  1  0.52062649  0.86183970  0.03976945  1
  N  N127  1  0.52062649  0.63816030  0.53976945  1
  N  N128  1  0.74668880  0.00471573  0.81786570  1
  N  N129  1  0.75402503  0.03451050  0.12885689  1
  N  N130  1  0.75638454  0.17611363  0.57979610  1
  N  N131  1  0.68260546  0.20734344  0.28633176  1
  N  N132  1  0.68260546  0.29265656  0.78633176  1
  N  N133  1  0.75638454  0.32388637  0.07979610  1
  N  N134  1  0.75402503  0.46548950  0.62885689  1
  N  N135  1  0.74668880  0.49528427  0.31786570  1
  N  N136  1  0.98286340  0.63756089  0.54039424  1
  N  N137  1  0.98286340  0.86243911  0.04039424  1
  N  N138  1  0.99430886  0.59169264  0.09358947  1
  N  N139  1  0.99430886  0.90830736  0.59358947  1
  F  F140  1  0.11247564  0.41897821  0.20530287  1
  F  F141  1  0.11247564  0.08102179  0.70530287  1
  F  F142  1  0.06982302  0.21555229  0.14741833  1
  F  F143  1  0.06982302  0.28444771  0.64741833  1
  F  F144  1  0.26569379  0.14271151  0.55420846  1
  F  F145  1  0.26569379  0.35728849  0.05420846  1
  F  F146  1  0.26847676  0.25105916  0.80151104  1
  F  F147  1  0.26847676  0.24894084  0.30151104  1
  F  F148  1  0.42386299  0.19593167  0.14246054  1
  F  F149  1  0.42386299  0.30406833  0.64246054  1
  F  F150  1  0.46329413  0.39171459  0.21292827  1
  F  F151  1  0.46329413  0.10828541  0.71292827  1
  F  F152  1  0.56554626  0.59728743  0.77947216  1
  F  F153  1  0.56554626  0.90271257  0.27947216  1
  F  F154  1  0.56394184  0.70814894  0.35537914  1
  F  F155  1  0.56394184  0.79185106  0.85537914  1
  F  F156  1  0.74474575  0.63665554  0.94065809  1
  F  F157  1  0.73489289  0.74177863  0.19613132  1
  F  F158  1  0.73489289  0.75822137  0.69613132  1
  F  F159  1  0.74474575  0.86334446  0.44065809  1
  F  F160  1  0.92016558  0.70686772  0.35972821  1
  F  F161  1  0.92016558  0.79313228  0.85972821  1
  F  F162  1  0.91705604  0.59708466  0.78297059  1
  F  F163  1  0.91705604  0.90291534  0.28297059  1
