# generated using pymatgen
data_Ti3MnSn2(PO4)6
_symmetry_space_group_name_H-M   'P 1'
_cell_length_a   9.14595268
_cell_length_b   9.14595298
_cell_length_c   9.14595303
_cell_angle_alpha   56.22999678
_cell_angle_beta   56.22999443
_cell_angle_gamma   56.22999431
_symmetry_Int_Tables_number   1
_chemical_formula_structural   Ti3MnSn2(PO4)6
_chemical_formula_sum   'Ti3 Mn1 Sn2 P6 O24'
_cell_volume   493.76982379
_cell_formula_units_Z   1
loop_
 _symmetry_equiv_pos_site_id
 _symmetry_equiv_pos_as_xyz
  1  'x, y, z'
loop_
 _atom_site_type_symbol
 _atom_site_label
 _atom_site_symmetry_multiplicity
 _atom_site_fract_x
 _atom_site_fract_y
 _atom_site_fract_z
 _atom_site_occupancy
  Ti  Ti0  1  0.14514714  0.14514714  0.14514714  1
  Ti  Ti1  1  0.35267535  0.35267535  0.35267535  1
  Ti  Ti2  1  0.65510870  0.65510870  0.65510870  1
  Mn  Mn3  1  0.84873505  0.84873505  0.84873505  1
  Sn  Sn4  1  0.98492465  0.98492465  0.98492465  1
  Sn  Sn5  1  0.51233095  0.51233095  0.51233095  1
  P  P6  1  0.25547464  0.53110529  0.96302297  1
  P  P7  1  0.53110529  0.96302297  0.25547464  1
  P  P8  1  0.96302297  0.25547464  0.53110529  1
  P  P9  1  0.04352930  0.74980989  0.46149150  1
  P  P10  1  0.46149150  0.04352930  0.74980989  1
  P  P11  1  0.74980989  0.46149150  0.04352930  1
  O  O12  1  0.12164901  0.30296089  0.49002555  1
  O  O13  1  0.30296089  0.49002555  0.12164901  1
  O  O14  1  0.05673929  0.93346770  0.28764523  1
  O  O15  1  0.49002555  0.12164901  0.30296089  1
  O  O16  1  0.03318368  0.75102268  0.63119876  1
  O  O17  1  0.21913309  0.58337759  0.40606659  1
  O  O18  1  0.28764523  0.05673929  0.93346770  1
  O  O19  1  0.40606659  0.21913309  0.58337759  1
  O  O20  1  0.22031681  0.36835957  0.99339901  1
  O  O21  1  0.58337759  0.40606659  0.21913309  1
  O  O22  1  0.08279672  0.71631263  0.94473681  1
  O  O23  1  0.36835957  0.99339901  0.22031681  1
  O  O24  1  0.63119876  0.03318368  0.75102268  1
  O  O25  1  0.93346770  0.28764523  0.05673929  1
  O  O26  1  0.43096718  0.55774608  0.77628457  1
  O  O27  1  0.75102268  0.63119876  0.03318368  1
  O  O28  1  0.55774608  0.77628457  0.43096718  1
  O  O29  1  0.71631263  0.94473681  0.08279672  1
  O  O30  1  0.77628457  0.43096718  0.55774608  1
  O  O31  1  0.99339901  0.22031681  0.36835957  1
  O  O32  1  0.49711847  0.86569673  0.72643794  1
  O  O33  1  0.94473681  0.08279672  0.71631263  1
  O  O34  1  0.72643794  0.49711847  0.86569673  1
  O  O35  1  0.86569673  0.72643794  0.49711847  1
