# generated using pymatgen
data_TbHfO4
_symmetry_space_group_name_H-M   'P 1'
_cell_length_a   5.44517450
_cell_length_b   5.36097449
_cell_length_c   6.55112491
_cell_angle_alpha   64.82263080
_cell_angle_beta   64.43106163
_cell_angle_gamma   87.75808127
_symmetry_Int_Tables_number   1
_chemical_formula_structural   TbHfO4
_chemical_formula_sum   'Tb2 Hf2 O8'
_cell_volume   153.65437471
_cell_formula_units_Z   2
loop_
 _symmetry_equiv_pos_site_id
 _symmetry_equiv_pos_as_xyz
  1  'x, y, z'
loop_
 _atom_site_type_symbol
 _atom_site_label
 _atom_site_symmetry_multiplicity
 _atom_site_fract_x
 _atom_site_fract_y
 _atom_site_fract_z
 _atom_site_occupancy
  Tb  Tb0  1  0.12594920  0.37594920  0.24810260  1
  Tb  Tb1  1  0.87405080  0.62405080  0.75189740  1
  Hf  Hf2  1  0.38550031  0.13550031  0.72900038  1
  Hf  Hf3  1  0.61449969  0.86449969  0.27099962  1
  O  O4  1  0.52672162  0.21613219  0.05049152  1
  O  O5  1  0.23691441  0.00642680  0.54727388  1
  O  O6  1  0.71581170  0.44629931  0.54727388  1
  O  O7  1  0.07721314  0.26662371  0.94950848  1
  O  O8  1  0.92278686  0.73337629  0.05049152  1
  O  O9  1  0.28418830  0.55370069  0.45272612  1
  O  O10  1  0.76308559  0.99357320  0.45272612  1
  O  O11  1  0.47327838  0.78386781  0.94950848  1
