# generated using pymatgen
data_V2Fe3Ni(PO4)6
_symmetry_space_group_name_H-M   'P 1'
_cell_length_a   8.36875268
_cell_length_b   8.66375037
_cell_length_c   8.66374979
_cell_angle_alpha   60.00000238
_cell_angle_beta   58.82692763
_cell_angle_gamma   58.82692970
_symmetry_Int_Tables_number   1
_chemical_formula_structural   V2Fe3Ni(PO4)6
_chemical_formula_sum   'V2 Fe3 Ni1 P6 O24'
_cell_volume   436.13919168
_cell_formula_units_Z   1
loop_
 _symmetry_equiv_pos_site_id
 _symmetry_equiv_pos_as_xyz
  1  'x, y, z'
loop_
 _atom_site_type_symbol
 _atom_site_label
 _atom_site_symmetry_multiplicity
 _atom_site_fract_x
 _atom_site_fract_y
 _atom_site_fract_z
 _atom_site_occupancy
  V  V0  1  0.99521591  0.00159470  0.00159470  1
  V  V1  1  0.49751930  0.50082657  0.50082657  1
  Fe  Fe2  1  0.05953548  0.64682184  0.64682184  1
  Fe  Fe3  1  0.43836327  0.85387924  0.85387924  1
  Fe  Fe4  1  0.94274883  0.35241672  0.35241672  1
  Ni  Ni5  1  0.56476218  0.14507894  0.14507894  1
  P  P6  1  0.25155505  0.24946476  0.54719923  1
  P  P7  1  0.25155505  0.95178096  0.24946476  1
  P  P8  1  0.25155505  0.54719923  0.95178096  1
  P  P9  1  0.75041346  0.45156037  0.04842324  1
  P  P10  1  0.75041346  0.04842324  0.74960394  1
  P  P11  1  0.75041346  0.74960394  0.45156037  1
  O  O12  1  0.06264824  0.10689907  0.32378896  1
  O  O13  1  0.06264824  0.50666473  0.10689907  1
  O  O14  1  0.06264824  0.32378896  0.50666473  1
  O  O15  1  0.20902381  0.09778135  0.75560736  1
  O  O16  1  0.43921968  0.17531339  0.39748403  1
  O  O17  1  0.28210007  0.40361575  0.56732677  1
  O  O18  1  0.20902381  0.93758849  0.09778135  1
  O  O19  1  0.28210007  0.74695742  0.40361575  1
  O  O20  1  0.56345755  0.60674925  0.00527109  1
  O  O21  1  0.28210007  0.56732677  0.74695742  1
  O  O22  1  0.79293182  0.24671535  0.06039100  1
  O  O23  1  0.56345755  0.00527109  0.82452110  1
  O  O24  1  0.43921968  0.98798390  0.17531339  1
  O  O25  1  0.20902381  0.75560736  0.93758849  1
  O  O26  1  0.71355935  0.43685570  0.25218216  1
  O  O27  1  0.43921968  0.39748403  0.98798390  1
  O  O28  1  0.71355935  0.25218216  0.59740279  1
  O  O29  1  0.79293182  0.06039100  0.89996183  1
  O  O30  1  0.71355935  0.59740279  0.43685570  1
  O  O31  1  0.56345755  0.82452110  0.60674925  1
  O  O32  1  0.79293182  0.89996183  0.24671535  1
  O  O33  1  0.93570998  0.67299522  0.49736540  1
  O  O34  1  0.93570998  0.49736540  0.89392940  1
  O  O35  1  0.93570998  0.89392940  0.67299522  1
