# generated using pymatgen
data_Ta2Ge2O7
_symmetry_space_group_name_H-M   'P 1'
_cell_length_a   13.66819239
_cell_length_b   13.66819239
_cell_length_c   5.79174503
_cell_angle_alpha   90.00000000
_cell_angle_beta   90.00000000
_cell_angle_gamma   16.39197640
_symmetry_Int_Tables_number   1
_chemical_formula_structural   Ta2Ge2O7
_chemical_formula_sum   'Ta4 Ge4 O14'
_cell_volume   305.35114806
_cell_formula_units_Z   2
loop_
 _symmetry_equiv_pos_site_id
 _symmetry_equiv_pos_as_xyz
  1  'x, y, z'
loop_
 _atom_site_type_symbol
 _atom_site_label
 _atom_site_symmetry_multiplicity
 _atom_site_fract_x
 _atom_site_fract_y
 _atom_site_fract_z
 _atom_site_occupancy
  Ta  Ta0  1  0.15947060  0.15947060  0.27038786  1
  Ta  Ta1  1  0.05317880  0.05317880  0.73207431  1
  Ta  Ta2  1  0.84052940  0.84052940  0.77038786  1
  Ta  Ta3  1  0.94682120  0.94682120  0.23207431  1
  Ge  Ge4  1  0.27120322  0.27120322  0.23499560  1
  Ge  Ge5  1  0.43358612  0.43358612  0.67029689  1
  Ge  Ge6  1  0.72879678  0.72879678  0.73499560  1
  Ge  Ge7  1  0.56641388  0.56641388  0.17029689  1
  O  O8  1  0.09558289  0.09558289  0.05672692  1
  O  O9  1  0.00382004  0.00382004  0.50913581  1
  O  O10  1  0.21018969  0.21018969  0.03774386  1
  O  O11  1  0.10916449  0.10916449  0.54219867  1
  O  O12  1  0.21497305  0.21497305  0.48225698  1
  O  O13  1  0.35602465  0.35602465  0.74918689  1
  O  O14  1  0.44580951  0.44580951  0.31865620  1
  O  O15  1  0.78502695  0.78502695  0.98225698  1
  O  O16  1  0.55419049  0.55419049  0.81865620  1
  O  O17  1  0.64397535  0.64397535  0.24918689  1
  O  O18  1  0.90441711  0.90441711  0.55672692  1
  O  O19  1  0.89083551  0.89083551  0.04219867  1
  O  O20  1  0.99617996  0.99617996  0.00913581  1
  O  O21  1  0.78981031  0.78981031  0.53774386  1
