# generated using pymatgen
data_TiCuGe
_symmetry_space_group_name_H-M   'P 1'
_cell_length_a   5.11743429
_cell_length_b   3.75229107
_cell_length_c   9.11269848
_cell_angle_alpha   90.00000000
_cell_angle_beta   90.00000000
_cell_angle_gamma   90.00000000
_symmetry_Int_Tables_number   1
_chemical_formula_structural   TiCuGe
_chemical_formula_sum   'Ti4 Cu4 Ge4'
_cell_volume   174.98297471
_cell_formula_units_Z   4
loop_
 _symmetry_equiv_pos_site_id
 _symmetry_equiv_pos_as_xyz
  1  'x, y, z'
loop_
 _atom_site_type_symbol
 _atom_site_label
 _atom_site_symmetry_multiplicity
 _atom_site_fract_x
 _atom_site_fract_y
 _atom_site_fract_z
 _atom_site_occupancy
  Ti  Ti0  1  0.24070446  0.25000000  0.05137508  1
  Ti  Ti1  1  0.25929554  0.75000000  0.55137508  1
  Ti  Ti2  1  0.74070446  0.25000000  0.44862492  1
  Ti  Ti3  1  0.75929554  0.75000000  0.94862492  1
  Cu  Cu4  1  0.00909034  0.25000000  0.75317162  1
  Cu  Cu5  1  0.49090966  0.75000000  0.25317162  1
  Cu  Cu6  1  0.50909034  0.25000000  0.74682838  1
  Cu  Cu7  1  0.99090966  0.75000000  0.24682838  1
  Ge  Ge8  1  0.26344627  0.75000000  0.85883812  1
  Ge  Ge9  1  0.23655373  0.25000000  0.35883812  1
  Ge  Ge10  1  0.76344627  0.75000000  0.64116188  1
  Ge  Ge11  1  0.73655373  0.25000000  0.14116188  1
