# generated using pymatgen
data_Li9Mn2Co5O16
_symmetry_space_group_name_H-M   'P 1'
_cell_length_a   5.75812696
_cell_length_b   5.93267243
_cell_length_c   10.12767315
_cell_angle_alpha   104.83314588
_cell_angle_beta   106.51562987
_cell_angle_gamma   60.96856280
_symmetry_Int_Tables_number   1
_chemical_formula_structural   Li9Mn2Co5O16
_chemical_formula_sum   'Li9 Mn2 Co5 O16'
_cell_volume   287.13142335
_cell_formula_units_Z   1
loop_
 _symmetry_equiv_pos_site_id
 _symmetry_equiv_pos_as_xyz
  1  'x, y, z'
loop_
 _atom_site_type_symbol
 _atom_site_label
 _atom_site_symmetry_multiplicity
 _atom_site_fract_x
 _atom_site_fract_y
 _atom_site_fract_z
 _atom_site_occupancy
  Li  Li0  1  0.49509212  0.50500305  0.99518728  1
  Li  Li1  1  0.99289752  0.50600228  0.99179732  1
  Li  Li2  1  0.25243776  0.75479042  0.26001675  1
  Li  Li3  1  0.75278856  0.75479042  0.26001675  1
  Li  Li4  1  0.00220954  0.00070211  0.50512118  1
  Li  Li5  1  0.50258260  0.00412684  0.50929204  1
  Li  Li6  1  0.74811128  0.23626935  0.73648372  1
  Li  Li7  1  0.25210308  0.23626935  0.73648372  1
  Li  Li8  1  0.75000793  0.74690829  0.74692416  1
  Mn  Mn9  1  0.00012515  0.99767140  0.99696494  1
  Mn  Mn10  1  0.49916839  0.99767140  0.99696494  1
  Co  Co11  1  0.75179337  0.25475175  0.25833850  1
  Co  Co12  1  0.25124284  0.24858901  0.25107469  1
  Co  Co13  1  0.49828840  0.51051276  0.50749109  1
  Co  Co14  1  0.99868993  0.51051276  0.50749109  1
  Co  Co15  1  0.24770071  0.75406954  0.74947095  1
  O  O16  1  0.63295448  0.12779532  0.89370428  1
  O  O17  1  0.12966139  0.13198115  0.89130393  1
  O  O18  1  0.39186199  0.33321823  0.12765112  1
  O  O19  1  0.90257090  0.33321823  0.12765112  1
  O  O20  1  0.13605335  0.60759874  0.37970545  1
  O  O21  1  0.63260701  0.60691736  0.37213138  1
  O  O22  1  0.90426444  0.85188656  0.62774364  1
  O  O23  1  0.37159264  0.85188656  0.62774364  1
  O  O24  1  0.36450653  0.88153014  0.11054321  1
  O  O25  1  0.86481823  0.88000854  0.10964499  1
  O  O26  1  0.12134019  0.13642182  0.36426427  1
  O  O27  1  0.60650226  0.13642182  0.36426427  1
  O  O28  1  0.86692283  0.37778245  0.61162810  1
  O  O29  1  0.37453011  0.37618641  0.62524662  1
  O  O30  1  0.59081365  0.67425297  0.87882743  1
  O  O31  1  0.11376081  0.67425297  0.87882743  1
