# generated using pymatgen
data_NdIO
_symmetry_space_group_name_H-M   'P 1'
_cell_length_a   4.07641854
_cell_length_b   11.42211974
_cell_length_c   4.07641888
_cell_angle_alpha   100.27914491
_cell_angle_beta   60.00000280
_cell_angle_gamma   100.27914304
_symmetry_Int_Tables_number   1
_chemical_formula_structural   NdIO
_chemical_formula_sum   'Nd2 I2 O2'
_cell_volume   160.84746076
_cell_formula_units_Z   2
loop_
 _symmetry_equiv_pos_site_id
 _symmetry_equiv_pos_as_xyz
  1  'x, y, z'
loop_
 _atom_site_type_symbol
 _atom_site_label
 _atom_site_symmetry_multiplicity
 _atom_site_fract_x
 _atom_site_fract_y
 _atom_site_fract_z
 _atom_site_occupancy
  Nd  Nd0  1  0.21097431  0.63292393  0.21097431  1
  Nd  Nd1  1  0.78902569  0.36707607  0.78902569  1
  I  I2  1  0.38865348  0.16596145  0.38865348  1
  I  I3  1  0.61134652  0.83403955  0.61134652  1
  O  O4  1  0.13997656  0.41993069  0.13997656  1
  O  O5  1  0.86002344  0.58006931  0.86002344  1
