# generated using pymatgen
data_Sb2Br9
_symmetry_space_group_name_H-M   'P 1'
_cell_length_a   7.77553902
_cell_length_b   7.80826544
_cell_length_c   9.32067320
_cell_angle_alpha   90.00000003
_cell_angle_beta   90.39604314
_cell_angle_gamma   120.13932441
_symmetry_Int_Tables_number   1
_chemical_formula_structural   Sb2Br9
_chemical_formula_sum   'Sb2 Br9'
_cell_volume   489.37038451
_cell_formula_units_Z   1
loop_
 _symmetry_equiv_pos_site_id
 _symmetry_equiv_pos_as_xyz
  1  'x, y, z'
loop_
 _atom_site_type_symbol
 _atom_site_label
 _atom_site_symmetry_multiplicity
 _atom_site_fract_x
 _atom_site_fract_y
 _atom_site_fract_z
 _atom_site_occupancy
  Sb  Sb0  1  0.66832110  0.33416055  0.81314573  1
  Sb  Sb1  1  0.33167890  0.66583945  0.18685427  1
  Br  Br2  1  -0.00000000  0.50000000  0.00000000  1
  Br  Br3  1  0.50000000  0.50000000  0.00000000  1
  Br  Br4  1  0.50000000  0.00000000  0.00000000  1
  Br  Br5  1  0.82625714  0.65285300  0.67077568  1
  Br  Br6  1  0.34837117  0.17418558  0.67151952  1
  Br  Br7  1  0.82625714  0.17340414  0.67077568  1
  Br  Br8  1  0.17374286  0.34714700  0.32922432  1
  Br  Br9  1  0.65162883  0.82581442  0.32848048  1
  Br  Br10  1  0.17374286  0.82659586  0.32922432  1
