# generated using pymatgen
data_K2CeCuBr6
_symmetry_space_group_name_H-M   'P 1'
_cell_length_a   7.87556207
_cell_length_b   7.85730836
_cell_length_c   7.86618150
_cell_angle_alpha   60.12694745
_cell_angle_beta   59.88890657
_cell_angle_gamma   59.98708160
_symmetry_Int_Tables_number   1
_chemical_formula_structural   K2CeCuBr6
_chemical_formula_sum   'K2 Ce1 Cu1 Br6'
_cell_volume   344.19944718
_cell_formula_units_Z   1
loop_
 _symmetry_equiv_pos_site_id
 _symmetry_equiv_pos_as_xyz
  1  'x, y, z'
loop_
 _atom_site_type_symbol
 _atom_site_label
 _atom_site_symmetry_multiplicity
 _atom_site_fract_x
 _atom_site_fract_y
 _atom_site_fract_z
 _atom_site_occupancy
  K  K0  1  0.24977478  0.25041214  0.25040782  1
  K  K1  1  0.75022597  0.74958727  0.74959301  1
  Ce  Ce2  1  0.49999994  0.50000007  0.49999990  1
  Cu  Cu3  1  -0.00000014  0.00000021  -0.00000039  1
  Br  Br4  1  0.24078679  0.75947019  0.24054905  1
  Br  Br5  1  0.75954920  0.75996368  0.24007414  1
  Br  Br6  1  0.75921305  0.24052984  0.75945094  1
  Br  Br7  1  0.76057322  0.23956469  0.23955284  1
  Br  Br8  1  0.23942656  0.76043543  0.76044701  1
  Br  Br9  1  0.24045063  0.24003648  0.75992569  1
