# generated using pymatgen
data_H12PbC2(I3N)2
_symmetry_space_group_name_H-M   'P 1'
_cell_length_a   8.69828979
_cell_length_b   8.72118931
_cell_length_c   13.05541885
_cell_angle_alpha   88.84323870
_cell_angle_beta   90.02597496
_cell_angle_gamma   90.00991596
_symmetry_Int_Tables_number   1
_chemical_formula_structural   H12PbC2(I3N)2
_chemical_formula_sum   'H24 Pb2 C4 I12 N4'
_cell_volume   990.17470608
_cell_formula_units_Z   2
loop_
 _symmetry_equiv_pos_site_id
 _symmetry_equiv_pos_as_xyz
  1  'x, y, z'
loop_
 _atom_site_type_symbol
 _atom_site_label
 _atom_site_symmetry_multiplicity
 _atom_site_fract_x
 _atom_site_fract_y
 _atom_site_fract_z
 _atom_site_occupancy
  H  H0  1  0.65101461  0.02020263  0.22878067  1
  H  H1  1  0.51676041  0.03356070  0.33265089  1
  H  H2  1  0.50112261  0.16130252  0.22353465  1
  H  H3  1  0.45326325  0.82059084  0.22048971  1
  H  H4  1  0.43879321  0.94108583  0.11969050  1
  H  H5  1  0.31320086  0.95362837  0.21532278  1
  H  H6  1  0.93526203  0.59705602  0.11674010  1
  H  H7  1  0.95177462  0.72081299  0.21175007  1
  H  H8  1  0.81076604  0.58844329  0.21446990  1
  H  H9  1  0.14837304  0.52083963  0.22728762  1
  H  H10  1  0.99784688  0.38034249  0.22992949  1
  H  H11  1  0.01611913  0.51257121  0.33292306  1
  H  H12  1  0.95443604  0.31270749  0.71885791  1
  H  H13  1  0.94429493  0.43546691  0.61904470  1
  H  H14  1  0.82135368  0.45283812  0.71574949  1
  H  H15  1  0.16256265  0.50077277  0.72700788  1
  H  H16  1  0.03118055  0.52006552  0.83203588  1
  H  H17  1  0.02099918  0.65020824  0.72393980  1
  H  H18  1  0.72121782  0.95278134  0.71232889  1
  H  H19  1  0.59263584  0.93409469  0.61750430  1
  H  H20  1  0.58910223  0.81145017  0.71648518  1
  H  H21  1  0.52049355  0.14829688  0.72518408  1
  H  H22  1  0.51611173  0.01682061  0.83267215  1
  H  H23  1  0.38023391  0.99756076  0.73023785  1
  Pb  Pb24  1  0.51997910  0.51665087  0.49178814  1
  Pb  Pb25  1  0.01463621  0.02828512  0.99299868  1
  C  C26  1  0.02954681  0.49730985  0.25045881  1
  C  C27  1  0.53184548  0.04516792  0.24969383  1
  C  C28  1  0.04541915  0.53212214  0.74903253  1
  C  C29  1  0.49815269  0.02968407  0.75002331  1
  I  I30  1  0.72364417  0.83761024  0.99345367  1
  I  I31  1  0.30493201  0.20856864  0.99419570  1
  I  I32  1  0.20171629  0.73716503  0.99400405  1
  I  I33  1  0.83099185  0.31827036  0.98988281  1
  I  I34  1  0.34283036  0.81156772  0.48995766  1
  I  I35  1  0.71319771  0.23052982  0.49505436  1
  I  I36  1  0.81544502  0.70043891  0.49144012  1
  I  I37  1  0.23498379  0.32902042  0.49474476  1
  I  I38  1  0.52345201  0.52792148  0.25562401  1
  I  I39  1  0.53068424  0.52130158  0.72903211  1
  I  I40  1  0.00721510  0.02504314  0.75662249  1
  I  I41  1  0.01885006  0.00941803  0.22974763  1
  N  N42  1  0.92563769  0.60726264  0.19519053  1
  N  N43  1  0.42846660  0.93334197  0.19845991  1
  N  N44  1  0.93514847  0.42712942  0.69780240  1
  N  N45  1  0.60706238  0.92631661  0.69603092  1
