# generated using pymatgen
data_Fe2NiSe4
_symmetry_space_group_name_H-M   'P 1'
_cell_length_a   3.75247632
_cell_length_b   6.00707704
_cell_length_c   5.92342252
_cell_angle_alpha   116.46125388
_cell_angle_beta   103.86546216
_cell_angle_gamma   88.52128712
_symmetry_Int_Tables_number   1
_chemical_formula_structural   Fe2NiSe4
_chemical_formula_sum   'Fe2 Ni1 Se4'
_cell_volume   115.54610622
_cell_formula_units_Z   1
loop_
 _symmetry_equiv_pos_site_id
 _symmetry_equiv_pos_as_xyz
  1  'x, y, z'
loop_
 _atom_site_type_symbol
 _atom_site_label
 _atom_site_symmetry_multiplicity
 _atom_site_fract_x
 _atom_site_fract_y
 _atom_site_fract_z
 _atom_site_occupancy
  Fe  Fe0  1  0.50432548  0.50308753  0.00650949  1
  Fe  Fe1  1  0.85920537  0.80789325  0.53906791  1
  Ni  Ni2  1  0.13699603  0.18928119  0.45243192  1
  Se  Se3  1  0.09810652  0.46133257  0.24691776  1
  Se  Se4  1  0.42321903  0.04918533  0.76562077  1
  Se  Se5  1  0.57007230  0.94707157  0.23272080  1
  Se  Se6  1  0.90807527  0.54214857  0.75673134  1
