# generated using pymatgen
data_K2NaNb(OF2)2
_symmetry_space_group_name_H-M   'P 1'
_cell_length_a   6.08954294
_cell_length_b   12.21156274
_cell_length_c   10.58488221
_cell_angle_alpha   29.91206281
_cell_angle_beta   54.87895079
_cell_angle_gamma   60.08793172
_symmetry_Int_Tables_number   1
_chemical_formula_structural   K2NaNb(OF2)2
_chemical_formula_sum   'K4 Na2 Nb2 O4 F8'
_cell_volume   321.05248133
_cell_formula_units_Z   2
loop_
 _symmetry_equiv_pos_site_id
 _symmetry_equiv_pos_as_xyz
  1  'x, y, z'
loop_
 _atom_site_type_symbol
 _atom_site_label
 _atom_site_symmetry_multiplicity
 _atom_site_fract_x
 _atom_site_fract_y
 _atom_site_fract_z
 _atom_site_occupancy
  K  K0  1  0.25000000  0.50000000  0.25000000  1
  K  K1  1  0.75000000  -0.00000000  0.75000000  1
  K  K2  1  0.25000000  0.00000000  0.25000000  1
  K  K3  1  0.75000000  0.50000000  0.75000000  1
  Na  Na4  1  0.50000000  0.50000000  0.50000000  1
  Na  Na5  1  0.50000000  0.00000000  0.50000000  1
  Nb  Nb6  1  0.00000000  0.00000000  -0.00000000  1
  Nb  Nb7  1  0.00000000  0.50000000  -0.00000000  1
  O  O8  1  0.22064929  0.77935071  0.22064929  1
  O  O9  1  0.77935071  0.27935071  0.22064929  1
  O  O10  1  0.22064929  0.72064929  0.77935071  1
  O  O11  1  0.77935071  0.22064929  0.77935071  1
  F  F12  1  0.23682309  0.26317691  0.23682309  1
  F  F13  1  0.76472373  -0.00000000  0.23527627  1
  F  F14  1  0.23527627  0.00000000  0.76472373  1
  F  F15  1  0.23682309  0.23682309  0.76317691  1
  F  F16  1  0.76472373  0.50000000  0.23527627  1
  F  F17  1  0.23527627  0.50000000  0.76472373  1
  F  F18  1  0.76317691  0.76317691  0.23682309  1
  F  F19  1  0.76317691  0.73682309  0.76317691  1
