# generated using pymatgen
data_NaV3F7
_symmetry_space_group_name_H-M   'P 1'
_cell_length_a   7.39309870
_cell_length_b   7.43169595
_cell_length_c   7.43169623
_cell_angle_alpha   60.73845294
_cell_angle_beta   61.13550535
_cell_angle_gamma   61.13551118
_symmetry_Int_Tables_number   1
_chemical_formula_structural   NaV3F7
_chemical_formula_sum   'Na2 V6 F14'
_cell_volume   295.24177297
_cell_formula_units_Z   2
loop_
 _symmetry_equiv_pos_site_id
 _symmetry_equiv_pos_as_xyz
  1  'x, y, z'
loop_
 _atom_site_type_symbol
 _atom_site_label
 _atom_site_symmetry_multiplicity
 _atom_site_fract_x
 _atom_site_fract_y
 _atom_site_fract_z
 _atom_site_occupancy
  Na  Na0  1  -0.00000000  0.50000000  0.50000000  1
  Na  Na1  1  0.50000000  0.50000000  0.50000000  1
  V  V2  1  0.50000000  0.00000000  0.50000000  1
  V  V3  1  -0.00000000  0.50000000  -0.00000000  1
  V  V4  1  0.50000000  0.00000000  -0.00000000  1
  V  V5  1  -0.00000000  0.00000000  -0.00000000  1
  V  V6  1  0.50000000  0.50000000  -0.00000000  1
  V  V7  1  -0.00000000  0.00000000  0.50000000  1
  F  F8  1  0.25000000  0.87646061  0.12353939  1
  F  F9  1  0.75000000  0.12353939  0.87646061  1
  F  F10  1  0.10477411  0.66456424  0.65147686  1
  F  F11  1  0.39522589  0.34852314  0.33543576  1
  F  F12  1  0.89522589  0.33543576  0.34852314  1
  F  F13  1  0.60477411  0.65147686  0.66456424  1
  F  F14  1  0.16477709  0.02267911  0.66212005  1
  F  F15  1  0.33522291  0.33787995  0.97732089  1
  F  F16  1  0.94751973  0.33056246  0.88357110  1
  F  F17  1  0.55248027  0.11642890  0.66943754  1
  F  F18  1  0.05248027  0.66943754  0.11642890  1
  F  F19  1  0.44751973  0.88357110  0.33056246  1
  F  F20  1  0.66477709  0.66212005  0.02267911  1
  F  F21  1  0.83522291  0.97732089  0.33787995  1
