# generated using pymatgen
data_Cu2BiTeSO10
_symmetry_space_group_name_H-M   'P 1'
_cell_length_a   6.10579958
_cell_length_b   9.65374846
_cell_length_c   14.34140204
_cell_angle_alpha   102.39645728
_cell_angle_beta   90.00000000
_cell_angle_gamma   90.00000000
_symmetry_Int_Tables_number   1
_chemical_formula_structural   Cu2BiTeSO10
_chemical_formula_sum   'Cu8 Bi4 Te4 S4 O40'
_cell_volume   825.62892247
_cell_formula_units_Z   4
loop_
 _symmetry_equiv_pos_site_id
 _symmetry_equiv_pos_as_xyz
  1  'x, y, z'
loop_
 _atom_site_type_symbol
 _atom_site_label
 _atom_site_symmetry_multiplicity
 _atom_site_fract_x
 _atom_site_fract_y
 _atom_site_fract_z
 _atom_site_occupancy
  Cu  Cu0  1  0.60798333  0.24599421  0.24279111  1
  Cu  Cu1  1  0.89201667  0.74599421  0.74279111  1
  Cu  Cu2  1  0.39201667  0.75400579  0.75720889  1
  Cu  Cu3  1  0.10798333  0.25400579  0.25720889  1
  Cu  Cu4  1  0.48471098  0.34655973  0.46037851  1
  Cu  Cu5  1  0.01528902  0.84655973  0.96037851  1
  Cu  Cu6  1  0.51528902  0.65344027  0.53962149  1
  Cu  Cu7  1  0.98471098  0.15344027  0.03962149  1
  Bi  Bi8  1  0.39463891  0.02084742  0.37556463  1
  Bi  Bi9  1  0.10536109  0.52084742  0.87556463  1
  Bi  Bi10  1  0.60536109  0.97915258  0.62443537  1
  Bi  Bi11  1  0.89463891  0.47915258  0.12443537  1
  Te  Te12  1  0.87711287  0.92273771  0.19253004  1
  Te  Te13  1  0.62288713  0.42273771  0.69253004  1
  Te  Te14  1  0.12288713  0.07726229  0.80746996  1
  Te  Te15  1  0.37711287  0.57726229  0.30746996  1
  S  S16  1  0.87950883  0.79031686  0.41618165  1
  S  S17  1  0.62049117  0.29031686  0.91618165  1
  S  S18  1  0.12049117  0.20968314  0.58381835  1
  S  S19  1  0.37950883  0.70968314  0.08381835  1
  O  O20  1  0.79898678  0.64800893  0.41821692  1
  O  O21  1  0.70101322  0.14800893  0.91821692  1
  O  O22  1  0.20101322  0.35199107  0.58178308  1
  O  O23  1  0.29898678  0.85199107  0.08178308  1
  O  O24  1  0.72883888  0.85892405  0.35400439  1
  O  O25  1  0.77116112  0.35892405  0.85400439  1
  O  O26  1  0.27116112  0.14107595  0.64599561  1
  O  O27  1  0.22883888  0.64107595  0.14599561  1
  O  O28  1  0.10882991  0.11818717  0.48580599  1
  O  O29  1  0.39117009  0.61818717  0.98580599  1
  O  O30  1  0.89117009  0.88181283  0.51419401  1
  O  O31  1  0.60882991  0.38181283  0.01419401  1
  O  O32  1  0.09971820  0.78397958  0.36903445  1
  O  O33  1  0.40028180  0.28397958  0.86903445  1
  O  O34  1  0.90028180  0.21602042  0.63096555  1
  O  O35  1  0.59971820  0.71602042  0.13096555  1
  O  O36  1  0.09544697  0.05316056  0.25780581  1
  O  O37  1  0.40455303  0.55316056  0.75780581  1
  O  O38  1  0.90455303  0.94683944  0.74219419  1
  O  O39  1  0.59544697  0.44683944  0.24219419  1
  O  O40  1  0.62672319  0.03915629  0.23577071  1
  O  O41  1  0.87327681  0.53915629  0.73577071  1
  O  O42  1  0.37327681  0.96084371  0.76422929  1
  O  O43  1  0.12672319  0.46084371  0.26422929  1
  O  O44  1  0.88044818  0.97510515  0.06706210  1
  O  O45  1  0.61955182  0.47510515  0.56706210  1
  O  O46  1  0.11955182  0.02489485  0.93293790  1
  O  O47  1  0.38044818  0.52489485  0.43293790  1
  O  O48  1  0.34807365  0.21969890  0.17417739  1
  O  O49  1  0.15192635  0.71969890  0.67417739  1
  O  O50  1  0.65192635  0.78030110  0.82582261  1
  O  O51  1  0.84807365  0.28030110  0.32582261  1
  O  O52  1  0.37544426  0.24578301  0.34902136  1
  O  O53  1  0.12455574  0.74578301  0.84902136  1
  O  O54  1  0.62455574  0.75421699  0.65097864  1
  O  O55  1  0.87544426  0.25421699  0.15097864  1
  O  O56  1  0.58208647  0.17490607  0.48037745  1
  O  O57  1  0.91791353  0.67490607  0.98037745  1
  O  O58  1  0.41791353  0.82509393  0.51962255  1
  O  O59  1  0.08208647  0.32509393  0.01962255  1
