# generated using pymatgen
data_Li3MnCoO5
_symmetry_space_group_name_H-M   'P 1'
_cell_length_a   2.91996712
_cell_length_b   7.81370297
_cell_length_c   8.24929979
_cell_angle_alpha   74.72207327
_cell_angle_beta   90.00000000
_cell_angle_gamma   100.76895952
_symmetry_Int_Tables_number   1
_chemical_formula_structural   Li3MnCoO5
_chemical_formula_sum   'Li6 Mn2 Co2 O10'
_cell_volume   178.12389274
_cell_formula_units_Z   2
loop_
 _symmetry_equiv_pos_site_id
 _symmetry_equiv_pos_as_xyz
  1  'x, y, z'
loop_
 _atom_site_type_symbol
 _atom_site_label
 _atom_site_symmetry_multiplicity
 _atom_site_fract_x
 _atom_site_fract_y
 _atom_site_fract_z
 _atom_site_occupancy
  Li  Li0  1  0.59399272  0.18798545  0.70064400  1
  Li  Li1  1  0.40000000  0.80000000  0.30000000  1
  Li  Li2  1  0.20600728  0.41201455  0.89935600  1
  Li  Li3  1  -0.00033000  -0.00065999  0.51242236  1
  Li  Li4  1  0.80033000  0.60065999  0.08757764  1
  Li  Li5  1  0.40000000  0.80000000  0.80000000  1
  Mn  Mn6  1  0.99792059  0.99584118  0.99166002  1
  Mn  Mn7  1  0.80207941  0.60415882  0.60833998  1
  Co  Co8  1  0.59843604  0.19687208  0.20314289  1
  Co  Co9  1  0.20156396  0.40312792  0.39685711  1
  O  O10  1  0.41182679  0.82365358  0.04583508  1
  O  O11  1  0.21181128  0.42362255  0.63763262  1
  O  O12  1  0.00597801  0.01195602  0.23609776  1
  O  O13  1  0.79730333  0.59460667  0.83176235  1
  O  O14  1  0.60482398  0.20964796  0.44221943  1
  O  O15  1  0.79402199  0.58804398  0.36390224  1
  O  O16  1  0.58818872  0.17637745  0.96236738  1
  O  O17  1  0.38817321  0.77634642  0.55416492  1
  O  O18  1  0.19517602  0.39035204  0.15778057  1
  O  O19  1  0.00269667  0.00539333  0.76823765  1
