# generated using pymatgen
data_Li2MnCoO4
_symmetry_space_group_name_H-M   'P 1'
_cell_length_a   3.01411544
_cell_length_b   6.59115667
_cell_length_c   7.84953002
_cell_angle_alpha   93.92106187
_cell_angle_beta   78.93086747
_cell_angle_gamma   103.21752004
_symmetry_Int_Tables_number   1
_chemical_formula_structural   Li2MnCoO4
_chemical_formula_sum   'Li4 Mn2 Co2 O8'
_cell_volume   148.93847416
_cell_formula_units_Z   2
loop_
 _symmetry_equiv_pos_site_id
 _symmetry_equiv_pos_as_xyz
  1  'x, y, z'
loop_
 _atom_site_type_symbol
 _atom_site_label
 _atom_site_symmetry_multiplicity
 _atom_site_fract_x
 _atom_site_fract_y
 _atom_site_fract_z
 _atom_site_occupancy
  Li  Li0  1  0.12500000  0.87500000  0.62500000  1
  Li  Li1  1  0.37342057  0.62776179  0.88092066  1
  Li  Li2  1  0.62500000  0.37500000  0.12500000  1
  Li  Li3  1  0.87657943  0.12223821  0.36907934  1
  Mn  Mn4  1  0.50119225  0.49906370  0.49667920  1
  Mn  Mn5  1  0.74880775  0.25093630  0.75332080  1
  Co  Co6  1  0.99697809  0.00003313  0.00607696  1
  Co  Co7  1  0.25302191  0.74996687  0.24392304  1
  O  O8  1  0.19118051  0.30740272  0.92504170  1
  O  O9  1  0.43841824  0.05326672  0.17643023  1
  O  O10  1  0.67813917  0.78849236  0.43221403  1
  O  O11  1  0.93163170  0.54400609  0.68074269  1
  O  O12  1  0.05881949  0.44259728  0.32495830  1
  O  O13  1  0.31836830  0.20599391  0.56925731  1
  O  O14  1  0.57186083  0.96150764  0.81778597  1
  O  O15  1  0.81158176  0.69673328  0.07356977  1
