# generated using pymatgen
data_Sr18Fe18O47
_symmetry_space_group_name_H-M   'P 1'
_cell_length_a   5.63472749
_cell_length_b   5.63048782
_cell_length_c   50.37670328
_cell_angle_alpha   60.17223018
_cell_angle_beta   59.98333864
_cell_angle_gamma   59.69005478
_symmetry_Int_Tables_number   1
_chemical_formula_structural   Sr18Fe18O47
_chemical_formula_sum   'Sr18 Fe18 O47'
_cell_volume   1128.78416243
_cell_formula_units_Z   1
loop_
 _symmetry_equiv_pos_site_id
 _symmetry_equiv_pos_as_xyz
  1  'x, y, z'
loop_
 _atom_site_type_symbol
 _atom_site_label
 _atom_site_symmetry_multiplicity
 _atom_site_fract_x
 _atom_site_fract_y
 _atom_site_fract_z
 _atom_site_occupancy
  Sr  Sr0  1  0.25000255  0.24999942  0.02777694  1
  Sr  Sr1  1  0.25364184  0.25731410  0.13589458  1
  Sr  Sr2  1  0.73540252  0.74817461  0.08503919  1
  Sr  Sr3  1  0.25240112  0.25173205  0.24955409  1
  Sr  Sr4  1  0.75958497  0.75552422  0.19173356  1
  Sr  Sr5  1  0.24387765  0.24367193  0.36210477  1
  Sr  Sr6  1  0.23739211  0.23698281  0.47659602  1
  Sr  Sr7  1  0.74842134  0.74794587  0.30597477  1
  Sr  Sr8  1  0.74111396  0.74093564  0.41977445  1
  Sr  Sr9  1  0.26261488  0.26302176  0.57895846  1
  Sr  Sr10  1  0.75000222  0.75000529  0.52777702  1
  Sr  Sr11  1  0.25611782  0.25633136  0.69344989  1
  Sr  Sr12  1  0.75887233  0.75907263  0.63578115  1
  Sr  Sr13  1  0.24760270  0.24826859  0.80600103  1
  Sr  Sr14  1  0.24635373  0.24268156  0.91966284  1
  Sr  Sr15  1  0.75157548  0.75205808  0.74958105  1
  Sr  Sr16  1  0.74041930  0.74447676  0.86382188  1
  Sr  Sr17  1  0.76459499  0.75181835  0.97051665  1
  Fe  Fe18  1  0.97532558  0.01875051  0.99796453  1
  Fe  Fe19  1  0.52469059  0.48123886  0.05759392  1
  Fe  Fe20  1  0.00556093  0.00055270  0.11053400  1
  Fe  Fe21  1  0.52728347  0.52231046  0.16385451  1
  Fe  Fe22  1  0.97890577  0.97878416  0.33590876  1
  Fe  Fe23  1  0.98147774  0.98060348  0.22402681  1
  Fe  Fe24  1  0.52175172  0.52052833  0.27524041  1
  Fe  Fe25  1  0.51927384  0.51900231  0.38726246  1
  Fe  Fe26  1  0.97644052  0.97623634  0.44733578  1
  Fe  Fe27  1  0.98071837  0.98098926  0.66829459  1
  Fe  Fe28  1  0.99964298  -0.00008815  0.55544290  1
  Fe  Fe29  1  0.50036423  0.50009661  0.50011182  1
  Fe  Fe30  1  0.52355303  0.52376757  0.60821988  1
  Fe  Fe31  1  0.52108019  0.52121440  0.71964772  1
  Fe  Fe32  1  0.97825790  0.97946700  0.78031414  1
  Fe  Fe33  1  0.51851856  0.51937868  0.83152746  1
  Fe  Fe34  1  0.97273018  0.97768831  0.89170265  1
  Fe  Fe35  1  0.49444899  0.49943419  0.94502150  1
  O  O36  1  0.23873644  0.27019681  0.08231257  1
  O  O37  1  0.23523244  0.77495235  0.07803821  1
  O  O38  1  0.75000189  0.24999102  0.02777849  1
  O  O39  1  0.73981755  0.26013889  0.08569573  1
  O  O40  1  0.75000524  0.74998935  0.02777851  1
  O  O41  1  0.24767343  0.72923175  0.13982072  1
  O  O42  1  0.71284185  0.22178535  0.14461394  1
  O  O43  1  0.25071679  0.75002877  0.19407203  1
  O  O44  1  0.75331683  0.25893155  0.19486024  1
  O  O45  1  0.77045511  0.74287617  0.13634330  1
  O  O46  1  0.24942704  0.74712867  0.24997936  1
  O  O47  1  0.24902552  0.74977406  0.30536832  1
  O  O48  1  0.74957199  0.24427308  0.25080343  1
  O  O49  1  0.75176917  0.25116388  0.30540848  1
  O  O50  1  0.74970544  0.75187961  0.24989656  1
  O  O51  1  0.25594415  0.75397720  0.36016047  1
  O  O52  1  0.24529728  0.75203531  0.41621779  1
  O  O53  1  0.75339866  0.25557883  0.36031583  1
  O  O54  1  0.75207907  0.24575079  0.41622514  1
  O  O55  1  0.74912938  0.74996556  0.36093563  1
  O  O56  1  0.24999801  0.25000645  0.52777733  1
  O  O57  1  0.26899380  0.78092837  0.46823949  1
  O  O58  1  0.25000523  0.74999927  0.52777774  1
  O  O59  1  0.78107999  0.26961089  0.46818376  1
  O  O60  1  0.75000390  0.24999919  0.52777705  1
  O  O61  1  0.23099700  0.71909123  0.58731582  1
  O  O62  1  0.74479499  0.74512908  0.47440529  1
  O  O63  1  0.71890969  0.23040362  0.58737074  1
  O  O64  1  0.25469393  0.74795939  0.63933847  1
  O  O65  1  0.74792483  0.25424697  0.63932956  1
  O  O66  1  0.75519902  0.75487768  0.58114972  1
  O  O67  1  0.24405046  0.74602420  0.69539482  1
  O  O68  1  0.74658972  0.24442701  0.69523976  1
  O  O69  1  0.25096306  0.75023209  0.75018665  1
  O  O70  1  0.75086209  0.75003258  0.69462067  1
  O  O71  1  0.74823203  0.24884127  0.75014719  1
  O  O72  1  0.25058185  0.75288716  0.80557431  1
  O  O73  1  0.24929249  0.74996272  0.86148262  1
  O  O74  1  0.75042681  0.25572895  0.80475197  1
  O  O75  1  0.74668875  0.24106942  0.86069398  1
  O  O76  1  0.75029461  0.74812587  0.80565995  1
  O  O77  1  0.26125245  0.22980488  0.97324411  1
  O  O78  1  0.25232741  0.77075888  0.91573555  1
  O  O79  1  0.78717577  0.27822109  0.91093940  1
  O  O80  1  0.26477413  0.72505168  0.97751675  1
  O  O81  1  0.76019358  0.23984596  0.96986214  1
  O  O82  1  0.72953302  0.75711504  0.91921322  1
