# generated using pymatgen
data_Li5Co3O8
_symmetry_space_group_name_H-M   'P 1'
_cell_length_a   2.93648355
_cell_length_b   8.07851933
_cell_length_c   5.93416448
_cell_angle_alpha   89.17217013
_cell_angle_beta   90.00000000
_cell_angle_gamma   90.00000000
_symmetry_Int_Tables_number   1
_chemical_formula_structural   Li5Co3O8
_chemical_formula_sum   'Li5 Co3 O8'
_cell_volume   140.75816243
_cell_formula_units_Z   1
loop_
 _symmetry_equiv_pos_site_id
 _symmetry_equiv_pos_as_xyz
  1  'x, y, z'
loop_
 _atom_site_type_symbol
 _atom_site_label
 _atom_site_symmetry_multiplicity
 _atom_site_fract_x
 _atom_site_fract_y
 _atom_site_fract_z
 _atom_site_occupancy
  Li  Li0  1  -0.00000000  0.49064511  0.99200888  1
  Li  Li1  1  0.50000000  0.75000000  0.75000000  1
  Li  Li2  1  -0.00000000  0.00935489  0.50799112  1
  Li  Li3  1  0.50000000  0.25000000  0.25000000  1
  Li  Li4  1  0.50000000  0.25000000  0.75000000  1
  Co  Co5  1  -0.00000000  0.01372348  0.99297960  1
  Co  Co6  1  -0.00000000  0.48627652  0.50702040  1
  Co  Co7  1  0.50000000  0.75000000  0.25000000  1
  O  O8  1  -0.00000000  0.72883013  0.48531778  1
  O  O9  1  0.50000000  0.99524401  0.23920741  1
  O  O10  1  -0.00000000  0.22743562  0.00116082  1
  O  O11  1  0.50000000  0.50169481  0.73167900  1
  O  O12  1  -0.00000000  0.27256438  0.49883918  1
  O  O13  1  0.50000000  0.50475599  0.26079259  1
  O  O14  1  -0.00000000  0.77116987  0.01468222  1
  O  O15  1  0.50000000  0.99830519  0.76832100  1
