# generated using pymatgen
data_Li3Co2O5
_symmetry_space_group_name_H-M   'P 1'
_cell_length_a   2.93711433
_cell_length_b   5.92957469
_cell_length_c   10.42214355
_cell_angle_alpha   97.16256394
_cell_angle_beta   97.04897747
_cell_angle_gamma   93.13325050
_symmetry_Int_Tables_number   1
_chemical_formula_structural   Li3Co2O5
_chemical_formula_sum   'Li6 Co4 O10'
_cell_volume   178.28105692
_cell_formula_units_Z   2
loop_
 _symmetry_equiv_pos_site_id
 _symmetry_equiv_pos_as_xyz
  1  'x, y, z'
loop_
 _atom_site_type_symbol
 _atom_site_label
 _atom_site_symmetry_multiplicity
 _atom_site_fract_x
 _atom_site_fract_y
 _atom_site_fract_z
 _atom_site_occupancy
  Li  Li0  1  0.00432602  0.50822876  0.00694514  1
  Li  Li1  1  0.60000000  0.30000000  0.20000000  1
  Li  Li2  1  0.40307776  0.70217961  0.80399760  1
  Li  Li3  1  0.79692224  0.89782039  0.59600240  1
  Li  Li4  1  0.19567398  0.09177124  0.39305486  1
  Li  Li5  1  0.60000000  0.80000000  0.20000000  1
  Co  Co6  1  0.00598153  0.99580725  0.01168950  1
  Co  Co7  1  0.19401847  0.60419275  0.38831050  1
  Co  Co8  1  0.79281357  0.39728458  0.59583256  1
  Co  Co9  1  0.40718643  0.20271542  0.80416744  1
  O  O10  1  0.47527394  0.23196794  0.99857825  1
  O  O11  1  0.09032819  0.04699268  0.18227720  1
  O  O12  1  0.89023831  0.43402242  0.79649378  1
  O  O13  1  0.28215912  0.63144195  0.58592562  1
  O  O14  1  0.67019785  0.83038722  0.40034362  1
  O  O15  1  0.52980215  0.76961278  0.99965638  1
  O  O16  1  0.10967181  0.55300732  0.21772280  1
  O  O17  1  0.91784088  0.96855805  0.81407438  1
  O  O18  1  0.30976169  0.16597758  0.60350622  1
  O  O19  1  0.72472606  0.36803206  0.40142175  1
