# generated using pymatgen
data_Nb6(Pb2O5)5
_symmetry_space_group_name_H-M   'P 1'
_cell_length_a   7.73427589
_cell_length_b   15.51175602
_cell_length_c   13.47647196
_cell_angle_alpha   29.68156697
_cell_angle_beta   55.31422450
_cell_angle_gamma   60.36931171
_symmetry_Int_Tables_number   1
_chemical_formula_structural   Nb6(Pb2O5)5
_chemical_formula_sum   'Nb6 Pb10 O25'
_cell_volume   658.32716040
_cell_formula_units_Z   1
loop_
 _symmetry_equiv_pos_site_id
 _symmetry_equiv_pos_as_xyz
  1  'x, y, z'
loop_
 _atom_site_type_symbol
 _atom_site_label
 _atom_site_symmetry_multiplicity
 _atom_site_fract_x
 _atom_site_fract_y
 _atom_site_fract_z
 _atom_site_occupancy
  Nb  Nb0  1  0.99164036  0.25174664  0.00736173  1
  Nb  Nb1  1  0.48769070  -0.00000000  0.01369794  1
  Nb  Nb2  1  0.97939699  0.75567577  0.00407029  1
  Nb  Nb3  1  0.48347105  0.50000000  0.01111087  1
  Nb  Nb4  1  0.99164036  0.74825336  0.51085500  1
  Nb  Nb5  1  0.97939699  0.24432423  0.51542182  1
  Pb  Pb6  1  0.00596889  -0.00000000  0.00157699  1
  Pb  Pb7  1  0.00373943  0.50000000  0.00552566  1
  Pb  Pb8  1  0.51246679  0.25734801  0.99821575  1
  Pb  Pb9  1  0.46164435  -0.00000000  0.52651734  1
  Pb  Pb10  1  0.50013944  0.76539776  0.98137148  1
  Pb  Pb11  1  0.50013944  0.23460224  0.51216700  1
  Pb  Pb12  1  0.98029892  -0.00000000  0.51296456  1
  Pb  Pb13  1  0.47579262  0.50000000  0.51373285  1
  Pb  Pb14  1  0.51246679  0.74265199  0.51291177  1
  Pb  Pb15  1  0.99558470  0.50000000  0.51114098  1
  O  O16  1  0.11093469  0.26726641  0.08290070  1
  O  O17  1  0.66364832  -0.00000000  0.07471667  1
  O  O18  1  0.09538980  -0.00000000  0.69284804  1
  O  O19  1  0.29618404  0.30911525  0.29828980  1
  O  O20  1  0.08167792  0.20986847  0.65577485  1
  O  O21  1  0.08167792  0.79013153  0.07551178  1
  O  O22  1  0.70772792  0.30901064  0.07661206  1
  O  O23  1  0.36101746  -0.00000000  0.90772687  1
  O  O24  1  0.62735621  0.50000000  0.09061129  1
  O  O25  1  0.07622510  0.50000000  0.68746024  1
  O  O26  1  0.11093469  0.73273359  0.61743352  1
  O  O27  1  0.31433126  0.19305611  0.91562903  1
  O  O28  1  0.31433126  0.80694389  0.30174126  1
  O  O29  1  0.69448384  0.80974602  0.07616410  1
  O  O30  1  0.88557520  0.23930588  0.40694806  1
  O  O31  1  0.69448384  0.19025398  0.69565613  1
  O  O32  1  0.94409918  0.50000000  0.28948351  1
  O  O33  1  0.62144748  0.50000000  0.62014690  1
  O  O34  1  0.41148935  0.50000000  0.88663648  1
  O  O35  1  0.29618404  0.69088475  0.91652030  1
  O  O36  1  0.92218411  0.22397321  0.90178491  1
  O  O37  1  0.92218411  0.77602679  0.34973134  1
  O  O38  1  0.70772792  0.69098936  0.69463335  1
  O  O39  1  0.93665132  -0.00000000  0.28583697  1
  O  O40  1  0.88557520  0.76069412  0.88555981  1
