# generated using pymatgen
data_Li3Co2O5
_symmetry_space_group_name_H-M   'P 1'
_cell_length_a   5.04625016
_cell_length_b   5.10061028
_cell_length_c   7.68498391
_cell_angle_alpha   82.66033273
_cell_angle_beta   107.04989139
_cell_angle_gamma   108.82238655
_symmetry_Int_Tables_number   1
_chemical_formula_structural   Li3Co2O5
_chemical_formula_sum   'Li6 Co4 O10'
_cell_volume   178.87680865
_cell_formula_units_Z   2
loop_
 _symmetry_equiv_pos_site_id
 _symmetry_equiv_pos_as_xyz
  1  'x, y, z'
loop_
 _atom_site_type_symbol
 _atom_site_label
 _atom_site_symmetry_multiplicity
 _atom_site_fract_x
 _atom_site_fract_y
 _atom_site_fract_z
 _atom_site_occupancy
  Li  Li0  1  0.10000000  0.50000000  0.20000000  1
  Li  Li1  1  0.69615217  0.50012812  0.39654528  1
  Li  Li2  1  0.30156602  0.50104858  0.59921092  1
  Li  Li3  1  0.89843398  0.49895142  0.80078908  1
  Li  Li4  1  0.50384783  0.49987188  0.00345472  1
  Li  Li5  1  0.60000000  -0.00000000  0.20000000  1
  Co  Co6  1  -0.00301014  0.00217501  0.00432025  1
  Co  Co7  1  0.20301014  -0.00217501  0.39567975  1
  Co  Co8  1  0.79491220  0.00180831  0.59536597  1
  Co  Co9  1  0.40508780  -0.00180831  0.80463403  1
  O  O10  1  0.76035571  0.22089105  0.99349570  1
  O  O11  1  0.32844817  0.23250462  0.20941286  1
  O  O12  1  0.96408291  0.22168155  0.41144897  1
  O  O13  1  0.54235558  0.23502077  0.60400237  1
  O  O14  1  0.13938823  0.22662999  0.81038443  1
  O  O15  1  0.43964429  0.77910895  0.40650430  1
  O  O16  1  0.06061177  0.77337001  0.58961557  1
  O  O17  1  0.65764442  0.76497923  0.79599763  1
  O  O18  1  0.23591709  0.77831845  0.98855103  1
  O  O19  1  0.87155183  0.76749538  0.19058714  1
