# generated using pymatgen
data_Li3Mn(CoO3)2
_symmetry_space_group_name_H-M   'P 1'
_cell_length_a   2.91241058
_cell_length_b   14.62016620
_cell_length_c   2.99767870
_cell_angle_alpha   92.03110901
_cell_angle_beta   119.06343393
_cell_angle_gamma   89.99999968
_symmetry_Int_Tables_number   1
_chemical_formula_structural   Li3Mn(CoO3)2
_chemical_formula_sum   'Li3 Mn1 Co2 O6'
_cell_volume   111.47694741
_cell_formula_units_Z   1
loop_
 _symmetry_equiv_pos_site_id
 _symmetry_equiv_pos_as_xyz
  1  'x, y, z'
loop_
 _atom_site_type_symbol
 _atom_site_label
 _atom_site_symmetry_multiplicity
 _atom_site_fract_x
 _atom_site_fract_y
 _atom_site_fract_z
 _atom_site_occupancy
  Li  Li0  1  0.33333300  0.16666700  0.66666700  1
  Li  Li1  1  0.00376356  0.49802246  0.00752712  1
  Li  Li2  1  0.66290344  0.83531054  0.32580588  1
  Mn  Mn3  1  0.33333300  0.66666700  0.66666700  1
  Co  Co4  1  0.00043054  0.00100087  0.00086108  1
  Co  Co5  1  0.66623646  0.33233213  0.33247192  1
  O  O6  1  0.66818961  0.07625803  0.33638022  1
  O  O7  1  0.33456416  0.40753061  0.66912833  1
  O  O8  1  0.97100572  0.74546689  0.94201044  1
  O  O9  1  -0.00152361  0.25707597  -0.00304622  1
  O  O10  1  0.69566128  0.58786611  0.39132256  1
  O  O11  1  0.33210284  0.92580239  0.66420467  1
