# generated using pymatgen
data_Li5Mn(CoO4)2
_symmetry_space_group_name_H-M   'P 1'
_cell_length_a   2.93961215
_cell_length_b   8.10938105
_cell_length_c   5.92615005
_cell_angle_alpha   89.42707720
_cell_angle_beta   90.00000000
_cell_angle_gamma   90.00000000
_symmetry_Int_Tables_number   1
_chemical_formula_structural   Li5Mn(CoO4)2
_chemical_formula_sum   'Li5 Mn1 Co2 O8'
_cell_volume   141.26308052
_cell_formula_units_Z   1
loop_
 _symmetry_equiv_pos_site_id
 _symmetry_equiv_pos_as_xyz
  1  'x, y, z'
loop_
 _atom_site_type_symbol
 _atom_site_label
 _atom_site_symmetry_multiplicity
 _atom_site_fract_x
 _atom_site_fract_y
 _atom_site_fract_z
 _atom_site_occupancy
  Li  Li0  1  -0.00000000  0.48669666  0.99242533  1
  Li  Li1  1  0.50000000  0.74531456  0.75095226  1
  Li  Li2  1  -0.00000000  0.00950895  0.50740882  1
  Li  Li3  1  0.50000000  0.25795692  0.23720616  1
  Li  Li4  1  0.50000000  0.25637997  0.76292080  1
  Mn  Mn5  1  -0.00000000  0.00901188  0.99603837  1
  Co  Co6  1  0.00000000  0.48999311  0.51288057  1
  Co  Co7  1  0.50000000  0.73869833  0.24519697  1
  O  O8  1  -0.00000000  0.72995646  0.48654243  1
  O  O9  1  0.50000000  0.99319866  0.22671279  1
  O  O10  1  -0.00000000  0.23315145  0.00206529  1
  O  O11  1  0.50000000  0.50245231  0.73213063  1
  O  O12  1  -0.00000000  0.27798953  0.49826266  1
  O  O13  1  0.50000000  0.50720503  0.25840683  1
  O  O14  1  -0.00000000  0.76298645  0.01298631  1
  O  O15  1  0.50000000  0.99949974  0.77786378  1
