# generated using pymatgen
data_Li4MnCo3O8
_symmetry_space_group_name_H-M   'P 1'
_cell_length_a   5.04769948
_cell_length_b   5.92695073
_cell_length_c   5.91650594
_cell_angle_alpha   120.05841424
_cell_angle_beta   106.09721155
_cell_angle_gamma   89.99999722
_symmetry_Int_Tables_number   1
_chemical_formula_structural   Li4MnCo3O8
_chemical_formula_sum   'Li4 Mn1 Co3 O8'
_cell_volume   145.12826066
_cell_formula_units_Z   1
loop_
 _symmetry_equiv_pos_site_id
 _symmetry_equiv_pos_as_xyz
  1  'x, y, z'
loop_
 _atom_site_type_symbol
 _atom_site_label
 _atom_site_symmetry_multiplicity
 _atom_site_fract_x
 _atom_site_fract_y
 _atom_site_fract_z
 _atom_site_occupancy
  Li  Li0  1  0.50000000  0.75000000  0.50000000  1
  Li  Li1  1  0.99629224  0.99919586  0.49839172  1
  Li  Li2  1  0.50000000  0.25000000  0.50000000  1
  Li  Li3  1  0.00370776  0.50080414  0.50160828  1
  Mn  Mn4  1  0.50000000  0.75000000  0.00000000  1
  Co  Co5  1  0.00000000  0.00300992  0.00000000  1
  Co  Co6  1  0.50000000  0.25000000  0.00000000  1
  Co  Co7  1  1.00000000  0.49699008  1.00000000  1
  O  O8  1  0.73582477  0.10129679  0.22863896  1
  O  O9  1  0.24943822  0.36399728  0.22799456  1
  O  O10  1  0.73582477  0.62734217  0.22863896  1
  O  O11  1  0.25897530  0.86477251  0.22954503  1
  O  O12  1  0.26417523  0.39870321  0.77136104  1
  O  O13  1  0.74102470  0.63522749  0.77045497  1
  O  O14  1  0.26417523  0.87265783  0.77136104  1
  O  O15  1  0.75056178  0.13600272  0.77200544  1
