# generated using pymatgen
data_Li7Co5O12
_symmetry_space_group_name_H-M   'P 1'
_cell_length_a   2.88973794
_cell_length_b   8.18853945
_cell_length_c   9.73519046
_cell_angle_alpha   114.71382385
_cell_angle_beta   90.00000000
_cell_angle_gamma   90.00000000
_symmetry_Int_Tables_number   1
_chemical_formula_structural   Li7Co5O12
_chemical_formula_sum   'Li7 Co5 O12'
_cell_volume   209.26181542
_cell_formula_units_Z   1
loop_
 _symmetry_equiv_pos_site_id
 _symmetry_equiv_pos_as_xyz
  1  'x, y, z'
loop_
 _atom_site_type_symbol
 _atom_site_label
 _atom_site_symmetry_multiplicity
 _atom_site_fract_x
 _atom_site_fract_y
 _atom_site_fract_z
 _atom_site_occupancy
  Li  Li0  1  0.00000000  0.84593125  0.66967461  1
  Li  Li1  1  0.00000000  0.48740175  0.99699239  1
  Li  Li2  1  0.00000000  0.16666700  0.33333300  1
  Li  Li3  1  0.50000000  0.33015569  0.16099575  1
  Li  Li4  1  0.50000000  0.00317731  0.50567125  1
  Li  Li5  1  0.50000000  0.66666700  0.83333300  1
  Li  Li6  1  0.50000000  0.16666700  0.83333300  1
  Co  Co7  1  0.00000000  0.00783961  0.99679513  1
  Co  Co8  1  0.00000000  0.32549339  0.66987187  1
  Co  Co9  1  0.00000000  0.66666700  0.33333300  1
  Co  Co10  1  0.50000000  0.50254927  0.50444113  1
  Co  Co11  1  0.50000000  0.83078373  0.16222587  1
  O  O12  1  0.00000000  0.22838371  0.00225816  1
  O  O13  1  0.00000000  0.90561674  0.32306022  1
  O  O14  1  0.00000000  0.56390545  0.65954199  1
  O  O15  1  0.50000000  0.74195533  0.49554054  1
  O  O16  1  0.50000000  0.40553429  0.81049439  1
  O  O17  1  0.50000000  0.06816783  0.14561310  1
  O  O18  1  -0.00000000  0.42771626  0.34360678  1
  O  O19  1  0.00000000  0.10495029  0.66440784  1
  O  O20  1  0.00000000  0.76942755  0.00712501  1
  O  O21  1  0.50000000  0.92779871  0.85617261  1
  O  O22  1  0.50000000  0.59137867  0.17112546  1
  O  O23  1  0.50000000  0.26516517  0.52105390  1
