# generated using pymatgen
data_Li4Co3O7
_symmetry_space_group_name_H-M   'P 1'
_cell_length_a   2.98049132
_cell_length_b   16.54346953
_cell_length_c   5.03139882
_cell_angle_alpha   90.22471876
_cell_angle_beta   91.32148254
_cell_angle_gamma   87.33410505
_symmetry_Int_Tables_number   1
_chemical_formula_structural   Li4Co3O7
_chemical_formula_sum   'Li8 Co6 O14'
_cell_volume   247.75112513
_cell_formula_units_Z   2
loop_
 _symmetry_equiv_pos_site_id
 _symmetry_equiv_pos_as_xyz
  1  'x, y, z'
loop_
 _atom_site_type_symbol
 _atom_site_label
 _atom_site_symmetry_multiplicity
 _atom_site_fract_x
 _atom_site_fract_y
 _atom_site_fract_z
 _atom_site_occupancy
  Li  Li0  1  0.92857100  0.14285700  0.35714300  1
  Li  Li1  1  0.36199954  0.28592741  0.21107916  1
  Li  Li2  1  0.78394073  0.42867790  0.07075824  1
  Li  Li3  1  0.21380025  0.57130554  0.92827715  1
  Li  Li4  1  0.64334275  0.71440946  0.78600785  1
  Li  Li5  1  0.07320227  0.85703610  0.64352776  1
  Li  Li6  1  0.49514346  -0.00021341  0.50320684  1
  Li  Li7  1  0.42857100  0.14285700  0.85714300  1
  Co  Co8  1  0.99211565  0.00578987  0.99608063  1
  Co  Co9  1  0.86502735  0.27992413  0.71820537  1
  Co  Co10  1  0.27618571  0.42794429  0.57574231  1
  Co  Co11  1  0.71052365  0.57079397  0.42771608  1
  Co  Co12  1  0.14661935  0.71492103  0.28656892  1
  Co  Co13  1  0.58095729  0.85776971  0.13854369  1
  O  O14  1  0.43326162  0.06547102  0.16874735  1
  O  O15  1  0.88952865  0.22333067  0.00674467  1
  O  O16  1  0.28810432  0.35665541  0.86894426  1
  O  O17  1  0.71221656  0.49956777  0.73106976  1
  O  O18  1  0.18187703  0.64381218  0.58820329  1
  O  O19  1  0.61946106  0.78762011  0.44204391  1
  O  O20  1  0.01617117  0.92848452  0.28593009  1
  O  O21  1  0.42388138  0.22024298  0.54553865  1
  O  O22  1  0.84097183  0.35722948  0.42835591  1
  O  O23  1  0.23768094  0.49809389  0.27224209  1
  O  O24  1  0.67526597  0.64190182  0.12608271  1
  O  O25  1  0.14492644  0.78614623  0.98321624  1
  O  O26  1  0.56903868  0.92905959  0.84534074  1
  O  O27  1  0.96761435  0.06238433  0.70754033  1
