# generated using pymatgen
data_Li5Mn(CoO4)2
_symmetry_space_group_name_H-M   'P 1'
_cell_length_a   2.90082399
_cell_length_b   4.96153010
_cell_length_c   9.74245455
_cell_angle_alpha   86.69425865
_cell_angle_beta   81.43822599
_cell_angle_gamma   89.99999913
_symmetry_Int_Tables_number   1
_chemical_formula_structural   Li5Mn(CoO4)2
_chemical_formula_sum   'Li5 Mn1 Co2 O8'
_cell_volume   138.41996920
_cell_formula_units_Z   1
loop_
 _symmetry_equiv_pos_site_id
 _symmetry_equiv_pos_as_xyz
  1  'x, y, z'
loop_
 _atom_site_type_symbol
 _atom_site_label
 _atom_site_symmetry_multiplicity
 _atom_site_fract_x
 _atom_site_fract_y
 _atom_site_fract_z
 _atom_site_occupancy
  Li  Li0  1  0.63490418  0.87771769  0.73019164  1
  Li  Li1  1  0.36165340  0.13420488  0.27669321  1
  Li  Li2  1  0.13772603  0.36815906  0.72454795  1
  Li  Li3  1  0.86602411  0.61990529  0.26795179  1
  Li  Li4  1  0.75009085  0.24965129  0.49981829  1
  Mn  Mn5  1  0.00019430  0.00119071  0.99961141  1
  Co  Co6  1  0.49957522  0.50054368  0.00084957  1
  Co  Co7  1  0.25015459  0.74925763  0.49969081  1
  O  O8  1  0.44472798  0.81759430  0.11054404  1
  O  O9  1  0.19172913  0.03171664  0.61654174  1
  O  O10  1  0.94667995  0.32031172  0.10664009  1
  O  O11  1  0.69585471  0.58038571  0.60829058  1
  O  O12  1  0.80436365  0.91824644  0.39127269  1
  O  O13  1  0.55601075  0.18803420  0.88797849  1
  O  O14  1  0.30818451  0.46546616  0.38363098  1
  O  O15  1  0.05212664  0.67761459  0.89574672  1
