# generated using pymatgen
data_Li7Co5O12
_symmetry_space_group_name_H-M   'P 1'
_cell_length_a   3.00217005
_cell_length_b   7.81282513
_cell_length_c   10.06890511
_cell_angle_alpha   68.13085294
_cell_angle_beta   90.80076505
_cell_angle_gamma   80.07030041
_symmetry_Int_Tables_number   1
_chemical_formula_structural   Li7Co5O12
_chemical_formula_sum   'Li7 Co5 O12'
_cell_volume   215.10017858
_cell_formula_units_Z   1
loop_
 _symmetry_equiv_pos_site_id
 _symmetry_equiv_pos_as_xyz
  1  'x, y, z'
loop_
 _atom_site_type_symbol
 _atom_site_label
 _atom_site_symmetry_multiplicity
 _atom_site_fract_x
 _atom_site_fract_y
 _atom_site_fract_z
 _atom_site_occupancy
  Li  Li0  1  0.83415973  0.33216101  0.07780171  1
  Li  Li1  1  0.16958327  0.66683197  0.41856375  1
  Li  Li2  1  0.49909628  0.99807489  0.75423955  1
  Li  Li3  1  0.16757072  0.66859211  0.91242745  1
  Li  Li4  1  0.49708373  -0.00016497  0.24810325  1
  Li  Li5  1  0.83250627  0.33450499  0.58886429  1
  Li  Li6  1  0.33333300  0.33333300  0.83333300  1
  Co  Co7  1  0.99119361  0.01405817  0.99519052  1
  Co  Co8  1  0.67547339  0.65260883  0.67147648  1
  Co  Co9  1  0.33333300  0.33333300  0.33333300  1
  Co  Co10  1  0.67040549  0.66796454  0.16400588  1
  Co  Co11  1  0.99626151  -0.00129754  0.50266112  1
  O  O12  1  0.38667080  0.15449754  0.03862585  1
  O  O13  1  0.75928479  0.50327183  0.36322247  1
  O  O14  1  0.04660456  0.82926767  0.69743023  1
  O  O15  1  0.74128359  0.51951889  0.85536996  1
  O  O16  1  0.09237623  0.83812210  0.19197791  1
  O  O17  1  0.41296302  0.16838331  0.53416568  1
  O  O18  1  0.25370298  0.49828269  0.13250032  1
  O  O19  1  0.57429077  0.82854490  0.47468909  1
  O  O20  1  0.92538341  0.14714811  0.81129704  1
  O  O21  1  0.62006244  0.83739933  0.96923677  1
  O  O22  1  0.90738221  0.16339517  0.30344453  1
  O  O23  1  0.27999520  0.51216846  0.62804015  1
