# generated using pymatgen
data_Li3MnCoO5
_symmetry_space_group_name_H-M   'P 1'
_cell_length_a   2.90373375
_cell_length_b   9.86517526
_cell_length_c   6.54343923
_cell_angle_alpha   100.64209416
_cell_angle_beta   77.18043552
_cell_angle_gamma   90.00000337
_symmetry_Int_Tables_number   1
_chemical_formula_structural   Li3MnCoO5
_chemical_formula_sum   'Li6 Mn2 Co2 O10'
_cell_volume   179.46213890
_cell_formula_units_Z   2
loop_
 _symmetry_equiv_pos_site_id
 _symmetry_equiv_pos_as_xyz
  1  'x, y, z'
loop_
 _atom_site_type_symbol
 _atom_site_label
 _atom_site_symmetry_multiplicity
 _atom_site_fract_x
 _atom_site_fract_y
 _atom_site_fract_z
 _atom_site_occupancy
  Li  Li0  1  0.29312251  0.10607963  0.41375497  1
  Li  Li1  1  0.90591234  0.29533985  0.18817533  1
  Li  Li2  1  0.69676415  0.91536241  0.60647169  1
  Li  Li3  1  0.10076773  0.69425009  0.79846454  1
  Li  Li4  1  0.50251580  0.49444089  0.99496841  1
  Li  Li5  1  0.60237437  0.19599170  0.79525126  1
  Mn  Mn6  1  0.00478555  0.00389148  0.99042891  1
  Mn  Mn7  1  0.80008680  0.59788516  0.39982640  1
  Co  Co8  1  0.18837882  0.38641667  0.62324236  1
  Co  Co9  1  0.39894007  0.80398676  0.20211986  1
  O  O10  1  0.45623215  0.12977646  0.08753571  1
  O  O11  1  0.05470654  0.35656828  0.89058692  1
  O  O12  1  0.85850477  0.94516140  0.28299046  1
  O  O13  1  0.25677925  0.73086850  0.48644150  1
  O  O14  1  0.66357157  0.54611175  0.67285687  1
  O  O15  1  0.13943304  0.04306482  0.72113391  1
  O  O16  1  0.75082916  0.26370315  0.49834168  1
  O  O17  1  0.54274590  0.86422002  0.91450820  1
  O  O18  1  0.93929302  0.65713234  0.12141395  1
  O  O19  1  0.34425647  0.46974864  0.31148706  1
