# generated using pymatgen
data_Li3MnCoO5
_symmetry_space_group_name_H-M   'P 1'
_cell_length_a   2.89262283
_cell_length_b   5.13300060
_cell_length_c   12.92058020
_cell_angle_alpha   101.14293274
_cell_angle_beta   96.42708720
_cell_angle_gamma   73.63428809
_symmetry_Int_Tables_number   1
_chemical_formula_structural   Li3MnCoO5
_chemical_formula_sum   'Li6 Mn2 Co2 O10'
_cell_volume   180.26262424
_cell_formula_units_Z   2
loop_
 _symmetry_equiv_pos_site_id
 _symmetry_equiv_pos_as_xyz
  1  'x, y, z'
loop_
 _atom_site_type_symbol
 _atom_site_label
 _atom_site_symmetry_multiplicity
 _atom_site_fract_x
 _atom_site_fract_y
 _atom_site_fract_z
 _atom_site_occupancy
  Li  Li0  1  0.30266203  0.50657370  0.11189776  1
  Li  Li1  1  0.90900926  0.46987569  0.28789421  1
  Li  Li2  1  0.49761862  0.49431298  0.48955023  1
  Li  Li3  1  0.10316329  0.49785461  0.70418118  1
  Li  Li4  1  0.69287838  0.52081494  0.90657170  1
  Li  Li5  1  0.59714875  0.00448998  0.19878748  1
  Mn  Mn6  1  0.99567528  0.01616369  0.00751425  1
  Mn  Mn7  1  0.79893751  0.00083945  0.59871448  1
  Co  Co8  1  0.20376926  0.97312299  0.38066152  1
  Co  Co9  1  0.39918258  0.00439255  0.80275770  1
  O  O10  1  0.36085824  0.23031022  0.95202669  1
  O  O11  1  0.94900496  0.23841554  0.13642546  1
  O  O12  1  0.56691034  0.22213006  0.35595075  1
  O  O13  1  0.16855437  0.22066383  0.55777256  1
  O  O14  1  0.75749386  0.22789596  0.74288369  1
  O  O15  1  0.25772870  0.74294081  0.25839820  1
  O  O16  1  0.83978413  0.78179913  0.46136738  1
  O  O17  1  0.43341920  0.77980002  0.64663841  1
  O  O18  1  0.03965197  0.77675730  0.85606124  1
  O  O19  1  0.62654928  0.79084653  0.04394509  1
