# generated using pymatgen
data_Li7Co5O12
_symmetry_space_group_name_H-M   'P 1'
_cell_length_a   3.00258579
_cell_length_b   14.51923895
_cell_length_c   5.04151941
_cell_angle_alpha   87.06157026
_cell_angle_beta   90.81231426
_cell_angle_gamma   79.28108854
_symmetry_Int_Tables_number   1
_chemical_formula_structural   Li7Co5O12
_chemical_formula_sum   'Li7 Co5 O12'
_cell_volume   215.60449327
_cell_formula_units_Z   1
loop_
 _symmetry_equiv_pos_site_id
 _symmetry_equiv_pos_as_xyz
  1  'x, y, z'
loop_
 _atom_site_type_symbol
 _atom_site_label
 _atom_site_symmetry_multiplicity
 _atom_site_fract_x
 _atom_site_fract_y
 _atom_site_fract_z
 _atom_site_occupancy
  Li  Li0  1  0.83333300  0.16666700  0.33333300  1
  Li  Li1  1  0.17064223  0.33393532  0.16491153  1
  Li  Li2  1  0.49888613  0.50017703  0.00115375  1
  Li  Li3  1  0.83333300  0.66666700  0.83333300  1
  Li  Li4  1  0.16778087  0.83315597  0.66551325  1
  Li  Li5  1  0.49602477  -0.00060232  0.50175547  1
  Li  Li6  1  0.33333300  0.16666700  0.83333300  1
  Co  Co7  1  0.99313378  0.00735401  0.99643485  1
  Co  Co8  1  0.67353322  0.32597899  0.67023215  1
  Co  Co9  1  0.99635398  0.49847258  0.50557688  1
  Co  Co10  1  0.33333300  0.66666700  0.33333300  1
  Co  Co11  1  0.67031302  0.83486042  0.16109012  1
  O  O12  1  0.38956991  0.07700183  0.15757145  1
  O  O13  1  0.74166088  0.25967436  0.96788379  1
  O  O14  1  0.04309443  0.41595795  0.81314540  1
  O  O15  1  0.41266837  0.58422403  0.64807343  1
  O  O16  1  0.75620664  0.75212813  0.47820554  1
  O  O17  1  0.09246919  0.91865515  0.29894655  1
  O  O18  1  0.27709609  0.25633217  0.50909455  1
  O  O19  1  0.57419781  0.41467785  0.36772045  1
  O  O20  1  0.91046036  0.58120487  0.18846146  1
  O  O21  1  0.25399763  0.74910997  0.01859257  1
  O  O22  1  0.62357257  0.91737505  0.85352160  1
  O  O23  1  0.92500612  0.07365864  0.69878321  1
