# generated using pymatgen
data_Li7Co5O12
_symmetry_space_group_name_H-M   'P 1'
_cell_length_a   3.00081158
_cell_length_b   14.66907786
_cell_length_c   5.13629271
_cell_angle_alpha   95.21818856
_cell_angle_beta   74.10713602
_cell_angle_gamma   84.55599746
_symmetry_Int_Tables_number   1
_chemical_formula_structural   Li7Co5O12
_chemical_formula_sum   'Li7 Co5 O12'
_cell_volume   214.85154842
_cell_formula_units_Z   1
loop_
 _symmetry_equiv_pos_site_id
 _symmetry_equiv_pos_as_xyz
  1  'x, y, z'
loop_
 _atom_site_type_symbol
 _atom_site_label
 _atom_site_symmetry_multiplicity
 _atom_site_fract_x
 _atom_site_fract_y
 _atom_site_fract_z
 _atom_site_occupancy
  Li  Li0  1  0.66994611  0.08258156  0.58763981  1
  Li  Li1  1  0.00038944  0.25027791  0.74897162  1
  Li  Li2  1  0.33294356  0.41638909  0.91769538  1
  Li  Li3  1  0.66338789  0.58408444  0.07902619  1
  Li  Li4  1  0.00507033  0.75026824  0.24351478  1
  Li  Li5  1  0.32826267  0.91639876  0.42315222  1
  Li  Li6  1  0.66666700  0.83333300  0.83333300  1
  Co  Co7  1  0.00614746  0.99298145  0.99353087  1
  Co  Co8  1  0.32718554  0.67368555  0.67313613  1
  Co  Co9  1  0.33344546  0.16458986  0.16625423  1
  Co  Co10  1  0.66666700  0.33333300  0.33333300  1
  Co  Co11  1  -0.00011246  0.50207714  0.50041277  1
  O  O12  1  0.30465257  0.04425761  0.27126483  1
  O  O13  1  0.67068730  0.21152109  0.44510018  1
  O  O14  1  0.01120212  0.37949119  0.61061413  1
  O  O15  1  0.34593510  0.54941252  0.77015297  1
  O  O16  1  0.64960173  0.70537595  0.93121057  1
  O  O17  1  0.99206923  0.88735046  0.12346759  1
  O  O18  1  0.98739890  0.11725348  0.89651303  1
  O  O19  1  0.32213088  0.28717581  0.05605287  1
  O  O20  1  0.66264570  0.45514591  0.22156682  1
  O  O21  1  0.02868143  0.62240839  0.39540117  1
  O  O22  1  0.34126377  0.77931654  0.54319941  1
  O  O23  1  0.68373127  0.96129105  0.73545643  1
