# generated using pymatgen
data_Li5Mn2CoO8
_symmetry_space_group_name_H-M   'P 1'
_cell_length_a   2.90268705
_cell_length_b   8.27262816
_cell_length_c   5.94883513
_cell_angle_alpha   89.49599844
_cell_angle_beta   90.00000000
_cell_angle_gamma   90.00000000
_symmetry_Int_Tables_number   1
_chemical_formula_structural   Li5Mn2CoO8
_chemical_formula_sum   'Li5 Mn2 Co1 O8'
_cell_volume   142.84296289
_cell_formula_units_Z   1
loop_
 _symmetry_equiv_pos_site_id
 _symmetry_equiv_pos_as_xyz
  1  'x, y, z'
loop_
 _atom_site_type_symbol
 _atom_site_label
 _atom_site_symmetry_multiplicity
 _atom_site_fract_x
 _atom_site_fract_y
 _atom_site_fract_z
 _atom_site_occupancy
  Li  Li0  1  0.00000000  0.50613023  0.99799202  1
  Li  Li1  1  0.50000000  0.73306090  0.73524458  1
  Li  Li2  1  0.00000000  0.99198405  0.49809879  1
  Li  Li3  1  0.50000000  0.27178738  0.25796147  1
  Li  Li4  1  0.00000000  0.50541991  0.50296843  1
  Mn  Mn5  1  0.00000000  0.99626497  0.00111301  1
  Mn  Mn6  1  0.50000000  0.26018444  0.74569112  1
  Co  Co7  1  0.50000000  0.72400984  0.26514965  1
  O  O8  1  0.00000000  0.75732278  0.48770576  1
  O  O9  1  0.50000000  0.00535681  0.21693146  1
  O  O10  1  -0.00000000  0.23846684  0.97454255  1
  O  O11  1  0.50000000  0.47742783  0.75237428  1
  O  O12  1  0.00000000  0.24336749  0.53139206  1
  O  O13  1  0.50000000  0.50907752  0.24495424  1
  O  O14  1  0.00000000  0.77047463  0.00957232  1
  O  O15  1  0.50000000  0.00966439  0.77830825  1
