# generated using pymatgen
data_Li3MnCoO5
_symmetry_space_group_name_H-M   'P 1'
_cell_length_a   2.90244543
_cell_length_b   12.13402576
_cell_length_c   5.12204837
_cell_angle_alpha   85.72376141
_cell_angle_beta   90.43503727
_cell_angle_gamma   84.70905512
_symmetry_Int_Tables_number   1
_chemical_formula_structural   Li3MnCoO5
_chemical_formula_sum   'Li6 Mn2 Co2 O10'
_cell_volume   179.10243175
_cell_formula_units_Z   2
loop_
 _symmetry_equiv_pos_site_id
 _symmetry_equiv_pos_as_xyz
  1  'x, y, z'
loop_
 _atom_site_type_symbol
 _atom_site_label
 _atom_site_symmetry_multiplicity
 _atom_site_fract_x
 _atom_site_fract_y
 _atom_site_fract_z
 _atom_site_occupancy
  Li  Li0  1  0.90000000  0.20000000  0.30000000  1
  Li  Li1  1  0.30768456  0.39357686  0.09571149  1
  Li  Li2  1  0.70179746  0.60081776  0.90434681  1
  Li  Li3  1  0.09820254  0.79918224  0.69565319  1
  Li  Li4  1  0.49231544  0.00642314  0.50428851  1
  Li  Li5  1  0.40000000  0.20000000  0.80000000  1
  Mn  Mn6  1  0.99053555  0.00688483  0.98513487  1
  Mn  Mn7  1  0.80946445  0.39311517  0.61486513  1
  Co  Co8  1  0.20740893  0.59899846  0.39976082  1
  Co  Co9  1  0.59259107  0.80100154  0.20023918  1
  O  O10  1  0.45910942  0.08814729  0.13433004  1
  O  O11  1  0.84344495  0.30927183  0.92517594  1
  O  O12  1  0.27156366  0.49023865  0.73232667  1
  O  O13  1  0.63968243  0.69524969  0.53767191  1
  O  O14  1  0.02572733  0.89649914  0.32118205  1
  O  O15  1  0.34089058  0.31185271  0.46566996  1
  O  O16  1  0.77427267  0.50350086  0.27881795  1
  O  O17  1  0.16031757  0.70475031  0.06232809  1
  O  O18  1  0.52843634  0.90976135  0.86767333  1
  O  O19  1  0.95655505  0.09072817  0.67482406  1
