# generated using pymatgen
data_Li4MnCo2O7
_symmetry_space_group_name_H-M   'P 1'
_cell_length_a   5.18398966
_cell_length_b   10.36527429
_cell_length_c   5.18169119
_cell_angle_alpha   104.47481523
_cell_angle_beta   68.06068928
_cell_angle_gamma   95.35860657
_symmetry_Int_Tables_number   1
_chemical_formula_structural   Li4MnCo2O7
_chemical_formula_sum   'Li8 Mn2 Co4 O14'
_cell_volume   250.06839387
_cell_formula_units_Z   2
loop_
 _symmetry_equiv_pos_site_id
 _symmetry_equiv_pos_as_xyz
  1  'x, y, z'
loop_
 _atom_site_type_symbol
 _atom_site_label
 _atom_site_symmetry_multiplicity
 _atom_site_fract_x
 _atom_site_fract_y
 _atom_site_fract_z
 _atom_site_occupancy
  Li  Li0  1  0.50000000  0.13807215  0.06903657  1
  Li  Li1  1  0.50000000  0.28633078  0.64316539  1
  Li  Li2  1  0.50000000  0.43813813  0.21906956  1
  Li  Li3  1  0.50000000  0.57478840  0.78739370  1
  Li  Li4  1  0.50000000  0.71763590  0.35881795  1
  Li  Li5  1  0.50000000  0.85282931  0.92641415  1
  Li  Li6  1  0.50000000  0.99244271  0.49622136  1
  Li  Li7  1  0.00000000  0.85345506  0.42672703  1
  Mn  Mn8  1  0.00000000  -0.00018700  -0.00009350  1
  Mn  Mn9  1  1.00000000  0.28723847  0.14361924  1
  Co  Co10  1  1.00000000  0.14048706  0.57024403  1
  Co  Co11  1  1.00000000  0.43113818  0.71556959  1
  Co  Co12  1  0.00000000  0.57460194  0.28730047  1
  Co  Co13  1  0.00000000  0.71392094  0.85696047  1
  O  O14  1  0.23651083  0.14623918  0.84697635  1
  O  O15  1  0.20442021  0.28633027  0.39630363  1
  O  O16  1  0.23104912  0.42382704  0.98489872  1
  O  O17  1  0.23139841  0.56525350  0.55649360  1
  O  O18  1  0.22531286  0.70267022  0.11181268  1
  O  O19  1  0.23857462  0.86512189  0.71488537  1
  O  O20  1  0.20859268  0.01011190  0.25224232  1
  O  O21  1  0.76348917  0.14623918  0.29926383  1
  O  O22  1  0.79557979  0.28633027  0.89002664  1
  O  O23  1  0.76895088  0.42382704  0.43892932  1
  O  O24  1  0.76860159  0.56525350  0.00875890  1
  O  O25  1  0.77468714  0.70267022  0.59085753  1
  O  O26  1  0.76142538  0.86512189  0.15023552  1
  O  O27  1  0.79140732  0.01011190  0.75786958  1
