# generated using pymatgen
data_Li7Mn2(CoO4)3
_symmetry_space_group_name_H-M   'P 1'
_cell_length_a   2.92633671
_cell_length_b   7.66483759
_cell_length_c   9.82240067
_cell_angle_alpha   79.20696280
_cell_angle_beta   91.19948083
_cell_angle_gamma   79.88813171
_symmetry_Int_Tables_number   1
_chemical_formula_structural   Li7Mn2(CoO4)3
_chemical_formula_sum   'Li7 Mn2 Co3 O12'
_cell_volume   212.72628813
_cell_formula_units_Z   1
loop_
 _symmetry_equiv_pos_site_id
 _symmetry_equiv_pos_as_xyz
  1  'x, y, z'
loop_
 _atom_site_type_symbol
 _atom_site_label
 _atom_site_symmetry_multiplicity
 _atom_site_fract_x
 _atom_site_fract_y
 _atom_site_fract_z
 _atom_site_occupancy
  Li  Li0  1  0.91812545  0.16601902  0.25453517  1
  Li  Li1  1  0.41520855  0.16731498  0.74546483  1
  Li  Li2  1  0.23902641  0.51323889  0.24353627  1
  Li  Li3  1  0.74049501  0.50776768  0.75295569  1
  Li  Li4  1  0.59283799  0.82556532  0.24704431  1
  Li  Li5  1  0.09430659  0.82009411  0.75646373  1
  Li  Li6  1  0.66666700  0.66666700  0.00000000  1
  Mn  Mn7  1  0.00101439  0.98795156  0.00426767  1
  Mn  Mn8  1  0.33231861  0.34538144  0.99573233  1
  Co  Co9  1  0.50054032  -0.00198909  0.50189927  1
  Co  Co10  1  0.83279268  0.33532209  0.49810073  1
  Co  Co11  1  0.16666700  0.66666700  0.50000000  1
  O  O12  1  0.46418669  0.08338159  0.10747629  1
  O  O13  1  0.94730554  0.09042091  0.61795801  1
  O  O14  1  0.81608790  0.40180068  0.10991120  1
  O  O15  1  0.28762246  0.42614269  0.61088688  1
  O  O16  1  0.11140045  0.76853899  0.11906660  1
  O  O17  1  0.58364901  0.75368767  0.61588575  1
  O  O18  1  0.38602846  0.24291309  0.38204199  1
  O  O19  1  0.86914731  0.24995241  0.89252371  1
  O  O20  1  0.74968399  0.57964533  0.38411425  1
  O  O21  1  0.22193255  0.56479401  0.88093340  1
  O  O22  1  0.04571054  0.90719031  0.38911312  1
  O  O23  1  0.51724510  0.93153232  0.89008880  1
