# generated using pymatgen
data_Li4MnCo2O7
_symmetry_space_group_name_H-M   'P 1'
_cell_length_a   2.91145988
_cell_length_b   13.63219718
_cell_length_c   6.52683021
_cell_angle_alpha   85.85719443
_cell_angle_beta   77.11247306
_cell_angle_gamma   96.13008520
_symmetry_Int_Tables_number   1
_chemical_formula_structural   Li4MnCo2O7
_chemical_formula_sum   'Li8 Mn2 Co4 O14'
_cell_volume   249.84171143
_cell_formula_units_Z   2
loop_
 _symmetry_equiv_pos_site_id
 _symmetry_equiv_pos_as_xyz
  1  'x, y, z'
loop_
 _atom_site_type_symbol
 _atom_site_label
 _atom_site_symmetry_multiplicity
 _atom_site_fract_x
 _atom_site_fract_y
 _atom_site_fract_z
 _atom_site_occupancy
  Li  Li0  1  0.35294828  0.07677709  0.37088052  1
  Li  Li1  1  0.07685352  0.21694823  0.06324219  1
  Li  Li2  1  0.78120760  0.34623136  0.78381515  1
  Li  Li3  1  0.65215331  0.93691862  0.63261199  1
  Li  Li4  1  0.93166575  0.79161026  0.92827775  1
  Li  Li5  1  0.49839365  0.49658371  0.49979641  1
  Li  Li6  1  0.21220334  0.64224059  0.21783492  1
  Li  Li7  1  0.71347211  0.13984563  0.71290242  1
  Mn  Mn8  1  0.00417769  0.00099415  0.99263877  1
  Mn  Mn9  1  0.85607963  0.57299388  0.86083462  1
  Co  Co10  1  0.41185181  0.27399994  0.45029532  1
  Co  Co11  1  0.12995726  0.42097220  0.16105767  1
  Co  Co12  1  0.57834409  0.71874432  0.56205715  1
  Co  Co13  1  0.28689538  0.85754556  0.28375379  1
  O  O14  1  0.52638821  0.08963972  0.03686329  1
  O  O15  1  0.25985938  0.25367575  0.73395798  1
  O  O16  1  0.97187595  0.39486350  0.45111061  1
  O  O17  1  0.82382882  0.95131720  0.30365955  1
  O  O18  1  0.11491063  0.81801505  0.58819280  1
  O  O19  1  0.68924963  0.53572377  0.15722452  1
  O  O20  1  0.39116086  0.66898254  0.88666182  1
  O  O21  1  0.16234345  0.02931698  0.70463009  1
  O  O22  1  0.89839317  0.18431866  0.38753332  1
  O  O23  1  0.61002236  0.32798962  0.10794390  1
  O  O24  1  0.45802846  0.89948882  0.98343190  1
  O  O25  1  0.75490412  0.76199916  0.25218992  1
  O  O26  1  0.32387748  0.48025238  0.83249743  1
  O  O27  1  0.02895406  0.61201133  0.55410421  1
