# generated using pymatgen
data_Li7Mn4CoO12
_symmetry_space_group_name_H-M   'P 1'
_cell_length_a   2.85925810
_cell_length_b   5.31439816
_cell_length_c   14.57998276
_cell_angle_alpha   87.64659574
_cell_angle_beta   90.00000000
_cell_angle_gamma   90.00000000
_symmetry_Int_Tables_number   1
_chemical_formula_structural   Li7Mn4CoO12
_chemical_formula_sum   'Li7 Mn4 Co1 O12'
_cell_volume   221.35941672
_cell_formula_units_Z   1
loop_
 _symmetry_equiv_pos_site_id
 _symmetry_equiv_pos_as_xyz
  1  'x, y, z'
loop_
 _atom_site_type_symbol
 _atom_site_label
 _atom_site_symmetry_multiplicity
 _atom_site_fract_x
 _atom_site_fract_y
 _atom_site_fract_z
 _atom_site_occupancy
  Li  Li0  1  0.50000000  0.16184599  0.15921367  1
  Li  Li1  1  0.50000000  0.50060266  0.50051607  1
  Li  Li2  1  0.50000000  0.83753601  0.84053750  1
  Li  Li3  1  0.00000000  0.66025356  0.15705060  1
  Li  Li4  1  0.00000000  0.00080958  0.50187424  1
  Li  Li5  1  0.00000000  0.33871788  0.84126693  1
  Li  Li6  1  0.50000000  0.50015620  0.99967759  1
  Mn  Mn7  1  0.00000000  0.00076290  -0.00063118  1
  Mn  Mn8  1  0.00000000  0.66827048  0.66777212  1
  Mn  Mn9  1  0.00000000  0.33129425  0.33245672  1
  Mn  Mn10  1  0.50000000  0.83037884  0.33390208  1
  Co  Co11  1  0.50000000  0.16928667  0.66672283  1
  O  O12  1  0.50000000  0.84897167  0.07527066  1
  O  O13  1  0.50000000  0.18952535  0.41141015  1
  O  O14  1  0.50000000  0.51717398  0.74307696  1
  O  O15  1  -0.00000000  0.29250688  0.07449587  1
  O  O16  1  0.00000000  0.68628955  0.41193742  1
  O  O17  1  0.00000000  0.02100262  0.73799145  1
  O  O18  1  0.50000000  0.47916338  0.25625828  1
  O  O19  1  0.50000000  0.81348292  0.59014011  1
  O  O20  1  0.50000000  0.15073061  0.92402023  1
  O  O21  1  0.00000000  0.97745404  0.25859995  1
  O  O22  1  0.00000000  0.31500774  0.59204402  1
  O  O23  1  0.00000000  0.70877623  0.92439574  1
