# generated using pymatgen
data_Li4MnCo2O7
_symmetry_space_group_name_H-M   'P 1'
_cell_length_a   2.90595351
_cell_length_b   11.43755728
_cell_length_c   7.76006540
_cell_angle_alpha   98.15816296
_cell_angle_beta   98.44269536
_cell_angle_gamma   83.11160870
_symmetry_Int_Tables_number   1
_chemical_formula_structural   Li4MnCo2O7
_chemical_formula_sum   'Li8 Mn2 Co4 O14'
_cell_volume   251.24765882
_cell_formula_units_Z   2
loop_
 _symmetry_equiv_pos_site_id
 _symmetry_equiv_pos_as_xyz
  1  'x, y, z'
loop_
 _atom_site_type_symbol
 _atom_site_label
 _atom_site_symmetry_multiplicity
 _atom_site_fract_x
 _atom_site_fract_y
 _atom_site_fract_z
 _atom_site_occupancy
  Li  Li0  1  0.75788659  0.07499050  0.63010185  1
  Li  Li1  1  0.92883438  0.34517645  0.20903531  1
  Li  Li2  1  0.07142900  0.64285700  0.78571400  1
  Li  Li3  1  0.21402262  0.94053755  0.36239369  1
  Li  Li4  1  0.38497041  0.21072450  0.94132615  1
  Li  Li5  1  0.50251533  0.49877187  0.49867924  1
  Li  Li6  1  0.64034167  0.78694213  0.07274976  1
  Li  Li7  1  0.57142900  0.14285700  0.28571400  1
  Mn  Mn8  1  0.00891128  0.00766942  0.00937245  1
  Mn  Mn9  1  0.13394572  0.27804458  0.56205655  1
  Co  Co10  1  0.28512677  0.57057412  0.14318836  1
  Co  Co11  1  0.43889481  0.85836463  0.71537123  1
  Co  Co12  1  0.70396219  0.42734937  0.85605777  1
  Co  Co13  1  0.85773023  0.71514088  0.42823964  1
  O  O14  1  0.43065236  0.02975299  0.84209729  1
  O  O15  1  0.55470137  0.31837523  0.41317136  1
  O  O16  1  0.67046346  0.60202301  0.97257952  1
  O  O17  1  0.81988095  0.89008022  0.54628639  1
  O  O18  1  0.96969942  0.16502841  0.09578860  1
  O  O19  1  0.09297447  0.45316723  0.68465002  1
  O  O20  1  0.24147971  0.74593784  0.26046919  1
  O  O21  1  0.17315758  0.12068559  0.47564040  1
  O  O22  1  0.32297605  0.39563478  0.02514161  1
  O  O23  1  0.47239354  0.68369099  0.59884948  1
  O  O24  1  0.58815663  0.96733877  0.15825664  1
  O  O25  1  0.71220464  0.25596101  0.72933171  1
  O  O26  1  0.90137729  0.53977716  0.31095881  1
  O  O27  1  0.04988253  0.83254677  0.88677898  1
