# generated using pymatgen
data_Li4MnCo2O7
_symmetry_space_group_name_H-M   'P 1'
_cell_length_a   2.92925777
_cell_length_b   9.78303667
_cell_length_c   9.89757740
_cell_angle_alpha   64.24501640
_cell_angle_beta   81.79863745
_cell_angle_gamma   90.26648451
_symmetry_Int_Tables_number   1
_chemical_formula_structural   Li4MnCo2O7
_chemical_formula_sum   'Li8 Mn2 Co4 O14'
_cell_volume   252.13900665
_cell_formula_units_Z   2
loop_
 _symmetry_equiv_pos_site_id
 _symmetry_equiv_pos_as_xyz
  1  'x, y, z'
loop_
 _atom_site_type_symbol
 _atom_site_label
 _atom_site_symmetry_multiplicity
 _atom_site_fract_x
 _atom_site_fract_y
 _atom_site_fract_z
 _atom_site_occupancy
  Li  Li0  1  0.91497093  0.21379331  0.16333142  1
  Li  Li1  1  0.21935136  0.35354348  0.55980465  1
  Li  Li2  1  0.48841322  0.49935116  0.01067866  1
  Li  Li3  1  0.78809714  0.64891721  0.42462547  1
  Li  Li4  1  0.06898183  0.78749098  0.85494544  1
  Li  Li5  1  0.34822878  0.92667810  0.29521708  1
  Li  Li6  1  0.66141728  0.07315533  0.69087760  1
  Li  Li7  1  0.28650776  0.14471557  0.42661598  1
  Mn  Mn8  1  0.00083452  0.00207377  -0.00003202  1
  Mn  Mn9  1  0.14393927  0.57046538  0.71467247  1
  Co  Co10  1  0.57033740  0.28603708  0.85687183  1
  Co  Co11  1  0.85321588  0.40683756  0.29507735  1
  Co  Co12  1  0.42691816  0.69901882  0.15335110  1
  Co  Co13  1  0.72210621  0.88059230  0.55633685  1
  O  O14  1  0.47562927  0.10635955  0.05174964  1
  O  O15  1  0.75438143  0.26412521  0.49050597  1
  O  O16  1  0.04363598  0.38548606  0.91030331  1
  O  O17  1  0.32612663  0.54627564  0.34708295  1
  O  O18  1  0.61197134  0.65953564  0.77876345  1
  O  O19  1  0.90775861  0.83189690  0.19438076  1
  O  O20  1  0.17791025  0.95196336  0.64704483  1
  O  O21  1  0.39323780  0.32760519  0.21307225  1
  O  O22  1  0.66935102  0.46549463  0.66217480  1
  O  O23  1  0.96533118  0.61494746  0.07349013  1
  O  O24  1  0.24044783  0.73727750  0.52091654  1
  O  O25  1  0.53004316  0.90772998  0.94022100  1
  O  O26  1  0.81511422  0.02327845  0.36396302  1
  O  O27  1  0.09574155  0.18535435  0.80395744  1
