# generated using pymatgen
data_Li7Mn4CoO12
_symmetry_space_group_name_H-M   'P 1'
_cell_length_a   2.86631659
_cell_length_b   5.30041572
_cell_length_c   14.59351860
_cell_angle_alpha   87.89800229
_cell_angle_beta   90.00000000
_cell_angle_gamma   90.00000000
_symmetry_Int_Tables_number   1
_chemical_formula_structural   Li7Mn4CoO12
_chemical_formula_sum   'Li7 Mn4 Co1 O12'
_cell_volume   221.56531664
_cell_formula_units_Z   1
loop_
 _symmetry_equiv_pos_site_id
 _symmetry_equiv_pos_as_xyz
  1  'x, y, z'
loop_
 _atom_site_type_symbol
 _atom_site_label
 _atom_site_symmetry_multiplicity
 _atom_site_fract_x
 _atom_site_fract_y
 _atom_site_fract_z
 _atom_site_occupancy
  Li  Li0  1  0.50000000  0.16794312  0.16808020  1
  Li  Li1  1  0.50000000  0.50947173  0.50685442  1
  Li  Li2  1  0.50000000  0.82393695  0.82540307  1
  Li  Li3  1  0.00000000  0.66873796  0.16658833  1
  Li  Li4  1  0.00000000  0.01125800  0.51193915  1
  Li  Li5  1  0.00000000  0.32266330  0.82253317  1
  Li  Li6  1  0.50000000  0.16690560  0.66630921  1
  Mn  Mn7  1  0.00000000  0.99716852  0.99882407  1
  Mn  Mn8  1  -0.00000000  0.66616654  0.66602739  1
  Mn  Mn9  1  0.50000000  0.49633449  0.00017532  1
  Mn  Mn10  1  0.50000000  0.83645690  0.33371557  1
  Co  Co11  1  0.00000000  0.33661071  0.33482111  1
  O  O12  1  0.50000000  0.85575920  0.07811159  1
  O  O13  1  0.50000000  0.18453836  0.40658824  1
  O  O14  1  0.50000000  0.51454028  0.74113663  1
  O  O15  1  0.00000000  0.35457106  0.07933507  1
  O  O16  1  0.00000000  0.68667591  0.40795006  1
  O  O17  1  0.00000000  0.95958747  0.74140783  1
  O  O18  1  0.50000000  0.48246014  0.25986570  1
  O  O19  1  0.50000000  0.81822182  0.59061070  1
  O  O20  1  0.50000000  0.14414110  0.92264510  1
  O  O21  1  0.00000000  0.98304758  0.25624304  1
  O  O22  1  0.00000000  0.37117623  0.59014293  1
  O  O23  1  0.00000000  0.64162705  0.92469211  1
