# generated using pymatgen
data_Li7Mn2(CoO4)3
_symmetry_space_group_name_H-M   'P 1'
_cell_length_a   2.90158289
_cell_length_b   15.40803344
_cell_length_c   5.07633241
_cell_angle_alpha   97.15364841
_cell_angle_beta   75.26394690
_cell_angle_gamma   85.80333220
_symmetry_Int_Tables_number   1
_chemical_formula_structural   Li7Mn2(CoO4)3
_chemical_formula_sum   'Li7 Mn2 Co3 O12'
_cell_volume   216.47353189
_cell_formula_units_Z   1
loop_
 _symmetry_equiv_pos_site_id
 _symmetry_equiv_pos_as_xyz
  1  'x, y, z'
loop_
 _atom_site_type_symbol
 _atom_site_label
 _atom_site_symmetry_multiplicity
 _atom_site_fract_x
 _atom_site_fract_y
 _atom_site_fract_z
 _atom_site_occupancy
  Li  Li0  1  0.65941786  0.08376853  0.58991071  1
  Li  Li1  1  0.00142382  0.25007058  0.74884000  1
  Li  Li2  1  0.33190918  0.41659642  0.91782700  1
  Li  Li3  1  0.67391614  0.58289747  0.07675529  1
  Li  Li4  1  0.97356205  0.76010819  0.25608148  1
  Li  Li5  1  0.35977095  0.90655881  0.41058552  1
  Li  Li6  1  0.66666700  0.83333300  0.83333300  1
  Mn  Mn7  1  0.00477549  0.99389083  0.00515334  1
  Mn  Mn8  1  0.32855751  0.67277617  0.66151366  1
  Co  Co9  1  0.34604231  0.16658069  0.16290913  1
  Co  Co10  1  0.66666700  0.33333300  0.33333300  1
  Co  Co11  1  0.98729069  0.50008631  0.50375787  1
  O  O12  1  0.37038557  0.04064491  0.26020770  1
  O  O13  1  0.66578185  0.20716315  0.43880652  1
  O  O14  1  0.99221338  0.37377495  0.60660289  1
  O  O15  1  0.32030110  0.54356892  0.76954157  1
  O  O16  1  0.70215861  0.70196638  0.91815454  1
  O  O17  1  0.99264812  0.88679296  0.12652279  1
  O  O18  1  0.01303290  0.12309708  0.89712443  1
  O  O19  1  0.34111962  0.29289205  0.06006411  1
  O  O20  1  0.66755115  0.45950385  0.22786048  1
  O  O21  1  0.96294843  0.62602109  0.40645830  1
  O  O22  1  0.34068488  0.77987404  0.54014421  1
  O  O23  1  0.63117439  0.96470062  0.74851246  1
