# generated using pymatgen
data_Li4MnCo2O7
_symmetry_space_group_name_H-M   'P 1'
_cell_length_a   5.15424745
_cell_length_b   10.30888057
_cell_length_c   5.10387465
_cell_angle_alpha   104.33243461
_cell_angle_beta   69.28472750
_cell_angle_gamma   95.02345505
_symmetry_Int_Tables_number   1
_chemical_formula_structural   Li4MnCo2O7
_chemical_formula_sum   'Li8 Mn2 Co4 O14'
_cell_volume   245.76436176
_cell_formula_units_Z   2
loop_
 _symmetry_equiv_pos_site_id
 _symmetry_equiv_pos_as_xyz
  1  'x, y, z'
loop_
 _atom_site_type_symbol
 _atom_site_label
 _atom_site_symmetry_multiplicity
 _atom_site_fract_x
 _atom_site_fract_y
 _atom_site_fract_z
 _atom_site_occupancy
  Li  Li0  1  0.50000000  0.14799368  0.07399734  1
  Li  Li1  1  0.50000000  0.28769241  0.64384621  1
  Li  Li2  1  0.50000000  0.43421598  0.21710849  1
  Li  Li3  1  0.50000000  0.57324389  0.78662144  1
  Li  Li4  1  0.50000000  0.70348819  0.35174410  1
  Li  Li5  1  0.50000000  0.85190607  0.92595253  1
  Li  Li6  1  0.50000000  0.00245418  0.50122709  1
  Li  Li7  1  0.00000000  0.56934742  0.28467321  1
  Mn  Mn8  1  1.00000000  0.00167821  0.00083910  1
  Mn  Mn9  1  1.00000000  0.85137450  0.42568675  1
  Co  Co10  1  0.00000000  0.14370773  0.57185436  1
  Co  Co11  1  0.00000000  0.29015533  0.14507766  1
  Co  Co12  1  0.00000000  0.44020466  0.72010283  1
  Co  Co13  1  0.00000000  0.71075882  0.85537941  1
  O  O14  1  0.22829261  0.14479481  0.84714160  1
  O  O15  1  0.21137562  0.28322693  0.39200958  1
  O  O16  1  0.22820066  0.41448180  0.97223609  1
  O  O17  1  0.24078602  0.57479824  0.55986200  1
  O  O18  1  0.22087708  0.72282033  0.10741802  1
  O  O19  1  0.21632861  0.85572414  0.67871507  1
  O  O20  1  0.23321682  0.00004322  0.28083396  1
  O  O21  1  0.77170739  0.14479481  0.29765421  1
  O  O22  1  0.78862438  0.28322693  0.89121735  1
  O  O23  1  0.77179934  0.41448180  0.44224671  1
  O  O24  1  0.75921398  0.57479824  0.01493524  1
  O  O25  1  0.77912292  0.72282033  0.61540231  1
  O  O26  1  0.78367139  0.85572414  0.17700806  1
  O  O27  1  0.76678318  0.00004322  0.71920926  1
