# generated using pymatgen
data_Li7Mn4CoO12
_symmetry_space_group_name_H-M   'P 1'
_cell_length_a   2.86508529
_cell_length_b   14.83180804
_cell_length_c   5.30591759
_cell_angle_alpha   98.43868905
_cell_angle_beta   90.00000000
_cell_angle_gamma   84.45739845
_symmetry_Int_Tables_number   1
_chemical_formula_structural   Li7Mn4CoO12
_chemical_formula_sum   'Li7 Mn4 Co1 O12'
_cell_volume   221.96492972
_cell_formula_units_Z   1
loop_
 _symmetry_equiv_pos_site_id
 _symmetry_equiv_pos_as_xyz
  1  'x, y, z'
loop_
 _atom_site_type_symbol
 _atom_site_label
 _atom_site_symmetry_multiplicity
 _atom_site_fract_x
 _atom_site_fract_y
 _atom_site_fract_z
 _atom_site_occupancy
  Li  Li0  1  0.42076854  0.15846391  0.23455304  1
  Li  Li1  1  0.25013477  0.49973046  0.75194672  1
  Li  Li2  1  0.07685232  0.84629436  0.27038377  1
  Li  Li3  1  0.92243730  0.15512639  0.73085288  1
  Li  Li4  1  0.74918848  0.50162303  0.25270571  1
  Li  Li5  1  0.57979692  0.84040516  0.76545503  1
  Li  Li6  1  0.50006849  0.99986302  0.50002003  1
  Mn  Mn7  1  0.00038757  0.99922486  0.99896815  1
  Mn  Mn8  1  0.83415068  0.33169764  0.49588995  1
  Mn  Mn9  1  0.66637142  0.66725816  0.00369512  1
  Mn  Mn10  1  0.33329438  0.33341024  0.99595168  1
  Co  Co11  1  0.16583464  0.66833171  0.50463853  1
  O  O12  1  0.46271672  0.07456755  0.88412907  1
  O  O13  1  0.29425831  0.41148339  0.39648077  1
  O  O14  1  0.12924275  0.74151351  0.89201274  1
  O  O15  1  0.96269976  0.07460148  0.32947123  1
  O  O16  1  0.79401562  0.41196875  0.89280123  1
  O  O17  1  0.62991529  0.74016843  0.38695552  1
  O  O18  1  0.37226922  0.25546257  0.60430196  1
  O  O19  1  0.20508424  0.58983152  0.11071875  1
  O  O20  1  0.03821544  0.92356812  0.66671253  1
  O  O21  1  0.87094719  0.25810663  0.10331913  1
  O  O22  1  0.70321288  0.59357425  0.61316090  1
  O  O23  1  0.53813707  0.92372487  0.11487556  1
