# generated using pymatgen
data_Li9Mn2Co5O16
_symmetry_space_group_name_H-M   'P 1'
_cell_length_a   5.83517523
_cell_length_b   9.75497359
_cell_length_c   5.81586496
_cell_angle_alpha   98.71678040
_cell_angle_beta   59.89010350
_cell_angle_gamma   89.99999808
_symmetry_Int_Tables_number   1
_chemical_formula_structural   Li9Mn2Co5O16
_chemical_formula_sum   'Li9 Mn2 Co5 O16'
_cell_volume   281.95122283
_cell_formula_units_Z   1
loop_
 _symmetry_equiv_pos_site_id
 _symmetry_equiv_pos_as_xyz
  1  'x, y, z'
loop_
 _atom_site_type_symbol
 _atom_site_label
 _atom_site_symmetry_multiplicity
 _atom_site_fract_x
 _atom_site_fract_y
 _atom_site_fract_z
 _atom_site_occupancy
  Li  Li0  1  0.62502102  0.24694755  0.24214068  1
  Li  Li1  1  0.37567360  0.75267485  0.75593014  1
  Li  Li2  1  0.13160374  0.24732515  0.24406986  1
  Li  Li3  1  0.12538519  0.24449732  0.74811490  1
  Li  Li4  1  0.87350010  0.75550268  0.25188510  1
  Li  Li5  1  0.62290365  0.24175433  0.75530729  1
  Li  Li6  1  0.37821094  0.75824567  0.24469271  1
  Li  Li7  1  0.86716170  0.75305245  0.75785932  1
  Li  Li8  1  0.49978312  -0.00000000  -0.00000000  1
  Mn  Mn9  1  -0.00026870  0.00000000  0.00000000  1
  Mn  Mn10  1  0.24926272  0.50000000  -0.00000000  1
  Co  Co11  1  0.75087147  0.49933658  0.49934334  1
  Co  Co12  1  0.25021482  0.50066342  0.50065666  1
  Co  Co13  1  0.49977320  -0.00045483  0.49979569  1
  Co  Co14  1  -0.00043111  0.00045483  0.50020431  1
  Co  Co15  1  0.75006617  0.50000000  0.00000000  1
  O  O16  1  0.83315493  0.10989174  0.86089499  1
  O  O17  1  0.55522782  0.61615256  0.38952335  1
  O  O18  1  0.30608146  0.10790178  0.85887949  1
  O  O19  1  0.30341562  0.10325841  0.39415172  1
  O  O20  1  0.07607490  0.61570997  0.87891685  1
  O  O21  1  0.82172046  0.11658062  0.35374883  1
  O  O22  1  0.54694350  0.61835342  0.87894592  1
  O  O23  1  0.07173205  0.61575888  0.35750569  1
  O  O24  1  0.42923774  0.38424112  0.64249431  1
  O  O25  1  0.16496096  0.89209822  0.14112051  1
  O  O26  1  0.94475117  0.38384744  0.61047665  1
  O  O27  1  0.95499175  0.38429003  0.12108315  1
  O  O28  1  0.69756734  0.89674159  0.60584828  1
  O  O29  1  0.42588942  0.38164658  0.12105408  1
  O  O30  1  0.17546930  0.88341938  0.64625117  1
  O  O31  1  0.69404992  0.89010826  0.13910501  1
