# generated using pymatgen
data_Li9Mn2Co5O16
_symmetry_space_group_name_H-M   'P 1'
_cell_length_a   5.78730169
_cell_length_b   8.50108273
_cell_length_c   6.51869709
_cell_angle_alpha   90.24287595
_cell_angle_beta   116.35299285
_cell_angle_gamma   89.99999815
_symmetry_Int_Tables_number   1
_chemical_formula_structural   Li9Mn2Co5O16
_chemical_formula_sum   'Li9 Mn2 Co5 O16'
_cell_volume   287.37651458
_cell_formula_units_Z   1
loop_
 _symmetry_equiv_pos_site_id
 _symmetry_equiv_pos_as_xyz
  1  'x, y, z'
loop_
 _atom_site_type_symbol
 _atom_site_label
 _atom_site_symmetry_multiplicity
 _atom_site_fract_x
 _atom_site_fract_y
 _atom_site_fract_z
 _atom_site_occupancy
  Li  Li0  1  0.62406314  0.25000000  0.75000000  1
  Li  Li1  1  0.37588313  0.75017504  0.25147822  1
  Li  Li2  1  0.12554583  0.25000000  0.75000000  1
  Li  Li3  1  0.49852449  0.50996700  0.99819097  1
  Li  Li4  1  0.25033352  0.99003300  0.50180903  1
  Li  Li5  1  0.99731488  0.50709263  0.99641719  1
  Li  Li6  1  0.87440491  0.74982496  0.24852178  1
  Li  Li7  1  0.75089769  0.99290737  0.50358281  1
  Li  Li8  1  0.62214020  0.75000000  0.75000000  1
  Mn  Mn9  1  -0.00018088  0.99802224  0.99532116  1
  Mn  Mn10  1  0.75449796  0.50197776  0.50467884  1
  Co  Co11  1  0.50068649  0.99157056  0.99228953  1
  Co  Co12  1  0.25839697  0.50842944  0.50771047  1
  Co  Co13  1  0.37654763  0.25217634  0.24889444  1
  Co  Co14  1  0.12322355  0.75000000  0.75000000  1
  Co  Co15  1  0.87765319  0.24782366  0.25110556  1
  O  O16  1  0.63983757  0.00426480  0.77374941  1
  O  O17  1  0.39441008  0.49829994  0.26603129  1
  O  O18  1  0.11921262  0.00709793  0.76456572  1
  O  O19  1  0.51405595  0.24820581  0.02384161  1
  O  O20  1  0.23933653  0.73951201  0.51979923  1
  O  O21  1  0.00421326  0.23021595  0.00842721  1
  O  O22  1  0.88555062  0.49444342  0.27072961  1
  O  O23  1  0.76929618  0.72797321  0.51461424  1
  O  O24  1  0.61608816  0.49573520  0.72625059  1
  O  O25  1  0.36482101  0.00555658  0.22927039  1
  O  O26  1  0.10464690  0.49290207  0.73543428  1
  O  O27  1  0.46953729  0.76048799  0.98020077  1
  O  O28  1  0.24021434  0.25179419  0.47615839  1
  O  O29  1  0.00468194  0.77202679  0.98538576  1
  O  O30  1  0.87837879  0.00170006  0.23396871  1
  O  O31  1  0.74578605  0.26978405  0.49157279  1
