# generated using pymatgen
data_Li9Mn2Co5O16
_symmetry_space_group_name_H-M   'P 1'
_cell_length_a   5.10959304
_cell_length_b   7.71514429
_cell_length_c   7.71514420
_cell_angle_alpha   96.39206690
_cell_angle_beta   76.26296026
_cell_angle_gamma   76.26296309
_symmetry_Int_Tables_number   1
_chemical_formula_structural   Li9Mn2Co5O16
_chemical_formula_sum   'Li9 Mn2 Co5 O16'
_cell_volume   282.42022864
_cell_formula_units_Z   1
loop_
 _symmetry_equiv_pos_site_id
 _symmetry_equiv_pos_as_xyz
  1  'x, y, z'
loop_
 _atom_site_type_symbol
 _atom_site_label
 _atom_site_symmetry_multiplicity
 _atom_site_fract_x
 _atom_site_fract_y
 _atom_site_fract_z
 _atom_site_occupancy
  Li  Li0  1  0.00606186  0.12949667  0.38229571  1
  Li  Li1  1  0.99393814  0.61770429  0.87050333  1
  Li  Li2  1  0.49791745  0.99302176  0.50108386  1
  Li  Li3  1  0.50208255  0.49891614  0.00697824  1
  Li  Li4  1  0.01115510  0.86624174  0.61364383  1
  Li  Li5  1  0.98884490  0.38635617  0.13375826  1
  Li  Li6  1  0.51071606  0.74968682  0.74068875  1
  Li  Li7  1  0.48928394  0.25931125  0.25031318  1
  Li  Li8  1  0.50000000  0.62584298  0.37415702  1
  Mn  Mn9  1  0.00000000  0.00005128  -0.00005128  1
  Mn  Mn10  1  0.50000000  0.87156023  0.12843977  1
  Co  Co11  1  1.00000000  0.50405673  0.49594327  1
  Co  Co12  1  0.50000000  0.38034028  0.61965972  1
  Co  Co13  1  0.00000000  0.74782967  0.25217033  1
  Co  Co14  1  1.00000000  0.25009636  0.74990364  1
  Co  Co15  1  0.50000000  0.12338157  0.87661843  1
  O  O16  1  0.75041400  0.98153997  0.23545947  1
  O  O17  1  0.76422005  0.49175745  0.73273488  1
  O  O18  1  0.24456820  0.87055656  0.35254297  1
  O  O19  1  0.27034372  0.35652569  0.86632134  1
  O  O20  1  0.78322021  0.73375727  0.48609342  1
  O  O21  1  0.77339557  0.24312688  0.99776833  1
  O  O22  1  0.23299117  0.60598375  0.61493982  1
  O  O23  1  0.28277116  0.11372169  0.11500295  1
  O  O24  1  0.23577995  0.26726512  0.50824255  1
  O  O25  1  0.24958600  0.76454053  0.01846003  1
  O  O26  1  0.72965628  0.13367866  0.64347431  1
  O  O27  1  0.75543180  0.64745703  0.12944344  1
  O  O28  1  0.22660443  0.00223167  0.75687312  1
  O  O29  1  0.21677979  0.51390658  0.26624273  1
  O  O30  1  0.71722884  0.88499705  0.88627831  1
  O  O31  1  0.76700883  0.38506018  0.39401625  1
