# generated using pymatgen
data_Li9Mn2Co5O16
_symmetry_space_group_name_H-M   'P 1'
_cell_length_a   5.15756173
_cell_length_b   5.83516405
_cell_length_c   10.19098025
_cell_angle_alpha   90.30933821
_cell_angle_beta   80.91083620
_cell_angle_gamma   106.69566236
_symmetry_Int_Tables_number   1
_chemical_formula_structural   Li9Mn2Co5O16
_chemical_formula_sum   'Li9 Mn2 Co5 O16'
_cell_volume   289.82262011
_cell_formula_units_Z   1
loop_
 _symmetry_equiv_pos_site_id
 _symmetry_equiv_pos_as_xyz
  1  'x, y, z'
loop_
 _atom_site_type_symbol
 _atom_site_label
 _atom_site_symmetry_multiplicity
 _atom_site_fract_x
 _atom_site_fract_y
 _atom_site_fract_z
 _atom_site_occupancy
  Li  Li0  1  0.50495295  0.12384642  0.13507620  1
  Li  Li1  1  0.48739740  0.87003658  0.38181681  1
  Li  Li2  1  0.50804379  0.62788167  0.61775323  1
  Li  Li3  1  0.48890243  0.37464875  0.86836382  1
  Li  Li4  1  0.51109757  0.62535125  0.13163618  1
  Li  Li5  1  0.49195621  0.37211833  0.38224677  1
  Li  Li6  1  0.51260260  0.12996342  0.61818319  1
  Li  Li7  1  0.49504705  0.87615358  0.86492380  1
  Li  Li8  1  -0.00000000  0.50000000  0.50000000  1
  Mn  Mn9  1  -0.00000000  -0.00000000  0.00000000  1
  Mn  Mn10  1  -0.00000000  0.50000000  0.00000000  1
  Co  Co11  1  0.98742091  0.74381130  0.26526558  1
  Co  Co12  1  0.01257909  0.25618870  0.73473442  1
  Co  Co13  1  0.00615934  0.25671220  0.26028978  1
  Co  Co14  1  -0.00000000  -0.00000000  0.50000000  1
  Co  Co15  1  0.99384066  0.74328780  0.73971022  1
  O  O16  1  0.22132113  0.30552915  0.05362553  1
  O  O17  1  0.23995268  0.05664097  0.31281437  1
  O  O18  1  0.22635882  0.82578634  0.56573615  1
  O  O19  1  0.22241045  0.55758819  0.82480055  1
  O  O20  1  0.21496504  0.80558976  0.05913033  1
  O  O21  1  0.23943186  0.55179978  0.29994633  1
  O  O22  1  0.23986755  0.31103923  0.57399246  1
  O  O23  1  0.21290766  0.04681657  0.82358786  1
  O  O24  1  0.78709234  0.95318343  0.17641214  1
  O  O25  1  0.76013245  0.68896077  0.42600754  1
  O  O26  1  0.76056814  0.44820022  0.70005367  1
  O  O27  1  0.78503496  0.19441024  0.94086967  1
  O  O28  1  0.77758955  0.44241181  0.17519945  1
  O  O29  1  0.77364118  0.17421366  0.43426385  1
  O  O30  1  0.76004732  0.94335903  0.68718563  1
  O  O31  1  0.77867887  0.69447085  0.94637447  1
