# generated using pymatgen
data_Li9Mn2Co5O16
_symmetry_space_group_name_H-M   'P 1'
_cell_length_a   5.08465021
_cell_length_b   10.22558221
_cell_length_c   5.93250292
_cell_angle_alpha   88.76254967
_cell_angle_beta   72.01142816
_cell_angle_gamma   80.69212361
_symmetry_Int_Tables_number   1
_chemical_formula_structural   Li9Mn2Co5O16
_chemical_formula_sum   'Li9 Mn2 Co5 O16'
_cell_volume   289.37911133
_cell_formula_units_Z   1
loop_
 _symmetry_equiv_pos_site_id
 _symmetry_equiv_pos_as_xyz
  1  'x, y, z'
loop_
 _atom_site_type_symbol
 _atom_site_label
 _atom_site_symmetry_multiplicity
 _atom_site_fract_x
 _atom_site_fract_y
 _atom_site_fract_z
 _atom_site_occupancy
  Li  Li0  1  -0.00097057  0.99305818  0.49585722  1
  Li  Li1  1  -0.00000000  0.25000000  0.25000000  1
  Li  Li2  1  0.50749823  0.86912659  0.61560456  1
  Li  Li3  1  0.50651281  0.12297012  0.37695117  1
  Li  Li4  1  -0.00000000  0.75000000  0.75000000  1
  Li  Li5  1  0.49250177  0.63087341  0.88439544  1
  Li  Li6  1  0.00097057  0.50694182  0.00414278  1
  Li  Li7  1  0.49348719  0.37702988  0.12304883  1
  Li  Li8  1  -0.00000000  0.75000000  0.25000000  1
  Mn  Mn9  1  -0.00168524  0.99579429  0.00383785  1
  Mn  Mn10  1  0.00168524  0.50420571  0.49616215  1
  Co  Co11  1  -0.00000000  0.25000000  0.75000000  1
  Co  Co12  1  0.48642784  0.87068204  0.13637985  1
  Co  Co13  1  0.50268586  0.12430027  0.87354558  1
  Co  Co14  1  0.49731414  0.37569973  0.62645442  1
  Co  Co15  1  0.51357216  0.62931796  0.36362015  1
  O  O16  1  0.75970700  0.94268169  0.28854762  1
  O  O17  1  0.76293578  0.17687920  0.04818913  1
  O  O18  1  0.27350195  0.81416714  0.42316976  1
  O  O19  1  0.24402726  0.06046379  0.16228262  1
  O  O20  1  0.75714468  0.66916222  0.55965382  1
  O  O21  1  0.24672577  0.55744530  0.66227544  1
  O  O22  1  0.76745788  0.42985015  0.79209563  1
  O  O23  1  0.26368326  0.30912003  0.91809588  1
  O  O24  1  0.23254212  0.07014985  0.70790437  1
  O  O25  1  0.23706422  0.32312080  0.45181087  1
  O  O26  1  0.75327423  0.94255470  0.83772456  1
  O  O27  1  0.73631674  0.19087997  0.58190412  1
  O  O28  1  0.24285532  0.83083778  0.94034618  1
  O  O29  1  0.72649805  0.68583286  0.07683024  1
  O  O30  1  0.24029300  0.55731831  0.21145238  1
  O  O31  1  0.75597274  0.43953621  0.33771738  1
