# generated using pymatgen
data_Li9Co7O16
_symmetry_space_group_name_H-M   'P 1'
_cell_length_a   2.96791264
_cell_length_b   12.50291392
_cell_length_c   7.78127006
_cell_angle_alpha   89.22587925
_cell_angle_beta   79.00585636
_cell_angle_gamma   90.00000084
_symmetry_Int_Tables_number   1
_chemical_formula_structural   Li9Co7O16
_chemical_formula_sum   'Li9 Co7 O16'
_cell_volume   283.41766050
_cell_formula_units_Z   1
loop_
 _symmetry_equiv_pos_site_id
 _symmetry_equiv_pos_as_xyz
  1  'x, y, z'
loop_
 _atom_site_type_symbol
 _atom_site_label
 _atom_site_symmetry_multiplicity
 _atom_site_fract_x
 _atom_site_fract_y
 _atom_site_fract_z
 _atom_site_occupancy
  Li  Li0  1  0.56139264  0.18574393  0.87721471  1
  Li  Li1  1  0.68860736  0.56425607  0.62278529  1
  Li  Li2  1  0.80465213  0.93252991  0.39069574  1
  Li  Li3  1  0.93799723  0.31356476  0.12400554  1
  Li  Li4  1  0.06252812  0.69704366  0.87494376  1
  Li  Li5  1  0.18747188  0.05295634  0.62505624  1
  Li  Li6  1  0.31200277  0.43643524  0.37599446  1
  Li  Li7  1  0.44534787  0.81747009  0.10930426  1
  Li  Li8  1  0.62500000  0.87500000  0.75000000  1
  Co  Co9  1  0.00354001  0.99593181  0.99291999  1
  Co  Co10  1  0.24645999  0.75406819  0.50708001  1
  Co  Co11  1  0.12500000  0.37500000  0.75000000  1
  Co  Co12  1  0.37711369  0.12619106  0.24577261  1
  Co  Co13  1  0.50054592  0.50321645  -0.00109183  1
  Co  Co14  1  0.74945408  0.24678355  0.50109183  1
  Co  Co15  1  0.87288631  0.62380894  0.25422739  1
  O  O16  1  0.58040410  0.02578328  0.83919180  1
  O  O17  1  0.71804756  0.39701096  0.56390488  1
  O  O18  1  0.83130154  0.77210270  0.33739693  1
  O  O19  1  0.96667099  0.14607678  0.06665803  1
  O  O20  1  0.09295491  0.52507427  0.81409019  1
  O  O21  1  0.22352854  0.89512849  0.55294292  1
  O  O22  1  0.34297512  0.27308165  0.31404975  1
  O  O23  1  0.46675715  0.65211388  0.06648570  1
  O  O24  1  0.53195244  0.35298904  0.93609512  1
  O  O25  1  0.66959590  0.72421672  0.66080820  1
  O  O26  1  0.78324285  0.09788612  0.43351430  1
  O  O27  1  0.90702488  0.47691835  0.18595025  1
  O  O28  1  0.02647146  0.85487151  0.94705708  1
  O  O29  1  0.15704509  0.22492573  0.68590981  1
  O  O30  1  0.28332901  0.60392322  0.43334197  1
  O  O31  1  0.41869846  0.97789730  0.16260307  1
