# generated using pymatgen
data_Li7Mn4CoO12
_symmetry_space_group_name_H-M   'P 1'
_cell_length_a   2.86576087
_cell_length_b   14.79836296
_cell_length_c   5.30445560
_cell_angle_alpha   98.22215675
_cell_angle_beta   90.00000000
_cell_angle_gamma   84.44351847
_symmetry_Int_Tables_number   1
_chemical_formula_structural   Li7Mn4CoO12
_chemical_formula_sum   'Li7 Mn4 Co1 O12'
_cell_volume   221.57402921
_cell_formula_units_Z   1
loop_
 _symmetry_equiv_pos_site_id
 _symmetry_equiv_pos_as_xyz
  1  'x, y, z'
loop_
 _atom_site_type_symbol
 _atom_site_label
 _atom_site_symmetry_multiplicity
 _atom_site_fract_x
 _atom_site_fract_y
 _atom_site_fract_z
 _atom_site_occupancy
  Li  Li0  1  0.42084115  0.15831870  0.23615529  1
  Li  Li1  1  0.25016226  0.49967548  0.74700517  1
  Li  Li2  1  0.07742178  0.84515543  0.26998294  1
  Li  Li3  1  0.92188104  0.15623892  0.73115157  1
  Li  Li4  1  0.75076526  0.49846947  0.24884938  1
  Li  Li5  1  0.57921276  0.84157347  0.76561736  1
  Li  Li6  1  0.49966552  0.00066897  0.49973227  1
  Mn  Mn7  1  0.99959169  0.00081661  -0.00093339  1
  Mn  Mn8  1  0.83422741  0.33154417  0.49702143  1
  Mn  Mn9  1  0.66675315  0.66649469  0.00369687  1
  Mn  Mn10  1  0.16604346  0.66791409  0.50463268  1
  Co  Co11  1  0.33339808  0.33320283  0.99555571  1
  O  O12  1  0.46191277  0.07617546  0.88609061  1
  O  O13  1  0.29553009  0.40893981  0.39216718  1
  O  O14  1  0.12909258  0.74181384  0.89634410  1
  O  O15  1  0.96182270  0.07635559  0.32986980  1
  O  O16  1  0.79660411  0.40679178  0.88658426  1
  O  O17  1  0.62788147  0.74423605  0.39484106  1
  O  O18  1  0.37204242  0.25591615  0.60949627  1
  O  O19  1  0.20611855  0.58776291  0.10628013  1
  O  O20  1  0.03733356  0.92533188  0.66980582  1
  O  O21  1  0.86905921  0.26188258  0.11090028  1
  O  O22  1  0.70538701  0.58922597  0.60479785  1
  O  O23  1  0.53725194  0.92549511  0.11435536  1
