# generated using pymatgen
data_Li9Co7O16
_symmetry_space_group_name_H-M   'P 1'
_cell_length_a   5.87997021
_cell_length_b   9.71164385
_cell_length_c   5.91842240
_cell_angle_alpha   80.81522856
_cell_angle_beta   58.85087241
_cell_angle_gamma   81.90657490
_symmetry_Int_Tables_number   1
_chemical_formula_structural   Li9Co7O16
_chemical_formula_sum   'Li9 Co7 O16'
_cell_volume   284.85267233
_cell_formula_units_Z   1
loop_
 _symmetry_equiv_pos_site_id
 _symmetry_equiv_pos_as_xyz
  1  'x, y, z'
loop_
 _atom_site_type_symbol
 _atom_site_label
 _atom_site_symmetry_multiplicity
 _atom_site_fract_x
 _atom_site_fract_y
 _atom_site_fract_z
 _atom_site_occupancy
  Li  Li0  1  0.12500000  0.25000000  0.12500000  1
  Li  Li1  1  0.74947044  0.49902572  0.24860176  1
  Li  Li2  1  0.37424545  0.74973463  0.37606232  1
  Li  Li3  1  0.00223041  0.00066349  0.50165148  1
  Li  Li4  1  0.62500000  0.25000000  0.62500000  1
  Li  Li5  1  0.24776959  0.49933651  0.74834852  1
  Li  Li6  1  0.87575455  0.75026537  0.87393768  1
  Li  Li7  1  0.50052956  0.00097428  0.00139824  1
  Li  Li8  1  0.12500000  0.25000000  0.62500000  1
  Co  Co9  1  -0.00029804  0.00688494  0.99323642  1
  Co  Co10  1  0.62500000  0.25000000  0.12500000  1
  Co  Co11  1  0.25029804  0.49311506  0.25676358  1
  Co  Co12  1  0.37249748  0.74994579  0.87201977  1
  Co  Co13  1  0.49207194  0.00592741  0.50091647  1
  Co  Co14  1  0.75792806  0.49407259  0.74908353  1
  Co  Co15  1  0.87750252  0.75005421  0.37798023  1
  O  O16  1  0.30775153  0.11068164  0.81109527  1
  O  O17  1  0.90701885  0.37001092  0.94508955  1
  O  O18  1  0.55308119  0.61579467  0.05327983  1
  O  O19  1  0.17095915  0.87056724  0.18756867  1
  O  O20  1  0.79729158  0.13275264  0.29954026  1
  O  O21  1  0.44782055  0.36767535  0.40341262  1
  O  O22  1  0.05964637  0.62132752  0.55701604  1
  O  O23  1  0.67146271  0.87033687  0.68833205  1
  O  O24  1  0.94224847  0.38931836  0.43890473  1
  O  O25  1  0.57853629  0.62966313  0.56166795  1
  O  O26  1  0.19035263  0.87867248  0.69298496  1
  O  O27  1  0.80217845  0.13232465  0.84658838  1
  O  O28  1  0.45270742  0.36724736  0.95046074  1
  O  O29  1  0.07903985  0.62943276  0.06243133  1
  O  O30  1  0.69691781  0.88420533  0.19672017  1
  O  O31  1  0.34298015  0.12998908  0.30491145  1
