# generated using pymatgen
data_Li9Mn2Co5O16
_symmetry_space_group_name_H-M   'P 1'
_cell_length_a   5.10449986
_cell_length_b   5.10988352
_cell_length_c   11.70882140
_cell_angle_alpha   105.60495563
_cell_angle_beta   91.07960820
_cell_angle_gamma   98.48639118
_symmetry_Int_Tables_number   1
_chemical_formula_structural   Li9Mn2Co5O16
_chemical_formula_sum   'Li9 Mn2 Co5 O16'
_cell_volume   290.37789147
_cell_formula_units_Z   1
loop_
 _symmetry_equiv_pos_site_id
 _symmetry_equiv_pos_as_xyz
  1  'x, y, z'
loop_
 _atom_site_type_symbol
 _atom_site_label
 _atom_site_symmetry_multiplicity
 _atom_site_fract_x
 _atom_site_fract_y
 _atom_site_fract_z
 _atom_site_occupancy
  Li  Li0  1  0.75247050  0.49579866  0.05789001  1
  Li  Li1  1  0.74736841  0.50030522  0.31429333  1
  Li  Li2  1  0.25263159  0.49969478  0.18570667  1
  Li  Li3  1  0.24752950  0.50420134  0.44210999  1
  Li  Li4  1  0.75576715  0.50895159  0.56726818  1
  Li  Li5  1  0.75790341  0.50184434  0.81079513  1
  Li  Li6  1  0.24423285  0.49104841  0.93273182  1
  Li  Li7  1  0.24209659  0.49815566  0.68920487  1
  Li  Li8  1  -0.00000000  -0.00000000  0.75000000  1
  Mn  Mn9  1  0.00071948  0.99641217  0.99552966  1
  Mn  Mn10  1  0.99928052  0.00358783  0.50447034  1
  Co  Co11  1  -0.00000000  -0.00000000  0.25000000  1
  Co  Co12  1  0.49959718  0.00543766  0.37585412  1
  Co  Co13  1  0.50717039  0.99480470  0.63040278  1
  Co  Co14  1  0.49282961  0.00519530  0.86959722  1
  Co  Co15  1  0.50040282  0.99456234  0.12414588  1
  O  O16  1  0.87708555  0.22787532  0.91455470  1
  O  O17  1  0.88078416  0.21994147  0.15074405  1
  O  O18  1  0.35798522  0.22074124  0.03274046  1
  O  O19  1  0.37594927  0.23207611  0.28230686  1
  O  O20  1  0.87117506  0.22581886  0.40462079  1
  O  O21  1  0.87259864  0.22847577  0.64152553  1
  O  O22  1  0.39744465  0.23915800  0.78498795  1
  O  O23  1  0.35185677  0.22050215  0.53017037  1
  O  O24  1  0.62405073  0.76792389  0.21769214  1
  O  O25  1  0.64201478  0.77925876  0.46726054  1
  O  O26  1  0.11921584  0.78005853  0.34925595  1
  O  O27  1  0.12291445  0.77212468  0.58544630  1
  O  O28  1  0.60255535  0.76084200  0.71501305  1
  O  O29  1  0.64814323  0.77949785  0.96982963  1
  O  O30  1  0.12882494  0.77418114  0.09537921  1
  O  O31  1  0.12740136  0.77152423  0.85847447  1
