# generated using pymatgen
data_Li9Co7O16
_symmetry_space_group_name_H-M   'P 1'
_cell_length_a   5.12058582
_cell_length_b   10.10470355
_cell_length_c   5.82049931
_cell_angle_alpha   73.81239581
_cell_angle_beta   90.35203309
_cell_angle_gamma   80.30855675
_symmetry_Int_Tables_number   1
_chemical_formula_structural   Li9Co7O16
_chemical_formula_sum   'Li9 Co7 O16'
_cell_volume   284.64825928
_cell_formula_units_Z   1
loop_
 _symmetry_equiv_pos_site_id
 _symmetry_equiv_pos_as_xyz
  1  'x, y, z'
loop_
 _atom_site_type_symbol
 _atom_site_label
 _atom_site_symmetry_multiplicity
 _atom_site_fract_x
 _atom_site_fract_y
 _atom_site_fract_z
 _atom_site_occupancy
  Li  Li0  1  0.49906962  0.99999466  0.74529520  1
  Li  Li1  1  0.24699517  0.24946112  0.37485780  1
  Li  Li2  1  0.50093038  0.00000534  0.25470480  1
  Li  Li3  1  0.24681619  0.24960644  0.87488027  1
  Li  Li4  1  0.75318381  0.75039356  0.12511973  1
  Li  Li5  1  0.75300483  0.75053888  0.62514220  1
  Li  Li6  1  0.00000000  0.50000000  0.50000000  1
  Li  Li7  1  0.00000000  0.50000000  0.00000000  1
  Li  Li8  1  0.00000000  -0.00000000  0.50000000  1
  Co  Co9  1  0.00000000  -0.00000000  0.00000000  1
  Co  Co10  1  0.75534160  0.24317725  0.62452742  1
  Co  Co11  1  0.50190952  0.50030904  0.24987209  1
  Co  Co12  1  0.24447753  0.75629196  0.86843029  1
  Co  Co13  1  0.75552247  0.24370804  0.13156971  1
  Co  Co14  1  0.49809048  0.49969096  0.75012791  1
  Co  Co15  1  0.24465840  0.75682275  0.37547258  1
  O  O16  1  0.34357893  0.88127081  0.05931536  1
  O  O17  1  0.10205057  0.11834616  0.71272938  1
  O  O18  1  0.37517715  0.86177314  0.56890700  1
  O  O19  1  0.10197685  0.11999573  0.16971664  1
  O  O20  1  0.60805974  0.62082701  0.43566842  1
  O  O21  1  0.60784289  0.62114454  0.93612878  1
  O  O22  1  0.85352991  0.36737779  0.81530345  1
  O  O23  1  0.86177726  0.37124523  0.31398531  1
  O  O24  1  0.62482285  0.13822686  0.43109300  1
  O  O25  1  0.39215711  0.37885546  0.06387022  1
  O  O26  1  0.65642107  0.11872919  0.94068564  1
  O  O27  1  0.39194026  0.37917299  0.56433158  1
  O  O28  1  0.89802315  0.88000427  0.83028336  1
  O  O29  1  0.89794943  0.88165384  0.28727162  1
  O  O30  1  0.14647009  0.63262221  0.18469755  1
  O  O31  1  0.13822274  0.62875477  0.68601569  1
