# generated using pymatgen
data_Li9Mn2Co5O16
_symmetry_space_group_name_H-M   'P 1'
_cell_length_a   5.76647256
_cell_length_b   5.86283609
_cell_length_c   8.96253446
_cell_angle_alpha   89.62428558
_cell_angle_beta   71.13311939
_cell_angle_gamma   90.17688602
_symmetry_Int_Tables_number   1
_chemical_formula_structural   Li9Mn2Co5O16
_chemical_formula_sum   'Li9 Mn2 Co5 O16'
_cell_volume   286.71413060
_cell_formula_units_Z   1
loop_
 _symmetry_equiv_pos_site_id
 _symmetry_equiv_pos_as_xyz
  1  'x, y, z'
loop_
 _atom_site_type_symbol
 _atom_site_label
 _atom_site_symmetry_multiplicity
 _atom_site_fract_x
 _atom_site_fract_y
 _atom_site_fract_z
 _atom_site_occupancy
  Li  Li0  1  0.61499601  0.25352430  0.26046437  1
  Li  Li1  1  0.37853563  0.74374509  0.74552280  1
  Li  Li2  1  0.25069260  0.00763564  0.49746929  1
  Li  Li3  1  0.00300647  0.49630258  0.99881933  1
  Li  Li4  1  0.88183929  0.74368977  0.73475604  1
  Li  Li5  1  0.50038918  0.49722304  0.99649307  1
  Li  Li6  1  0.12578159  0.25468311  0.26033847  1
  Li  Li7  1  0.74523183  0.00446528  0.50545085  1
  Li  Li8  1  0.25191236  0.49713280  0.49948160  1
  Mn  Mn9  1  0.00047086  0.00082849  0.00051894  1
  Mn  Mn10  1  0.62318943  0.74530591  0.25150402  1
  Co  Co11  1  0.75007778  0.49780257  0.49576562  1
  Co  Co12  1  0.49791770  0.00143312  0.00234751  1
  Co  Co13  1  0.37970033  0.25542016  0.74263274  1
  Co  Co14  1  0.12164980  0.74189041  0.26623706  1
  Co  Co15  1  0.87762846  0.25699925  0.74255309  1
  O  O16  1  0.74877083  0.22008316  -0.00056812  1
  O  O17  1  0.52732323  0.73471936  0.47520675  1
  O  O18  1  0.38409256  0.97957555  0.25577097  1
  O  O19  1  0.12050645  0.47515792  0.75783954  1
  O  O20  1  0.99243703  0.73847510  0.48581101  1
  O  O21  1  0.62382257  0.49759743  0.75148160  1
  O  O22  1  0.24731473  0.22333682  0.00111318  1
  O  O23  1  0.87762487  0.98256923  0.23258826  1
  O  O24  1  0.51095068  0.26687666  0.50956971  1
  O  O25  1  0.24784035  0.77996890  0.00722310  1
  O  O26  1  0.11378189  0.00109597  0.76822731  1
  O  O27  1  0.87109742  0.51741436  0.23819177  1
  O  O28  1  0.74202968  0.77465056  0.01440695  1
  O  O29  1  0.38876448  0.52028665  0.24104843  1
  O  O30  1  0.97934736  0.26771661  0.50763856  1
  O  O31  1  0.62127657  0.02239422  0.75409620  1
