# generated using pymatgen
data_Li9Mn2Co5O16
_symmetry_space_group_name_H-M   'P 1'
_cell_length_a   2.96391627
_cell_length_b   7.80727319
_cell_length_c   12.57412795
_cell_angle_alpha   90.57841571
_cell_angle_beta   90.07323520
_cell_angle_gamma   80.79622002
_symmetry_Int_Tables_number   1
_chemical_formula_structural   Li9Mn2Co5O16
_chemical_formula_sum   'Li9 Mn2 Co5 O16'
_cell_volume   287.20598933
_cell_formula_units_Z   1
loop_
 _symmetry_equiv_pos_site_id
 _symmetry_equiv_pos_as_xyz
  1  'x, y, z'
loop_
 _atom_site_type_symbol
 _atom_site_label
 _atom_site_symmetry_multiplicity
 _atom_site_fract_x
 _atom_site_fract_y
 _atom_site_fract_z
 _atom_site_occupancy
  Li  Li0  1  0.80740121  0.37592452  0.05325479  1
  Li  Li1  1  0.06077808  0.87387759  0.31184552  1
  Li  Li2  1  0.31043028  0.37496678  0.56082756  1
  Li  Li3  1  0.21381829  0.60806501  0.93713572  1
  Li  Li4  1  0.43956972  0.12503322  0.18917244  1
  Li  Li5  1  0.68922192  0.62612241  0.43815448  1
  Li  Li6  1  0.53618171  0.89193499  0.81286428  1
  Li  Li7  1  0.94259879  0.12407548  0.69674521  1
  Li  Li8  1  0.37500000  0.25000000  0.87500000  1
  Mn  Mn9  1  0.98447370  0.00527435  0.99667033  1
  Mn  Mn10  1  0.76552630  0.49472565  0.75332967  1
  Co  Co11  1  0.25716983  0.50035453  0.24906847  1
  Co  Co12  1  0.49283017  0.99964547  0.50093153  1
  Co  Co13  1  0.62249318  0.75112712  0.12667538  1
  Co  Co14  1  0.87500000  0.25000000  0.37500000  1
  Co  Co15  1  0.12750682  0.74887288  0.62332462  1
  O  O16  1  0.41711291  0.16259962  0.02802284  1
  O  O17  1  0.67456684  0.68133653  0.27231723  1
  O  O18  1  0.90515578  0.18508953  0.52419491  1
  O  O19  1  0.78152343  0.44836374  0.89605495  1
  O  O20  1  0.99724596  0.92651602  0.14823076  1
  O  O21  1  0.29291260  0.43468531  0.39796996  1
  O  O22  1  0.18897561  0.66792485  0.76952646  1
  O  O23  1  0.49005590  0.93096412  0.64963843  1
  O  O24  1  0.25994510  0.56903588  0.10036157  1
  O  O25  1  0.45708740  0.06531469  0.35202904  1
  O  O26  1  0.75275404  0.57348398  0.60176824  1
  O  O27  1  0.56102439  0.83207515  0.98047354  1
  O  O28  1  0.84484422  0.31491047  0.22580509  1
  O  O29  1  0.07543316  0.81866347  0.47768277  1
  O  O30  1  0.96847557  0.05163626  0.85394505  1
  O  O31  1  0.33288709  0.33740038  0.72197716  1
