# generated using pymatgen
data_Li9Mn2Co5O16
_symmetry_space_group_name_H-M   'P 1'
_cell_length_a   5.80654903
_cell_length_b   6.51921230
_cell_length_c   8.96402562
_cell_angle_alpha   81.31562893
_cell_angle_beta   71.10222247
_cell_angle_gamma   63.55482512
_symmetry_Int_Tables_number   1
_chemical_formula_structural   Li9Mn2Co5O16
_chemical_formula_sum   'Li9 Mn2 Co5 O16'
_cell_volume   287.43306461
_cell_formula_units_Z   1
loop_
 _symmetry_equiv_pos_site_id
 _symmetry_equiv_pos_as_xyz
  1  'x, y, z'
loop_
 _atom_site_type_symbol
 _atom_site_label
 _atom_site_symmetry_multiplicity
 _atom_site_fract_x
 _atom_site_fract_y
 _atom_site_fract_z
 _atom_site_occupancy
  Li  Li0  1  0.49997717  0.24887449  0.25084366  1
  Li  Li1  1  0.99981689  0.75114619  0.74966105  1
  Li  Li2  1  0.24617368  0.00485239  0.50169254  1
  Li  Li3  1  0.75271860  0.49514761  0.99830746  1
  Li  Li4  1  0.25806702  0.49735825  0.98472337  1
  Li  Li5  1  0.74014864  0.00264175  0.51527663  1
  Li  Li6  1  0.99969532  0.25112551  0.24915634  1
  Li  Li7  1  0.50062413  0.74885381  0.75033895  1
  Li  Li8  1  0.74702763  0.25000000  0.75000000  1
  Mn  Mn9  1  0.00184060  0.00364206  0.99753546  1
  Mn  Mn10  1  0.00301812  0.49635794  0.50246454  1
  Co  Co11  1  0.50686546  0.49125917  0.50620791  1
  Co  Co12  1  0.74805181  0.75000000  0.25000000  1
  Co  Co13  1  0.24812360  0.25000000  0.75000000  1
  Co  Co14  1  0.25491499  0.75000000  0.25000000  1
  Co  Co15  1  0.50433254  0.00874083  0.99379209  1
  O  O16  1  0.63855159  0.22629965  0.00343301  1
  O  O17  1  0.13519844  0.73033960  0.49374870  1
  O  O18  1  0.38673721  0.98117469  0.24685559  1
  O  O19  1  0.90470757  0.48630955  0.72815665  1
  O  O20  1  0.36889061  0.48169925  0.73877361  1
  O  O21  1  0.89219023  0.98407477  0.23263446  1
  O  O22  1  0.11700305  0.23469406  0.00664353  1
  O  O23  1  0.64835528  0.73407841  0.49642030  1
  O  O24  1  0.35834063  0.26530594  0.49335647  1
  O  O25  1  0.87885399  0.76592159  0.00357970  1
  O  O26  1  0.11917378  0.01369045  0.77184335  1
  O  O27  1  0.61476749  0.51882531  0.25314441  1
  O  O28  1  0.10889946  0.51592523  0.26736554  1
  O  O29  1  0.58936348  0.01830075  0.76122639  1
  O  O30  1  0.86828425  0.27370035  0.49656699  1
  O  O31  1  0.35928674  0.76966040  0.00625130  1
