# generated using pymatgen
data_Li9Mn2Co5O16
_symmetry_space_group_name_H-M   'P 1'
_cell_length_a   5.92538179
_cell_length_b   7.72205537
_cell_length_c   7.64271285
_cell_angle_alpha   114.75328395
_cell_angle_beta   110.74872018
_cell_angle_gamma   68.91891660
_symmetry_Int_Tables_number   1
_chemical_formula_structural   Li9Mn2Co5O16
_chemical_formula_sum   'Li9 Mn2 Co5 O16'
_cell_volume   287.62927530
_cell_formula_units_Z   1
loop_
 _symmetry_equiv_pos_site_id
 _symmetry_equiv_pos_as_xyz
  1  'x, y, z'
loop_
 _atom_site_type_symbol
 _atom_site_label
 _atom_site_symmetry_multiplicity
 _atom_site_fract_x
 _atom_site_fract_y
 _atom_site_fract_z
 _atom_site_occupancy
  Li  Li0  1  0.37739056  0.13184746  0.38165240  1
  Li  Li1  1  0.23420186  0.25243396  0.74056450  1
  Li  Li2  1  0.62394334  0.87572122  0.62428360  1
  Li  Li3  1  0.49899435  0.00366957  0.00202737  1
  Li  Li4  1  0.87395150  0.62097873  0.87193739  1
  Li  Li5  1  0.75370984  0.75748040  0.25532914  1
  Li  Li6  1  0.12614278  0.37322249  0.12405151  1
  Li  Li7  1  0.00679582  0.48724875  0.49946794  1
  Li  Li8  1  0.87519832  0.12868754  0.37938559  1
  Mn  Mn9  1  0.00481986  0.00320322  0.00468492  1
  Mn  Mn10  1  0.24505062  0.75301530  0.25062975  1
  Co  Co11  1  0.75255320  0.24659610  0.74592878  1
  Co  Co12  1  0.63507481  0.37086177  0.13140804  1
  Co  Co13  1  0.50791339  0.49279938  0.50027716  1
  Co  Co14  1  0.37399203  0.61925040  0.86656807  1
  Co  Co15  1  0.11375831  0.88103213  0.62025160  1
  O  O16  1  -0.00614866  0.23827959  0.23174567  1
  O  O17  1  0.85275896  0.37416332  0.62879198  1
  O  O18  1  0.24979626  0.97614165  0.49370722  1
  O  O19  1  0.12943656  0.11046099  0.88005912  1
  O  O20  1  0.49094865  0.73428959  0.74614829  1
  O  O21  1  0.34818426  0.87632805  0.12355295  1
  O  O22  1  0.73207075  0.47953677  0.98329152  1
  O  O23  1  0.59350396  0.63207760  0.36115256  1
  O  O24  1  0.76011716  0.01701033  0.52415027  1
  O  O25  1  0.66608919  0.11857785  0.88686404  1
  O  O26  1  0.01063701  0.76593620  0.75990340  1
  O  O27  1  0.90829876  0.87224237  0.12624620  1
  O  O28  1  0.25907380  0.51921788  0.00984934  1
  O  O29  1  0.12683695  0.63717641  0.36811550  1
  O  O30  1  0.50329776  0.27046524  0.25252315  1
  O  O31  1  0.37160902  0.38004174  0.62544600  1
