# generated using pymatgen
data_Li9Mn2Co5O16
_symmetry_space_group_name_H-M   'P 1'
_cell_length_a   5.17697255
_cell_length_b   5.83961057
_cell_length_c   9.74727577
_cell_angle_alpha   89.95644480
_cell_angle_beta   79.50704537
_cell_angle_gamma   90.29146158
_symmetry_Int_Tables_number   1
_chemical_formula_structural   Li9Mn2Co5O16
_chemical_formula_sum   'Li9 Mn2 Co5 O16'
_cell_volume   289.74287199
_cell_formula_units_Z   1
loop_
 _symmetry_equiv_pos_site_id
 _symmetry_equiv_pos_as_xyz
  1  'x, y, z'
loop_
 _atom_site_type_symbol
 _atom_site_label
 _atom_site_symmetry_multiplicity
 _atom_site_fract_x
 _atom_site_fract_y
 _atom_site_fract_z
 _atom_site_occupancy
  Li  Li0  1  0.49909268  0.25122218  0.00019810  1
  Li  Li1  1  0.25640912  0.50790767  0.26259196  1
  Li  Li2  1  0.50090732  0.74877782  0.99980190  1
  Li  Li3  1  0.24589115  0.00049377  0.26051006  1
  Li  Li4  1  0.75410885  0.99950623  0.73948994  1
  Li  Li5  1  0.74359088  0.49209233  0.73740804  1
  Li  Li6  1  0.00353469  0.74637051  0.50032815  1
  Li  Li7  1  0.99646531  0.25362949  0.49967185  1
  Li  Li8  1  0.50000000  0.50000000  0.50000000  1
  Mn  Mn9  1  -0.00000000  0.00000000  0.00000000  1
  Mn  Mn10  1  -0.00000000  0.50000000  0.00000000  1
  Co  Co11  1  0.73082124  0.25243059  0.26172265  1
  Co  Co12  1  0.26917876  0.74756941  0.73827735  1
  Co  Co13  1  0.74822159  0.74341755  0.26173987  1
  Co  Co14  1  0.50000000  0.00000000  0.50000000  1
  Co  Co15  1  0.25177841  0.25658245  0.73826013  1
  O  O16  1  0.33805343  0.00767904  0.87617708  1
  O  O17  1  0.10144768  0.24907531  0.11253901  1
  O  O18  1  0.34470807  0.50061127  0.87914477  1
  O  O19  1  0.11184629  0.74938407  0.10886466  1
  O  O20  1  0.60430921  0.74945215  0.63403293  1
  O  O21  1  0.60588485  0.23237654  0.62302121  1
  O  O22  1  0.88014331  0.50696040  0.36007240  1
  O  O23  1  0.86636158  0.00344546  0.37244819  1
  O  O24  1  0.65529193  0.49938873  0.12085523  1
  O  O25  1  0.39411515  0.76762346  0.37697879  1
  O  O26  1  0.66194657  0.99232096  0.12382292  1
  O  O27  1  0.39569079  0.25054785  0.36596707  1
  O  O28  1  0.88815371  0.25061593  0.89113534  1
  O  O29  1  0.89855232  0.75092469  0.88746099  1
  O  O30  1  0.13363842  0.99655454  0.62755181  1
  O  O31  1  0.11985669  0.49303960  0.63992760  1
