# generated using pymatgen
data_Li9Mn2Co5O16
_symmetry_space_group_name_H-M   'P 1'
_cell_length_a   5.78102070
_cell_length_b   5.84502417
_cell_length_c   8.95976907
_cell_angle_alpha   89.73237796
_cell_angle_beta   71.17916101
_cell_angle_gamma   90.00000250
_symmetry_Int_Tables_number   1
_chemical_formula_structural   Li9Mn2Co5O16
_chemical_formula_sum   'Li9 Mn2 Co5 O16'
_cell_volume   286.56137906
_cell_formula_units_Z   1
loop_
 _symmetry_equiv_pos_site_id
 _symmetry_equiv_pos_as_xyz
  1  'x, y, z'
loop_
 _atom_site_type_symbol
 _atom_site_label
 _atom_site_symmetry_multiplicity
 _atom_site_fract_x
 _atom_site_fract_y
 _atom_site_fract_z
 _atom_site_occupancy
  Li  Li0  1  0.62466052  0.25000000  0.25000000  1
  Li  Li1  1  0.37408465  0.74828655  0.75110661  1
  Li  Li2  1  0.25757886  0.99666321  0.48670982  1
  Li  Li3  1  0.99724429  0.50352676  0.00306670  1
  Li  Li4  1  0.87519126  0.75171345  0.74889339  1
  Li  Li5  1  0.49428868  0.50333679  0.01329018  1
  Li  Li6  1  0.12401862  0.25000000  0.25000000  1
  Li  Li7  1  0.75031099  0.99647324  0.49693330  1
  Li  Li8  1  0.62244227  0.75000000  0.25000000  1
  Mn  Mn9  1  0.00164692  0.99430878  0.00150740  1
  Mn  Mn10  1  0.75315432  0.50569122  0.49849260  1
  Co  Co11  1  0.50010054  0.99334664  0.00879167  1
  Co  Co12  1  0.25889221  0.50665336  0.49120833  1
  Co  Co13  1  0.37814605  0.24879138  0.74801507  1
  Co  Co14  1  0.12283080  0.75000000  0.25000000  1
  Co  Co15  1  0.87616112  0.25120862  0.75198493  1
  O  O16  1  0.76313224  0.23554936  0.00005922  1
  O  O17  1  0.49911190  0.72513149  0.50414606  1
  O  O18  1  0.35885348  0.98126216  0.24067081  1
  O  O19  1  0.12841870  0.47309907  0.74696595  1
  O  O20  1  0.98441422  0.73580770  0.50685909  1
  O  O21  1  0.63403819  0.49358259  0.73206918  1
  O  O22  1  0.25265676  0.22678297  0.99313223  1
  O  O23  1  0.89851807  0.98425791  0.22705823  1
  O  O24  1  0.51319146  0.26445064  0.49994078  1
  O  O25  1  0.24127332  0.76419230  0.99314091  1
  O  O26  1  0.11610737  0.00641741  0.76793082  1
  O  O27  1  0.87557629  0.51574209  0.27294177  1
  O  O28  1  0.75325796  0.77486851  0.99585394  1
  O  O29  1  0.34952429  0.51873784  0.25932919  1
  O  O30  1  0.99578899  0.27321703  0.50686777  1
  O  O31  1  0.62538466  0.02690093  0.75303405  1
