# generated using pymatgen
data_Li9Mn2Co5O16
_symmetry_space_group_name_H-M   'P 1'
_cell_length_a   5.78101171
_cell_length_b   5.93089742
_cell_length_c   9.71336304
_cell_angle_alpha   97.63799467
_cell_angle_beta   90.00000043
_cell_angle_gamma   60.83252287
_symmetry_Int_Tables_number   1
_chemical_formula_structural   Li9Mn2Co5O16
_chemical_formula_sum   'Li9 Mn2 Co5 O16'
_cell_volume   287.41980688
_cell_formula_units_Z   1
loop_
 _symmetry_equiv_pos_site_id
 _symmetry_equiv_pos_as_xyz
  1  'x, y, z'
loop_
 _atom_site_type_symbol
 _atom_site_label
 _atom_site_symmetry_multiplicity
 _atom_site_fract_x
 _atom_site_fract_y
 _atom_site_fract_z
 _atom_site_occupancy
  Li  Li0  1  0.50116084  0.49508297  0.00740304  1
  Li  Li1  1  0.00068575  0.49732230  0.00303485  1
  Li  Li2  1  0.12792603  0.73445322  0.24396640  1
  Li  Li3  1  0.61237924  0.76554678  0.25603360  1
  Li  Li4  1  0.74624381  0.00491703  0.49259696  1
  Li  Li5  1  0.24800805  0.00267770  0.49696515  1
  Li  Li6  1  0.37933811  0.25000000  0.75000000  1
  Li  Li7  1  0.87767632  0.25000000  0.75000000  1
  Li  Li8  1  0.62180454  0.25000000  0.25000000  1
  Mn  Mn9  1  0.00439476  0.99615528  0.00358927  1
  Mn  Mn10  1  0.75055004  0.50384472  0.49641073  1
  Co  Co11  1  0.50114960  0.00622699  0.00864961  1
  Co  Co12  1  0.12117677  0.25000000  0.25000000  1
  Co  Co13  1  0.25737658  0.49377301  0.49135039  1
  Co  Co14  1  0.87661849  0.75435731  0.74995948  1
  Co  Co15  1  0.38097580  0.74564269  0.75004052  1
  O  O16  1  0.70636004  0.11312458  0.88246165  1
  O  O17  1  0.20037542  0.10068990  0.88303274  1
  O  O18  1  0.30445582  0.34647130  0.12940727  1
  O  O19  1  0.84630800  0.32906853  0.11977213  1
  O  O20  1  0.92086202  0.63209833  0.38473960  1
  O  O21  1  0.44197890  0.61986639  0.38894847  1
  O  O22  1  0.57612330  0.84997318  0.62050596  1
  O  O23  1  0.07369929  0.86091747  0.63709942  1
  O  O24  1  0.30296036  0.86790167  0.11526040  1
  O  O25  1  0.81184529  0.88013361  0.11105153  1
  O  O26  1  0.92537653  0.17093147  0.38022787  1
  O  O27  1  0.40092712  0.15352870  0.37059273  1
  O  O28  1  0.56948462  0.38687542  0.61753835  1
  O  O29  1  0.05106533  0.39931010  0.61696726  1
  O  O30  1  0.17609647  0.65002682  0.87949404  1
  O  O31  1  0.68461675  0.63908253  0.86290058  1
