# generated using pymatgen
data_Li9Mn2Co5O16
_symmetry_space_group_name_H-M   'P 1'
_cell_length_a   5.00516094
_cell_length_b   5.81295408
_cell_length_c   10.06987418
_cell_angle_alpha   104.86990807
_cell_angle_beta   80.73855634
_cell_angle_gamma   87.85990431
_symmetry_Int_Tables_number   1
_chemical_formula_structural   Li9Mn2Co5O16
_chemical_formula_sum   'Li9 Mn2 Co5 O16'
_cell_volume   278.52630064
_cell_formula_units_Z   1
loop_
 _symmetry_equiv_pos_site_id
 _symmetry_equiv_pos_as_xyz
  1  'x, y, z'
loop_
 _atom_site_type_symbol
 _atom_site_label
 _atom_site_symmetry_multiplicity
 _atom_site_fract_x
 _atom_site_fract_y
 _atom_site_fract_z
 _atom_site_occupancy
  Li  Li0  1  0.25074375  0.12992352  0.25048829  1
  Li  Li1  1  0.24084155  0.61529183  0.73881721  1
  Li  Li2  1  0.75915845  0.38470817  0.26118279  1
  Li  Li3  1  0.74925625  0.87007648  0.74951171  1
  Li  Li4  1  0.24808940  0.62300751  0.25200175  1
  Li  Li5  1  0.25394051  0.11581204  0.74306731  1
  Li  Li6  1  0.74605949  0.88418796  0.25693269  1
  Li  Li7  1  0.75191060  0.37699249  0.74799825  1
  Li  Li8  1  -0.00000000  0.50000000  0.50000000  1
  Mn  Mn9  1  -0.00000000  -0.00000000  -0.00000000  1
  Mn  Mn10  1  -0.00000000  0.50000000  -0.00000000  1
  Co  Co11  1  0.50013120  0.25025484  0.00026192  1
  Co  Co12  1  0.50567396  0.74438825  0.49919696  1
  Co  Co13  1  -0.00000000  -0.00000000  0.50000000  1
  Co  Co14  1  0.49986880  0.74974516  0.99973808  1
  Co  Co15  1  0.49432604  0.25561175  0.50080304  1
  O  O16  1  0.14083926  0.82826782  0.11932190  1
  O  O17  1  0.15411211  0.30084456  0.61263375  1
  O  O18  1  0.62389926  0.04631616  0.10865075  1
  O  O19  1  0.60156395  0.55320212  0.60942675  1
  O  O20  1  0.14033596  0.32918642  0.12026583  1
  O  O21  1  0.14236209  0.81633841  0.60996613  1
  O  O22  1  0.62371488  0.54718747  0.10850022  1
  O  O23  1  0.61696376  0.04627331  0.60851652  1
  O  O24  1  0.39843605  0.44679788  0.39057325  1
  O  O25  1  0.37610074  0.95368384  0.89134925  1
  O  O26  1  0.84588789  0.69915544  0.38736625  1
  O  O27  1  0.85916074  0.17173218  0.88067810  1
  O  O28  1  0.38303624  0.95372669  0.39148348  1
  O  O29  1  0.37628512  0.45281253  0.89149978  1
  O  O30  1  0.85763791  0.18366159  0.39003387  1
  O  O31  1  0.85966404  0.67081358  0.87973417  1
