# generated using pymatgen
data_Li9Mn2Co5O16
_symmetry_space_group_name_H-M   'P 1'
_cell_length_a   5.89663130
_cell_length_b   7.75901668
_cell_length_c   6.48806144
_cell_angle_alpha   89.05295056
_cell_angle_beta   76.88053670
_cell_angle_gamma   81.47499475
_symmetry_Int_Tables_number   1
_chemical_formula_structural   Li9Mn2Co5O16
_chemical_formula_sum   'Li9 Mn2 Co5 O16'
_cell_volume   285.85498280
_cell_formula_units_Z   1
loop_
 _symmetry_equiv_pos_site_id
 _symmetry_equiv_pos_as_xyz
  1  'x, y, z'
loop_
 _atom_site_type_symbol
 _atom_site_label
 _atom_site_symmetry_multiplicity
 _atom_site_fract_x
 _atom_site_fract_y
 _atom_site_fract_z
 _atom_site_occupancy
  Li  Li0  1  0.87860640  0.38413990  0.13571209  1
  Li  Li1  1  0.38743156  0.86617258  0.61660146  1
  Li  Li2  1  0.64657573  0.61571930  0.87055573  1
  Li  Li3  1  0.12092371  0.13438728  0.37697093  1
  Li  Li4  1  0.36006892  0.38766135  0.13663576  1
  Li  Li5  1  0.88084391  0.86048868  0.61850007  1
  Li  Li6  1  0.11303658  0.62449508  0.86254121  1
  Li  Li7  1  0.62208068  0.12588067  0.38041895  1
  Li  Li8  1  0.00286956  0.50099274  0.50152052  1
  Mn  Mn9  1  0.99592683  0.00195846  0.00027303  1
  Mn  Mn10  1  0.75196493  0.25312878  0.74757547  1
  Co  Co11  1  0.49965826  0.49995981  0.50262364  1
  Co  Co12  1  0.24537677  0.74161576  0.25587186  1
  Co  Co13  1  0.49732042  0.99908173  0.99767403  1
  Co  Co14  1  0.24371089  0.25655818  0.75279069  1
  Co  Co15  1  0.75620132  0.74115595  0.25149316  1
  O  O16  1  0.17228349  0.18606350  0.04312864  1
  O  O17  1  0.68252225  0.68385617  0.54618025  1
  O  O18  1  0.92575160  0.42314900  0.81134032  1
  O  O19  1  0.43670717  0.93181990  0.28358353  1
  O  O20  1  0.70124437  0.16565773  0.04538912  1
  O  O21  1  0.20562119  0.68443415  0.55361904  1
  O  O22  1  0.45797330  0.41271472  0.81018571  1
  O  O23  1  0.93913805  0.93630359  0.29097297  1
  O  O24  1  0.55861402  0.56680699  0.19226139  1
  O  O25  1  0.04229573  0.08268163  0.70592713  1
  O  O26  1  0.28956480  0.84483697  0.94142802  1
  O  O27  1  0.80444138  0.30950630  0.46071150  1
  O  O28  1  0.07049634  0.57689859  0.18198963  1
  O  O29  1  0.56437754  0.06802610  0.71242391  1
  O  O30  1  0.82489359  0.81966928  0.94762581  1
  O  O31  1  0.32147873  0.31417914  0.46547441  1
