# generated using pymatgen
data_Li9Mn2Co5O16
_symmetry_space_group_name_H-M   'P 1'
_cell_length_a   5.16383999
_cell_length_b   10.14065513
_cell_length_c   5.79483742
_cell_angle_alpha   106.60207575
_cell_angle_beta   89.99999979
_cell_angle_gamma   98.52782410
_symmetry_Int_Tables_number   1
_chemical_formula_structural   Li9Mn2Co5O16
_chemical_formula_sum   'Li9 Mn2 Co5 O16'
_cell_volume   287.29251126
_cell_formula_units_Z   1
loop_
 _symmetry_equiv_pos_site_id
 _symmetry_equiv_pos_as_xyz
  1  'x, y, z'
loop_
 _atom_site_type_symbol
 _atom_site_label
 _atom_site_symmetry_multiplicity
 _atom_site_fract_x
 _atom_site_fract_y
 _atom_site_fract_z
 _atom_site_occupancy
  Li  Li0  1  0.50039596  0.99519405  0.74849632  1
  Li  Li1  1  0.74695251  0.24882058  0.62150544  1
  Li  Li2  1  0.99960404  0.50480595  0.50330227  1
  Li  Li3  1  0.25000000  0.75000000  0.37751680  1
  Li  Li4  1  0.50318779  0.99410711  0.24828192  1
  Li  Li5  1  0.75304749  0.25117942  0.12268486  1
  Li  Li6  1  0.99681221  0.50589289  0.00417481  1
  Li  Li7  1  0.25000000  0.75000000  0.87887194  1
  Li  Li8  1  0.75000000  0.75000000  0.12762527  1
  Mn  Mn9  1  0.00195249  0.99652694  0.99624509  1
  Mn  Mn10  1  0.49804751  0.50347306  0.74971814  1
  Co  Co11  1  0.25312352  0.25114870  0.87317717  1
  Co  Co12  1  0.75000000  0.75000000  0.62689759  1
  Co  Co13  1  0.99179831  0.99146632  0.49215798  1
  Co  Co14  1  0.24687648  0.24885130  0.37202848  1
  Co  Co15  1  0.50820169  0.50853368  0.25069166  1
  O  O16  1  0.12906947  0.88589574  0.70629491  1
  O  O17  1  0.36084399  0.13624449  0.56609368  1
  O  O18  1  0.60142595  0.38225707  0.44197337  1
  O  O19  1  0.84866633  0.62963416  0.33425425  1
  O  O20  1  0.12110166  0.88856158  0.19115863  1
  O  O21  1  0.34646078  0.11982851  0.05917205  1
  O  O22  1  0.61293105  0.38166068  0.92875966  1
  O  O23  1  0.83083111  0.62146338  0.79837839  1
  O  O24  1  0.89857405  0.11774293  0.80971630  1
  O  O25  1  0.15353922  0.38017149  0.68934354  1
  O  O26  1  0.37093053  0.61410426  0.57039917  1
  O  O27  1  0.65133367  0.87036584  0.45462008  1
  O  O28  1  0.88706895  0.11833932  0.29709898  1
  O  O29  1  0.13915601  0.36375551  0.17984919  1
  O  O30  1  0.37889834  0.61143842  0.05259705  1
  O  O31  1  0.66916889  0.87853662  0.92691501  1
