# generated using pymatgen
data_Li9Mn2Co5O16
_symmetry_space_group_name_H-M   'P 1'
_cell_length_a   5.89283068
_cell_length_b   10.15046162
_cell_length_c   5.92644594
_cell_angle_alpha   88.86014734
_cell_angle_beta   120.12752194
_cell_angle_gamma   107.18400181
_symmetry_Int_Tables_number   1
_chemical_formula_structural   Li9Mn2Co5O16
_chemical_formula_sum   'Li9 Mn2 Co5 O16'
_cell_volume   289.35784528
_cell_formula_units_Z   1
loop_
 _symmetry_equiv_pos_site_id
 _symmetry_equiv_pos_as_xyz
  1  'x, y, z'
loop_
 _atom_site_type_symbol
 _atom_site_label
 _atom_site_symmetry_multiplicity
 _atom_site_fract_x
 _atom_site_fract_y
 _atom_site_fract_z
 _atom_site_occupancy
  Li  Li0  1  0.00230748  0.00572716  0.50540224  1
  Li  Li1  1  0.99203700  0.24814756  0.24142588  1
  Li  Li2  1  0.99726961  0.49400110  0.99393106  1
  Li  Li3  1  0.50043487  0.00272025  0.00220231  1
  Li  Li4  1  0.50486317  0.25091903  0.75479025  1
  Li  Li5  1  0.49909452  0.49741405  0.49810591  1
  Li  Li6  1  0.49563893  0.74930503  0.24563184  1
  Li  Li7  1  0.00531974  0.75080440  0.75477130  1
  Li  Li8  1  0.00081214  0.25028848  0.75140900  1
  Mn  Mn9  1  0.00069365  0.00282566  0.99856351  1
  Mn  Mn10  1  0.49512966  0.49722685  0.99479208  1
  Co  Co11  1  0.99449364  0.49166111  0.50635693  1
  Co  Co12  1  0.00338776  0.74853921  0.25176033  1
  Co  Co13  1  0.51392336  0.00835276  0.50728980  1
  Co  Co14  1  0.49437007  0.24926954  0.24427892  1
  Co  Co15  1  0.50031920  0.75141083  0.75093355  1
  O  O16  1  0.76804781  0.87689860  0.11759125  1
  O  O17  1  0.75766307  0.11316976  0.87524745  1
  O  O18  1  0.75791414  0.37942151  0.60724192  1
  O  O19  1  0.26723584  0.86980702  0.61928401  1
  O  O20  1  0.23492904  0.11717357  0.34857839  1
  O  O21  1  0.28159129  0.37829080  0.12671140  1
  O  O22  1  0.26541499  0.61767843  0.87620852  1
  O  O23  1  0.74374513  0.62027102  0.34216908  1
  O  O24  1  0.23723906  0.11807034  0.89055616  1
  O  O25  1  0.26948734  0.38788751  0.65287140  1
  O  O26  1  0.23764580  0.62771169  0.38611314  1
  O  O27  1  0.71956019  0.12431471  0.37224352  1
  O  O28  1  0.73635137  0.38187534  0.12091673  1
  O  O29  1  0.72892191  0.62599549  0.87919121  1
  O  O30  1  0.76450278  0.88430498  0.65461263  1
  O  O31  1  0.22965546  0.87851622  0.12881828  1
