# generated using pymatgen
data_Li9Mn2Co5O16
_symmetry_space_group_name_H-M   'P 1'
_cell_length_a   5.91109617
_cell_length_b   7.87727206
_cell_length_c   6.43836254
_cell_angle_alpha   86.09304026
_cell_angle_beta   76.98004076
_cell_angle_gamma   75.94694256
_symmetry_Int_Tables_number   1
_chemical_formula_structural   Li9Mn2Co5O16
_chemical_formula_sum   'Li9 Mn2 Co5 O16'
_cell_volume   283.31401971
_cell_formula_units_Z   1
loop_
 _symmetry_equiv_pos_site_id
 _symmetry_equiv_pos_as_xyz
  1  'x, y, z'
loop_
 _atom_site_type_symbol
 _atom_site_label
 _atom_site_symmetry_multiplicity
 _atom_site_fract_x
 _atom_site_fract_y
 _atom_site_fract_z
 _atom_site_occupancy
  Li  Li0  1  0.92500283  0.37823819  0.86626874  1
  Li  Li1  1  0.18809046  0.87286255  0.37861782  1
  Li  Li2  1  0.45138923  0.38014302  0.87010700  1
  Li  Li3  1  0.05931816  0.61499636  0.13752906  1
  Li  Li4  1  0.31040869  0.13232355  0.61534633  1
  Li  Li5  1  0.56504600  0.61435672  0.13835884  1
  Li  Li6  1  0.68592702  0.86892585  0.37719206  1
  Li  Li7  1  0.81949502  0.13922863  0.61570162  1
  Li  Li8  1  0.75314687  0.49760253  0.49733102  1
  Mn  Mn9  1  0.99533351  0.00116454  0.00141289  1
  Mn  Mn10  1  0.37911753  0.74502374  0.74701880  1
  Co  Co11  1  0.25397930  0.49772441  0.50014645  1
  Co  Co12  1  0.49433041  0.99979074  0.00108701  1
  Co  Co13  1  0.62992894  0.25607900  0.24941564  1
  Co  Co14  1  0.87465108  0.74193340  0.74764509  1
  Co  Co15  1  0.11854163  0.25468740  0.25309197  1
  O  O16  1  0.72499874  0.18041239  0.94760628  1
  O  O17  1  0.98328084  0.68324253  0.46230430  1
  O  O18  1  0.20458789  0.16500837  0.95779546  1
  O  O19  1  0.86417208  0.42488521  0.18616953  1
  O  O20  1  0.10112718  0.93485600  0.70691552  1
  O  O21  1  0.35867745  0.43250448  0.20384438  1
  O  O22  1  0.46515784  0.69441583  0.45639741  1
  O  O23  1  0.58206226  0.91610759  0.71005233  1
  O  O24  1  0.16961821  0.57984407  0.79563265  1
  O  O25  1  0.39778572  0.07213047  0.28641583  1
  O  O26  1  0.64040771  0.57714594  0.81669248  1
  O  O27  1  0.26272763  0.81880755  0.05022375  1
  O  O28  1  0.52042255  0.31605981  0.54390476  1
  O  O29  1  0.79042014  0.83208320  0.03870055  1
  O  O30  1  0.88770107  0.06289641  0.29817185  1
  O  O31  1  0.04314101  0.31451955  0.54290257  1
