# generated using pymatgen
data_Li9Mn2Co5O16
_symmetry_space_group_name_H-M   'P 1'
_cell_length_a   5.85213763
_cell_length_b   9.73565932
_cell_length_c   5.92118395
_cell_angle_alpha   79.67716975
_cell_angle_beta   59.94445538
_cell_angle_gamma   81.13463766
_symmetry_Int_Tables_number   1
_chemical_formula_structural   Li9Mn2Co5O16
_chemical_formula_sum   'Li9 Mn2 Co5 O16'
_cell_volume   286.44705719
_cell_formula_units_Z   1
loop_
 _symmetry_equiv_pos_site_id
 _symmetry_equiv_pos_as_xyz
  1  'x, y, z'
loop_
 _atom_site_type_symbol
 _atom_site_label
 _atom_site_symmetry_multiplicity
 _atom_site_fract_x
 _atom_site_fract_y
 _atom_site_fract_z
 _atom_site_occupancy
  Li  Li0  1  0.13581972  0.24787619  0.11590708  1
  Li  Li1  1  0.74746158  0.49686694  0.24993541  1
  Li  Li2  1  0.37371203  0.75015893  0.37525859  1
  Li  Li3  1  -0.00046430  0.00680825  0.50429184  1
  Li  Li4  1  0.62108670  0.24967652  0.62954188  1
  Li  Li5  1  0.25151528  0.49232450  0.74241578  1
  Li  Li6  1  0.87301010  0.75074814  0.87518834  1
  Li  Li7  1  0.50151320  0.00219647  0.00091049  1
  Li  Li8  1  0.12442841  0.25173425  0.62494719  1
  Mn  Mn9  1  0.00253522  0.00369957  0.99618115  1
  Mn  Mn10  1  0.75127737  0.49705761  0.74681989  1
  Co  Co11  1  0.25135875  0.49604100  0.25217825  1
  Co  Co12  1  0.37337636  0.74993298  0.87537637  1
  Co  Co13  1  0.48885310  0.00870091  0.50076494  1
  Co  Co14  1  0.63125429  0.25193988  0.12115277  1
  Co  Co15  1  0.87420131  0.75079625  0.37902469  1
  O  O16  1  0.30036801  0.11307461  0.81827420  1
  O  O17  1  0.91311166  0.37903129  0.93258200  1
  O  O18  1  0.55681404  0.61137360  0.04789843  1
  O  O19  1  0.17672663  0.87433063  0.17815066  1
  O  O20  1  0.82403795  0.11812158  0.29309208  1
  O  O21  1  0.42831726  0.37863095  0.41109574  1
  O  O22  1  0.03161924  0.62604054  0.57681640  1
  O  O23  1  0.66467327  0.87088110  0.68430184  1
  O  O24  1  0.93929047  0.39325762  0.44810676  1
  O  O25  1  0.57103958  0.62467791  0.57545583  1
  O  O26  1  0.17581370  0.88339013  0.71144546  1
  O  O27  1  0.82192013  0.11754027  0.83493950  1
  O  O28  1  0.46279583  0.37654956  0.91727770  1
  O  O29  1  0.08377634  0.62664180  0.07675784  1
  O  O30  1  0.70765585  0.87637475  0.19410091  1
  O  O31  1  0.34109390  0.12352529  0.30981398  1
