# generated using pymatgen
data_Li9Mn2Co5O16
_symmetry_space_group_name_H-M   'P 1'
_cell_length_a   5.11632337
_cell_length_b   7.82169045
_cell_length_c   7.64613880
_cell_angle_alpha   97.97207495
_cell_angle_beta   103.21506162
_cell_angle_gamma   101.73332618
_symmetry_Int_Tables_number   1
_chemical_formula_structural   Li9Mn2Co5O16
_chemical_formula_sum   'Li9 Mn2 Co5 O16'
_cell_volume   286.10128027
_cell_formula_units_Z   1
loop_
 _symmetry_equiv_pos_site_id
 _symmetry_equiv_pos_as_xyz
  1  'x, y, z'
loop_
 _atom_site_type_symbol
 _atom_site_label
 _atom_site_symmetry_multiplicity
 _atom_site_fract_x
 _atom_site_fract_y
 _atom_site_fract_z
 _atom_site_occupancy
  Li  Li0  1  0.50423592  0.13171070  0.87890752  1
  Li  Li1  1  0.50307241  0.49234163  0.00677821  1
  Li  Li2  1  0.49959272  0.37312876  0.62291217  1
  Li  Li3  1  0.49784835  0.74988354  0.74595012  1
  Li  Li4  1  0.49185271  0.61821924  0.37236685  1
  Li  Li5  1  0.49760364  0.99753950  0.49461916  1
  Li  Li6  1  0.50208531  0.87549104  0.12670678  1
  Li  Li7  1  0.50238337  0.25898463  0.25151710  1
  Li  Li8  1  0.99698091  0.37672746  0.12803334  1
  Mn  Mn9  1  0.00341498  0.00449823  0.00250962  1
  Mn  Mn10  1  0.99112328  0.25069440  0.75100942  1
  Co  Co11  1  0.00222286  0.74273364  0.25076902  1
  Co  Co12  1  0.00149852  0.13265584  0.37235297  1
  Co  Co13  1  0.99862773  0.49630132  0.49635897  1
  Co  Co14  1  0.00452561  0.87338555  0.61908990  1
  Co  Co15  1  0.99772187  0.61857095  0.87910790  1
  O  O16  1  0.22025134  0.88038994  0.86999619  1
  O  O17  1  0.22265243  0.23503699  0.98748335  1
  O  O18  1  0.21710130  0.12738949  0.62260824  1
  O  O19  1  0.21875519  0.47876282  0.74373438  1
  O  O20  1  0.22238707  0.37759550  0.38699994  1
  O  O21  1  0.24796600  0.75537383  0.49916991  1
  O  O22  1  0.23201767  0.63316941  0.11468906  1
  O  O23  1  0.23553808  0.00260582  0.23662880  1
  O  O24  1  0.76844564  0.37337671  0.86581280  1
  O  O25  1  0.77461119  0.76656797  -0.00216570  1
  O  O26  1  0.78882911  0.62339384  0.62744856  1
  O  O27  1  0.77520029  0.01495572  0.76259688  1
  O  O28  1  0.77687433  0.87379207  0.38284526  1
  O  O29  1  0.75773907  0.24160266  0.51078090  1
  O  O30  1  0.77662395  0.11350311  0.12928445  1
  O  O31  1  0.77021714  0.50961668  0.26309993  1
