# generated using pymatgen
data_Li9Mn2Co5O16
_symmetry_space_group_name_H-M   'P 1'
_cell_length_a   4.99870999
_cell_length_b   9.81268560
_cell_length_c   5.95275349
_cell_angle_alpha   80.71716032
_cell_angle_beta   89.43515481
_cell_angle_gamma   93.52700932
_symmetry_Int_Tables_number   1
_chemical_formula_structural   Li9Mn2Co5O16
_chemical_formula_sum   'Li9 Mn2 Co5 O16'
_cell_volume   287.55948615
_cell_formula_units_Z   1
loop_
 _symmetry_equiv_pos_site_id
 _symmetry_equiv_pos_as_xyz
  1  'x, y, z'
loop_
 _atom_site_type_symbol
 _atom_site_label
 _atom_site_symmetry_multiplicity
 _atom_site_fract_x
 _atom_site_fract_y
 _atom_site_fract_z
 _atom_site_occupancy
  Li  Li0  1  0.86574524  0.24902778  0.18442541  1
  Li  Li1  1  0.12999535  0.74941402  0.31310409  1
  Li  Li2  1  0.37800544  0.24445813  0.43852083  1
  Li  Li3  1  0.86863019  0.24838703  0.68423968  1
  Li  Li4  1  0.13044442  0.75182734  0.81362763  1
  Li  Li5  1  0.37136341  0.24395423  0.94062419  1
  Li  Li6  1  0.63034366  0.75587316  0.07064120  1
  Li  Li7  1  0.62543854  0.75708446  0.55856561  1
  Li  Li8  1  0.49971513  0.00002057  0.25137746  1
  Mn  Mn9  1  0.99977936  0.00014380  -0.00012319  1
  Mn  Mn10  1  0.25055687  0.49771719  0.12567453  1
  Co  Co11  1  0.74664189  0.50450620  0.37477420  1
  Co  Co12  1  0.00116631  0.99989122  0.48821423  1
  Co  Co13  1  0.24909158  0.49973538  0.62519095  1
  Co  Co14  1  0.50040974  0.99991995  0.75494982  1
  Co  Co15  1  0.75283203  0.49808683  0.87358261  1
  O  O16  1  0.68671379  0.10744339  0.95148588  1
  O  O17  1  0.94650835  0.61399849  0.09420964  1
  O  O18  1  0.15701415  0.11544126  0.20295019  1
  O  O19  1  0.68653111  0.10724600  0.49858636  1
  O  O20  1  0.94935250  0.61801124  0.59611307  1
  O  O21  1  0.19311302  0.11099121  0.73069789  1
  O  O22  1  0.44109063  0.61145543  0.85597825  1
  O  O23  1  0.45690700  0.62459178  0.35642176  1
  O  O24  1  0.05799161  0.38629291  0.39614116  1
  O  O25  1  0.31689362  0.89414115  0.55520857  1
  O  O26  1  0.55034207  0.38552123  0.65052448  1
  O  O27  1  0.03906855  0.37815940  0.89066348  1
  O  O28  1  0.31118513  0.89139319  0.00837736  1
  O  O29  1  0.55600250  0.38179092  0.15823731  1
  O  O30  1  0.84278209  0.88474953  0.26616615  1
  O  O31  1  0.80834474  0.88872559  0.79084921  1
