# generated using pymatgen
data_Li9Mn2Co5O16
_symmetry_space_group_name_H-M   'P 1'
_cell_length_a   4.99134765
_cell_length_b   5.94208244
_cell_length_c   10.24446867
_cell_angle_alpha   105.99703503
_cell_angle_beta   79.68517418
_cell_angle_gamma   89.30805475
_symmetry_Int_Tables_number   1
_chemical_formula_structural   Li9Mn2Co5O16
_chemical_formula_sum   'Li9 Mn2 Co5 O16'
_cell_volume   286.74777991
_cell_formula_units_Z   1
loop_
 _symmetry_equiv_pos_site_id
 _symmetry_equiv_pos_as_xyz
  1  'x, y, z'
loop_
 _atom_site_type_symbol
 _atom_site_label
 _atom_site_symmetry_multiplicity
 _atom_site_fract_x
 _atom_site_fract_y
 _atom_site_fract_z
 _atom_site_occupancy
  Li  Li0  1  0.25315090  0.13757548  0.25587460  1
  Li  Li1  1  0.24342250  0.62016337  0.74912070  1
  Li  Li2  1  0.75508197  0.37496747  0.24997059  1
  Li  Li3  1  0.75005112  0.86868264  0.74402357  1
  Li  Li4  1  0.24646750  0.62768591  0.25693922  1
  Li  Li5  1  0.24660664  0.12033508  0.74707886  1
  Li  Li6  1  0.75412538  0.87920593  0.25279985  1
  Li  Li7  1  0.74925192  0.37383684  0.74395021  1
  Li  Li8  1  0.99956491  0.50137448  0.50033242  1
  Mn  Mn9  1  0.00147220  0.99936156  0.99899505  1
  Mn  Mn10  1  0.49956640  0.25022292  0.50014849  1
  Co  Co11  1  0.49451871  0.25333996  0.00405839  1
  Co  Co12  1  0.50068413  0.73819487  0.49977669  1
  Co  Co13  1  0.99924154  0.49999122  0.00059867  1
  Co  Co14  1  0.00042172  0.00488878  0.49990313  1
  Co  Co15  1  0.50536754  0.74620012  0.99609037  1
  O  O16  1  0.13673658  0.81296748  0.11064630  1
  O  O17  1  0.13364331  0.28291646  0.60808049  1
  O  O18  1  0.63722450  0.05211170  0.11399978  1
  O  O19  1  0.59867580  0.54126978  0.61520196  1
  O  O20  1  0.14505881  0.32594569  0.12540881  1
  O  O21  1  0.13134028  0.82977060  0.60677865  1
  O  O22  1  0.64152647  0.55908985  0.11687920  1
  O  O23  1  0.63642059  0.06538517  0.61163932  1
  O  O24  1  0.40124435  0.42809874  0.38497885  1
  O  O25  1  0.36512990  0.94648656  0.88345163  1
  O  O26  1  0.86936319  0.72542982  0.39398236  1
  O  O27  1  0.86372836  0.18734454  0.88897364  1
  O  O28  1  0.36356928  0.95609314  0.38825927  1
  O  O29  1  0.35676135  0.44061129  0.88569445  1
  O  O30  1  0.86677280  0.17676553  0.39156058  1
  O  O31  1  0.85380936  0.67368701  0.87480392  1
