# generated using pymatgen
data_Li9Mn2Co5O16
_symmetry_space_group_name_H-M   'P 1'
_cell_length_a   4.98446755
_cell_length_b   9.84100039
_cell_length_c   5.95152386
_cell_angle_alpha   88.79058360
_cell_angle_beta   91.02548597
_cell_angle_gamma   100.95493827
_symmetry_Int_Tables_number   1
_chemical_formula_structural   Li9Mn2Co5O16
_chemical_formula_sum   'Li9 Mn2 Co5 O16'
_cell_volume   286.52255049
_cell_formula_units_Z   1
loop_
 _symmetry_equiv_pos_site_id
 _symmetry_equiv_pos_as_xyz
  1  'x, y, z'
loop_
 _atom_site_type_symbol
 _atom_site_label
 _atom_site_symmetry_multiplicity
 _atom_site_fract_x
 _atom_site_fract_y
 _atom_site_fract_z
 _atom_site_occupancy
  Li  Li0  1  0.74945294  0.25537870  0.00106766  1
  Li  Li1  1  0.75357153  0.75251766  0.25309195  1
  Li  Li2  1  0.75071491  0.25585941  0.50023663  1
  Li  Li3  1  0.24522262  0.24907070  0.25315931  1
  Li  Li4  1  0.24816708  0.74533700  0.49118503  1
  Li  Li5  1  0.24421923  0.25153531  0.75434314  1
  Li  Li6  1  0.75631419  0.74852999  0.74547302  1
  Li  Li7  1  0.25194153  0.74183089  0.00321841  1
  Li  Li8  1  0.99958152  0.49938295  0.24882864  1
  Mn  Mn9  1  -0.00019991  0.99924093  0.99963111  1
  Mn  Mn10  1  0.49912028  0.49969327  0.49955156  1
  Co  Co11  1  0.00025397  0.00107980  0.50030917  1
  Co  Co12  1  -0.00004736  0.49957990  0.74494532  1
  Co  Co13  1  0.50000489  -0.00038305  0.74798812  1
  Co  Co14  1  0.50212456  0.50047518  0.01174032  1
  Co  Co15  1  0.49950690  0.00040144  0.25245935  1
  O  O16  1  0.85907934  0.11599701  0.76793252  1
  O  O17  1  0.87082759  0.60565228  0.96993868  1
  O  O18  1  0.86033303  0.11805541  0.27377241  1
  O  O19  1  0.36162129  0.11605339  0.99831414  1
  O  O20  1  0.39977334  0.61585475  0.26132703  1
  O  O21  1  0.35503964  0.11281541  0.49687011  1
  O  O22  1  0.86475726  0.60840019  0.51767411  1
  O  O23  1  0.36440961  0.61100179  0.73579188  1
  O  O24  1  0.59864577  0.38521946  0.26917907  1
  O  O25  1  0.64495973  0.88740954  0.50280345  1
  O  O26  1  0.63675097  0.38919911  0.74162087  1
  O  O27  1  0.13347234  0.39272490  0.52292738  1
  O  O28  1  0.14001719  0.88450578  0.72412809  1
  O  O29  1  0.13324352  0.39309791  0.97536847  1
  O  O30  1  0.63751474  0.88322959  0.00295281  1
  O  O31  1  0.13960574  0.88125339  0.23217024  1
