# generated using pymatgen
data_Li9Mn2Co5O16
_symmetry_space_group_name_H-M   'P 1'
_cell_length_a   5.82905568
_cell_length_b   9.78201003
_cell_length_c   5.84668051
_cell_angle_alpha   89.83513600
_cell_angle_beta   59.72000740
_cell_angle_gamma   98.62198866
_symmetry_Int_Tables_number   1
_chemical_formula_structural   Li9Mn2Co5O16
_chemical_formula_sum   'Li9 Mn2 Co5 O16'
_cell_volume   283.43680842
_cell_formula_units_Z   1
loop_
 _symmetry_equiv_pos_site_id
 _symmetry_equiv_pos_as_xyz
  1  'x, y, z'
loop_
 _atom_site_type_symbol
 _atom_site_label
 _atom_site_symmetry_multiplicity
 _atom_site_fract_x
 _atom_site_fract_y
 _atom_site_fract_z
 _atom_site_occupancy
  Li  Li0  1  0.74959419  0.24566653  0.12581141  1
  Li  Li1  1  0.75555987  0.75704895  0.38192935  1
  Li  Li2  1  0.75475599  0.24550937  0.61954560  1
  Li  Li3  1  0.24540280  0.23924712  0.61200764  1
  Li  Li4  1  0.25075293  0.75432085  0.87536876  1
  Li  Li5  1  0.24897333  0.24681109  0.13476530  1
  Li  Li6  1  0.74991271  0.75558163  0.86577812  1
  Li  Li7  1  0.24579454  0.75466979  0.38022396  1
  Li  Li8  1  0.99966121  0.99961997  0.49978827  1
  Mn  Mn9  1  0.00062745  0.00044654  0.99897313  1
  Mn  Mn10  1  0.00047630  0.50058307  0.25115527  1
  Co  Co11  1  0.99944153  0.49913360  0.75196807  1
  Co  Co12  1  0.49998477  0.99952865  0.49980212  1
  Co  Co13  1  0.49864141  0.49929461  0.75008891  1
  Co  Co14  1  0.50019231  0.00050266  0.99933569  1
  Co  Co15  1  0.50079401  0.50051673  0.25030370  1
  O  O16  1  0.86269030  0.11005718  0.83329335  1
  O  O17  1  0.88778990  0.61505998  0.06674067  1
  O  O18  1  0.85619331  0.10678745  0.30737023  1
  O  O19  1  0.38942198  0.10954403  0.32279672  1
  O  O20  1  0.36070511  0.61526487  0.57784491  1
  O  O21  1  0.36167297  0.11190362  0.80555220  1
  O  O22  1  0.88096882  0.61920295  0.54834149  1
  O  O23  1  0.35764662  0.61619421  0.06684889  1
  O  O24  1  0.64528408  0.38535010  0.43405058  1
  O  O25  1  0.61178748  0.89098456  0.67666870  1
  O  O26  1  0.63568474  0.38302166  0.92216386  1
  O  O27  1  0.11783883  0.38340589  0.95696216  1
  O  O28  1  0.13945798  0.89225855  0.16498424  1
  O  O29  1  0.11219802  0.38241554  0.43430918  1
  O  O30  1  0.63833469  0.88806065  0.19220219  1
  O  O31  1  0.14175980  0.89200760  0.69302533  1
