# generated using pymatgen
data_Li9Mn2Co5O16
_symmetry_space_group_name_H-M   'P 1'
_cell_length_a   5.75164727
_cell_length_b   7.75413296
_cell_length_c   6.68080296
_cell_angle_alpha   94.77591573
_cell_angle_beta   102.31675960
_cell_angle_gamma   79.65438832
_symmetry_Int_Tables_number   1
_chemical_formula_structural   Li9Mn2Co5O16
_chemical_formula_sum   'Li9 Mn2 Co5 O16'
_cell_volume   286.05340885
_cell_formula_units_Z   1
loop_
 _symmetry_equiv_pos_site_id
 _symmetry_equiv_pos_as_xyz
  1  'x, y, z'
loop_
 _atom_site_type_symbol
 _atom_site_label
 _atom_site_symmetry_multiplicity
 _atom_site_fract_x
 _atom_site_fract_y
 _atom_site_fract_z
 _atom_site_occupancy
  Li  Li0  1  0.81148144  0.13793453  0.38399963  1
  Li  Li1  1  0.93983628  0.37725571  0.11991528  1
  Li  Li2  1  0.68885621  0.87211194  0.63004826  1
  Li  Li3  1  0.56343311  0.61571305  0.86867120  1
  Li  Li4  1  0.43279252  0.37996742  0.12453934  1
  Li  Li5  1  0.31163861  0.13423848  0.37833284  1
  Li  Li6  1  0.18858851  0.87539423  0.62587342  1
  Li  Li7  1  0.06586598  0.60731760  0.86774865  1
  Li  Li8  1  0.12492105  0.25236069  0.74975849  1
  Mn  Mn9  1  -0.00077802  0.00314559  0.99578120  1
  Mn  Mn10  1  0.49607626  0.00361570  0.99742455  1
  Co  Co11  1  0.25404978  0.49456678  0.50697636  1
  Co  Co12  1  0.37473422  0.74736964  0.24994804  1
  Co  Co13  1  0.62462041  0.25193617  0.75198509  1
  Co  Co14  1  0.75479407  0.49507339  0.50786043  1
  Co  Co15  1  0.87395258  0.74315949  0.25366052  1
  O  O16  1  0.72800439  0.16339328  0.07027251  1
  O  O17  1  0.82727867  0.42827408  0.79900242  1
  O  O18  1  0.57745333  0.92600364  0.28790013  1
  O  O19  1  0.47061948  0.67530062  0.55212691  1
  O  O20  1  0.35901673  0.42693107  0.79784902  1
  O  O21  1  0.22289627  0.16580741  0.05991712  1
  O  O22  1  0.09409599  0.92389787  0.28753416  1
  O  O23  1  0.96862569  0.68755973  0.55152309  1
  O  O24  1  0.89780897  0.07039813  0.71839868  1
  O  O25  1  0.02449416  0.33320959  0.43270654  1
  O  O26  1  0.77817737  0.83176660  0.95152685  1
  O  O27  1  0.65076556  0.57972172  0.19142033  1
  O  O28  1  0.53228853  0.31432901  0.44072889  1
  O  O29  1  0.42554285  0.06884980  0.71915973  1
  O  O30  1  0.27371296  0.83718714  0.93569847  1
  O  O31  1  0.16435603  0.57620991  0.19171185  1
