# generated using pymatgen
data_Li9Mn2Co5O16
_symmetry_space_group_name_H-M   'P 1'
_cell_length_a   4.99287333
_cell_length_b   9.82646816
_cell_length_c   5.95130230
_cell_angle_alpha   80.83258270
_cell_angle_beta   89.44677385
_cell_angle_gamma   93.58221518
_symmetry_Int_Tables_number   1
_chemical_formula_structural   Li9Mn2Co5O16
_chemical_formula_sum   'Li9 Mn2 Co5 O16'
_cell_volume   287.63494508
_cell_formula_units_Z   1
loop_
 _symmetry_equiv_pos_site_id
 _symmetry_equiv_pos_as_xyz
  1  'x, y, z'
loop_
 _atom_site_type_symbol
 _atom_site_label
 _atom_site_symmetry_multiplicity
 _atom_site_fract_x
 _atom_site_fract_y
 _atom_site_fract_z
 _atom_site_occupancy
  Li  Li0  1  0.88166877  0.25049791  0.19092470  1
  Li  Li1  1  0.12454934  0.74453144  0.30643798  1
  Li  Li2  1  0.37817176  0.25562752  0.43533374  1
  Li  Li3  1  0.87939070  0.25236572  0.69107109  1
  Li  Li4  1  0.12455968  0.74222009  0.81546590  1
  Li  Li5  1  0.37727685  0.25528351  0.93845752  1
  Li  Li6  1  0.61872622  0.75080605  0.06324536  1
  Li  Li7  1  0.61824954  0.74859051  0.55891437  1
  Li  Li8  1  0.25016551  0.49901134  0.12396913  1
  Mn  Mn9  1  -0.00012538  0.99892890  0.00027046  1
  Mn  Mn10  1  0.75080292  0.50025759  0.37465031  1
  Co  Co11  1  0.49630973  0.00491949  0.25052272  1
  Co  Co12  1  0.00000850  0.99889603  0.50101395  1
  Co  Co13  1  0.24948868  0.49991807  0.62000700  1
  Co  Co14  1  0.50345062  0.99714882  0.74940056  1
  Co  Co15  1  0.74875704  0.50056017  0.88619283  1
  O  O16  1  0.69643330  0.11647320  0.96968450  1
  O  O17  1  0.90786978  0.61576866  0.10859269  1
  O  O18  1  0.20827311  0.12457214  0.23142936  1
  O  O19  1  0.70145460  0.11557610  0.47465491  1
  O  O20  1  0.94160122  0.61113197  0.58382657  1
  O  O21  1  0.19295105  0.11141822  0.73192056  1
  O  O22  1  0.43214998  0.60547263  0.81968028  1
  O  O23  1  0.43861564  0.60878113  0.36655666  1
  O  O24  1  0.06289662  0.39222266  0.42373137  1
  O  O25  1  0.29963976  0.88467667  0.52565974  1
  O  O26  1  0.55816127  0.38906186  0.64327286  1
  O  O27  1  0.06454047  0.39314721  0.87541310  1
  O  O28  1  0.30441497  0.88210673  0.03078410  1
  O  O29  1  0.59441660  0.38535492  0.17114779  1
  O  O30  1  0.80537769  0.88849843  0.26980287  1
  O  O31  1  0.78975347  0.87617429  0.76796504  1
