# generated using pymatgen
data_Li9Mn2Co5O16
_symmetry_space_group_name_H-M   'P 1'
_cell_length_a   5.08522257
_cell_length_b   10.08280280
_cell_length_c   5.90734575
_cell_angle_alpha   74.15961784
_cell_angle_beta   90.92967741
_cell_angle_gamma   78.89644409
_symmetry_Int_Tables_number   1
_chemical_formula_structural   Li9Mn2Co5O16
_chemical_formula_sum   'Li9 Mn2 Co5 O16'
_cell_volume   285.17236851
_cell_formula_units_Z   1
loop_
 _symmetry_equiv_pos_site_id
 _symmetry_equiv_pos_as_xyz
  1  'x, y, z'
loop_
 _atom_site_type_symbol
 _atom_site_label
 _atom_site_symmetry_multiplicity
 _atom_site_fract_x
 _atom_site_fract_y
 _atom_site_fract_z
 _atom_site_occupancy
  Li  Li0  1  0.49587940  0.98860656  0.75685358  1
  Li  Li1  1  0.24951930  0.25245533  0.36716404  1
  Li  Li2  1  0.48853481  0.99480854  0.25886081  1
  Li  Li3  1  0.25175401  0.25294120  0.88119082  1
  Li  Li4  1  0.75017710  0.74763529  0.11442084  1
  Li  Li5  1  0.75121012  0.74561321  0.63925989  1
  Li  Li6  1  -0.00129304  0.50740645  0.49120461  1
  Li  Li7  1  0.01452532  0.50931376  0.98644344  1
  Li  Li8  1  0.24835208  0.75035251  0.87256776  1
  Mn  Mn9  1  -0.00188833  0.99454573  0.00352398  1
  Mn  Mn10  1  0.74820406  0.24996279  0.62855944  1
  Co  Co11  1  0.49272575  0.51176858  0.23554090  1
  Co  Co12  1  -0.00141692  0.99542181  0.50941152  1
  Co  Co13  1  0.74366910  0.25442421  0.12627830  1
  Co  Co14  1  0.50622015  0.50373943  0.74320285  1
  Co  Co15  1  0.26052547  0.74609981  0.38166170  1
  O  O16  1  0.34320489  0.87771607  0.07537684  1
  O  O17  1  0.09876146  0.11644811  0.70210501  1
  O  O18  1  0.33936011  0.88406456  0.55155522  1
  O  O19  1  0.09643534  0.12722118  0.17127474  1
  O  O20  1  0.62576532  0.63017618  0.42160163  1
  O  O21  1  0.62354213  0.60941717  0.92937538  1
  O  O22  1  0.85293180  0.36975967  0.80740882  1
  O  O23  1  0.85846203  0.36347669  0.33935424  1
  O  O24  1  0.65045073  0.12806284  0.44916142  1
  O  O25  1  0.39320450  0.36622727  0.07297518  1
  O  O26  1  0.64456326  0.13094804  0.92159964  1
  O  O27  1  0.40546624  0.37630320  0.57133785  1
  O  O28  1  0.87680813  0.88287674  0.82827934  1
  O  O29  1  0.88921765  0.89081019  0.30137845  1
  O  O30  1  0.14794467  0.61616798  0.19353504  1
  O  O31  1  0.15718338  0.62522890  0.66753970  1
