# generated using pymatgen
data_Li9Mn2Co5O16
_symmetry_space_group_name_H-M   'P 1'
_cell_length_a   4.98452755
_cell_length_b   9.85850357
_cell_length_c   5.94677694
_cell_angle_alpha   89.05618626
_cell_angle_beta   90.85997996
_cell_angle_gamma   101.01435762
_symmetry_Int_Tables_number   1
_chemical_formula_structural   Li9Mn2Co5O16
_chemical_formula_sum   'Li9 Mn2 Co5 O16'
_cell_volume   286.78168223
_cell_formula_units_Z   1
loop_
 _symmetry_equiv_pos_site_id
 _symmetry_equiv_pos_as_xyz
  1  'x, y, z'
loop_
 _atom_site_type_symbol
 _atom_site_label
 _atom_site_symmetry_multiplicity
 _atom_site_fract_x
 _atom_site_fract_y
 _atom_site_fract_z
 _atom_site_occupancy
  Li  Li0  1  0.74159667  0.25177019  0.00548828  1
  Li  Li1  1  0.74829009  0.74333049  0.24976634  1
  Li  Li2  1  0.74688899  0.24627896  0.49833989  1
  Li  Li3  1  0.25243733  0.25658840  0.26025717  1
  Li  Li4  1  0.25293130  0.75142886  0.49680664  1
  Li  Li5  1  0.25230247  0.25891998  0.74503432  1
  Li  Li6  1  0.74602276  0.74459873  0.74903023  1
  Li  Li7  1  0.26030899  0.74808175  0.99385604  1
  Li  Li8  1  0.50016914  0.50028399  0.50152554  1
  Mn  Mn9  1  -0.00011735  0.99957446  0.00209397  1
  Mn  Mn10  1  0.00060797  0.49984295  0.25045246  1
  Co  Co11  1  0.00470764  0.00334069  0.49797456  1
  Co  Co12  1  0.99797317  0.49964875  0.73850942  1
  Co  Co13  1  0.49702983  0.99677068  0.74948034  1
  Co  Co14  1  0.49945415  0.50002257  0.00522513  1
  Co  Co15  1  0.50030122  0.00021538  0.25054953  1
  O  O16  1  0.86328259  0.11381278  0.75666271  1
  O  O17  1  0.86460396  0.61054758  0.00859997  1
  O  O18  1  0.84716803  0.11851351  0.25801349  1
  O  O19  1  0.36974167  0.11044051  0.00881575  1
  O  O20  1  0.36710255  0.60807124  0.22834007  1
  O  O21  1  0.35409605  0.12263726  0.50856564  1
  O  O22  1  0.90052208  0.61527452  0.48070824  1
  O  O23  1  0.36790783  0.60661682  0.77522778  1
  O  O24  1  0.63345498  0.39181751  0.23153725  1
  O  O25  1  0.63481574  0.88771562  0.48876491  1
  O  O26  1  0.62928024  0.39393298  0.77956192  1
  O  O27  1  0.10016396  0.38473919  0.48929223  1
  O  O28  1  0.14839956  0.87784288  0.73720605  1
  O  O29  1  0.13545621  0.38839244  0.01430236  1
  O  O30  1  0.64402601  0.88072787  0.99431737  1
  O  O31  1  0.13907417  0.88822051  0.24569441  1
