# generated using pymatgen
data_Li9Mn2Co5O16
_symmetry_space_group_name_H-M   'P 1'
_cell_length_a   5.92757887
_cell_length_b   5.90181374
_cell_length_c   8.19516833
_cell_angle_alpha   90.44893514
_cell_angle_beta   89.33457233
_cell_angle_gamma   86.80469129
_symmetry_Int_Tables_number   1
_chemical_formula_structural   Li9Mn2Co5O16
_chemical_formula_sum   'Li9 Mn2 Co5 O16'
_cell_volume   286.22004339
_cell_formula_units_Z   1
loop_
 _symmetry_equiv_pos_site_id
 _symmetry_equiv_pos_as_xyz
  1  'x, y, z'
loop_
 _atom_site_type_symbol
 _atom_site_label
 _atom_site_symmetry_multiplicity
 _atom_site_fract_x
 _atom_site_fract_y
 _atom_site_fract_z
 _atom_site_occupancy
  Li  Li0  1  0.49966702  0.00019211  0.99738720  1
  Li  Li1  1  0.25534478  0.24456381  0.26401678  1
  Li  Li2  1  0.73972363  0.24377525  0.74219319  1
  Li  Li3  1  0.49742536  0.50161839  0.99791857  1
  Li  Li4  1  0.00047339  0.50054059  0.50317712  1
  Li  Li5  1  0.74490097  0.75688037  0.73718993  1
  Li  Li6  1  0.25822489  0.75510179  0.25603230  1
  Li  Li7  1  0.00236822  0.99843000  0.50183802  1
  Li  Li8  1  0.50015228  0.00171557  0.50212501  1
  Mn  Mn9  1  0.00104732  0.99709289  0.00052623  1
  Mn  Mn10  1  0.74322243  0.24590305  0.25108303  1
  Co  Co11  1  0.49349632  0.50565309  0.49980845  1
  Co  Co12  1  0.26134872  0.75440368  0.74773601  1
  Co  Co13  1  0.00022980  0.49829592  0.99880888  1
  Co  Co14  1  0.74783496  0.75099745  0.25430022  1
  Co  Co15  1  0.25301189  0.24705879  0.74598784  1
  O  O16  1  0.23823320  0.76295651  0.00358039  1
  O  O17  1  0.99755528  0.01917422  0.23802165  1
  O  O18  1  0.47715421  0.01060527  0.75133564  1
  O  O19  1  0.21485987  0.23799640  0.98727489  1
  O  O20  1  0.74310603  0.26303554  0.48258045  1
  O  O21  1  0.50092877  0.52141905  0.75118270  1
  O  O22  1  0.96532954  0.48913704  0.23299945  1
  O  O23  1  0.74349044  0.74041761  0.47847199  1
  O  O24  1  0.75890935  0.23399018  0.00982003  1
  O  O25  1  0.50456269  0.47783144  0.24596363  1
  O  O26  1  0.02268672  0.49562577  0.76801121  1
  O  O27  1  0.78334975  0.75907434  0.01502413  1
  O  O28  1  0.25876222  0.73861001  0.50136756  1
  O  O29  1  0.99881223  0.97964561  0.76548339  1
  O  O30  1  0.53632232  0.00689422  0.24867423  1
  O  O31  1  0.25746542  0.26136400  0.52007986  1
