# generated using pymatgen
data_Li9Mn2Co5O16
_symmetry_space_group_name_H-M   'P 1'
_cell_length_a   5.80188897
_cell_length_b   6.65005847
_cell_length_c   7.76415809
_cell_angle_alpha   89.85895503
_cell_angle_beta   100.28377273
_cell_angle_gamma   102.80100543
_symmetry_Int_Tables_number   1
_chemical_formula_structural   Li9Mn2Co5O16
_chemical_formula_sum   'Li9 Mn2 Co5 O16'
_cell_volume   287.21066515
_cell_formula_units_Z   1
loop_
 _symmetry_equiv_pos_site_id
 _symmetry_equiv_pos_as_xyz
  1  'x, y, z'
loop_
 _atom_site_type_symbol
 _atom_site_label
 _atom_site_symmetry_multiplicity
 _atom_site_fract_x
 _atom_site_fract_y
 _atom_site_fract_z
 _atom_site_occupancy
  Li  Li0  1  0.37873011  0.37874337  0.13415021  1
  Li  Li1  1  0.62233797  0.12448361  0.37839078  1
  Li  Li2  1  0.62439011  0.62892431  0.87288387  1
  Li  Li3  1  0.88169779  0.38275029  0.13540506  1
  Li  Li4  1  0.86837821  0.86919788  0.61753492  1
  Li  Li5  1  0.12467789  0.62379747  0.87504129  1
  Li  Li6  1  0.12680246  0.12344624  0.37945237  1
  Li  Li7  1  0.37121540  0.86722681  0.60962585  1
  Li  Li8  1  0.25252115  0.74800766  0.25080102  1
  Mn  Mn9  1  0.00333254  0.99880044  0.00431876  1
  Mn  Mn10  1  0.50199819  0.99845762  0.00428141  1
  Co  Co11  1  0.49134965  0.50415531  0.49193832  1
  Co  Co12  1  0.75367254  0.25390643  0.74440601  1
  Co  Co13  1  0.74790551  0.74771523  0.25175318  1
  Co  Co14  1  0.99894747  0.51273342  0.49100567  1
  Co  Co15  1  0.25649256  0.25816616  0.74427086  1
  O  O16  1  0.30576161  0.05845667  0.16496859  1
  O  O17  1  0.57467687  0.80031823  0.42698017  1
  O  O18  1  0.56413552  0.28895498  0.92922813  1
  O  O19  1  0.80801748  0.06547714  0.16524401  1
  O  O20  1  0.79380080  0.54752622  0.67997472  1
  O  O21  1  0.06712299  0.29092773  0.92888692  1
  O  O22  1  0.04202889  0.79287786  0.43191664  1
  O  O23  1  0.30367163  0.55442648  0.68399888  1
  O  O24  1  0.46154982  0.71750624  0.06955024  1
  O  O25  1  0.68834995  0.43576035  0.31735327  1
  O  O26  1  0.69929529  0.95107292  0.83310504  1
  O  O27  1  0.93281382  0.71769927  0.07141270  1
  O  O28  1  0.93278610  0.19917458  0.57241123  1
  O  O29  1  0.19661723  0.94287676  0.83713065  1
  O  O30  1  0.19822116  0.43325372  0.32663572  1
  O  O31  1  0.42670128  0.18317861  0.57594348  1
