# generated using pymatgen
data_Li9Mn2Co5O16
_symmetry_space_group_name_H-M   'P 1'
_cell_length_a   5.90962981
_cell_length_b   8.64968321
_cell_length_c   5.90153427
_cell_angle_alpha   70.56214911
_cell_angle_beta   87.01390268
_cell_angle_gamma   88.20760769
_symmetry_Int_Tables_number   1
_chemical_formula_structural   Li9Mn2Co5O16
_chemical_formula_sum   'Li9 Mn2 Co5 O16'
_cell_volume   284.05393545
_cell_formula_units_Z   1
loop_
 _symmetry_equiv_pos_site_id
 _symmetry_equiv_pos_as_xyz
  1  'x, y, z'
loop_
 _atom_site_type_symbol
 _atom_site_label
 _atom_site_symmetry_multiplicity
 _atom_site_fract_x
 _atom_site_fract_y
 _atom_site_fract_z
 _atom_site_occupancy
  Li  Li0  1  0.24882951  0.25385674  0.12283775  1
  Li  Li1  1  0.00677776  0.50918399  0.25166984  1
  Li  Li2  1  0.25258602  0.25223853  0.62223204  1
  Li  Li3  1  0.00822867  0.51090678  0.73712741  1
  Li  Li4  1  0.75028023  0.74580114  0.87777800  1
  Li  Li5  1  0.74645955  0.74785308  0.37633894  1
  Li  Li6  1  0.49342874  0.99255318  0.50034335  1
  Li  Li7  1  0.49450589  0.98606390  0.01167121  1
  Li  Li8  1  0.25014075  0.74617063  0.37459626  1
  Mn  Mn9  1  0.00693213  0.99874420  0.00435367  1
  Mn  Mn10  1  0.74757252  0.25133763  0.12596536  1
  Co  Co11  1  0.49464056  0.50008841  0.25090770  1
  Co  Co12  1  0.00228070  0.99572294  0.50053711  1
  Co  Co13  1  0.75097393  0.25241661  0.62790829  1
  Co  Co14  1  0.49137367  0.50432826  0.74080844  1
  Co  Co15  1  0.25729840  0.74765523  0.87319935  1
  O  O16  1  0.98932218  0.24003480  0.89583725  1
  O  O17  1  0.73765029  0.48503681  0.02226306  1
  O  O18  1  0.96684151  0.23753609  0.37209240  1
  O  O19  1  0.74049257  0.48502099  0.52562198  1
  O  O20  1  0.49471990  0.74110017  0.63880614  1
  O  O21  1  0.49208715  0.73075165  0.12522620  1
  O  O22  1  0.21538527  0.00191454  0.24190271  1
  O  O23  1  0.24434601  0.00391642  0.76779607  1
  O  O24  1  0.51207576  0.25553646  0.36290761  1
  O  O25  1  0.26694216  0.49394621  0.48945350  1
  O  O26  1  0.53182724  0.26069107  0.88165068  1
  O  O27  1  0.25730708  0.50255479  0.97734578  1
  O  O28  1  0.00674309  0.76757193  0.10324568  1
  O  O29  1  0.00747633  0.77070990  0.62239232  1
  O  O30  1  0.78206546  0.01682248  0.74983648  1
  O  O31  1  0.75240897  0.01193442  0.22534541  1
