# generated using pymatgen
data_Li9Mn2Co5O16
_symmetry_space_group_name_H-M   'P 1'
_cell_length_a   5.93585970
_cell_length_b   6.45420331
_cell_length_c   7.86669297
_cell_angle_alpha   87.79933894
_cell_angle_beta   75.50205169
_cell_angle_gamma   76.67688770
_symmetry_Int_Tables_number   1
_chemical_formula_structural   Li9Mn2Co5O16
_chemical_formula_sum   'Li9 Mn2 Co5 O16'
_cell_volume   283.87309895
_cell_formula_units_Z   1
loop_
 _symmetry_equiv_pos_site_id
 _symmetry_equiv_pos_as_xyz
  1  'x, y, z'
loop_
 _atom_site_type_symbol
 _atom_site_label
 _atom_site_symmetry_multiplicity
 _atom_site_fract_x
 _atom_site_fract_y
 _atom_site_fract_z
 _atom_site_occupancy
  Li  Li0  1  0.87682950  0.12658884  0.38277027  1
  Li  Li1  1  0.87573769  0.61703044  0.87063762  1
  Li  Li2  1  0.11532243  0.86857064  0.61345379  1
  Li  Li3  1  0.10911199  0.39438568  0.13323608  1
  Li  Li4  1  0.38140102  0.62133185  0.87768643  1
  Li  Li5  1  0.38071138  0.11800204  0.37310700  1
  Li  Li6  1  0.62433861  0.38398074  0.13239285  1
  Li  Li7  1  0.63020838  0.87035407  0.62205125  1
  Li  Li8  1  0.74802176  0.74453510  0.25112586  1
  Mn  Mn9  1  0.00249881  0.00293539  0.00529048  1
  Mn  Mn10  1  0.50609030  0.00229381  0.00385239  1
  Co  Co11  1  0.99145396  0.49872457  0.49262499  1
  Co  Co12  1  0.24951557  0.75058559  0.25216854  1
  Co  Co13  1  0.25387104  0.25322504  0.74904357  1
  Co  Co14  1  0.49651488  0.49551710  0.49484710  1
  Co  Co15  1  0.75148429  0.25033072  0.74844083  1
  O  O16  1  0.68385148  0.05712934  0.16259546  1
  O  O17  1  0.70525903  0.54368518  0.68165984  1
  O  O18  1  0.95787296  0.79335834  0.42864379  1
  O  O19  1  0.96171396  0.30232281  0.93169362  1
  O  O20  1  0.20540819  0.54451774  0.67932857  1
  O  O21  1  0.21397792  0.04951712  0.18861054  1
  O  O22  1  0.46112342  0.29687170  0.92995221  1
  O  O23  1  0.41701608  0.78512183  0.42106242  1
  O  O24  1  0.04470701  0.20365096  0.57202826  1
  O  O25  1  0.08078116  0.71151796  0.07860642  1
  O  O26  1  0.31931740  0.96025067  0.83119275  1
  O  O27  1  0.28477101  0.45745532  0.31397838  1
  O  O28  1  0.53970146  0.70847139  0.06816563  1
  O  O29  1  0.54361986  0.19973567  0.56812363  1
  O  O30  1  0.79042179  0.43782255  0.32654498  1
  O  O31  1  0.79734566  0.95017979  0.81508443  1
