# generated using pymatgen
data_Li9Mn2Co5O16
_symmetry_space_group_name_H-M   'P 1'
_cell_length_a   5.90466789
_cell_length_b   6.46337020
_cell_length_c   7.87747430
_cell_angle_alpha   87.50197794
_cell_angle_beta   75.84940928
_cell_angle_gamma   76.36165489
_symmetry_Int_Tables_number   1
_chemical_formula_structural   Li9Mn2Co5O16
_chemical_formula_sum   'Li9 Mn2 Co5 O16'
_cell_volume   283.26277449
_cell_formula_units_Z   1
loop_
 _symmetry_equiv_pos_site_id
 _symmetry_equiv_pos_as_xyz
  1  'x, y, z'
loop_
 _atom_site_type_symbol
 _atom_site_label
 _atom_site_symmetry_multiplicity
 _atom_site_fract_x
 _atom_site_fract_y
 _atom_site_fract_z
 _atom_site_occupancy
  Li  Li0  1  0.85661930  0.14433089  0.38357694  1
  Li  Li1  1  0.88238912  0.61371298  0.86698340  1
  Li  Li2  1  0.14452166  0.86332620  0.62130462  1
  Li  Li3  1  0.12455119  0.38111803  0.12535806  1
  Li  Li4  1  0.37202946  0.61504774  0.85821710  1
  Li  Li5  1  0.37905576  0.13608994  0.38912210  1
  Li  Li6  1  0.62336651  0.37607039  0.13353395  1
  Li  Li7  1  0.61123993  0.87051367  0.61992969  1
  Li  Li8  1  0.49756439  0.49827965  0.50261433  1
  Mn  Mn9  1  0.00476346  0.99978942  0.99827560  1
  Mn  Mn10  1  0.74705472  0.74712871  0.25579851  1
  Co  Co11  1  0.99579349  0.49971099  0.50167182  1
  Co  Co12  1  0.25207128  0.74696633  0.25742666  1
  Co  Co13  1  0.25432306  0.25072690  0.74578515  1
  Co  Co14  1  0.50455331  0.00262100  0.00029398  1
  Co  Co15  1  0.74472887  0.25208253  0.74332097  1
  O  O16  1  0.71102363  0.05072030  0.18322374  1
  O  O17  1  0.70649615  0.54671090  0.68399025  1
  O  O18  1  0.93575447  0.79504426  0.42038226  1
  O  O19  1  0.96086205  0.29206604  0.93020724  1
  O  O20  1  0.18714940  0.54185034  0.68568005  1
  O  O21  1  0.19067245  0.03790377  0.16536773  1
  O  O22  1  0.46137668  0.29349022  0.93631837  1
  O  O23  1  0.44861719  0.81661702  0.42341628  1
  O  O24  1  0.03679962  0.20301482  0.56440018  1
  O  O25  1  0.04547399  0.70500777  0.06535458  1
  O  O26  1  0.30242955  0.94715895  0.82015696  1
  O  O27  1  0.28550229  0.45886933  0.31575758  1
  O  O28  1  0.56183754  0.71153187  0.08396614  1
  O  O29  1  0.54720454  0.18761452  0.57870269  1
  O  O30  1  0.80605287  0.45826007  0.30540893  1
  O  O31  1  0.81812207  0.95662447  0.83445415  1
