# generated using pymatgen
data_Li9Mn2Co5O16
_symmetry_space_group_name_H-M   'P 1'
_cell_length_a   5.07420817
_cell_length_b   10.29491527
_cell_length_c   5.73453185
_cell_angle_alpha   90.41144566
_cell_angle_beta   106.22521256
_cell_angle_gamma   97.92986168
_symmetry_Int_Tables_number   1
_chemical_formula_structural   Li9Mn2Co5O16
_chemical_formula_sum   'Li9 Mn2 Co5 O16'
_cell_volume   284.55224240
_cell_formula_units_Z   1
loop_
 _symmetry_equiv_pos_site_id
 _symmetry_equiv_pos_as_xyz
  1  'x, y, z'
loop_
 _atom_site_type_symbol
 _atom_site_label
 _atom_site_symmetry_multiplicity
 _atom_site_fract_x
 _atom_site_fract_y
 _atom_site_fract_z
 _atom_site_occupancy
  Li  Li0  1  0.50080818  0.13475661  0.87733439  1
  Li  Li1  1  0.50161101  0.37635993  0.12466894  1
  Li  Li2  1  0.49753932  0.37802113  0.62542925  1
  Li  Li3  1  0.48952614  0.61316821  0.87114997  1
  Li  Li4  1  0.49934691  0.61617977  0.37823331  1
  Li  Li5  1  0.50423925  0.87121067  0.62800142  1
  Li  Li6  1  0.50244724  0.87457540  0.12294008  1
  Li  Li7  1  0.49573421  0.13817118  0.37076484  1
  Li  Li8  1  0.99874792  0.25335233  0.24976042  1
  Mn  Mn9  1  0.00102457  0.00379984  0.00040077  1
  Mn  Mn10  1  0.00115025  0.00365193  0.49959885  1
  Co  Co11  1  0.99451134  0.49058801  0.49894276  1
  Co  Co12  1  0.00595617  0.74862671  0.74894612  1
  Co  Co13  1  0.99397436  0.49073359  -0.00004736  1
  Co  Co14  1  0.00422206  0.74295212  0.24653493  1
  Co  Co15  1  0.99385231  0.24973397  0.74790327  1
  O  O16  1  0.22740338  0.94501648  0.80625532  1
  O  O17  1  0.21091937  0.17478792  0.04218015  1
  O  O18  1  0.20817519  0.17416091  0.56304864  1
  O  O19  1  0.24386716  0.43366541  0.81219518  1
  O  O20  1  0.23152095  0.44714898  0.30854888  1
  O  O21  1  0.23741820  0.69282539  0.56931423  1
  O  O22  1  0.23330885  0.69622971  0.05654047  1
  O  O23  1  0.22790933  0.94765639  0.30612810  1
  O  O24  1  0.77091683  0.31425516  0.92599290  1
  O  O25  1  0.76301856  0.56910161  0.19330582  1
  O  O26  1  0.77830061  0.56486320  0.69692600  1
  O  O27  1  0.78992303  0.82215854  0.93836773  1
  O  O28  1  0.79408872  0.81927471  0.44859856  1
  O  O29  1  0.76465588  0.04914886  0.69155220  1
  O  O30  1  0.76873504  0.04946448  0.19324216  1
  O  O31  1  0.76514766  0.31436087  0.45724169  1
