# generated using pymatgen
data_Li9Mn2Co5O16
_symmetry_space_group_name_H-M   'P 1'
_cell_length_a   2.91381996
_cell_length_b   9.80518005
_cell_length_c   10.12783114
_cell_angle_alpha   84.90000554
_cell_angle_beta   89.99999962
_cell_angle_gamma   81.45502613
_symmetry_Int_Tables_number   1
_chemical_formula_structural   Li9Mn2Co5O16
_chemical_formula_sum   'Li9 Mn2 Co5 O16'
_cell_volume   284.98703905
_cell_formula_units_Z   1
loop_
 _symmetry_equiv_pos_site_id
 _symmetry_equiv_pos_as_xyz
  1  'x, y, z'
loop_
 _atom_site_type_symbol
 _atom_site_label
 _atom_site_symmetry_multiplicity
 _atom_site_fract_x
 _atom_site_fract_y
 _atom_site_fract_z
 _atom_site_occupancy
  Li  Li0  1  0.37763380  0.24473239  0.06786750  1
  Li  Li1  1  0.12148907  0.75702185  0.19502574  1
  Li  Li2  1  0.87851093  0.24297815  0.30497426  1
  Li  Li3  1  0.62236620  0.75526761  0.43213250  1
  Li  Li4  1  0.37516830  0.24966339  0.56225678  1
  Li  Li5  1  0.12559454  0.74881092  0.68969565  1
  Li  Li6  1  0.87440546  0.25118908  0.81030435  1
  Li  Li7  1  0.62483170  0.75033661  0.93774322  1
  Li  Li8  1  0.50000000  -0.00000000  0.25000000  1
  Mn  Mn9  1  0.99895469  0.00209063  0.00390172  1
  Mn  Mn10  1  0.00104531  0.99790937  0.49609828  1
  Co  Co11  1  0.74975172  0.50049655  0.12481445  1
  Co  Co12  1  0.25024828  0.49950345  0.37518555  1
  Co  Co13  1  0.75011728  0.49976544  0.62496984  1
  Co  Co14  1  0.50000000  -0.00000000  0.75000000  1
  Co  Co15  1  0.24988272  0.50023456  0.87503016  1
  O  O16  1  0.44691637  0.10616725  0.90417428  1
  O  O17  1  0.19184974  0.61630053  0.03583870  1
  O  O18  1  0.94165953  0.11668094  0.13813006  1
  O  O19  1  0.69192789  0.61614421  0.28520163  1
  O  O20  1  0.44433923  0.11132155  0.42024233  1
  O  O21  1  0.19317021  0.61365959  0.53728235  1
  O  O22  1  0.94712208  0.10575584  0.66066414  1
  O  O23  1  0.69117823  0.61764354  0.78476225  1
  O  O24  1  0.30807211  0.38385579  0.21479837  1
  O  O25  1  0.05834047  0.88331906  0.36186994  1
  O  O26  1  0.80815026  0.38369947  0.46416130  1
  O  O27  1  0.55308363  0.89383275  0.59582572  1
  O  O28  1  0.30882177  0.38235646  0.71523775  1
  O  O29  1  0.05287792  0.89424416  0.83933586  1
  O  O30  1  0.80682979  0.38634041  0.96271765  1
  O  O31  1  0.55566077  0.88867845  0.07975767  1
