# generated using pymatgen
data_Li9Mn2Co5O16
_symmetry_space_group_name_H-M   'P 1'
_cell_length_a   5.06421175
_cell_length_b   5.12082584
_cell_length_c   11.73275869
_cell_angle_alpha   88.79208959
_cell_angle_beta   87.87019683
_cell_angle_gamma   108.70006255
_symmetry_Int_Tables_number   1
_chemical_formula_structural   Li9Mn2Co5O16
_chemical_formula_sum   'Li9 Mn2 Co5 O16'
_cell_volume   287.82870669
_cell_formula_units_Z   1
loop_
 _symmetry_equiv_pos_site_id
 _symmetry_equiv_pos_as_xyz
  1  'x, y, z'
loop_
 _atom_site_type_symbol
 _atom_site_label
 _atom_site_symmetry_multiplicity
 _atom_site_fract_x
 _atom_site_fract_y
 _atom_site_fract_z
 _atom_site_occupancy
  Li  Li0  1  0.00430443  0.50231721  0.12905676  1
  Li  Li1  1  0.51011550  0.50753386  0.25891492  1
  Li  Li2  1  0.99272823  0.48639616  0.38457426  1
  Li  Li3  1  0.51014558  0.50643905  0.50669106  1
  Li  Li4  1  0.99292201  0.49859666  0.61534337  1
  Li  Li5  1  0.48853166  0.49244524  0.74235920  1
  Li  Li6  1  0.00371181  0.50393759  0.86903608  1
  Li  Li7  1  0.49933133  0.49980837  0.99653059  1
  Li  Li8  1  0.99124440  0.99858283  0.49873618  1
  Mn  Mn9  1  0.00567951  0.00266478  0.99962815  1
  Mn  Mn10  1  0.00043043  0.00076932  0.25412283  1
  Co  Co11  1  0.50575994  0.00483950  0.12624261  1
  Co  Co12  1  0.48630174  0.99028256  0.38671753  1
  Co  Co13  1  0.49652563  0.99601445  0.62371333  1
  Co  Co14  1  0.99846260  0.00042057  0.74056831  1
  Co  Co15  1  0.50441948  0.00458770  0.86747632  1
  O  O16  1  0.75209830  0.22159115  0.00861748  1
  O  O17  1  0.23692504  0.21950596  0.11843088  1
  O  O18  1  0.75812406  0.22244093  0.25412887  1
  O  O19  1  0.23592615  0.22339079  0.35891623  1
  O  O20  1  0.71797133  0.22997789  0.50582931  1
  O  O21  1  0.25015750  0.22295554  0.63139511  1
  O  O22  1  0.74486260  0.24653709  0.76020461  1
  O  O23  1  0.23720882  0.23332364  0.88114484  1
  O  O24  1  0.25730680  0.78231826  0.23942279  1
  O  O25  1  0.76442599  0.76521021  0.36461229  1
  O  O26  1  0.25946077  0.74415105  0.49143992  1
  O  O27  1  0.73730096  0.77654076  0.63249648  1
  O  O28  1  0.26273488  0.77200004  0.74810940  1
  O  O29  1  0.77596505  0.78362431  0.88438171  1
  O  O30  1  0.24944898  0.77929688  0.99444415  1
  O  O31  1  0.76946850  0.78149963  0.12671143  1
