# generated using pymatgen
data_Li9Mn2Co5O16
_symmetry_space_group_name_H-M   'P 1'
_cell_length_a   5.81749830
_cell_length_b   6.55562784
_cell_length_c   8.91298650
_cell_angle_alpha   81.12372182
_cell_angle_beta   70.95263899
_cell_angle_gamma   63.65964086
_symmetry_Int_Tables_number   1
_chemical_formula_structural   Li9Mn2Co5O16
_chemical_formula_sum   'Li9 Mn2 Co5 O16'
_cell_volume   287.92884754
_cell_formula_units_Z   1
loop_
 _symmetry_equiv_pos_site_id
 _symmetry_equiv_pos_as_xyz
  1  'x, y, z'
loop_
 _atom_site_type_symbol
 _atom_site_label
 _atom_site_symmetry_multiplicity
 _atom_site_fract_x
 _atom_site_fract_y
 _atom_site_fract_z
 _atom_site_occupancy
  Li  Li0  1  0.49183339  0.25061609  0.25820093  1
  Li  Li1  1  0.00065042  0.74938391  0.74179907  1
  Li  Li2  1  0.24971387  0.00530585  0.49526642  1
  Li  Li3  1  0.75111628  0.49871010  0.99905735  1
  Li  Li4  1  0.24888372  0.50128990  0.00094265  1
  Li  Li5  1  0.75028613  0.99469415  0.50473358  1
  Li  Li6  1  -0.00065042  0.25061609  0.25820093  1
  Li  Li7  1  0.50816661  0.74938391  0.74179907  1
  Li  Li8  1  -0.00000000  0.50000000  0.50000000  1
  Mn  Mn9  1  -0.00000000  0.00000000  -0.00000000  1
  Mn  Mn10  1  0.50000000  0.50000000  0.50000000  1
  Co  Co11  1  0.75296324  0.74490588  0.25830053  1
  Co  Co12  1  0.24703676  0.25509412  0.74169947  1
  Co  Co13  1  0.75616965  0.25509412  0.74169947  1
  Co  Co14  1  0.24383035  0.74490588  0.25830053  1
  Co  Co15  1  0.50000000  0.00000000  -0.00000000  1
  O  O16  1  0.64458919  0.22778687  -0.00283991  1
  O  O17  1  0.15058703  0.73700296  0.49235982  1
  O  O18  1  0.38942938  0.97776029  0.24338095  1
  O  O19  1  0.88318909  0.47675942  0.75686241  1
  O  O20  1  0.38504766  0.49735635  0.73254833  1
  O  O21  1  0.88730137  0.99221070  0.23318656  1
  O  O22  1  0.13046384  0.22778687  -0.00283991  1
  O  O23  1  0.62005019  0.73700296  0.49235982  1
  O  O24  1  0.37994981  0.26299704  0.50764018  1
  O  O25  1  0.86953616  0.77221313  0.00283991  1
  O  O26  1  0.11269863  0.00778930  0.76681344  1
  O  O27  1  0.61495234  0.50264365  0.26745167  1
  O  O28  1  0.11681091  0.52324058  0.24313759  1
  O  O29  1  0.61057062  0.02223971  0.75661905  1
  O  O30  1  0.84941297  0.26299704  0.50764018  1
  O  O31  1  0.35541081  0.77221313  0.00283991  1
