# generated using pymatgen
data_NaHfMg14O15
_symmetry_space_group_name_H-M   'P 1'
_cell_length_a   8.64835913
_cell_length_b   8.70186728
_cell_length_c   4.32469620
_cell_angle_alpha   90.00000000
_cell_angle_beta   90.00000000
_cell_angle_gamma   90.00000000
_symmetry_Int_Tables_number   1
_chemical_formula_structural   NaHfMg14O15
_chemical_formula_sum   'Na1 Hf1 Mg14 O15'
_cell_volume   325.46311415
_cell_formula_units_Z   1
loop_
 _symmetry_equiv_pos_site_id
 _symmetry_equiv_pos_as_xyz
  1  'x, y, z'
loop_
 _atom_site_type_symbol
 _atom_site_label
 _atom_site_symmetry_multiplicity
 _atom_site_fract_x
 _atom_site_fract_y
 _atom_site_fract_z
 _atom_site_occupancy
  Na  Na0  1  0.00274188  -0.00000000  -0.00000000  1
  Hf  Hf1  1  0.99932655  0.50000000  -0.00000000  1
  Mg  Mg2  1  0.49893436  -0.00000000  -0.00000000  1
  Mg  Mg3  1  0.50112553  0.50000000  -0.00000000  1
  Mg  Mg4  1  0.00053969  0.23467174  0.50000000  1
  Mg  Mg5  1  0.00053969  0.76532826  0.50000000  1
  Mg  Mg6  1  0.50023278  0.24741352  0.50000000  1
  Mg  Mg7  1  0.50023278  0.75258648  0.50000000  1
  Mg  Mg8  1  0.24990397  -0.00000000  0.50000000  1
  Mg  Mg9  1  0.25761543  0.50000000  0.50000000  1
  Mg  Mg10  1  0.75198714  -0.00000000  0.50000000  1
  Mg  Mg11  1  0.74256690  0.50000000  0.50000000  1
  Mg  Mg12  1  0.25702902  0.24611862  -0.00000000  1
  Mg  Mg13  1  0.25702902  0.75388138  0.00000000  1
  Mg  Mg14  1  0.74472058  0.24127360  0.00000000  1
  Mg  Mg15  1  0.74472058  0.75872640  0.00000000  1
  O  O16  1  0.25475080  0.50000000  -0.00000000  1
  O  O17  1  0.73584529  -0.00000000  -0.00000000  1
  O  O18  1  0.74567814  0.50000000  -0.00000000  1
  O  O19  1  0.24871617  0.25406281  0.50000000  1
  O  O20  1  0.24871617  0.74593719  0.50000000  1
  O  O21  1  0.75193417  0.25084850  0.50000000  1
  O  O22  1  0.75193417  0.74915150  0.50000000  1
  O  O23  1  0.00057654  -0.00000000  0.50000000  1
  O  O24  1  0.99959685  0.50000000  0.50000000  1
  O  O25  1  0.50159014  -0.00000000  0.50000000  1
  O  O26  1  0.50032817  0.50000000  0.50000000  1
  O  O27  1  0.99917299  0.26342024  -0.00000000  1
  O  O28  1  0.99917299  0.73657976  -0.00000000  1
  O  O29  1  0.50137075  0.25442637  -0.00000000  1
  O  O30  1  0.50137075  0.74557363  -0.00000000  1
