# generated using pymatgen
data_Li9Mn2Co5O16
_symmetry_space_group_name_H-M   'P 1'
_cell_length_a   5.18466817
_cell_length_b   11.33287260
_cell_length_c   5.20568360
_cell_angle_alpha   90.00000000
_cell_angle_beta   67.60043593
_cell_angle_gamma   90.00000000
_symmetry_Int_Tables_number   1
_chemical_formula_structural   Li9Mn2Co5O16
_chemical_formula_sum   'Li9 Mn2 Co5 O16'
_cell_volume   282.79299190
_cell_formula_units_Z   1
loop_
 _symmetry_equiv_pos_site_id
 _symmetry_equiv_pos_as_xyz
  1  'x, y, z'
loop_
 _atom_site_type_symbol
 _atom_site_label
 _atom_site_symmetry_multiplicity
 _atom_site_fract_x
 _atom_site_fract_y
 _atom_site_fract_z
 _atom_site_occupancy
  Li  Li0  1  0.50000000  0.12323291  0.00000000  1
  Li  Li1  1  0.50000000  0.24961215  0.50000000  1
  Li  Li2  1  0.50000000  0.37687285  0.00000000  1
  Li  Li3  1  0.50000000  0.49890530  0.50000000  1
  Li  Li4  1  0.50000000  0.62585086  0.00000000  1
  Li  Li5  1  0.50000000  0.75297007  0.50000000  1
  Li  Li6  1  0.50000000  0.87338468  0.00000000  1
  Li  Li7  1  0.50000000  0.99808608  0.50000000  1
  Li  Li8  1  0.00000000  0.87425765  0.50000000  1
  Mn  Mn9  1  0.00000000  0.99751552  0.00000000  1
  Mn  Mn10  1  0.00000000  0.25107742  0.00000000  1
  Co  Co11  1  0.00000000  0.12458738  0.50000000  1
  Co  Co12  1  0.00000000  0.37612726  0.50000000  1
  Co  Co13  1  0.00000000  0.50170018  0.00000000  1
  Co  Co14  1  0.00000000  0.62548782  0.50000000  1
  Co  Co15  1  0.00000000  0.74859813  0.00000000  1
  O  O16  1  0.23578373  0.12268850  0.77132367  1
  O  O17  1  0.22924034  0.25132954  0.27787267  1
  O  O18  1  0.23277292  0.37797948  0.77267686  1
  O  O19  1  0.22421244  0.50061074  0.27209964  1
  O  O20  1  0.22980204  0.62635544  0.77678757  1
  O  O21  1  0.20580943  0.74332468  0.24102177  1
  O  O22  1  0.23504093  0.87249862  0.78155012  1
  O  O23  1  0.21104736  0.00607987  0.24439655  1
  O  O24  1  0.76421627  0.12268850  0.22867633  1
  O  O25  1  0.77075966  0.25132954  0.72212733  1
  O  O26  1  0.76722708  0.37797948  0.22732314  1
  O  O27  1  0.77578756  0.50061074  0.72790036  1
  O  O28  1  0.77019796  0.62635544  0.22321243  1
  O  O29  1  0.79419057  0.74332468  0.75897823  1
  O  O30  1  0.76495907  0.87249862  0.21844988  1
  O  O31  1  0.78895264  0.00607987  0.75560345  1
