# generated using pymatgen
data_Li9Mn2Co5O16
_symmetry_space_group_name_H-M   'P 1'
_cell_length_a   2.90513734
_cell_length_b   10.58162423
_cell_length_c   10.12880146
_cell_angle_alpha   113.03141879
_cell_angle_beta   89.99999962
_cell_angle_gamma   82.10994063
_symmetry_Int_Tables_number   1
_chemical_formula_structural   Li9Mn2Co5O16
_chemical_formula_sum   'Li9 Mn2 Co5 O16'
_cell_volume   283.34530576
_cell_formula_units_Z   1
loop_
 _symmetry_equiv_pos_site_id
 _symmetry_equiv_pos_as_xyz
  1  'x, y, z'
loop_
 _atom_site_type_symbol
 _atom_site_label
 _atom_site_symmetry_multiplicity
 _atom_site_fract_x
 _atom_site_fract_y
 _atom_site_fract_z
 _atom_site_occupancy
  Li  Li0  1  0.37520386  0.24959228  0.18661013  1
  Li  Li1  1  0.12208829  0.75582341  0.57133252  1
  Li  Li2  1  0.87791171  0.24417659  0.92866748  1
  Li  Li3  1  0.87430811  0.25138378  0.43713386  1
  Li  Li4  1  0.62232723  0.75534555  0.80996107  1
  Li  Li5  1  0.37767277  0.24465445  0.69003893  1
  Li  Li6  1  0.12569189  0.74861622  0.06286614  1
  Li  Li7  1  0.62479614  0.75040772  0.31338987  1
  Li  Li8  1  0.50000000  -0.00000000  0.75000000  1
  Mn  Mn9  1  0.00103765  0.99792471  0.99364165  1
  Mn  Mn10  1  0.99896235  0.00207529  0.50635835  1
  Co  Co11  1  0.74966015  0.50067970  0.37533595  1
  Co  Co12  1  0.25033985  0.49932030  0.12466405  1
  Co  Co13  1  0.75051930  0.49896141  0.87453771  1
  Co  Co14  1  0.50000000  -0.00000000  0.25000000  1
  Co  Co15  1  0.24948070  0.50103859  0.62546229  1
  O  O16  1  0.44381001  0.11237998  0.97605837  1
  O  O17  1  0.19199719  0.61600562  0.34367843  1
  O  O18  1  0.94148990  0.11702019  0.69730296  1
  O  O19  1  0.94677184  0.10645633  0.21376136  1
  O  O20  1  0.69142546  0.61714909  0.59277286  1
  O  O21  1  0.44641993  0.10716014  0.45807120  1
  O  O22  1  0.19291676  0.61416649  0.84461473  1
  O  O23  1  0.69156569  0.61686863  0.09419611  1
  O  O24  1  0.30843431  0.38313137  0.40580389  1
  O  O25  1  0.05851010  0.88297981  0.80269704  1
  O  O26  1  0.80800281  0.38399438  0.15632157  1
  O  O27  1  0.80708324  0.38583351  0.65538527  1
  O  O28  1  0.55358007  0.89283986  0.04192880  1
  O  O29  1  0.30857454  0.38285091  0.90722714  1
  O  O30  1  0.05322816  0.89354367  0.28623864  1
  O  O31  1  0.55618999  0.88762002  0.52394163  1
