# generated using pymatgen
data_Li9Mn2Co5O16
_symmetry_space_group_name_H-M   'P 1'
_cell_length_a   5.17222797
_cell_length_b   5.78543678
_cell_length_c   9.70945312
_cell_angle_alpha   90.00000000
_cell_angle_beta   98.91669017
_cell_angle_gamma   90.00000000
_symmetry_Int_Tables_number   1
_chemical_formula_structural   Li9Mn2Co5O16
_chemical_formula_sum   'Li9 Mn2 Co5 O16'
_cell_volume   287.03050339
_cell_formula_units_Z   1
loop_
 _symmetry_equiv_pos_site_id
 _symmetry_equiv_pos_as_xyz
  1  'x, y, z'
loop_
 _atom_site_type_symbol
 _atom_site_label
 _atom_site_symmetry_multiplicity
 _atom_site_fract_x
 _atom_site_fract_y
 _atom_site_fract_z
 _atom_site_occupancy
  Li  Li0  1  0.50402208  0.25337588  0.99455521  1
  Li  Li1  1  0.75000000  0.49499971  0.25000000  1
  Li  Li2  1  0.99851520  0.74873579  0.50466642  1
  Li  Li3  1  0.25000000  0.50255153  0.75000000  1
  Li  Li4  1  0.50148480  0.74873579  0.99533358  1
  Li  Li5  1  0.75000000  0.99969560  0.25000000  1
  Li  Li6  1  0.25000000  0.00360440  0.75000000  1
  Li  Li7  1  0.99597792  0.25337588  0.50544479  1
  Li  Li8  1  0.75000000  0.25346729  0.75000000  1
  Mn  Mn9  1  0.00142722  0.99802735  0.99651079  1
  Mn  Mn10  1  0.49857278  0.99802735  0.50348921  1
  Co  Co11  1  0.25000000  0.25240010  0.25000000  1
  Co  Co12  1  0.50433411  0.49507970  0.50811394  1
  Co  Co13  1  0.75000000  0.75148555  0.75000000  1
  Co  Co14  1  0.99566589  0.49507970  0.99188606  1
  Co  Co15  1  0.25000000  0.74351011  0.25000000  1
  O  O16  1  0.12246575  0.24691403  0.88902242  1
  O  O17  1  0.36740923  0.49949803  0.13313474  1
  O  O18  1  0.60204175  0.75119980  0.38309855  1
  O  O19  1  0.84813257  0.51975737  0.62878290  1
  O  O20  1  0.12824096  0.76355365  0.88560229  1
  O  O21  1  0.34487864  0.99866102  0.12428483  1
  O  O22  1  0.82983477  0.98865922  0.62072696  1
  O  O23  1  0.61072641  0.23568101  0.38196714  1
  O  O24  1  0.88927359  0.23568101  0.11803286  1
  O  O25  1  0.13259077  0.49949803  0.36686526  1
  O  O26  1  0.37175904  0.76355365  0.61439771  1
  O  O27  1  0.65186743  0.51975737  0.87121710  1
  O  O28  1  0.89795825  0.75119980  0.11690145  1
  O  O29  1  0.15512136  0.99866102  0.37571517  1
  O  O30  1  0.67016523  0.98865922  0.87927304  1
  O  O31  1  0.37753425  0.24691403  0.61097758  1
