# generated using pymatgen
data_Li9Mn2Co5O16
_symmetry_space_group_name_H-M   'P 1'
_cell_length_a   5.81096237
_cell_length_b   5.84323504
_cell_length_c   8.47346930
_cell_angle_alpha   89.68565392
_cell_angle_beta   90.00000000
_cell_angle_gamma   90.00000000
_symmetry_Int_Tables_number   1
_chemical_formula_structural   Li9Mn2Co5O16
_chemical_formula_sum   'Li9 Mn2 Co5 O16'
_cell_volume   287.71078570
_cell_formula_units_Z   1
loop_
 _symmetry_equiv_pos_site_id
 _symmetry_equiv_pos_as_xyz
  1  'x, y, z'
loop_
 _atom_site_type_symbol
 _atom_site_label
 _atom_site_symmetry_multiplicity
 _atom_site_fract_x
 _atom_site_fract_y
 _atom_site_fract_z
 _atom_site_occupancy
  Li  Li0  1  0.74947681  0.25000000  0.25000000  1
  Li  Li1  1  0.74650233  0.75000000  0.75000000  1
  Li  Li2  1  0.49898608  0.99698145  0.49129192  1
  Li  Li3  1  0.49898608  0.50301855  0.00870808  1
  Li  Li4  1  0.25381897  0.75000000  0.75000000  1
  Li  Li5  1  0.25240083  0.25000000  0.25000000  1
  Li  Li6  1  0.00166343  0.50416600  0.00718428  1
  Li  Li7  1  0.00166343  0.99583400  0.49281572  1
  Li  Li8  1  0.25362304  0.75000000  0.25000000  1
  Mn  Mn9  1  0.99741463  0.99509180  0.00220250  1
  Mn  Mn10  1  0.99741463  0.50490820  0.49779750  1
  Co  Co11  1  0.75098053  0.75000000  0.25000000  1
  Co  Co12  1  0.74438131  0.25000000  0.75000000  1
  Co  Co13  1  0.49503853  0.50825104  0.49307984  1
  Co  Co14  1  0.49503853  0.99174896  0.00692016  1
  Co  Co15  1  0.25183150  0.25000000  0.75000000  1
  O  O16  1  0.75221225  0.22724054  0.99321581  1
  O  O17  1  0.76363829  0.73559841  0.50773516  1
  O  O18  1  0.52070709  0.98135797  0.24013649  1
  O  O19  1  0.49800204  0.48220843  0.74848739  1
  O  O20  1  0.24720619  0.72531638  0.50415251  1
  O  O21  1  0.23587986  0.23576932  -0.00087838  1
  O  O22  1  0.00021002  0.48317577  0.73172972  1
  O  O23  1  0.98753394  0.98402221  0.22822435  1
  O  O24  1  0.75221225  0.27275946  0.50678419  1
  O  O25  1  0.76363829  0.76440159  0.99226484  1
  O  O26  1  0.49800204  0.01779157  0.75151261  1
  O  O27  1  0.52070709  0.51864203  0.25986351  1
  O  O28  1  0.24720619  0.77468362  0.99584749  1
  O  O29  1  0.23587986  0.26423068  0.50087838  1
  O  O30  1  0.98753394  0.51597779  0.27177565  1
  O  O31  1  0.00021002  0.01682423  0.76827028  1
