# generated using pymatgen
data_Li9Mn2Co5O16
_symmetry_space_group_name_H-M   'P 1'
_cell_length_a   5.02348092
_cell_length_b   9.70230932
_cell_length_c   5.78866296
_cell_angle_alpha   90.00000000
_cell_angle_beta   90.00000000
_cell_angle_gamma   99.19461493
_symmetry_Int_Tables_number   1
_chemical_formula_structural   Li9Mn2Co5O16
_chemical_formula_sum   'Li9 Mn2 Co5 O16'
_cell_volume   278.51067988
_cell_formula_units_Z   1
loop_
 _symmetry_equiv_pos_site_id
 _symmetry_equiv_pos_as_xyz
  1  'x, y, z'
loop_
 _atom_site_type_symbol
 _atom_site_label
 _atom_site_symmetry_multiplicity
 _atom_site_fract_x
 _atom_site_fract_y
 _atom_site_fract_z
 _atom_site_occupancy
  Li  Li0  1  0.25339707  0.25965875  0.25287931  1
  Li  Li1  1  0.74660293  0.74034125  0.25287931  1
  Li  Li2  1  0.76262433  0.26408706  0.50399168  1
  Li  Li3  1  0.23737567  0.73591294  0.50399168  1
  Li  Li4  1  0.25196338  0.26350605  0.74700083  1
  Li  Li5  1  0.74803662  0.73649395  0.74700083  1
  Li  Li6  1  0.75086843  0.26477725  0.99618287  1
  Li  Li7  1  0.24913157  0.73522275  0.99618287  1
  Li  Li8  1  -0.00000000  0.50000000  0.74819431  1
  Mn  Mn9  1  -0.00000000  0.00000000  -0.00450535  1
  Mn  Mn10  1  0.50000000  0.00000000  0.25236544  1
  Co  Co11  1  0.50000000  0.50000000  0.98739134  1
  Co  Co12  1  -0.00000000  0.50000000  0.25701984  1
  Co  Co13  1  -0.00000000  0.00000000  0.49765061  1
  Co  Co14  1  0.50000000  0.50000000  0.49706840  1
  Co  Co15  1  0.50000000  0.00000000  0.75185927  1
  O  O16  1  0.86335978  0.10700546  0.25349311  1
  O  O17  1  0.35827060  0.61037917  0.25810899  1
  O  O18  1  0.36118303  0.11051644  0.49069711  1
  O  O19  1  0.86347602  0.60933219  0.48164832  1
  O  O20  1  0.87219947  0.10879651  0.74508177  1
  O  O21  1  0.39367088  0.61628977  0.73862046  1
  O  O22  1  0.39651868  0.11965293  0.01725098  1
  O  O23  1  0.86309148  0.60990966  0.02152264  1
  O  O24  1  0.64172940  0.38962083  0.25810899  1
  O  O25  1  0.13664022  0.89299454  0.25349311  1
  O  O26  1  0.13652398  0.39066781  0.48164832  1
  O  O27  1  0.63881697  0.88948356  0.49069711  1
  O  O28  1  0.60632912  0.38371023  0.73862046  1
  O  O29  1  0.12780053  0.89120349  0.74508177  1
  O  O30  1  0.13690852  0.39009034  0.02152264  1
  O  O31  1  0.60348132  0.88034707  0.01725098  1
