# generated using pymatgen
data_Li9Mn2Co5O16
_symmetry_space_group_name_H-M   'P 1'
_cell_length_a   5.80643200
_cell_length_b   5.91736778
_cell_length_c   10.15541209
_cell_angle_alpha   106.25110131
_cell_angle_beta   106.61137971
_cell_angle_gamma   60.61825054
_symmetry_Int_Tables_number   1
_chemical_formula_structural   Li9Mn2Co5O16
_chemical_formula_sum   'Li9 Mn2 Co5 O16'
_cell_volume   287.25615466
_cell_formula_units_Z   1
loop_
 _symmetry_equiv_pos_site_id
 _symmetry_equiv_pos_as_xyz
  1  'x, y, z'
loop_
 _atom_site_type_symbol
 _atom_site_label
 _atom_site_symmetry_multiplicity
 _atom_site_fract_x
 _atom_site_fract_y
 _atom_site_fract_z
 _atom_site_occupancy
  Li  Li0  1  0.50000000  0.50000000  0.00000000  1
  Li  Li1  1  -0.00000000  0.50000000  0.00000000  1
  Li  Li2  1  0.24917978  0.74812525  0.24648482  1
  Li  Li3  1  0.74501385  0.74718827  0.23721598  1
  Li  Li4  1  -0.00000000  0.00000000  0.50000000  1
  Li  Li5  1  0.50000000  0.00000000  0.50000000  1
  Li  Li6  1  0.75082022  0.25187475  0.75351518  1
  Li  Li7  1  0.25498615  0.25281173  0.76278402  1
  Li  Li8  1  0.50000000  0.00000000  0.00000000  1
  Mn  Mn9  1  -0.00000000  0.00000000  0.00000000  1
  Mn  Mn10  1  0.50000000  0.50000000  0.50000000  1
  Co  Co11  1  0.74750492  0.24017926  0.24367415  1
  Co  Co12  1  0.25598998  0.24017926  0.24367415  1
  Co  Co13  1  -0.00000000  0.50000000  0.50000000  1
  Co  Co14  1  0.25249508  0.75982074  0.75632585  1
  Co  Co15  1  0.74401002  0.75982074  0.75632585  1
  O  O16  1  0.64931421  0.10816333  0.87830227  1
  O  O17  1  0.12082474  0.10816333  0.87830227  1
  O  O18  1  0.38681792  0.36822599  0.14186184  1
  O  O19  1  0.88384972  0.34924270  0.11694213  1
  O  O20  1  0.14442480  0.60995606  0.38522461  1
  O  O21  1  0.63084375  0.60995606  0.38522461  1
  O  O22  1  0.89140064  0.85151946  0.63432073  1
  O  O23  1  0.38478652  0.84935451  0.61892755  1
  O  O24  1  0.35068579  0.89183667  0.12169773  1
  O  O25  1  0.87917526  0.89183667  0.12169773  1
  O  O26  1  0.10859936  0.14848054  0.36567927  1
  O  O27  1  0.61521348  0.15064549  0.38107245  1
  O  O28  1  0.85557520  0.39004394  0.61477539  1
  O  O29  1  0.36915625  0.39004394  0.61477539  1
  O  O30  1  0.61318208  0.63177401  0.85813816  1
  O  O31  1  0.11615028  0.65075730  0.88305787  1
