# generated using pymatgen
data_Li9Mn2Co5O16
_symmetry_space_group_name_H-M   'P 1'
_cell_length_a   5.81240853
_cell_length_b   10.04288845
_cell_length_c   5.94696357
_cell_angle_alpha   87.49877622
_cell_angle_beta   119.50453960
_cell_angle_gamma   106.84115551
_symmetry_Int_Tables_number   1
_chemical_formula_structural   Li9Mn2Co5O16
_chemical_formula_sum   'Li9 Mn2 Co5 O16'
_cell_volume   287.11646916
_cell_formula_units_Z   1
loop_
 _symmetry_equiv_pos_site_id
 _symmetry_equiv_pos_as_xyz
  1  'x, y, z'
loop_
 _atom_site_type_symbol
 _atom_site_label
 _atom_site_symmetry_multiplicity
 _atom_site_fract_x
 _atom_site_fract_y
 _atom_site_fract_z
 _atom_site_occupancy
  Li  Li0  1  0.00127782  0.99614166  0.50046199  1
  Li  Li1  1  0.00132855  0.25641268  0.25560436  1
  Li  Li2  1  0.00119469  0.50355397  0.99881911  1
  Li  Li3  1  0.48949142  0.99117547  0.98660613  1
  Li  Li4  1  0.51768039  0.26704356  0.78051754  1
  Li  Li5  1  0.51325590  0.51013087  0.51878477  1
  Li  Li6  1  0.47980817  0.73229078  0.21823833  1
  Li  Li7  1  0.99525023  0.74327857  0.73855576  1
  Li  Li8  1  0.50000240  0.50126456  0.99960540  1
  Mn  Mn9  1  0.00123169  0.99963438  0.00468060  1
  Mn  Mn10  1  0.00220710  0.25258588  0.75761961  1
  Co  Co11  1  0.00101769  0.50186686  0.49750735  1
  Co  Co12  1  0.99007305  0.74026754  0.23881369  1
  Co  Co13  1  0.50219220  0.00006187  0.50334671  1
  Co  Co14  1  0.50001831  0.25358835  0.25098599  1
  Co  Co15  1  0.50173061  0.74730076  0.74914219  1
  O  O16  1  0.77723745  0.88557211  0.13449617  1
  O  O17  1  0.77234281  0.12406832  0.88198883  1
  O  O18  1  0.76818918  0.37144402  0.64351378  1
  O  O19  1  0.27145370  0.87135578  0.60885257  1
  O  O20  1  0.25303887  0.11455231  0.34296704  1
  O  O21  1  0.23923277  0.35499778  0.09715488  1
  O  O22  1  0.25707811  0.62976106  0.84380185  1
  O  O23  1  0.77016515  0.62756032  0.37508559  1
  O  O24  1  0.21846170  0.12077647  0.86418841  1
  O  O25  1  0.21891911  0.36799951  0.62200984  1
  O  O26  1  0.23970501  0.62322324  0.35975959  1
  O  O27  1  0.74546317  0.13528747  0.41286807  1
  O  O28  1  0.73640765  0.36881894  0.15044705  1
  O  O29  1  0.74311503  0.63857454  0.87657901  1
  O  O30  1  0.75426430  0.88811133  0.66357143  1
  O  O31  1  0.23716579  0.88129905  0.12342634  1
