# generated using pymatgen
data_Mn3Cr2Sn(PO4)6
_symmetry_space_group_name_H-M   'P 1'
_cell_length_a   8.53307239
_cell_length_b   8.53307263
_cell_length_c   8.53307229
_cell_angle_alpha   61.45414993
_cell_angle_beta   61.45414783
_cell_angle_gamma   61.45415504
_symmetry_Int_Tables_number   1
_chemical_formula_structural   Mn3Cr2Sn(PO4)6
_chemical_formula_sum   'Mn3 Cr2 Sn1 P6 O24'
_cell_volume   453.68609747
_cell_formula_units_Z   1
loop_
 _symmetry_equiv_pos_site_id
 _symmetry_equiv_pos_as_xyz
  1  'x, y, z'
loop_
 _atom_site_type_symbol
 _atom_site_label
 _atom_site_symmetry_multiplicity
 _atom_site_fract_x
 _atom_site_fract_y
 _atom_site_fract_z
 _atom_site_occupancy
  Mn  Mn0  1  0.14778042  0.14778042  0.14778042  1
  Mn  Mn1  1  0.35269074  0.35269074  0.35269074  1
  Mn  Mn2  1  0.64540758  0.64540758  0.64540758  1
  Cr  Cr3  1  0.00304196  0.00304196  0.00304196  1
  Cr  Cr4  1  0.49924703  0.49924703  0.49924703  1
  Sn  Sn5  1  0.85384616  0.85384616  0.85384616  1
  P  P6  1  0.25397551  0.54772566  0.94840753  1
  P  P7  1  0.54772566  0.94840753  0.25397551  1
  P  P8  1  0.94840753  0.25397551  0.54772566  1
  P  P9  1  0.05253939  0.74804269  0.44672127  1
  P  P10  1  0.44672127  0.05253939  0.74804269  1
  P  P11  1  0.74804269  0.44672127  0.05253939  1
  O  O12  1  0.09685519  0.32422471  0.51331734  1
  O  O13  1  0.32422471  0.51331734  0.09685519  1
  O  O14  1  0.06592979  0.90519896  0.24693852  1
  O  O15  1  0.51331734  0.09685519  0.32422471  1
  O  O16  1  0.01320366  0.82195347  0.59982460  1
  O  O17  1  0.25282895  0.59715263  0.43524691  1
  O  O18  1  0.24693852  0.06592979  0.90519896  1
  O  O19  1  0.43524691  0.25282895  0.59715263  1
  O  O20  1  0.17928704  0.39909937  0.98597343  1
  O  O21  1  0.59715263  0.43524691  0.25282895  1
  O  O22  1  0.09350074  0.75257224  0.93553287  1
  O  O23  1  0.39909937  0.98597343  0.17928704  1
  O  O24  1  0.59982460  0.01320366  0.82195347  1
  O  O25  1  0.90519896  0.24693852  0.06592979  1
  O  O26  1  0.40520086  0.56402347  0.74572813  1
  O  O27  1  0.82195347  0.59982460  0.01320366  1
  O  O28  1  0.56402347  0.74572813  0.40520086  1
  O  O29  1  0.75257224  0.93553287  0.09350074  1
  O  O30  1  0.74572813  0.40520086  0.56402347  1
  O  O31  1  0.98597343  0.17928704  0.39909937  1
  O  O32  1  0.48916248  0.89656736  0.68125332  1
  O  O33  1  0.93553287  0.09350074  0.75257224  1
  O  O34  1  0.68125332  0.48916248  0.89656736  1
  O  O35  1  0.89656736  0.68125332  0.48916248  1
