# generated using pymatgen
data_Li7FeNi3(PO4)6
_symmetry_space_group_name_H-M   'P 1'
_cell_length_a   8.77974870
_cell_length_b   8.78032424
_cell_length_c   8.81127889
_cell_angle_alpha   60.13967007
_cell_angle_beta   119.87994489
_cell_angle_gamma   120.02750196
_symmetry_Int_Tables_number   1
_chemical_formula_structural   Li7FeNi3(PO4)6
_chemical_formula_sum   'Li7 Fe1 Ni3 P6 O24'
_cell_volume   481.14452156
_cell_formula_units_Z   1
loop_
 _symmetry_equiv_pos_site_id
 _symmetry_equiv_pos_as_xyz
  1  'x, y, z'
loop_
 _atom_site_type_symbol
 _atom_site_label
 _atom_site_symmetry_multiplicity
 _atom_site_fract_x
 _atom_site_fract_y
 _atom_site_fract_z
 _atom_site_occupancy
  Li  Li0  1  0.72241219  0.77552360  0.83834536  1
  Li  Li1  1  0.22438240  0.10839099  0.83846508  1
  Li  Li2  1  0.89100236  0.27796720  0.83819593  1
  Li  Li3  1  0.52422163  0.47590702  0.57250717  1
  Li  Li4  1  0.15137584  0.65786459  0.20140775  1
  Li  Li5  1  0.70820980  0.84868847  0.20148234  1
  Li  Li6  1  0.34190616  0.29193410  0.20146751  1
  Fe  Fe7  1  0.14420209  0.85578598  0.43255530  1
  Ni  Ni8  1  0.64813567  0.35185280  0.94444971  1
  Ni  Ni9  1  0.85312989  0.14693443  0.55927279  1
  Ni  Ni10  1  0.35103004  0.64902954  0.05289801  1
  P  P11  1  0.24436113  0.45758956  0.74691435  1
  P  P12  1  0.96034979  0.75551296  0.74720409  1
  P  P13  1  0.54256788  0.03985002  0.74711126  1
  P  P14  1  0.45851889  0.95602354  0.24902253  1
  P  P15  1  0.04396475  0.25339885  0.24911370  1
  P  P16  1  0.74651517  0.54128948  0.24930028  1
  O  O17  1  0.12466267  0.72022948  0.93191666  1
  O  O18  1  0.52758745  0.87560673  0.93181484  1
  O  O19  1  0.27956326  0.47246125  0.93165467  1
  O  O20  1  0.07164969  0.27434441  0.74799381  1
  O  O21  1  0.20153511  0.62312404  0.57650765  1
  O  O22  1  0.40483161  0.42644612  0.75089844  1
  O  O23  1  0.95086396  0.92813873  0.74825972  1
  O  O24  1  0.77259670  0.59496898  0.75107405  1
  O  O25  1  0.57402196  0.22762283  0.75109355  1
  O  O26  1  0.62476198  0.98571699  0.42298502  1
  O  O27  1  0.26414388  0.89181748  0.26325286  1
  O  O28  1  0.01460334  0.21626434  0.42313661  1
  O  O29  1  0.99834799  0.79848628  0.57671799  1
  O  O30  1  0.72575860  0.04932869  0.74818060  1
  O  O31  1  0.37697455  0.00185694  0.57659932  1
  O  O32  1  0.46494651  0.78677293  0.23695426  1
  O  O33  1  0.21331183  0.44121044  0.23701186  1
  O  O34  1  0.10789353  0.10892478  0.26322467  1
  O  O35  1  0.55867481  0.53481427  0.23710212  1
  O  O36  1  0.78390881  0.37520991  0.42323398  1
  O  O37  1  0.89094578  0.73567590  0.26356961  1
  O  O38  1  0.73472908  0.53648040  0.07105277  1
  O  O39  1  0.46337769  0.12719274  0.07082550  1
  O  O40  1  0.87261655  0.26516920  0.07099829  1
