# generated using pymatgen
data_Mn6O5F7
_symmetry_space_group_name_H-M   'P 1'
_cell_length_a   5.58793644
_cell_length_b   4.97773882
_cell_length_c   15.31371796
_cell_angle_alpha   94.91596199
_cell_angle_beta   92.03993247
_cell_angle_gamma   86.57299149
_symmetry_Int_Tables_number   1
_chemical_formula_structural   Mn6O5F7
_chemical_formula_sum   'Mn12 O10 F14'
_cell_volume   423.43076479
_cell_formula_units_Z   2
loop_
 _symmetry_equiv_pos_site_id
 _symmetry_equiv_pos_as_xyz
  1  'x, y, z'
loop_
 _atom_site_type_symbol
 _atom_site_label
 _atom_site_symmetry_multiplicity
 _atom_site_fract_x
 _atom_site_fract_y
 _atom_site_fract_z
 _atom_site_occupancy
  Mn  Mn0  1  0.92156908  0.01187812  0.99817760  1
  Mn  Mn1  1  0.12832347  0.51390761  0.16115248  1
  Mn  Mn2  1  0.89788463  0.00861126  0.32751815  1
  Mn  Mn3  1  0.10430922  0.51183596  0.50019842  1
  Mn  Mn4  1  0.97556445  0.97228494  0.66955590  1
  Mn  Mn5  1  0.09457223  0.50038531  0.81896592  1
  Mn  Mn6  1  0.45436865  0.97495396  0.16937439  1
  Mn  Mn7  1  0.43601604  0.48291658  0.00675475  1
  Mn  Mn8  1  0.43155259  0.50260485  0.66967597  1
  Mn  Mn9  1  0.52524884  0.00609031  0.50828313  1
  Mn  Mn10  1  0.42255170  0.46884432  0.33588006  1
  Mn  Mn11  1  0.50106539  0.00028219  0.83290074  1
  O  O12  1  0.20241597  0.75522610  0.07800100  1
  O  O13  1  0.23705001  0.76364769  0.74911432  1
  O  O14  1  0.36144597  0.27916131  0.10425589  1
  O  O15  1  0.35783846  0.68416843  0.23561687  1
  O  O16  1  0.32339620  0.72698820  0.57027519  1
  O  O17  1  0.34693321  0.27832230  0.76585092  1
  O  O18  1  0.35453045  0.28264609  0.43996085  1
  O  O19  1  0.62356258  0.21082229  0.94062334  1
  O  O20  1  0.60824233  0.21659901  0.60861728  1
  O  O21  1  0.59858633  0.17867823  0.27050500  1
  F  F22  1  0.11399085  0.25630530  0.25410602  1
  F  F23  1  0.10466158  0.28546522  0.60659325  1
  F  F24  1  0.14899488  0.74469836  0.39030166  1
  F  F25  1  0.13874778  0.27227383  0.93049180  1
  F  F26  1  0.37555759  0.71985283  0.91142953  1
  F  F27  1  0.66927919  0.80097244  0.06318787  1
  F  F28  1  0.62840040  0.78898521  0.39523838  1
  F  F29  1  0.71932969  0.72674461  0.72258510  1
  F  F30  1  0.86626478  0.28787476  0.43469038  1
  F  F31  1  0.88492533  0.31865566  0.09697370  1
  F  F32  1  0.85579932  0.21908371  0.77938719  1
  F  F33  1  0.84008075  0.76599980  0.54772033  1
  F  F34  1  0.86928049  0.74852875  0.88637512  1
  F  F35  1  0.87766061  0.73370046  0.21966052  1
