# generated using pymatgen
data_Li6Ni3Sn(PO4)6
_symmetry_space_group_name_H-M   'P 1'
_cell_length_a   8.57546390
_cell_length_b   8.63988143
_cell_length_c   8.64027876
_cell_angle_alpha   61.92445872
_cell_angle_beta   62.04946444
_cell_angle_gamma   62.12556585
_symmetry_Int_Tables_number   1
_chemical_formula_structural   Li6Ni3Sn(PO4)6
_chemical_formula_sum   'Li6 Ni3 Sn1 P6 O24'
_cell_volume   473.24441155
_cell_formula_units_Z   1
loop_
 _symmetry_equiv_pos_site_id
 _symmetry_equiv_pos_as_xyz
  1  'x, y, z'
loop_
 _atom_site_type_symbol
 _atom_site_label
 _atom_site_symmetry_multiplicity
 _atom_site_fract_x
 _atom_site_fract_y
 _atom_site_fract_z
 _atom_site_occupancy
  Li  Li0  1  0.02102143  0.01477958  0.00159878  1
  Li  Li1  1  0.74300811  0.15167308  0.34787244  1
  Li  Li2  1  0.47929976  0.50191752  0.48612608  1
  Li  Li3  1  0.30297368  0.83531030  0.64221806  1
  Li  Li4  1  0.64517467  0.30261404  0.83576348  1
  Li  Li5  1  0.83389322  0.64218537  0.30737458  1
  Ni  Ni6  1  0.14073000  0.14452932  0.14669352  1
  Ni  Ni7  1  0.35757444  0.35403883  0.35556337  1
  Ni  Ni8  1  0.64618333  0.64707052  0.64986280  1
  Sn  Sn9  1  0.85505782  0.85140788  0.85561360  1
  P  P10  1  0.74839231  0.44514512  0.04866100  1
  P  P11  1  0.05290647  0.74625442  0.44538553  1
  P  P12  1  0.44361192  0.04985548  0.75093187  1
  P  P13  1  0.25140892  0.54075552  0.95468403  1
  P  P14  1  0.54723488  0.95761345  0.25456005  1
  P  P15  1  0.94928771  0.24847767  0.53864078  1
  O  O16  1  0.12245896  0.28641918  0.49379068  1
  O  O17  1  0.30202551  0.50708256  0.11605724  1
  O  O18  1  0.05619635  0.91275902  0.26327555  1
  O  O19  1  0.54516823  0.10961530  0.30034494  1
  O  O20  1  0.01760416  0.80519216  0.60805777  1
  O  O21  1  0.24194065  0.59340179  0.42768792  1
  O  O22  1  0.25453291  0.07593388  0.90527146  1
  O  O23  1  0.44852481  0.23132816  0.58589261  1
  O  O24  1  0.18583886  0.38790202  0.98960256  1
  O  O25  1  0.59733749  0.42968603  0.24169320  1
  O  O26  1  0.10264100  0.74245291  0.91720540  1
  O  O27  1  0.38408309  0.00747310  0.19716547  1
  O  O28  1  0.60442408  0.00734434  0.81748558  1
  O  O29  1  0.90144558  0.25302222  0.07270659  1
  O  O30  1  0.41450033  0.55319908  0.76692191  1
  O  O31  1  0.81594953  0.60236847  0.00941055  1
  O  O32  1  0.55262501  0.77012126  0.41980367  1
  O  O33  1  0.74692163  0.90819593  0.10345372  1
  O  O34  1  0.76595903  0.41715525  0.55752966  1
  O  O35  1  0.95476133  0.18768347  0.39475671  1
  O  O36  1  0.47316037  0.88898029  0.69760604  1
  O  O37  1  0.91506763  0.09955620  0.74254784  1
  O  O38  1  0.68730798  0.47866006  0.89227633  1
  O  O39  1  0.89176579  0.68784026  0.48090961  1
