# generated using pymatgen
data_LiMnF3
_symmetry_space_group_name_H-M   'P 1'
_cell_length_a   5.46200861
_cell_length_b   6.04861365
_cell_length_c   5.47772295
_cell_angle_alpha   90.00000000
_cell_angle_beta   90.00000000
_cell_angle_gamma   116.84054968
_symmetry_Int_Tables_number   1
_chemical_formula_structural   LiMnF3
_chemical_formula_sum   'Li2 Mn2 F6'
_cell_volume   161.47410103
_cell_formula_units_Z   2
loop_
 _symmetry_equiv_pos_site_id
 _symmetry_equiv_pos_as_xyz
  1  'x, y, z'
loop_
 _atom_site_type_symbol
 _atom_site_label
 _atom_site_symmetry_multiplicity
 _atom_site_fract_x
 _atom_site_fract_y
 _atom_site_fract_z
 _atom_site_occupancy
  Li  Li0  1  0.43664673  0.87329347  0.01053844  1
  Li  Li1  1  0.56335327  0.12670653  0.51053844  1
  Mn  Mn2  1  0.08772364  0.17544827  0.00989118  1
  Mn  Mn3  1  0.91227636  0.82455173  0.50989118  1
  F  F4  1  0.24925264  0.00119507  0.26101865  1
  F  F5  1  0.26843474  0.53686948  0.02303208  1
  F  F6  1  0.24805757  0.99880493  0.76101865  1
  F  F7  1  0.75194243  0.00119507  0.26101865  1
  F  F8  1  0.73156526  0.46313052  0.52303208  1
  F  F9  1  0.75074736  0.99880493  0.76101865  1
