# generated using pymatgen
data_LiVSiO4
_symmetry_space_group_name_H-M   'P 1'
_cell_length_a   5.18754855
_cell_length_b   9.55230525
_cell_length_c   5.89008226
_cell_angle_alpha   90.00000000
_cell_angle_beta   90.00000000
_cell_angle_gamma   84.04988633
_symmetry_Int_Tables_number   1
_chemical_formula_structural   LiVSiO4
_chemical_formula_sum   'Li4 V4 Si4 O16'
_cell_volume   290.29907543
_cell_formula_units_Z   4
loop_
 _symmetry_equiv_pos_site_id
 _symmetry_equiv_pos_as_xyz
  1  'x, y, z'
loop_
 _atom_site_type_symbol
 _atom_site_label
 _atom_site_symmetry_multiplicity
 _atom_site_fract_x
 _atom_site_fract_y
 _atom_site_fract_z
 _atom_site_occupancy
  Li  Li0  1  0.15140222  0.93361791  0.63346992  1
  Li  Li1  1  0.34859778  0.56638209  0.13346992  1
  Li  Li2  1  0.65140222  0.43361791  0.86653008  1
  Li  Li3  1  0.84859778  0.06638209  0.36653008  1
  V  V4  1  0.19475935  0.34808945  0.61600674  1
  V  V5  1  0.30524065  0.15191055  0.11600674  1
  V  V6  1  0.69475935  0.84808945  0.88399326  1
  V  V7  1  0.80524065  0.65191055  0.38399326  1
  Si  Si8  1  0.25876103  0.63790580  0.65141477  1
  Si  Si9  1  0.24123897  0.86209420  0.15141477  1
  Si  Si10  1  0.75876103  0.13790580  0.84858523  1
  Si  Si11  1  0.74123897  0.36209420  0.34858523  1
  O  O12  1  0.99740926  0.75122527  0.65955561  1
  O  O13  1  0.98160108  0.77708657  0.13532346  1
  O  O14  1  0.19939622  0.54814723  0.41859417  1
  O  O15  1  0.27919867  0.51066662  0.83650786  1
  O  O16  1  0.22080133  0.98933338  0.33650786  1
  O  O17  1  0.30060378  0.95185277  0.91859417  1
  O  O18  1  0.49740926  0.25122527  0.84044439  1
  O  O19  1  0.48160108  0.27708657  0.36467654  1
  O  O20  1  0.51839892  0.72291343  0.63532346  1
  O  O21  1  0.50259074  0.74877473  0.15955561  1
  O  O22  1  0.69939622  0.04814723  0.08140583  1
  O  O23  1  0.77919867  0.01066662  0.66349214  1
  O  O24  1  0.72080133  0.48933338  0.16349214  1
  O  O25  1  0.80060378  0.45185277  0.58140583  1
  O  O26  1  0.01839892  0.22291343  0.86467654  1
  O  O27  1  0.00259074  0.24877473  0.34044439  1
