# generated using pymatgen
data_Li5FeO3F
_symmetry_space_group_name_H-M   'P 1'
_cell_length_a   5.47177068
_cell_length_b   6.64050010
_cell_length_c   5.48276310
_cell_angle_alpha   90.00000000
_cell_angle_beta   93.88256986
_cell_angle_gamma   90.00000000
_symmetry_Int_Tables_number   1
_chemical_formula_structural   Li5FeO3F
_chemical_formula_sum   'Li10 Fe2 O6 F2'
_cell_volume   198.76058753
_cell_formula_units_Z   2
loop_
 _symmetry_equiv_pos_site_id
 _symmetry_equiv_pos_as_xyz
  1  'x, y, z'
loop_
 _atom_site_type_symbol
 _atom_site_label
 _atom_site_symmetry_multiplicity
 _atom_site_fract_x
 _atom_site_fract_y
 _atom_site_fract_z
 _atom_site_occupancy
  Li  Li0  1  0.00353024  0.25000000  0.91347715  1
  Li  Li1  1  0.17185717  0.99867641  0.19578237  1
  Li  Li2  1  0.17185717  0.50132359  0.19578237  1
  Li  Li3  1  0.33762724  0.25000000  0.66050295  1
  Li  Li4  1  0.58783700  0.02316910  0.91887096  1
  Li  Li5  1  0.58783700  0.47683090  0.91887096  1
  Li  Li6  1  0.64521057  0.75000000  0.36447493  1
  Li  Li7  1  0.88714759  0.98032153  0.62582436  1
  Li  Li8  1  0.88714759  0.51967847  0.62582436  1
  Li  Li9  1  0.88518290  0.75000000  0.02532085  1
  Fe  Fe10  1  0.30839213  0.75000000  0.72491304  1
  Fe  Fe11  1  0.71062743  0.25000000  0.33580708  1
  O  O12  1  0.20486725  0.48667433  0.83271621  1
  O  O13  1  0.20486725  0.01332567  0.83271621  1
  O  O14  1  0.68918363  0.75000000  0.72586247  1
  O  O15  1  0.70046833  0.25000000  0.71570091  1
  O  O16  1  0.81084232  0.98671609  0.22893236  1
  O  O17  1  0.81084232  0.51328391  0.22893236  1
  F  F18  1  0.30033004  0.75000000  0.31307654  1
  F  F19  1  0.29232279  0.25000000  0.31603156  1
