# generated using pymatgen
data_Li8Cr3SbO12
_symmetry_space_group_name_H-M   'P 1'
_cell_length_a   5.03498491
_cell_length_b   5.04936055
_cell_length_c   8.56294779
_cell_angle_alpha   89.61794712
_cell_angle_beta   90.64309917
_cell_angle_gamma   89.29810032
_symmetry_Int_Tables_number   1
_chemical_formula_structural   Li8Cr3SbO12
_chemical_formula_sum   'Li8 Cr3 Sb1 O12'
_cell_volume   217.66462107
_cell_formula_units_Z   1
loop_
 _symmetry_equiv_pos_site_id
 _symmetry_equiv_pos_as_xyz
  1  'x, y, z'
loop_
 _atom_site_type_symbol
 _atom_site_label
 _atom_site_symmetry_multiplicity
 _atom_site_fract_x
 _atom_site_fract_y
 _atom_site_fract_z
 _atom_site_occupancy
  Li  Li0  1  0.49986566  0.00072235  0.92162769  1
  Li  Li1  1  0.49932755  0.49507955  0.75532563  1
  Li  Li2  1  0.50024070  0.49916070  0.06970547  1
  Li  Li3  1  0.99747733  0.49997396  0.72186417  1
  Li  Li4  1  0.00730013  0.50051495  0.41923588  1
  Li  Li5  1  0.50116059  0.99740869  0.23220233  1
  Li  Li6  1  0.99808934  0.99577241  0.25913693  1
  Li  Li7  1  0.99263452  0.00677426  0.56027256  1
  Cr  Cr8  1  0.51062930  0.49594904  0.39735411  1
  Cr  Cr9  1  0.49374641  0.99105590  0.57260121  1
  Cr  Cr10  1  0.00135138  0.50056432  0.09208605  1
  Sb  Sb11  1  0.00016024  0.00307814  0.90329653  1
  O  O12  1  0.74694002  0.85890606  0.73977541  1
  O  O13  1  0.77723167  0.83170137  0.07032696  1
  O  O14  1  0.72225700  0.82292222  0.41767804  1
  O  O15  1  0.29339061  0.67970276  0.56548854  1
  O  O16  1  0.22066784  0.67120355  0.91730447  1
  O  O17  1  0.25833303  0.64728149  0.25131823  1
  O  O18  1  0.74477865  0.35115594  0.24848012  1
  O  O19  1  0.77694558  0.33256157  0.91702683  1
  O  O20  1  0.70778199  0.32423924  0.56700108  1
  O  O21  1  0.28241564  0.17341668  0.42168376  1
  O  O22  1  0.22488055  0.16941982  0.07260019  1
  O  O23  1  0.24235226  0.15127502  0.74052180  1
