# generated using pymatgen
data_Li9Mn(SiO5)2
_symmetry_space_group_name_H-M   'P 1'
_cell_length_a   5.92011324
_cell_length_b   15.91037962
_cell_length_c   5.36036403
_cell_angle_alpha   79.12899949
_cell_angle_beta   88.03321368
_cell_angle_gamma   104.82782229
_symmetry_Int_Tables_number   1
_chemical_formula_structural   Li9Mn(SiO5)2
_chemical_formula_sum   'Li18 Mn2 Si4 O20'
_cell_volume   477.50970489
_cell_formula_units_Z   2
loop_
 _symmetry_equiv_pos_site_id
 _symmetry_equiv_pos_as_xyz
  1  'x, y, z'
loop_
 _atom_site_type_symbol
 _atom_site_label
 _atom_site_symmetry_multiplicity
 _atom_site_fract_x
 _atom_site_fract_y
 _atom_site_fract_z
 _atom_site_occupancy
  Li  Li0  1  0.92473851  0.27173292  0.77785306  1
  Li  Li1  1  0.91451740  0.38565151  0.38651735  1
  Li  Li2  1  0.74093621  0.12826923  0.10401254  1
  Li  Li3  1  0.89356137  0.73345282  0.77143819  1
  Li  Li4  1  0.51245774  0.01308740  0.73642296  1
  Li  Li5  1  0.72203616  0.45467966  0.72062712  1
  Li  Li6  1  0.33872387  0.17203725  0.17070885  1
  Li  Li7  1  0.65329516  0.73397686  0.22505763  1
  Li  Li8  1  0.58486914  0.60807421  0.59060086  1
  Li  Li9  1  0.44971661  0.39094302  0.36722663  1
  Li  Li10  1  0.33991556  0.27122413  0.76016404  1
  Li  Li11  1  0.27227567  0.53034083  0.31921760  1
  Li  Li12  1  0.49739464  0.97682203  0.29509074  1
  Li  Li13  1  0.11093171  0.27663877  0.24548015  1
  Li  Li14  1  0.33523063  0.63908027  0.92401023  1
  Li  Li15  1  0.26278592  0.86586429  0.91402914  1
  Li  Li16  1  0.06967505  0.60922453  0.58326501  1
  Li  Li17  1  0.08534097  0.73687400  0.25961181  1
  Mn  Mn18  1  0.83502203  0.90665643  0.00622890  1
  Mn  Mn19  1  0.10587344  0.08848246  0.88488218  1
  Si  Si20  1  0.55918329  0.18629187  0.52582485  1
  Si  Si21  1  0.80053967  0.56774010  0.12748903  1
  Si  Si22  1  0.46175850  0.80795103  0.51951862  1
  Si  Si23  1  0.20600301  0.43567176  0.85279682  1
  O  O24  1  0.94810954  0.38776949  0.76584697  1
  O  O25  1  0.77964080  0.02507675  0.97613267  1
  O  O26  1  0.82917137  0.24338601  0.47168286  1
  O  O27  1  0.80374581  0.57665643  0.81513655  1
  O  O28  1  0.93476242  0.80549718  0.03468443  1
  O  O29  1  0.51007485  0.09665679  0.39788663  1
  O  O30  1  0.74492502  0.46835387  0.29981310  1
  O  O31  1  0.46655375  0.15236002  0.84066414  1
  O  O32  1  0.37765372  0.24474129  0.41485521  1
  O  O33  1  0.59329567  0.61499608  0.20930942  1
  O  O34  1  0.16478964  0.97659120  0.91380569  1
  O  O35  1  0.39584616  0.38912465  0.73873257  1
  O  O36  1  0.62398626  0.74026051  0.59621144  1
  O  O37  1  0.51546991  0.90014814  0.63406419  1
  O  O38  1  0.27671484  0.54295272  0.71917087  1
  O  O39  1  0.51066831  0.84607611  0.19457235  1
  O  O40  1  0.06783809  0.19146861  0.99132095  1
  O  O41  1  0.20242318  0.41571708  0.16889971  1
  O  O42  1  0.18860454  0.74903966  0.58576047  1
  O  O43  1  0.06784589  0.62253003  0.19716347  1
