# generated using pymatgen
data_Li5Co4(BO3)4
_symmetry_space_group_name_H-M   'P 1'
_cell_length_a   5.11208264
_cell_length_b   5.05004510
_cell_length_c   11.68007747
_cell_angle_alpha   87.41645011
_cell_angle_beta   89.48990865
_cell_angle_gamma   60.12530622
_symmetry_Int_Tables_number   1
_chemical_formula_structural   Li5Co4(BO3)4
_chemical_formula_sum   'Li5 Co4 B4 O12'
_cell_volume   261.16902196
_cell_formula_units_Z   1
loop_
 _symmetry_equiv_pos_site_id
 _symmetry_equiv_pos_as_xyz
  1  'x, y, z'
loop_
 _atom_site_type_symbol
 _atom_site_label
 _atom_site_symmetry_multiplicity
 _atom_site_fract_x
 _atom_site_fract_y
 _atom_site_fract_z
 _atom_site_occupancy
  Li  Li0  1  0.32218611  0.66562134  0.33179120  1
  Li  Li1  1  0.33332688  0.66053945  0.90760654  1
  Li  Li2  1  0.66285705  0.31931059  0.15942801  1
  Li  Li3  1  0.64356863  0.35018524  0.53066755  1
  Li  Li4  1  0.62820003  0.35112996  0.71962712  1
  Co  Co5  1  0.98544603  0.67152340  0.65383155  1
  Co  Co6  1  0.31794593  0.01861085  0.09757900  1
  Co  Co7  1  0.71585616  0.94268610  0.90944758  1
  Co  Co8  1  0.01612514  0.32697867  0.34144485  1
  B  B9  1  0.00773970  0.33783045  0.87934341  1
  B  B10  1  0.31859993  0.01056465  0.62038001  1
  B  B11  1  0.67639927  0.98183789  0.36825643  1
  B  B12  1  0.99670617  0.67042663  0.13512139  1
  O  O13  1  0.03104725  0.26944865  0.61124588  1
  O  O14  1  0.25914361  0.08032234  0.92719536  1
  O  O15  1  0.04356836  0.58061740  0.83155973  1
  O  O16  1  0.57503755  0.04304042  0.62844060  1
  O  O17  1  0.27156324  0.66002208  0.14087096  1
  O  O18  1  0.35008647  0.71894947  0.62432575  1
  O  O19  1  0.66388607  0.26738916  0.36469739  1
  O  O20  1  0.73226968  0.35430473  0.87626559  1
  O  O21  1  0.41584442  0.97235454  0.35285901  1
  O  O22  1  0.98856656  0.40056754  0.16296759  1
  O  O23  1  0.73651471  0.93974843  0.10680695  1
  O  O24  1  0.95091605  0.72058901  0.38544054  1
