# generated using pymatgen
data_Li4Mn3V3(TeO8)2
_symmetry_space_group_name_H-M   'P 1'
_cell_length_a   6.15814280
_cell_length_b   6.05247701
_cell_length_c   10.19973465
_cell_angle_alpha   89.25308152
_cell_angle_beta   91.63382246
_cell_angle_gamma   121.25968414
_symmetry_Int_Tables_number   1
_chemical_formula_structural   Li4Mn3V3(TeO8)2
_chemical_formula_sum   'Li4 Mn3 V3 Te2 O16'
_cell_volume   324.84116410
_cell_formula_units_Z   1
loop_
 _symmetry_equiv_pos_site_id
 _symmetry_equiv_pos_as_xyz
  1  'x, y, z'
loop_
 _atom_site_type_symbol
 _atom_site_label
 _atom_site_symmetry_multiplicity
 _atom_site_fract_x
 _atom_site_fract_y
 _atom_site_fract_z
 _atom_site_occupancy
  Li  Li0  1  0.32127511  0.65314980  0.90974738  1
  Li  Li1  1  0.01056831  0.00766148  0.98713560  1
  Li  Li2  1  0.00131359  0.99630511  0.49196071  1
  Li  Li3  1  0.67639990  0.34872753  0.39638943  1
  Mn  Mn4  1  0.66796971  0.83523883  0.20853904  1
  Mn  Mn5  1  0.82585479  0.66150203  0.71495970  1
  Mn  Mn6  1  0.83902887  0.17674347  0.71624547  1
  V  V7  1  0.18965794  0.84751897  0.22132016  1
  V  V8  1  0.17477365  0.34168692  0.21542744  1
  V  V9  1  0.34864998  0.14970419  0.72583228  1
  Te  Te10  1  0.33377467  0.66077236  0.50415484  1
  Te  Te11  1  0.68107655  0.35615282  0.99042482  1
  O  O12  1  0.17232421  0.83607510  0.59881056  1
  O  O13  1  0.02750033  0.51233722  0.31916588  1
  O  O14  1  0.33705740  0.67618112  0.11273010  1
  O  O15  1  0.99116382  0.99029838  0.30660928  1
  O  O16  1  0.01228414  0.98992645  0.80243556  1
  O  O17  1  0.17864226  0.32998142  0.59987470  1
  O  O18  1  0.46704534  0.98916018  0.32385007  1
  O  O19  1  0.47638663  0.50554545  0.31834401  1
  O  O20  1  0.29356355  0.15453829  0.10973598  1
  O  O21  1  0.67493620  0.82957060  0.59456457  1
  O  O22  1  0.50083845  0.46445344  0.84762260  1
  O  O23  1  0.47719093  0.00540235  0.82830419  1
  O  O24  1  0.64636539  0.34524799  0.61541704  1
  O  O25  1  0.85562867  0.68252536  0.08934502  1
  O  O26  1  0.95421286  0.49021850  0.85589302  1
  O  O27  1  0.86451275  0.16367663  0.10300156  1
