# generated using pymatgen
data_Li5Cu5(TeO6)2
_symmetry_space_group_name_H-M   'P 1'
_cell_length_a   5.27328560
_cell_length_b   5.27328511
_cell_length_c   9.79064697
_cell_angle_alpha   87.45512411
_cell_angle_beta   92.54487716
_cell_angle_gamma   66.52873960
_symmetry_Int_Tables_number   1
_chemical_formula_structural   Li5Cu5(TeO6)2
_chemical_formula_sum   'Li5 Cu5 Te2 O12'
_cell_volume   248.90792002
_cell_formula_units_Z   1
loop_
 _symmetry_equiv_pos_site_id
 _symmetry_equiv_pos_as_xyz
  1  'x, y, z'
loop_
 _atom_site_type_symbol
 _atom_site_label
 _atom_site_symmetry_multiplicity
 _atom_site_fract_x
 _atom_site_fract_y
 _atom_site_fract_z
 _atom_site_occupancy
  Li  Li0  1  0.16397418  0.67437464  0.50241479  1
  Li  Li1  1  0.33039363  0.83735862  0.99420352  1
  Li  Li2  1  0.67437464  0.16397418  0.99758521  1
  Li  Li3  1  0.83735862  0.33039363  0.50579648  1
  Li  Li4  1  0.91316507  0.91316507  0.75000000  1
  Cu  Cu5  1  0.08387549  0.08387549  0.25000000  1
  Cu  Cu6  1  0.99821033  0.49894391  0.99947839  1
  Cu  Cu7  1  0.49894391  0.99821033  0.50052161  1
  Cu  Cu8  1  0.40599436  0.40599436  0.25000000  1
  Cu  Cu9  1  0.59529073  0.59529073  0.75000000  1
  Te  Te10  1  0.25378323  0.25378323  0.75000000  1
  Te  Te11  1  0.74396597  0.74396597  0.25000000  1
  O  O12  1  0.00925758  0.19077886  0.88062901  1
  O  O13  1  0.19077886  0.00925758  0.61937099  1
  O  O14  1  0.05625151  0.43449718  0.34958226  1
  O  O15  1  0.43449718  0.05625151  0.15041774  1
  O  O16  1  0.30956855  0.51759215  0.87296776  1
  O  O17  1  0.51759215  0.30956855  0.62703224  1
  O  O18  1  0.49361619  0.67933177  0.37688440  1
  O  O19  1  0.67933177  0.49361619  0.12311560  1
  O  O20  1  0.56516077  0.94448093  0.84894285  1
  O  O21  1  0.94448093  0.56516077  0.65105715  1
  O  O22  1  0.80749072  0.99264264  0.37955584  1
  O  O23  1  0.99264264  0.80749072  0.12044416  1
