# generated using pymatgen
data_Li4MnNi5(PO4)6
_symmetry_space_group_name_H-M   'P 1'
_cell_length_a   8.33573019
_cell_length_b   8.81117727
_cell_length_c   8.79930763
_cell_angle_alpha   60.00712487
_cell_angle_beta   58.66096443
_cell_angle_gamma   58.62809539
_symmetry_Int_Tables_number   1
_chemical_formula_structural   Li4MnNi5(PO4)6
_chemical_formula_sum   'Li4 Mn1 Ni5 P6 O24'
_cell_volume   447.42977834
_cell_formula_units_Z   1
loop_
 _symmetry_equiv_pos_site_id
 _symmetry_equiv_pos_as_xyz
  1  'x, y, z'
loop_
 _atom_site_type_symbol
 _atom_site_label
 _atom_site_symmetry_multiplicity
 _atom_site_fract_x
 _atom_site_fract_y
 _atom_site_fract_z
 _atom_site_occupancy
  Li  Li0  1  0.25153303  0.85247651  0.64628696  1
  Li  Li1  1  0.76865919  0.14736545  0.35523833  1
  Li  Li2  1  0.76800458  0.72846787  0.14453876  1
  Li  Li3  1  0.77116560  0.35742746  0.72729623  1
  Mn  Mn4  1  0.55851052  0.14916279  0.14644314  1
  Ni  Ni5  1  0.01436014  0.99732836  0.99971993  1
  Ni  Ni6  1  0.07014530  0.64097345  0.64507893  1
  Ni  Ni7  1  0.49573635  0.49729604  0.49924939  1
  Ni  Ni8  1  0.43249713  0.85470761  0.85629123  1
  Ni  Ni9  1  0.94013226  0.35390743  0.35113277  1
  P  P10  1  0.24527633  0.25539411  0.55171599  1
  P  P11  1  0.24505052  0.94927122  0.25160854  1
  P  P12  1  0.24533831  0.55213520  0.94970319  1
  P  P13  1  0.74506099  0.45346724  0.04739017  1
  P  P14  1  0.75389543  0.04698459  0.75264729  1
  P  P15  1  0.73754354  0.75495053  0.45337293  1
  O  O16  1  0.05220614  0.10323798  0.32197117  1
  O  O17  1  0.05226572  0.52130458  0.10174858  1
  O  O18  1  0.05204016  0.33025748  0.51656178  1
  O  O19  1  0.22304116  0.08930461  0.73787542  1
  O  O20  1  0.43774373  0.18946916  0.38500837  1
  O  O21  1  0.28284817  0.40088747  0.56625059  1
  O  O22  1  0.22558553  0.93020092  0.09761722  1
  O  O23  1  0.28236516  0.75927905  0.41128799  1
  O  O24  1  0.55764494  0.60354439  0.01047426  1
  O  O25  1  0.28527003  0.56861258  0.74865855  1
  O  O26  1  0.77244498  0.24789979  0.06940554  1
  O  O27  1  0.57788548  0.99658905  0.81789030  1
  O  O28  1  0.43755554  0.99285999  0.18265178  1
  O  O29  1  0.22057174  0.74967871  0.92780808  1
  O  O30  1  0.72089495  0.42621050  0.24908914  1
  O  O31  1  0.43800559  0.38755336  0.98856320  1
  O  O32  1  0.72421784  0.24803393  0.60249811  1
  O  O33  1  0.77113797  0.07292989  0.91269832  1
  O  O34  1  0.72311089  0.60258672  0.42099437  1
  O  O35  1  0.53782915  0.82214187  0.60121044  1
  O  O36  1  0.76853810  0.91360304  0.24969677  1
  O  O37  1  0.91871706  0.69921362  0.49432014  1
  O  O38  1  0.93767895  0.48000261  0.89240766  1
  O  O39  1  0.95749078  0.89628484  0.69259744  1
