# generated using pymatgen
data_Li4Mn3Fe2Sn(PO4)6
_symmetry_space_group_name_H-M   'P 1'
_cell_length_a   8.59133102
_cell_length_b   8.70287839
_cell_length_c   8.66461129
_cell_angle_alpha   62.88448606
_cell_angle_beta   63.29044277
_cell_angle_gamma   63.30426443
_symmetry_Int_Tables_number   1
_chemical_formula_structural   Li4Mn3Fe2Sn(PO4)6
_chemical_formula_sum   'Li4 Mn3 Fe2 Sn1 P6 O24'
_cell_volume   490.17607942
_cell_formula_units_Z   1
loop_
 _symmetry_equiv_pos_site_id
 _symmetry_equiv_pos_as_xyz
  1  'x, y, z'
loop_
 _atom_site_type_symbol
 _atom_site_label
 _atom_site_symmetry_multiplicity
 _atom_site_fract_x
 _atom_site_fract_y
 _atom_site_fract_z
 _atom_site_occupancy
  Li  Li0  1  0.74478194  0.15158655  0.35375878  1
  Li  Li1  1  0.29366354  0.84831413  0.64587574  1
  Li  Li2  1  0.63888613  0.29307668  0.85170296  1
  Li  Li3  1  0.85255331  0.63892233  0.29716161  1
  Mn  Mn4  1  0.15137240  0.15297200  0.14925484  1
  Mn  Mn5  1  0.34759522  0.35213276  0.34944820  1
  Mn  Mn6  1  0.65426122  0.65446133  0.65724115  1
  Fe  Fe7  1  0.01646237  0.00378623  0.00370819  1
  Fe  Fe8  1  0.48987313  0.50193731  0.49926402  1
  Sn  Sn9  1  0.85175124  0.84659692  0.85156145  1
  P  P10  1  0.24621636  0.55509593  0.94444263  1
  P  P11  1  0.56578146  0.94759897  0.25017259  1
  P  P12  1  0.93067360  0.24311791  0.54942846  1
  P  P13  1  0.05936510  0.74361332  0.44084869  1
  P  P14  1  0.43999036  0.05593425  0.74740806  1
  P  P15  1  0.74687460  0.43814527  0.05628049  1
  O  O16  1  0.09877239  0.29239236  0.50003994  1
  O  O17  1  0.30463002  0.52878303  0.09786718  1
  O  O18  1  0.05930022  0.90481953  0.26080793  1
  O  O19  1  0.56535420  0.09211444  0.30473300  1
  O  O20  1  0.00913500  0.80950967  0.60423995  1
  O  O21  1  0.25082899  0.60197166  0.43177766  1
  O  O22  1  0.25355482  0.07672323  0.89825149  1
  O  O23  1  0.45106395  0.23676604  0.59060527  1
  O  O24  1  0.16741875  0.41279820  0.98394107  1
  O  O25  1  0.60676298  0.42283096  0.25039731  1
  O  O26  1  0.09927530  0.75943506  0.90899818  1
  O  O27  1  0.40755871  0.00801268  0.18213721  1
  O  O28  1  0.60122921  0.00235891  0.82067047  1
  O  O29  1  0.89844006  0.25083634  0.07486554  1
  O  O30  1  0.39867066  0.57431620  0.75262943  1
  O  O31  1  0.81016735  0.60181870  0.00826905  1
  O  O32  1  0.57403018  0.75728415  0.40234687  1
  O  O33  1  0.76498452  0.90534394  0.09799558  1
  O  O34  1  0.74388564  0.40147616  0.57436245  1
  O  O35  1  0.94094709  0.17261900  0.41220021  1
  O  O36  1  0.46826451  0.90599717  0.68106913  1
  O  O37  1  0.90744768  0.09741982  0.75317948  1
  O  O38  1  0.67520231  0.46762155  0.90891109  1
  O  O39  1  0.91297250  0.66646031  0.47514665  1
