# generated using pymatgen
data_Li5(CoO3)2
_symmetry_space_group_name_H-M   'P 1'
_cell_length_a   8.92951934
_cell_length_b   8.92951934
_cell_length_c   3.49137440
_cell_angle_alpha   90.00000000
_cell_angle_beta   90.00000000
_cell_angle_gamma   90.91871903
_symmetry_Int_Tables_number   1
_chemical_formula_structural   Li5(CoO3)2
_chemical_formula_sum   'Li10 Co4 O12'
_cell_volume   278.35354369
_cell_formula_units_Z   2
loop_
 _symmetry_equiv_pos_site_id
 _symmetry_equiv_pos_as_xyz
  1  'x, y, z'
loop_
 _atom_site_type_symbol
 _atom_site_label
 _atom_site_symmetry_multiplicity
 _atom_site_fract_x
 _atom_site_fract_y
 _atom_site_fract_z
 _atom_site_occupancy
  Li  Li0  1  0.10333603  0.37256245  0.50000000  1
  Li  Li1  1  0.17933831  0.61168697  0.00000000  1
  Li  Li2  1  0.17051611  0.17051611  0.00000000  1
  Li  Li3  1  0.37256245  0.10333603  0.50000000  1
  Li  Li4  1  0.38831303  0.82066169  0.00000000  1
  Li  Li5  1  0.61168697  0.17933831  0.00000000  1
  Li  Li6  1  0.62743755  0.89666397  0.50000000  1
  Li  Li7  1  0.82948389  0.82948389  0.00000000  1
  Li  Li8  1  0.82066169  0.38831303  -0.00000000  1
  Li  Li9  1  0.89666397  0.62743755  0.50000000  1
  Co  Co10  1  0.11518305  0.88481695  0.50000000  1
  Co  Co11  1  0.38937542  0.38937542  0.00000000  1
  Co  Co12  1  0.61062458  0.61062458  0.00000000  1
  Co  Co13  1  0.88481695  0.11518305  0.50000000  1
  O  O14  1  0.09567887  0.09567887  0.50000000  1
  O  O15  1  0.10060665  0.68882371  0.50000000  1
  O  O16  1  0.18954748  0.39309610  -0.00000000  1
  O  O17  1  0.31117629  0.89939335  0.50000000  1
  O  O18  1  0.39309610  0.18954748  -0.00000000  1
  O  O19  1  0.40527718  0.59472282  0.00000000  1
  O  O20  1  0.59472282  0.40527718  0.00000000  1
  O  O21  1  0.60690390  0.81045252  0.00000000  1
  O  O22  1  0.68882371  0.10060665  0.50000000  1
  O  O23  1  0.81045252  0.60690390  0.00000000  1
  O  O24  1  0.89939335  0.31117629  0.50000000  1
  O  O25  1  0.90432113  0.90432113  0.50000000  1
