# generated using pymatgen
data_Li4Fe3(SiO4)3
_symmetry_space_group_name_H-M   'P 1'
_cell_length_a   8.79701028
_cell_length_b   8.92654850
_cell_length_c   15.29756538
_cell_angle_alpha   89.91898426
_cell_angle_beta   89.99877080
_cell_angle_gamma   90.00518622
_symmetry_Int_Tables_number   1
_chemical_formula_structural   Li4Fe3(SiO4)3
_chemical_formula_sum   'Li16 Fe12 Si12 O48'
_cell_volume   1201.26977493
_cell_formula_units_Z   4
loop_
 _symmetry_equiv_pos_site_id
 _symmetry_equiv_pos_as_xyz
  1  'x, y, z'
loop_
 _atom_site_type_symbol
 _atom_site_label
 _atom_site_symmetry_multiplicity
 _atom_site_fract_x
 _atom_site_fract_y
 _atom_site_fract_z
 _atom_site_occupancy
  Li  Li0  1  0.94154747  0.02316685  0.59649260  1
  Li  Li1  1  0.43759984  0.10806094  0.81716631  1
  Li  Li2  1  0.06737479  0.15761680  0.03823353  1
  Li  Li3  1  0.70156794  0.25284781  0.25166785  1
  Li  Li4  1  0.20145651  0.24716884  0.24829347  1
  Li  Li5  1  0.56673096  0.34281014  0.46218001  1
  Li  Li6  1  0.93749883  0.39181397  0.68276807  1
  Li  Li7  1  0.44156412  0.47610095  0.90343580  1
  Li  Li8  1  0.55844246  0.52313318  0.09646116  1
  Li  Li9  1  0.06223235  0.60822086  0.31756661  1
  Li  Li10  1  0.43269981  0.65737299  0.53806789  1
  Li  Li11  1  0.79870805  0.75289665  0.75165744  1
  Li  Li12  1  0.29849934  0.74728482  0.74834399  1
  Li  Li13  1  0.93369697  0.84299597  0.96263583  1
  Li  Li14  1  0.56254865  0.89182595  0.18281193  1
  Li  Li15  1  0.05847336  0.97648374  0.40349237  1
  Fe  Fe16  1  0.35975240  0.05734449  0.40945785  1
  Fe  Fe17  1  0.14621682  0.08226455  0.76916130  1
  Fe  Fe18  1  0.36695718  0.09600788  0.07220751  1
  Fe  Fe19  1  0.86673011  0.40357662  0.42777110  1
  Fe  Fe20  1  0.64624688  0.41789787  0.73077743  1
  Fe  Fe21  1  0.85981302  0.44261514  0.09040929  1
  Fe  Fe22  1  0.14029553  0.55732095  0.90949923  1
  Fe  Fe23  1  0.35354254  0.58212012  0.26912004  1
  Fe  Fe24  1  0.13300687  0.59616995  0.57227274  1
  Fe  Fe25  1  0.63342769  0.90358931  0.92778805  1
  Fe  Fe26  1  0.85382106  0.91787173  0.23082593  1
  Fe  Fe27  1  0.64020599  0.94260690  0.59042477  1
  Si  Si28  1  0.72643277  0.05930860  0.40828014  1
  Si  Si29  1  0.78324223  0.08606413  0.76523687  1
  Si  Si30  1  0.73232420  0.11066668  0.07364170  1
  Si  Si31  1  0.23214145  0.38943773  0.42633280  1
  Si  Si32  1  0.28321969  0.41394213  0.73467999  1
  Si  Si33  1  0.22648059  0.44066847  0.09169599  1
  Si  Si34  1  0.77366715  0.55928012  0.90827010  1
  Si  Si35  1  0.71677958  0.58598720  0.26528969  1
  Si  Si36  1  0.76757021  0.61049003  0.57353498  1
  Si  Si37  1  0.26753696  0.88971110  0.92638102  1
  Si  Si38  1  0.21676144  0.91386842  0.23467343  1
  Si  Si39  1  0.27354427  0.94083038  0.59172920  1
  O  O40  1  0.55698292  0.98260716  0.39603173  1
  O  O41  1  0.77743062  0.04311513  0.51218000  1
  O  O42  1  0.14121905  0.03058369  0.64846369  1
  O  O43  1  0.21227699  0.03752436  0.97974700  1
  O  O44  1  0.21909359  0.04913932  0.31128619  1
  O  O45  1  0.64085734  0.06248542  0.83042463  1
  O  O46  1  0.71799334  0.06473421  0.18111695  1
  O  O47  1  0.94996860  0.07242260  0.81293375  1
  O  O48  1  0.56815846  0.17643938  0.04514614  1
  O  O49  1  0.71894591  0.23520846  0.37809677  1
  O  O50  1  0.87049560  0.23627678  0.06710142  1
  O  O51  1  0.77600309  0.24856892  0.71269628  1
  O  O52  1  0.37027749  0.26372810  0.43271722  1
  O  O53  1  0.21922885  0.26473677  0.12190066  1
  O  O54  1  0.27615681  0.25149186  0.78734253  1
  O  O55  1  0.06806739  0.32366760  0.45492441  1
  O  O56  1  0.45001267  0.42766414  0.68694346  1
  O  O57  1  0.21757338  0.43538211  0.31885299  1
  O  O58  1  0.71920154  0.45075409  0.18861763  1
  O  O59  1  0.14093127  0.43733869  0.66955131  1
  O  O60  1  0.71246798  0.46237392  0.52032429  1
  O  O61  1  0.64132138  0.46956022  0.85149835  1
  O  O62  1  0.27741109  0.45679989  0.98778464  1
  O  O63  1  0.05703308  0.51734210  0.10392693  1
  O  O64  1  0.94307124  0.48258161  0.89602457  1
  O  O65  1  0.72262589  0.54315006  0.01216628  1
  O  O66  1  0.35879400  0.53049939  0.14842734  1
  O  O67  1  0.28732083  0.53764755  0.47966163  1
  O  O68  1  0.85879756  0.56251220  0.33047253  1
  O  O69  1  0.28091549  0.54921964  0.81130062  1
  O  O70  1  0.78210955  0.56474768  0.68104504  1
  O  O71  1  0.54976756  0.57231697  0.31287418  1
  O  O72  1  0.93186226  0.67628400  0.54492677  1
  O  O73  1  0.72400386  0.74858945  0.21272025  1
  O  O74  1  0.78124763  0.73529151  0.87811928  1
  O  O75  1  0.62950851  0.73627648  0.56707968  1
  O  O76  1  0.22376370  0.75141403  0.28733361  1
  O  O77  1  0.12981924  0.76365293  0.93282085  1
  O  O78  1  0.28077017  0.76482726  0.62193721  1
  O  O79  1  0.43203232  0.82413523  0.95497999  1
  O  O80  1  0.05001459  0.92761478  0.18690397  1
  O  O81  1  0.28212098  0.93548542  0.81889562  1
  O  O82  1  0.35912635  0.93724832  0.16955511  1
  O  O83  1  0.78088009  0.95080563  0.68860376  1
  O  O84  1  0.78744393  0.96238765  0.02035970  1
  O  O85  1  0.85880064  0.96955800  0.35151463  1
  O  O86  1  0.22266072  0.95692107  0.48782213  1
  O  O87  1  0.44302739  0.01742623  0.60402327  1
