# generated using pymatgen
data_Li6Fe3O8
_symmetry_space_group_name_H-M   'P 1'
_cell_length_a   6.00569562
_cell_length_b   6.03162189
_cell_length_c   10.41819118
_cell_angle_alpha   89.17300474
_cell_angle_beta   75.08061844
_cell_angle_gamma   121.05865202
_symmetry_Int_Tables_number   1
_chemical_formula_structural   Li6Fe3O8
_chemical_formula_sum   'Li12 Fe6 O16'
_cell_volume   307.40527380
_cell_formula_units_Z   2
loop_
 _symmetry_equiv_pos_site_id
 _symmetry_equiv_pos_as_xyz
  1  'x, y, z'
loop_
 _atom_site_type_symbol
 _atom_site_label
 _atom_site_symmetry_multiplicity
 _atom_site_fract_x
 _atom_site_fract_y
 _atom_site_fract_z
 _atom_site_occupancy
  Li  Li0  1  0.47373392  0.47691325  0.00761599  1
  Li  Li1  1  0.99422089  -0.00009801  0.00126864  1
  Li  Li2  1  0.49408661  0.00302783  0.00011723  1
  Li  Li3  1  0.57515613  0.27873655  0.15122938  1
  Li  Li4  1  0.00158292  0.98012743  0.50302678  1
  Li  Li5  1  0.42454551  0.22087863  0.34945060  1
  Li  Li6  1  0.50592112  0.49787847  0.49981568  1
  Li  Li7  1  0.00627435  0.50122843  0.49862217  1
  Li  Li8  1  0.56888933  0.77831566  0.64947150  1
  Li  Li9  1  0.52841407  0.02499482  0.49266520  1
  Li  Li10  1  0.43035855  0.72121036  0.85134797  1
  Li  Li11  1  0.99786556  0.52200447  0.99720639  1
  Fe  Fe12  1  0.50008463  0.75002497  0.24998146  1
  Fe  Fe13  1  0.00014076  0.75009730  0.24993093  1
  Fe  Fe14  1  0.00001521  0.25008265  0.24992947  1
  Fe  Fe15  1  0.00005638  0.75020762  0.74987391  1
  Fe  Fe16  1  -0.00031960  0.24980848  0.75002547  1
  Fe  Fe17  1  0.50013010  0.25018292  0.74989183  1
  O  O18  1  0.24518741  0.62213625  0.12687370  1
  O  O19  1  0.74999546  0.63796774  0.13682220  1
  O  O20  1  0.75263363  0.10694270  0.13317422  1
  O  O21  1  0.22694056  0.11411004  0.13725894  1
  O  O22  1  0.25032343  0.86207379  0.36290349  1
  O  O23  1  0.75506659  0.87809771  0.37291973  1
  O  O24  1  0.77336343  0.38614435  0.36255722  1
  O  O25  1  0.24755496  0.39309892  0.36670722  1
  O  O26  1  0.75444094  0.61274407  0.63228807  1
  O  O27  1  0.21699355  0.59757334  0.64190449  1
  O  O28  1  0.25348204  0.11888715  0.62695312  1
  O  O29  1  0.75695878  0.13865152  0.64001418  1
  O  O30  1  0.78304663  0.90245143  0.85798151  1
  O  O31  1  0.24588516  0.88761689  0.86750488  1
  O  O32  1  0.24329745  0.36151584  0.85970472  1
  O  O33  1  0.74681654  0.38144241  0.87281972  1
