# generated using pymatgen
data_Li4Fe3Cu2Sn3O16
_symmetry_space_group_name_H-M   'P 1'
_cell_length_a   6.13270510
_cell_length_b   6.11704437
_cell_length_c   9.68025591
_cell_angle_alpha   89.99981518
_cell_angle_beta   89.85532203
_cell_angle_gamma   119.91621435
_symmetry_Int_Tables_number   1
_chemical_formula_structural   Li4Fe3Cu2Sn3O16
_chemical_formula_sum   'Li4 Fe3 Cu2 Sn3 O16'
_cell_volume   314.75699061
_cell_formula_units_Z   1
loop_
 _symmetry_equiv_pos_site_id
 _symmetry_equiv_pos_as_xyz
  1  'x, y, z'
loop_
 _atom_site_type_symbol
 _atom_site_label
 _atom_site_symmetry_multiplicity
 _atom_site_fract_x
 _atom_site_fract_y
 _atom_site_fract_z
 _atom_site_occupancy
  Li  Li0  1  0.33972749  0.66988141  0.88941399  1
  Li  Li1  1  0.97995914  0.98997763  0.99258410  1
  Li  Li2  1  0.98529183  0.99266831  0.50009414  1
  Li  Li3  1  0.66865449  0.33435485  0.39573645  1
  Fe  Fe4  1  0.66378674  0.83190847  0.21298807  1
  Fe  Fe5  1  0.83172226  0.66171909  0.71253989  1
  Fe  Fe6  1  0.83172307  0.17002962  0.71254378  1
  Cu  Cu7  1  0.33894297  0.66947524  0.48948316  1
  Cu  Cu8  1  0.67509842  0.33757726  0.98460315  1
  Sn  Sn9  1  0.17104544  0.83171498  0.21335813  1
  Sn  Sn10  1  0.17103918  0.33933479  0.21335276  1
  Sn  Sn11  1  0.34246746  0.17124669  0.71275414  1
  O  O12  1  0.15925712  0.83089176  0.59943800  1
  O  O13  1  0.03577843  0.51789083  0.34539303  1
  O  O14  1  0.34119720  0.67060687  0.09641528  1
  O  O15  1  0.99361135  0.99681222  0.31584189  1
  O  O16  1  0.99173843  0.99585888  0.80842743  1
  O  O17  1  0.15925145  0.32838287  0.59944548  1
  O  O18  1  0.48620519  0.96068059  0.34408006  1
  O  O19  1  0.48620325  0.52553775  0.34407431  1
  O  O20  1  0.32281549  0.16141525  0.09403731  1
  O  O21  1  0.66852437  0.83428806  0.60703691  1
  O  O22  1  0.52867147  0.48660212  0.84321523  1
  O  O23  1  0.52866961  0.04208980  0.84320740  1
  O  O24  1  0.67887316  0.33948168  0.60040556  1
  O  O25  1  0.83097743  0.67142752  0.10036769  1
  O  O26  1  0.95779600  0.47888961  0.83664120  1
  O  O27  1  0.83097455  0.15955583  0.10036146  1
