# generated using pymatgen
data_Li4Mn3Fe3(PO4)6
_symmetry_space_group_name_H-M   'P 1'
_cell_length_a   8.57207310
_cell_length_b   9.04349250
_cell_length_c   8.95214430
_cell_angle_alpha   59.55127419
_cell_angle_beta   58.67184791
_cell_angle_gamma   57.55043669
_symmetry_Int_Tables_number   1
_chemical_formula_structural   Li4Mn3Fe3(PO4)6
_chemical_formula_sum   'Li4 Mn3 Fe3 P6 O24'
_cell_volume   474.61054019
_cell_formula_units_Z   1
loop_
 _symmetry_equiv_pos_site_id
 _symmetry_equiv_pos_as_xyz
  1  'x, y, z'
loop_
 _atom_site_type_symbol
 _atom_site_label
 _atom_site_symmetry_multiplicity
 _atom_site_fract_x
 _atom_site_fract_y
 _atom_site_fract_z
 _atom_site_occupancy
  Li  Li0  1  0.24691011  0.84930151  0.64379583  1
  Li  Li1  1  0.77554263  0.14842534  0.34471776  1
  Li  Li2  1  0.77062625  0.73472780  0.14372508  1
  Li  Li3  1  0.77222188  0.35057337  0.73443985  1
  Mn  Mn4  1  0.05731407  0.64681095  0.64904200  1
  Mn  Mn5  1  0.44242455  0.85525866  0.85033776  1
  Mn  Mn6  1  0.95957913  0.34490696  0.34739529  1
  Fe  Fe7  1  0.00557612  0.99610048  0.00631883  1
  Fe  Fe8  1  0.54523162  0.15361321  0.14901027  1
  Fe  Fe9  1  0.49410672  0.49676955  0.49985912  1
  P  P10  1  0.25359920  0.24876629  0.55734943  1
  P  P11  1  0.25205338  0.94787243  0.24309561  1
  P  P12  1  0.23947955  0.56052905  0.94999287  1
  P  P13  1  0.74630224  0.45059131  0.04640560  1
  P  P14  1  0.76403063  0.04896470  0.75025437  1
  P  P15  1  0.73307429  0.75381604  0.45360044  1
  O  O16  1  0.05037569  0.09624123  0.30712823  1
  O  O17  1  0.04523341  0.53712659  0.09523091  1
  O  O18  1  0.05275423  0.31382092  0.54406542  1
  O  O19  1  0.24384777  0.08191756  0.74485888  1
  O  O20  1  0.42540915  0.18230298  0.39257708  1
  O  O21  1  0.28981466  0.39162272  0.56794813  1
  O  O22  1  0.24340663  0.92642962  0.08506462  1
  O  O23  1  0.28874369  0.76290332  0.40140481  1
  O  O24  1  0.56438626  0.60827075  0.99617880  1
  O  O25  1  0.28406629  0.57457608  0.75216498  1
  O  O26  1  0.76552055  0.25313439  0.07168589  1
  O  O27  1  0.60432273  0.98404311  0.80908393  1
  O  O28  1  0.42322720  0.00723348  0.17617413  1
  O  O29  1  0.21331016  0.75517073  0.92915656  1
  O  O30  1  0.71424976  0.43096941  0.24393716  1
  O  O31  1  0.41803389  0.39816474  0.00515269  1
  O  O32  1  0.72613880  0.24616597  0.60159126  1
  O  O33  1  0.76402934  0.07913765  0.91113272  1
  O  O34  1  0.71828331  0.60383637  0.42592519  1
  O  O35  1  0.53747879  0.81509329  0.60808536  1
  O  O36  1  0.75574596  0.90900904  0.25683832  1
  O  O37  1  0.90979855  0.69412733  0.49767542  1
  O  O38  1  0.93457450  0.47656431  0.89947396  1
  O  O39  1  0.96917733  0.90811176  0.68512744  1
