# generated using pymatgen
data_Ba2WO6
_symmetry_space_group_name_H-M   'P 1'
_cell_length_a   7.77702422
_cell_length_b   8.78566144
_cell_length_c   10.03042402
_cell_angle_alpha   90.00000000
_cell_angle_beta   90.00000000
_cell_angle_gamma   111.57831057
_symmetry_Int_Tables_number   1
_chemical_formula_structural   Ba2WO6
_chemical_formula_sum   'Ba8 W4 O24'
_cell_volume   637.31012992
_cell_formula_units_Z   4
loop_
 _symmetry_equiv_pos_site_id
 _symmetry_equiv_pos_as_xyz
  1  'x, y, z'
loop_
 _atom_site_type_symbol
 _atom_site_label
 _atom_site_symmetry_multiplicity
 _atom_site_fract_x
 _atom_site_fract_y
 _atom_site_fract_z
 _atom_site_occupancy
  Ba  Ba0  1  0.11949156  0.44357659  0.14884606  1
  Ba  Ba1  1  0.61949156  0.94357659  0.35115394  1
  Ba  Ba2  1  0.88050844  0.55642341  0.85115394  1
  Ba  Ba3  1  0.38050844  0.05642341  0.64884606  1
  Ba  Ba4  1  0.11054796  0.96543636  0.20744722  1
  Ba  Ba5  1  0.61054796  0.46543636  0.29255278  1
  Ba  Ba6  1  0.88945204  0.03456364  0.79255278  1
  Ba  Ba7  1  0.38945204  0.53456364  0.70744722  1
  W  W8  1  0.50333067  0.81207957  0.01181145  1
  W  W9  1  0.00333067  0.31207957  0.48818855  1
  W  W10  1  0.49666933  0.18792043  0.98818855  1
  W  W11  1  0.99666933  0.68792043  0.51181145  1
  O  O12  1  0.54859078  0.01616639  0.88151078  1
  O  O13  1  0.04859078  0.51616639  0.61848922  1
  O  O14  1  0.45140922  0.98383361  0.11848922  1
  O  O15  1  0.95140922  0.48383361  0.38151078  1
  O  O16  1  0.46936854  0.67978316  0.16211152  1
  O  O17  1  0.96936854  0.17978316  0.33788848  1
  O  O18  1  0.53063146  0.32021684  0.83788848  1
  O  O19  1  0.03063146  0.82021684  0.66211152  1
  O  O20  1  0.64448673  0.73392601  0.89445532  1
  O  O21  1  0.14448673  0.23392601  0.60554468  1
  O  O22  1  0.35551327  0.26607399  0.10554468  1
  O  O23  1  0.85551327  0.76607399  0.39445532  1
  O  O24  1  0.77575294  0.94250892  0.06906531  1
  O  O25  1  0.27575294  0.44250892  0.43093469  1
  O  O26  1  0.22424706  0.05749108  0.93093469  1
  O  O27  1  0.72424706  0.55749108  0.56906531  1
  O  O28  1  0.27859865  0.69382389  0.93167603  1
  O  O29  1  0.77859865  0.19382389  0.56832397  1
  O  O30  1  0.72140135  0.30617611  0.06832397  1
  O  O31  1  0.22140135  0.80617611  0.43167603  1
  O  O32  1  0.98172558  0.67616581  0.09385118  1
  O  O33  1  0.48172558  0.17616581  0.40614882  1
  O  O34  1  0.01827442  0.32383419  0.90614882  1
  O  O35  1  0.51827442  0.82383419  0.59385118  1
