# generated using pymatgen
data_La3MnO7
_symmetry_space_group_name_H-M   'P 1'
_cell_length_a   5.39407816
_cell_length_b   5.42408878
_cell_length_c   20.41950890
_cell_angle_alpha   89.84360435
_cell_angle_beta   89.99658292
_cell_angle_gamma   90.00153504
_symmetry_Int_Tables_number   1
_chemical_formula_structural   La3MnO7
_chemical_formula_sum   'La12 Mn4 O28'
_cell_volume   597.43092408
_cell_formula_units_Z   4
loop_
 _symmetry_equiv_pos_site_id
 _symmetry_equiv_pos_as_xyz
  1  'x, y, z'
loop_
 _atom_site_type_symbol
 _atom_site_label
 _atom_site_symmetry_multiplicity
 _atom_site_fract_x
 _atom_site_fract_y
 _atom_site_fract_z
 _atom_site_occupancy
  La  La0  1  0.24577884  0.75974405  0.32243132  1
  La  La1  1  0.24467762  0.75222417  0.67705001  1
  La  La2  1  0.25013024  0.75035831  0.50035031  1
  La  La3  1  0.24976260  0.25047394  0.00028198  1
  La  La4  1  0.25536917  0.25221260  0.17683970  1
  La  La5  1  0.25410583  0.25978098  0.82277167  1
  La  La6  1  0.74588492  0.74025921  0.17729345  1
  La  La7  1  0.74475965  0.74779515  0.82316368  1
  La  La8  1  0.75012434  0.74962049  0.99961387  1
  La  La9  1  0.74986314  0.24956448  0.49972790  1
  La  La10  1  0.75539771  0.24770541  0.32293461  1
  La  La11  1  0.75416701  0.24019915  0.67748636  1
  Mn  Mn12  1  0.24613676  0.75459402  0.09485803  1
  Mn  Mn13  1  0.25392613  0.25457756  0.59485924  1
  Mn  Mn14  1  0.74600498  0.74536874  0.40513757  1
  Mn  Mn15  1  0.75380156  0.24551114  0.90518897  1
  O  O16  1  0.99801796  0.00564081  0.89639551  1
  O  O17  1  0.00366519  0.49389950  0.59644752  1
  O  O18  1  0.00203103  0.99441164  0.10373499  1
  O  O19  1  0.00370975  0.50623179  0.09649939  1
  O  O20  1  0.99458557  0.99156197  0.40995417  1
  O  O21  1  0.99640568  0.50616477  0.40341360  1
  O  O22  1  0.00536645  0.00845423  0.58990171  1
  O  O23  1  0.99644452  0.49365881  0.90362908  1
  O  O24  1  0.22722969  0.77352345  0.00542527  1
  O  O25  1  0.23367899  0.23449852  0.69991023  1
  O  O26  1  0.22899535  0.22531673  0.28806839  1
  O  O27  1  0.26628004  0.73452584  0.19980092  1
  O  O28  1  0.27079034  0.72544498  0.78821934  1
  O  O29  1  0.27287127  0.27357493  0.50537248  1
  O  O30  1  0.50196366  0.50554226  0.39617150  1
  O  O31  1  0.49458792  0.50847509  0.08995829  1
  O  O32  1  0.50377532  0.99390139  0.40343829  1
  O  O33  1  0.49637316  0.99384112  0.09652444  1
  O  O34  1  0.49639506  0.00617752  0.59645157  1
  O  O35  1  0.49812217  0.49439364  0.60372574  1
  O  O36  1  0.50372212  0.00615501  0.90362697  1
  O  O37  1  0.50546899  0.49153249  0.91016379  1
  O  O38  1  0.72715212  0.72646449  0.49458091  1
  O  O39  1  0.73373365  0.26547780  0.80022238  1
  O  O40  1  0.72895428  0.27472553  0.21173541  1
  O  O41  1  0.76630489  0.76545276  0.30004442  1
  O  O42  1  0.77093150  0.77462706  0.71192327  1
  O  O43  1  0.77273284  0.22651746  0.99467077  1
