# generated using pymatgen
data_FeO
_symmetry_space_group_name_H-M   'P 1'
_cell_length_a   5.31834230
_cell_length_b   5.31996741
_cell_length_c   10.50193771
_cell_angle_alpha   90.63117137
_cell_angle_beta   89.62471071
_cell_angle_gamma   120.04122348
_symmetry_Int_Tables_number   1
_chemical_formula_structural   FeO
_chemical_formula_sum   'Fe12 O12'
_cell_volume   257.20423244
_cell_formula_units_Z   12
loop_
 _symmetry_equiv_pos_site_id
 _symmetry_equiv_pos_as_xyz
  1  'x, y, z'
loop_
 _atom_site_type_symbol
 _atom_site_label
 _atom_site_symmetry_multiplicity
 _atom_site_fract_x
 _atom_site_fract_y
 _atom_site_fract_z
 _atom_site_occupancy
  Fe  Fe0  1  0.32365366  0.98844910  0.62582755  1
  Fe  Fe1  1  0.33484484  -0.00150714  0.87523081  1
  Fe  Fe2  1  0.00645761  0.32971528  0.62561876  1
  Fe  Fe3  1  0.00089154  0.33575604  0.87525540  1
  Fe  Fe4  1  0.66568026  0.67119007  0.62563100  1
  Fe  Fe5  1  0.66327927  0.66583318  0.87515328  1
  Fe  Fe6  1  0.33353875  0.01128177  0.12483209  1
  Fe  Fe7  1  0.33586695  0.00050957  0.37465194  1
  Fe  Fe8  1  0.67599041  0.67058692  0.12478322  1
  Fe  Fe9  1  0.66518698  0.66194125  0.37476243  1
  Fe  Fe10  1  0.99946875  0.33586210  0.37550259  1
  Fe  Fe11  1  0.99493428  0.32985487  0.12486871  1
  O  O12  1  0.99216080  0.66717393  0.24881120  1
  O  O13  1  0.33522610  0.66916643  0.01044274  1
  O  O14  1  0.00068928  0.00257004  0.99227938  1
  O  O15  1  0.00046716  0.99522074  0.49145255  1
  O  O16  1  0.33076816  0.66150003  0.49106249  1
  O  O17  1  0.33692718  0.33139237  0.25089466  1
  O  O18  1  0.67422060  0.01416219  0.25271700  1
  O  O19  1  0.32464308  0.33408148  0.75206191  1
  O  O20  1  0.66690585  0.33013415  0.51387906  1
  O  O21  1  0.66800720  0.33496190  0.99040704  1
  O  O22  1  0.00768670  0.67129822  0.75277285  1
  O  O23  1  0.66260560  0.98906350  0.75110133  1
