# generated using pymatgen
data_Fe7(PO4)8
_symmetry_space_group_name_H-M   'P 1'
_cell_length_a   7.77286349
_cell_length_b   7.77286353
_cell_length_c   11.22705450
_cell_angle_alpha   73.72175706
_cell_angle_beta   106.27824240
_cell_angle_gamma   78.50138975
_symmetry_Int_Tables_number   1
_chemical_formula_structural   Fe7(PO4)8
_chemical_formula_sum   'Fe7 P8 O32'
_cell_volume   595.90893568
_cell_formula_units_Z   1
loop_
 _symmetry_equiv_pos_site_id
 _symmetry_equiv_pos_as_xyz
  1  'x, y, z'
loop_
 _atom_site_type_symbol
 _atom_site_label
 _atom_site_symmetry_multiplicity
 _atom_site_fract_x
 _atom_site_fract_y
 _atom_site_fract_z
 _atom_site_occupancy
  Fe  Fe0  1  0.00608617  0.74391383  0.77625825  1
  Fe  Fe1  1  0.02331608  0.72668392  0.27408316  1
  Fe  Fe2  1  0.48531601  0.77546492  0.72579075  1
  Fe  Fe3  1  0.52209581  0.22790419  0.27730327  1
  Fe  Fe4  1  0.49399762  0.75388500  0.22491941  1
  Fe  Fe5  1  0.97453508  0.26468399  0.72579075  1
  Fe  Fe6  1  0.99611500  0.25600238  0.22491941  1
  P  P7  1  0.13763228  0.61236772  0.60101254  1
  P  P8  1  0.28535930  0.96144559  0.89699943  1
  P  P9  1  0.21091245  0.53908755  0.10237535  1
  P  P10  1  0.35756908  0.89310562  0.39890493  1
  P  P11  1  0.64945676  0.10054324  0.60098829  1
  P  P12  1  0.78855441  0.46464070  0.89699943  1
  P  P13  1  0.71117683  0.03882317  0.10622554  1
  P  P14  1  0.85689438  0.39243092  0.39890493  1
  O  O15  1  0.00821884  0.54267431  0.67486905  1
  O  O16  1  0.17472235  0.57527765  0.95567717  1
  O  O17  1  0.25141327  0.17288948  0.82048528  1
  O  O18  1  0.07796624  0.95583190  0.82942784  1
  O  O19  1  0.02761623  0.72238377  0.45055899  1
  O  O20  1  0.19355477  0.05846550  0.37836095  1
  O  O21  1  0.20732569  0.74178116  0.67486905  1
  O  O22  1  0.29114210  0.45885790  0.59437059  1
  O  O23  1  0.06646193  0.68353807  0.12256626  1
  O  O24  1  0.22064432  0.33105268  0.17893205  1
  O  O25  1  0.43148902  0.82339349  0.87449569  1
  O  O26  1  0.51863875  0.02787555  0.67086523  1
  O  O27  1  0.29059117  0.76068619  0.32321665  1
  O  O28  1  0.66534325  0.08465675  0.95744478  1
  O  O29  1  0.57711052  0.49858673  0.82048528  1
  O  O30  1  0.53651258  0.21348742  0.45208146  1
  O  O31  1  0.46727238  0.78020923  0.54605746  1
  O  O32  1  0.41894732  0.52935568  0.17893205  1
  O  O33  1  0.33326705  0.91697586  0.04700581  1
  O  O34  1  0.72212445  0.23136125  0.67086523  1
  O  O35  1  0.56581149  0.18418851  0.12451349  1
  O  O36  1  0.48992451  0.95775909  0.32260029  1
  O  O37  1  0.79416810  0.67203376  0.82942784  1
  O  O38  1  0.92660651  0.31851098  0.87449569  1
  O  O39  1  0.69153450  0.55644523  0.37836095  1
  O  O40  1  0.79224091  0.26007549  0.32260029  1
  O  O41  1  0.81345036  0.93654964  0.61598571  1
  O  O42  1  0.72191501  0.82991263  0.18186125  1
  O  O43  1  0.96979077  0.28272762  0.54605746  1
  O  O44  1  0.92008737  0.02808499  0.18186125  1
  O  O45  1  0.83302414  0.41673295  0.04700581  1
  O  O46  1  0.98931381  0.45940883  0.32321665  1
