# generated using pymatgen
data_Li3Cu4SbO8
_symmetry_space_group_name_H-M   'P 1'
_cell_length_a   10.24196617
_cell_length_b   10.24196673
_cell_length_c   14.75733894
_cell_angle_alpha   19.92036974
_cell_angle_beta   19.92036871
_cell_angle_gamma   33.52777028
_symmetry_Int_Tables_number   1
_chemical_formula_structural   Li3Cu4SbO8
_chemical_formula_sum   'Li3 Cu4 Sb1 O8'
_cell_volume   161.95994721
_cell_formula_units_Z   1
loop_
 _symmetry_equiv_pos_site_id
 _symmetry_equiv_pos_as_xyz
  1  'x, y, z'
loop_
 _atom_site_type_symbol
 _atom_site_label
 _atom_site_symmetry_multiplicity
 _atom_site_fract_x
 _atom_site_fract_y
 _atom_site_fract_z
 _atom_site_occupancy
  Li  Li0  1  0.00000000  0.50000000  0.50000000  1
  Li  Li1  1  0.50000000  0.00000000  0.50000000  1
  Li  Li2  1  0.50000000  0.50000000  0.50000000  1
  Cu  Cu3  1  0.00000000  0.00000000  -0.00000000  1
  Cu  Cu4  1  0.00000000  0.50000000  -0.00000000  1
  Cu  Cu5  1  0.50000000  0.00000000  -0.00000000  1
  Cu  Cu6  1  0.00000000  0.00000000  0.50000000  1
  Sb  Sb7  1  0.50000000  0.50000000  -0.00000000  1
  O  O8  1  0.95257466  0.95257466  0.33045264  1
  O  O9  1  0.05703041  0.51756415  0.19063471  1
  O  O10  1  0.51756415  0.05703041  0.19063471  1
  O  O11  1  0.04742534  0.04742534  0.66954736  1
  O  O12  1  0.44940105  0.44940105  0.34187587  1
  O  O13  1  0.94296959  0.48243585  0.80936529  1
  O  O14  1  0.48243585  0.94296959  0.80936529  1
  O  O15  1  0.55059895  0.55059895  0.65812413  1
