# generated using pymatgen
data_Li3Mn4(P2O7)4
_symmetry_space_group_name_H-M   'P 1'
_cell_length_a   9.66630420
_cell_length_b   9.71107235
_cell_length_c   11.31543416
_cell_angle_alpha   89.97043794
_cell_angle_beta   101.42595795
_cell_angle_gamma   89.58194508
_symmetry_Int_Tables_number   1
_chemical_formula_structural   Li3Mn4(P2O7)4
_chemical_formula_sum   'Li6 Mn8 P16 O56'
_cell_volume   1041.10121215
_cell_formula_units_Z   2
loop_
 _symmetry_equiv_pos_site_id
 _symmetry_equiv_pos_as_xyz
  1  'x, y, z'
loop_
 _atom_site_type_symbol
 _atom_site_label
 _atom_site_symmetry_multiplicity
 _atom_site_fract_x
 _atom_site_fract_y
 _atom_site_fract_z
 _atom_site_occupancy
  Li  Li0  1  0.14623376  0.39899036  0.04512017  1
  Li  Li1  1  0.41369382  0.59147295  0.97729045  1
  Li  Li2  1  0.39957302  0.96309897  0.50040419  1
  Li  Li3  1  0.91231515  0.90844080  0.98336750  1
  Li  Li4  1  0.83034992  0.58915728  0.45615395  1
  Li  Li5  1  0.89263238  0.28291280  0.54684288  1
  Mn  Mn6  1  0.20280191  0.93303100  0.67415406  1
  Mn  Mn7  1  0.27558052  0.22294271  0.83261553  1
  Mn  Mn8  1  0.21298118  0.72418254  0.16575137  1
  Mn  Mn9  1  0.30556653  0.43350112  0.34117239  1
  Mn  Mn10  1  0.70081406  0.57800389  0.67553020  1
  Mn  Mn11  1  0.75367410  0.28588501  0.82634617  1
  Mn  Mn12  1  0.71882161  0.77140571  0.16437089  1
  Mn  Mn13  1  0.80801580  0.06960364  0.33342006  1
  P  P14  1  0.02105775  0.44322811  0.75881603  1
  P  P15  1  0.11439465  0.70899810  0.88688363  1
  P  P16  1  0.06829414  0.93032557  0.24683763  1
  P  P17  1  0.13632559  0.15930875  0.42117108  1
  P  P18  1  0.37509236  0.65464131  0.58152877  1
  P  P19  1  0.42360976  0.42349665  0.75422584  1
  P  P20  1  0.52383081  0.05126214  0.74664462  1
  P  P21  1  0.38583104  0.20526151  0.11136810  1
  P  P22  1  0.61535482  0.78550268  0.88448497  1
  P  P23  1  0.46693445  0.93391177  0.23864309  1
  P  P24  1  0.56520722  0.56833937  0.24458710  1
  P  P25  1  0.62841105  0.34605339  0.41934199  1
  P  P26  1  0.88061660  0.85930421  0.57214295  1
  P  P27  1  0.93176881  0.07345106  0.75945225  1
  P  P28  1  0.87725365  0.28661153  0.11716657  1
  P  P29  1  0.96936413  0.55551684  0.24385043  1
  O  O30  1  0.02187410  0.41150934  0.63043898  1
  O  O31  1  0.04084870  0.85691053  0.57251191  1
  O  O32  1  0.08517952  0.08120640  0.73396082  1
  O  O33  1  0.10544142  0.34720592  0.85694768  1
  O  O34  1  0.09109488  0.59138610  0.78496956  1
  O  O35  1  0.19324403  0.82127799  0.83415704  1
  O  O36  1  0.20941193  0.63922018  0.00187671  1
  O  O37  1  0.02251292  0.26370768  0.08941783  1
  O  O38  1  0.13049606  0.07553521  0.29406956  1
  O  O39  1  0.07206152  0.91272269  0.11439171  1
  O  O40  1  0.12140693  0.54261914  0.20976203  1
  O  O41  1  0.18259235  0.30436698  0.39169755  1
  O  O42  1  0.16884073  0.81330089  0.30901184  1
  O  O43  1  0.23121251  0.07562127  0.51767277  1
  O  O44  1  0.29037542  0.58419185  0.47300024  1
  O  O45  1  0.32710736  0.30583311  0.69176774  1
  O  O46  1  0.33139352  0.80329816  0.60627852  1
  O  O47  1  0.36874880  0.04205262  0.77616452  1
  O  O48  1  0.35974421  0.56792399  0.70104600  1
  O  O49  1  0.40391829  0.41536585  0.88498354  1
  O  O50  1  0.47315401  0.74983528  0.90784962  1
  O  O51  1  0.29279895  0.14993278  0.99336332  1
  O  O52  1  0.31291628  0.32579662  0.16298642  1
  O  O53  1  0.39751893  0.08553947  0.20960961  1
  O  O54  1  0.41466572  0.57432398  0.27406792  1
  O  O55  1  0.37648435  0.83412113  0.14966131  1
  O  O56  1  0.52654234  0.06656351  0.61678412  1
  O  O57  1  0.47457224  0.33718339  0.43097547  1
  O  O58  1  0.53501591  0.65340757  0.57740323  1
  O  O59  1  0.47021677  0.90907428  0.36826177  1
  O  O60  1  0.60181256  0.15973472  0.83521537  1
  O  O61  1  0.57638755  0.41581601  0.73459930  1
  O  O62  1  0.60215104  0.90898970  0.78972537  1
  O  O63  1  0.69177366  0.67275114  0.82532785  1
  O  O64  1  0.71907277  0.83782433  0.00028665  1
  O  O65  1  0.53172283  0.24025822  0.09043721  1
  O  O66  1  0.56700314  0.58712884  0.11245205  1
  O  O67  1  0.63014274  0.42186741  0.29131711  1
  O  O68  1  0.61681246  0.93862111  0.20453600  1
  O  O69  1  0.69828679  0.20661949  0.40778312  1
  O  O70  1  0.67181158  0.67712656  0.31022761  1
  O  O71  1  0.72201678  0.43386888  0.51772756  1
  O  O72  1  0.79565919  0.93778644  0.46417099  1
  O  O73  1  0.84054134  0.19699772  0.69735068  1
  O  O74  1  0.82521184  0.71486563  0.58595507  1
  O  O75  1  0.86351735  0.45630502  0.78482618  1
  O  O76  1  0.91673066  0.06993742  0.88854028  1
  O  O77  1  0.86245841  0.93768658  0.69367678  1
  O  O78  1  0.97293570  0.75094496  0.91067998  1
  O  O79  1  0.77779611  0.33254812  0.99926431  1
  O  O80  1  0.81744752  0.16915728  0.18191035  1
  O  O81  1  0.88946922  0.41167550  0.21163444  1
  O  O82  1  0.88657712  0.66139671  0.15444341  1
  O  O83  1  0.91696369  0.92206323  0.27385473  1
  O  O84  1  0.98340748  0.17009054  0.43829070  1
  O  O85  1  0.97537720  0.57944272  0.37429467  1
