# generated using pymatgen
data_Li5Co4(NiO6)2
_symmetry_space_group_name_H-M   'P 1'
_cell_length_a   8.71786921
_cell_length_b   8.70283869
_cell_length_c   10.05370272
_cell_angle_alpha   89.82371971
_cell_angle_beta   89.22675704
_cell_angle_gamma   60.14457775
_symmetry_Int_Tables_number   1
_chemical_formula_structural   Li5Co4(NiO6)2
_chemical_formula_sum   'Li15 Co12 Ni6 O36'
_cell_volume   661.47805340
_cell_formula_units_Z   3
loop_
 _symmetry_equiv_pos_site_id
 _symmetry_equiv_pos_as_xyz
  1  'x, y, z'
loop_
 _atom_site_type_symbol
 _atom_site_label
 _atom_site_symmetry_multiplicity
 _atom_site_fract_x
 _atom_site_fract_y
 _atom_site_fract_z
 _atom_site_occupancy
  Li  Li0  1  0.03707655  0.57741587  0.73304442  1
  Li  Li1  1  0.03774418  0.24168946  0.72725165  1
  Li  Li2  1  0.15827387  0.41498092  0.23786213  1
  Li  Li3  1  0.08148609  0.09804552  0.23778085  1
  Li  Li4  1  0.16312926  0.74285312  0.24439645  1
  Li  Li5  1  0.37471558  0.90885699  0.72936587  1
  Li  Li6  1  0.35496094  0.58515864  0.73703297  1
  Li  Li7  1  0.46072683  0.77990505  0.22858031  1
  Li  Li8  1  0.54389867  0.22484103  0.77132351  1
  Li  Li9  1  0.65453111  0.42961511  0.26969776  1
  Li  Li10  1  0.59113231  0.12369994  0.27694310  1
  Li  Li11  1  0.70223051  0.55938103  0.72968255  1
  Li  Li12  1  0.69254318  0.89571208  0.73005402  1
  Li  Li13  1  0.81594309  0.73203726  0.24426760  1
  Li  Li14  1  0.98162169  0.93706118  0.74645073  1
  Co  Co15  1  0.00942202  0.32891076  0.99993924  1
  Co  Co16  1  0.15374262  0.35459657  0.49947736  1
  Co  Co17  1  0.16342566  0.00936136  0.50006862  1
  Co  Co18  1  0.34565928  0.65334917  0.99836235  1
  Co  Co19  1  0.34094472  0.98543453  0.99685251  1
  Co  Co20  1  0.48745136  0.67866600  0.50291249  1
  Co  Co21  1  0.48458879  0.35122283  0.49750426  1
  Co  Co22  1  0.68490356  0.31159142  0.99790341  1
  Co  Co23  1  0.68179526  0.98025900  0.99437182  1
  Co  Co24  1  0.81850225  0.67991120  0.50188932  1
  Co  Co25  1  0.82910053  0.01441205  0.49543095  1
  Co  Co26  1  0.01160626  0.65427287  0.99716984  1
  Ni  Ni27  1  0.00874094  0.99007850  0.99890196  1
  Ni  Ni28  1  0.14971877  0.68548267  0.49849690  1
  Ni  Ni29  1  0.34154556  0.32041444  0.99768711  1
  Ni  Ni30  1  0.48572546  0.01462418  0.49725888  1
  Ni  Ni31  1  0.68090222  0.64839119  0.99693603  1
  Ni  Ni32  1  0.82561090  0.34367960  0.50191638  1
  O  O33  1  0.05394293  0.91876859  0.38988216  1
  O  O34  1  0.03244005  0.57635066  0.38581378  1
  O  O35  1  0.06590408  0.22184107  0.40142997  1
  O  O36  1  0.11636297  0.75196024  0.88791017  1
  O  O37  1  0.12066286  0.43792586  0.90074604  1
  O  O38  1  0.11480333  0.11988693  0.89524890  1
  O  O39  1  0.23717058  0.88477054  0.11467455  1
  O  O40  1  0.21565191  0.56355493  0.10430325  1
  O  O41  1  0.22121233  0.22445998  0.09677988  1
  O  O42  1  0.27209093  0.79804238  0.60514492  1
  O  O43  1  0.27275737  0.45387701  0.60567971  1
  O  O44  1  0.27189800  0.11201483  0.60071299  1
  O  O45  1  0.38353607  0.89303661  0.40324444  1
  O  O46  1  0.39299497  0.56828076  0.39734838  1
  O  O47  1  0.38170600  0.25212883  0.39180213  1
  O  O48  1  0.44586417  0.75568827  0.88444605  1
  O  O49  1  0.45646683  0.41823288  0.89552896  1
  O  O50  1  0.47693882  0.07000578  0.88809619  1
  O  O51  1  0.57757810  0.85744685  0.09975517  1
  O  O52  1  0.56892345  0.54784334  0.10304964  1
  O  O53  1  0.56058436  0.19811755  0.09491819  1
  O  O54  1  0.59261189  0.77966995  0.61599642  1
  O  O55  1  0.57793391  0.46865493  0.60550891  1
  O  O56  1  0.58792888  0.13173327  0.59616747  1
  O  O57  1  0.69984789  0.90761499  0.39578551  1
  O  O58  1  0.69397030  0.58152078  0.39733915  1
  O  O59  1  0.69638349  0.23893457  0.39530303  1
  O  O60  1  0.79906593  0.74970827  0.89474212  1
  O  O61  1  0.80044676  0.43191442  0.89848802  1
  O  O62  1  0.78051494  0.08829797  0.87984832  1
  O  O63  1  0.88937486  0.86491218  0.09974172  1
  O  O64  1  0.92188825  0.53734677  0.10357635  1
  O  O65  1  0.89596413  0.22691197  0.10327334  1
  O  O66  1  0.91436767  0.80671642  0.61449164  1
  O  O67  1  0.93341788  0.46453237  0.61839363  1
  O  O68  1  0.95703809  0.11050873  0.60668256  1
