# generated using pymatgen
data_Li2Co3TeO8
_symmetry_space_group_name_H-M   'P 1'
_cell_length_a   6.13048910
_cell_length_b   6.06672871
_cell_length_c   6.03372114
_cell_angle_alpha   60.42012779
_cell_angle_beta   121.17745126
_cell_angle_gamma   120.78953612
_symmetry_Int_Tables_number   1
_chemical_formula_structural   Li2Co3TeO8
_chemical_formula_sum   'Li2 Co3 Te1 O8'
_cell_volume   156.75033909
_cell_formula_units_Z   1
loop_
 _symmetry_equiv_pos_site_id
 _symmetry_equiv_pos_as_xyz
  1  'x, y, z'
loop_
 _atom_site_type_symbol
 _atom_site_label
 _atom_site_symmetry_multiplicity
 _atom_site_fract_x
 _atom_site_fract_y
 _atom_site_fract_z
 _atom_site_occupancy
  Li  Li0  1  0.49998984  0.00000703  0.99998840  1
  Li  Li1  1  0.00001140  0.49996333  0.00001800  1
  Co  Co2  1  0.50003913  0.50003521  0.00001470  1
  Co  Co3  1  0.49999727  -0.00000058  0.49999827  1
  Co  Co4  1  0.99999166  0.50002040  0.49997703  1
  Te  Te5  1  -0.00010499  -0.00016688  0.99997980  1
  O  O6  1  0.73142051  0.29369195  0.24418065  1
  O  O7  1  0.23971859  0.22599870  0.23395417  1
  O  O8  1  0.76141266  0.75260878  0.21905823  1
  O  O9  1  0.77784979  0.23341389  0.77037958  1
  O  O10  1  0.22216382  0.76663799  0.22961503  1
  O  O11  1  0.23862505  0.24741508  0.78093916  1
  O  O12  1  0.76033087  0.77408688  0.76607614  1
  O  O13  1  0.26855441  0.70628921  0.75582084  1
