# generated using pymatgen
data_Li3Cr2Fe3O10
_symmetry_space_group_name_H-M   'P 1'
_cell_length_a   5.18172947
_cell_length_b   5.09949688
_cell_length_c   7.79909375
_cell_angle_alpha   72.17602994
_cell_angle_beta   107.39221241
_cell_angle_gamma   101.62932251
_symmetry_Int_Tables_number   1
_chemical_formula_structural   Li3Cr2Fe3O10
_chemical_formula_sum   'Li3 Cr2 Fe3 O10'
_cell_volume   185.84375943
_cell_formula_units_Z   1
loop_
 _symmetry_equiv_pos_site_id
 _symmetry_equiv_pos_as_xyz
  1  'x, y, z'
loop_
 _atom_site_type_symbol
 _atom_site_label
 _atom_site_symmetry_multiplicity
 _atom_site_fract_x
 _atom_site_fract_y
 _atom_site_fract_z
 _atom_site_occupancy
  Li  Li0  1  0.22296884  0.50400522  0.40756179  1
  Li  Li1  1  0.50000000  0.00000000  0.50000000  1
  Li  Li2  1  0.77703116  0.49599478  0.59243821  1
  Cr  Cr3  1  0.10594841  0.02035177  0.68737156  1
  Cr  Cr4  1  0.89405159  0.97964823  0.31262844  1
  Fe  Fe5  1  0.00000000  0.50000000  -0.00000000  1
  Fe  Fe6  1  0.31463510  0.02371504  0.10472418  1
  Fe  Fe7  1  0.68536490  0.97628496  0.89527582  1
  O  O8  1  0.04232435  0.23543015  0.85669318  1
  O  O9  1  0.11419998  0.78753118  0.52339212  1
  O  O10  1  0.32072488  0.78596541  0.93616658  1
  O  O11  1  0.20044829  0.24793190  0.23436774  1
  O  O12  1  0.45054500  0.20292739  0.66307534  1
  O  O13  1  0.54945500  0.79707261  0.33692466  1
  O  O14  1  0.79955171  0.75206810  0.76563226  1
  O  O15  1  0.67927512  0.21403459  0.06383342  1
  O  O16  1  0.88580002  0.21246882  0.47660788  1
  O  O17  1  0.95767565  0.76456985  0.14330682  1
