# generated using pymatgen
data_Li3Co2(SiO4)2
_symmetry_space_group_name_H-M   'P 1'
_cell_length_a   5.33015997
_cell_length_b   5.01294300
_cell_length_c   6.55717602
_cell_angle_alpha   89.69900614
_cell_angle_beta   89.20279388
_cell_angle_gamma   90.36278709
_symmetry_Int_Tables_number   1
_chemical_formula_structural   Li3Co2(SiO4)2
_chemical_formula_sum   'Li3 Co2 Si2 O8'
_cell_volume   175.18338321
_cell_formula_units_Z   1
loop_
 _symmetry_equiv_pos_site_id
 _symmetry_equiv_pos_as_xyz
  1  'x, y, z'
loop_
 _atom_site_type_symbol
 _atom_site_label
 _atom_site_symmetry_multiplicity
 _atom_site_fract_x
 _atom_site_fract_y
 _atom_site_fract_z
 _atom_site_occupancy
  Li  Li0  1  0.16284671  0.49194227  0.49366605  1
  Li  Li1  1  0.66304018  0.49465663  0.72402929  1
  Li  Li2  1  0.83668239  0.99561609  0.49251247  1
  Co  Co3  1  0.18764688  0.50373820  0.01108066  1
  Co  Co4  1  0.81577754  0.00231998  0.99742135  1
  Si  Si5  1  0.31943223  0.00712140  0.74434774  1
  Si  Si6  1  0.68444335  0.48180761  0.25549638  1
  O  O7  1  0.17243172  0.11215628  0.55043739  1
  O  O8  1  0.16980848  0.12898393  0.95348186  1
  O  O9  1  0.30598727  0.67154802  0.76855382  1
  O  O10  1  0.38245676  0.55848577  0.23304516  1
  O  O11  1  0.61711724  0.09730763  0.75657000  1
  O  O12  1  0.71499367  0.16071619  0.24755635  1
  O  O13  1  0.83264673  0.59870102  0.03749767  1
  O  O14  1  0.80366685  0.60526399  0.45978080  1
