# generated using pymatgen
data_Co3Ni2Te3O16
_symmetry_space_group_name_H-M   'P 1'
_cell_length_a   6.03635037
_cell_length_b   6.01308160
_cell_length_c   9.19146646
_cell_angle_alpha   90.03556026
_cell_angle_beta   90.12915799
_cell_angle_gamma   120.89355924
_symmetry_Int_Tables_number   1
_chemical_formula_structural   Co3Ni2Te3O16
_chemical_formula_sum   'Co3 Ni2 Te3 O16'
_cell_volume   286.28834168
_cell_formula_units_Z   1
loop_
 _symmetry_equiv_pos_site_id
 _symmetry_equiv_pos_as_xyz
  1  'x, y, z'
loop_
 _atom_site_type_symbol
 _atom_site_label
 _atom_site_symmetry_multiplicity
 _atom_site_fract_x
 _atom_site_fract_y
 _atom_site_fract_z
 _atom_site_occupancy
  Co  Co0  1  0.66338094  0.83145382  0.20900360  1
  Co  Co1  1  0.83014655  0.66555003  0.70931108  1
  Co  Co2  1  0.83380260  0.16630450  0.71306730  1
  Ni  Ni3  1  0.34330104  0.66992022  0.49622009  1
  Ni  Ni4  1  0.69255921  0.34664118  0.98667342  1
  Te  Te5  1  0.16435052  0.83078348  0.21576160  1
  Te  Te6  1  0.16376648  0.33318119  0.21410848  1
  Te  Te7  1  0.33396353  0.16623972  0.71200909  1
  O  O8  1  0.15125995  0.83411405  0.60410331  1
  O  O9  1  0.02484699  0.50951917  0.34040937  1
  O  O10  1  0.30750013  0.65559056  0.09130163  1
  O  O11  1  0.01367973  0.00614413  0.32844173  1
  O  O12  1  0.00909145  0.98734738  0.82282333  1
  O  O13  1  0.15944678  0.31932500  0.60771287  1
  O  O14  1  0.46535804  0.96186517  0.33439811  1
  O  O15  1  0.46364712  0.50569092  0.33372024  1
  O  O16  1  0.32691090  0.16466681  0.10112749  1
  O  O17  1  0.68638056  0.84459633  0.61750529  1
  O  O18  1  0.53358329  0.48998052  0.83102026  1
  O  O19  1  0.52257068  0.04089157  0.83109589  1
  O  O20  1  0.65293171  0.34549794  0.59510244  1
  O  O21  1  0.85415586  0.67986089  0.10557585  1
  O  O22  1  0.94895474  0.47350551  0.81245348  1
  O  O23  1  0.85441221  0.17153191  0.10277304  1
