# generated using pymatgen
data_Cr3CoTe2(PO4)6
_symmetry_space_group_name_H-M   'P 1'
_cell_length_a   8.85048629
_cell_length_b   8.65042220
_cell_length_c   8.65042164
_cell_angle_alpha   59.99999404
_cell_angle_beta   60.74498820
_cell_angle_gamma   60.74498490
_symmetry_Int_Tables_number   1
_chemical_formula_structural   Cr3CoTe2(PO4)6
_chemical_formula_sum   'Cr3 Co1 Te2 P6 O24'
_cell_volume   473.50694987
_cell_formula_units_Z   1
loop_
 _symmetry_equiv_pos_site_id
 _symmetry_equiv_pos_as_xyz
  1  'x, y, z'
loop_
 _atom_site_type_symbol
 _atom_site_label
 _atom_site_symmetry_multiplicity
 _atom_site_fract_x
 _atom_site_fract_y
 _atom_site_fract_z
 _atom_site_occupancy
  Cr  Cr0  1  0.06093415  0.64635495  0.64635495  1
  Cr  Cr1  1  0.43039875  0.85653342  0.85653342  1
  Cr  Cr2  1  0.94151821  0.35282760  0.35282760  1
  Co  Co3  1  0.52589244  0.15803585  0.15803585  1
  Te  Te4  1  0.95908057  0.01363948  0.01363948  1
  Te  Te5  1  0.48623197  0.50458868  0.50458868  1
  P  P6  1  0.25069674  0.24850516  0.54382167  1
  P  P7  1  0.25069674  0.95697642  0.24850516  1
  P  P8  1  0.25069674  0.54382167  0.95697642  1
  P  P9  1  0.75623998  0.46204564  0.03658650  1
  P  P10  1  0.75623998  0.03658650  0.74512688  1
  P  P11  1  0.75623998  0.74512688  0.46204564  1
  O  O12  1  0.07590467  0.11476072  0.29973359  1
  O  O13  1  0.07590467  0.50960202  0.11476072  1
  O  O14  1  0.07590467  0.29973359  0.50960202  1
  O  O15  1  0.24069860  0.08605311  0.74070782  1
  O  O16  1  0.24733449  0.42132405  0.56866903  1
  O  O17  1  0.43096339  0.20201395  0.39322225  1
  O  O18  1  0.24069860  0.93254047  0.08605311  1
  O  O19  1  0.24733449  0.76267143  0.42132405  1
  O  O20  1  0.24733449  0.56866903  0.76267143  1
  O  O21  1  0.57748934  0.60962718  0.00621594  1
  O  O22  1  0.76698623  0.25840415  0.05948055  1
  O  O23  1  0.57748934  0.00621594  0.80666754  1
  O  O24  1  0.43096339  0.97380141  0.20201395  1
  O  O25  1  0.24069860  0.74070782  0.93254047  1
  O  O26  1  0.43096339  0.39322225  0.97380141  1
  O  O27  1  0.75430144  0.43356491  0.23036885  1
  O  O28  1  0.75430144  0.23036885  0.58176379  1
  O  O29  1  0.76698623  0.05948055  0.91513007  1
  O  O30  1  0.57748934  0.80666754  0.60962718  1
  O  O31  1  0.75430144  0.58176379  0.43356491  1
  O  O32  1  0.76698623  0.91513007  0.25840415  1
  O  O33  1  0.93136609  0.70030326  0.48895835  1
  O  O34  1  0.93136609  0.48895835  0.87937230  1
  O  O35  1  0.93136609  0.87937230  0.70030326  1
