# generated using pymatgen
data_ZnAu2(Cl4O)2
_symmetry_space_group_name_H-M   'P 1'
_cell_length_a   8.47391680
_cell_length_b   12.46894251
_cell_length_c   16.73073796
_cell_angle_alpha   90.00000000
_cell_angle_beta   107.48189842
_cell_angle_gamma   90.00000000
_symmetry_Int_Tables_number   1
_chemical_formula_structural   ZnAu2(Cl4O)2
_chemical_formula_sum   'Zn4 Au8 Cl32 O8'
_cell_volume   1686.13232473
_cell_formula_units_Z   4
loop_
 _symmetry_equiv_pos_site_id
 _symmetry_equiv_pos_as_xyz
  1  'x, y, z'
loop_
 _atom_site_type_symbol
 _atom_site_label
 _atom_site_symmetry_multiplicity
 _atom_site_fract_x
 _atom_site_fract_y
 _atom_site_fract_z
 _atom_site_occupancy
  Zn  Zn0  1  0.06877763  0.75997605  0.32275830  1
  Zn  Zn1  1  0.56877763  0.74002395  0.82275830  1
  Zn  Zn2  1  0.93122237  0.24002395  0.67724170  1
  Zn  Zn3  1  0.43122237  0.25997605  0.17724170  1
  Au  Au4  1  0.85128164  0.55650078  0.36476015  1
  Au  Au5  1  0.35128164  0.94349922  0.86476015  1
  Au  Au6  1  0.14871836  0.44349922  0.63523985  1
  Au  Au7  1  0.64871836  0.05650078  0.13523985  1
  Au  Au8  1  0.22825164  0.97143830  0.44749058  1
  Au  Au9  1  0.72825164  0.52856170  0.94749058  1
  Au  Au10  1  0.77174836  0.02856170  0.55250942  1
  Au  Au11  1  0.27174836  0.47143830  0.05250942  1
  Cl  Cl12  1  0.08919680  0.56861228  0.31671588  1
  Cl  Cl13  1  0.58919680  0.93138772  0.81671588  1
  Cl  Cl14  1  0.91080320  0.43138772  0.68328412  1
  Cl  Cl15  1  0.41080320  0.06861228  0.18328412  1
  Cl  Cl16  1  0.79604437  0.73615564  0.31978996  1
  Cl  Cl17  1  0.29604437  0.76384436  0.81978996  1
  Cl  Cl18  1  0.20395563  0.26384436  0.68021004  1
  Cl  Cl19  1  0.70395563  0.23615564  0.18021004  1
  Cl  Cl20  1  0.62602910  0.55514457  0.41325885  1
  Cl  Cl21  1  0.12602910  0.94485543  0.91325885  1
  Cl  Cl22  1  0.37397090  0.44485543  0.58674115  1
  Cl  Cl23  1  0.87397090  0.05514457  0.08674115  1
  Cl  Cl24  1  0.89827243  0.38024255  0.40223402  1
  Cl  Cl25  1  0.39827243  0.11975745  0.90223402  1
  Cl  Cl26  1  0.10172757  0.61975745  0.59776598  1
  Cl  Cl27  1  0.60172757  0.88024255  0.09776598  1
  Cl  Cl28  1  0.08324348  0.95051123  0.30305851  1
  Cl  Cl29  1  0.58324348  0.54948877  0.80305851  1
  Cl  Cl30  1  0.91675652  0.04948877  0.69694149  1
  Cl  Cl31  1  0.41675652  0.45051123  0.19694149  1
  Cl  Cl32  1  0.28552230  0.78657895  0.44617155  1
  Cl  Cl33  1  0.78552230  0.71342105  0.94617155  1
  Cl  Cl34  1  0.71447770  0.21342105  0.55382845  1
  Cl  Cl35  1  0.21447770  0.28657895  0.05382845  1
  Cl  Cl36  1  0.36203374  0.98186155  0.58838660  1
  Cl  Cl37  1  0.86203374  0.51813845  0.08838660  1
  Cl  Cl38  1  0.63796626  0.01813845  0.41161340  1
  Cl  Cl39  1  0.13796626  0.48186155  0.91161340  1
  Cl  Cl40  1  0.17107701  0.15057309  0.44619133  1
  Cl  Cl41  1  0.67107701  0.34942691  0.94619133  1
  Cl  Cl42  1  0.82892299  0.84942691  0.55380867  1
  Cl  Cl43  1  0.32892299  0.65057309  0.05380867  1
  O  O44  1  0.10740682  0.76762397  0.17879829  1
  O  O45  1  0.60740682  0.73237603  0.67879829  1
  O  O46  1  0.89259318  0.23237603  0.82120171  1
  O  O47  1  0.39259318  0.26762397  0.32120171  1
  O  O48  1  0.25512913  0.78220547  0.18581745  1
  O  O49  1  0.75512913  0.71779453  0.68581745  1
  O  O50  1  0.74487087  0.21779453  0.81418255  1
  O  O51  1  0.24487087  0.28220547  0.31418255  1
