# generated using pymatgen
data_Cr12Fe7O48
_symmetry_space_group_name_H-M   'P 1'
_cell_length_a   5.07300563
_cell_length_b   10.32469266
_cell_length_c   17.69507522
_cell_angle_alpha   89.77883832
_cell_angle_beta   89.30022135
_cell_angle_gamma   90.19215829
_symmetry_Int_Tables_number   1
_chemical_formula_structural   Cr12Fe7O48
_chemical_formula_sum   'Cr12 Fe7 O48'
_cell_volume   926.73752835
_cell_formula_units_Z   1
loop_
 _symmetry_equiv_pos_site_id
 _symmetry_equiv_pos_as_xyz
  1  'x, y, z'
loop_
 _atom_site_type_symbol
 _atom_site_label
 _atom_site_symmetry_multiplicity
 _atom_site_fract_x
 _atom_site_fract_y
 _atom_site_fract_z
 _atom_site_occupancy
  Cr  Cr0  1  0.23615466  0.74625728  0.94358935  1
  Cr  Cr1  1  0.23268448  0.03113758  0.65389311  1
  Cr  Cr2  1  0.23207575  0.46882143  0.65290374  1
  Cr  Cr3  1  0.28781785  0.52668140  0.15244068  1
  Cr  Cr4  1  0.29092469  0.97586490  0.15696136  1
  Cr  Cr5  1  0.29008626  0.25056346  0.44452715  1
  Cr  Cr6  1  0.71612519  0.74994905  0.56069323  1
  Cr  Cr7  1  0.71520732  0.47458214  0.84396985  1
  Cr  Cr8  1  0.71409877  0.02887382  0.84672096  1
  Cr  Cr9  1  0.75891549  0.53108394  0.34311069  1
  Cr  Cr10  1  0.76051431  0.96955916  0.34444631  1
  Cr  Cr11  1  0.76423482  0.24693345  0.05601318  1
  Fe  Fe12  1  0.23300992  0.75229178  0.29518123  1
  Fe  Fe13  1  0.22984181  0.06677519  0.97599027  1
  Fe  Fe14  1  0.40787425  0.75202828  0.75075893  1
  Fe  Fe15  1  0.59271532  0.25004741  0.24694883  1
  Fe  Fe16  1  0.76122650  0.06736942  0.52733179  1
  Fe  Fe17  1  0.76249595  0.43381520  0.52675855  1
  Fe  Fe18  1  0.76779273  0.56733427  0.02175322  1
  O  O19  1  0.04282711  0.23099165  0.00458283  1
  O  O20  1  0.03756989  0.61539592  0.35621784  1
  O  O21  1  0.03894163  0.88578403  0.35895380  1
  O  O22  1  0.13429745  0.62957617  0.21047519  1
  O  O23  1  0.11139867  0.87374495  0.21412550  1
  O  O24  1  0.10112381  0.12439031  0.46552966  1
  O  O25  1  0.10158199  0.37624403  0.46513321  1
  O  O26  1  0.11051674  0.00872493  0.08046713  1
  O  O27  1  0.07805908  0.49762870  0.08281823  1
  O  O28  1  0.18789194  0.74541773  0.84988574  1
  O  O29  1  0.18800662  0.60987007  0.70028956  1
  O  O30  1  0.18713106  0.88939733  0.70110454  1
  O  O31  1  0.36469877  0.11394904  0.20451920  1
  O  O32  1  0.36525102  0.39051430  0.19878055  1
  O  O33  1  0.37242707  0.25076052  0.35351523  1
  O  O34  1  0.43427020  0.49206803  0.57829342  1
  O  O35  1  0.43494960  0.00864897  0.57930107  1
  O  O36  1  0.38106333  0.88423186  0.96696070  1
  O  O37  1  0.44088504  0.62745729  0.96582938  1
  O  O38  1  0.37711014  0.12892805  0.70934063  1
  O  O39  1  0.37887379  0.37125188  0.70840693  1
  O  O40  1  0.44439302  0.10609137  0.88253534  1
  O  O41  1  0.45766739  0.38904120  0.87025980  1
  O  O42  1  0.46518052  0.74960965  0.50666922  1
  O  O43  1  0.57369294  0.25044655  0.50267532  1
  O  O44  1  0.55900994  0.60014314  0.11824664  1
  O  O45  1  0.55296928  0.90167143  0.13144762  1
  O  O46  1  0.54618044  0.62530323  0.29951796  1
  O  O47  1  0.54649006  0.87513493  0.30083172  1
  O  O48  1  0.55800845  0.12968047  0.03339543  1
  O  O49  1  0.61923952  0.38509386  0.03300261  1
  O  O50  1  0.62507388  0.01004521  0.42698725  1
  O  O51  1  0.62603018  0.49013614  0.42626446  1
  O  O52  1  0.62557613  0.75034589  0.65325274  1
  O  O53  1  0.62751171  0.61080578  0.79645004  1
  O  O54  1  0.62825723  0.89163090  0.80076179  1
  O  O55  1  0.81138445  0.10616757  0.29475606  1
  O  O56  1  0.80756738  0.39485571  0.29306408  1
  O  O57  1  0.81025358  0.24498140  0.15049690  1
  O  O58  1  0.89684306  0.50945985  0.92132955  1
  O  O59  1  0.92357581  0.99965488  0.91853299  1
  O  O60  1  0.89683391  0.61621821  0.54021082  1
  O  O61  1  0.89597350  0.88470316  0.53986038  1
  O  O62  1  0.86441295  0.12442089  0.78874426  1
  O  O63  1  0.89452546  0.37917255  0.79010083  1
  O  O64  1  0.94901432  0.10175893  0.62124070  1
  O  O65  1  0.94852060  0.39683757  0.62084210  1
  O  O66  1  0.95837131  0.73004961  0.99646864  1
