# generated using pymatgen
data_CuCO3
_symmetry_space_group_name_H-M   'P 1'
_cell_length_a   6.67427766
_cell_length_b   4.87346695
_cell_length_c   4.35799904
_cell_angle_alpha   67.94206760
_cell_angle_beta   111.31725061
_cell_angle_gamma   87.57811761
_symmetry_Int_Tables_number   1
_chemical_formula_structural   CuCO3
_chemical_formula_sum   'Cu2 C2 O6'
_cell_volume   119.73542815
_cell_formula_units_Z   2
loop_
 _symmetry_equiv_pos_site_id
 _symmetry_equiv_pos_as_xyz
  1  'x, y, z'
loop_
 _atom_site_type_symbol
 _atom_site_label
 _atom_site_symmetry_multiplicity
 _atom_site_fract_x
 _atom_site_fract_y
 _atom_site_fract_z
 _atom_site_occupancy
  Cu  Cu0  1  0.23523596  0.72284991  0.78575109  1
  Cu  Cu1  1  0.76477790  0.27722362  0.21427553  1
  C  C2  1  0.24665495  0.08611847  0.19661986  1
  C  C3  1  0.75334630  0.91384421  0.80340282  1
  O  O4  1  0.29282901  0.29924992  0.97117365  1
  O  O5  1  0.19462320  0.12369895  0.43972030  1
  O  O6  1  0.25655862  0.81425832  0.20753988  1
  O  O7  1  0.74340551  0.18573715  0.79258490  1
  O  O8  1  0.80539713  0.87637199  0.56016282  1
  O  O9  1  0.70717042  0.70064744  0.02877015  1
