# generated using pymatgen
data_YbCuPbSe3
_symmetry_space_group_name_H-M   'P 1'
_cell_length_a   3.97810945
_cell_length_b   10.91430321
_cell_length_c   13.74012494
_cell_angle_alpha   90.00000000
_cell_angle_beta   90.00000000
_cell_angle_gamma   90.00000000
_symmetry_Int_Tables_number   1
_chemical_formula_structural   YbCuPbSe3
_chemical_formula_sum   'Yb4 Cu4 Pb4 Se12'
_cell_volume   596.57276693
_cell_formula_units_Z   4
loop_
 _symmetry_equiv_pos_site_id
 _symmetry_equiv_pos_as_xyz
  1  'x, y, z'
loop_
 _atom_site_type_symbol
 _atom_site_label
 _atom_site_symmetry_multiplicity
 _atom_site_fract_x
 _atom_site_fract_y
 _atom_site_fract_z
 _atom_site_occupancy
  Yb  Yb0  1  0.75000000  0.99473575  0.75329340  1
  Yb  Yb1  1  0.75000000  0.49473575  0.74670660  1
  Yb  Yb2  1  0.25000000  0.00526425  0.24670660  1
  Yb  Yb3  1  0.25000000  0.50526425  0.25329340  1
  Cu  Cu4  1  0.75000000  0.75517080  0.27952361  1
  Cu  Cu5  1  0.75000000  0.25517080  0.22047639  1
  Cu  Cu6  1  0.25000000  0.24482920  0.72047639  1
  Cu  Cu7  1  0.25000000  0.74482920  0.77952361  1
  Pb  Pb8  1  0.75000000  0.73756681  0.99102056  1
  Pb  Pb9  1  0.75000000  0.23756681  0.50897944  1
  Pb  Pb10  1  0.25000000  0.26243319  0.00897944  1
  Pb  Pb11  1  0.25000000  0.76243319  0.49102056  1
  Se  Se12  1  0.75000000  0.24624589  0.82413304  1
  Se  Se13  1  0.75000000  0.74624589  0.67586696  1
  Se  Se14  1  0.25000000  0.75375411  0.17586696  1
  Se  Se15  1  0.25000000  0.25375411  0.32413304  1
  Se  Se16  1  0.75000000  0.08535762  0.10392764  1
  Se  Se17  1  0.75000000  0.58535762  0.39607236  1
  Se  Se18  1  0.25000000  0.91464238  0.89607236  1
  Se  Se19  1  0.25000000  0.41464238  0.60392764  1
  Se  Se20  1  0.75000000  0.43201784  0.10875926  1
  Se  Se21  1  0.75000000  0.93201784  0.39124074  1
  Se  Se22  1  0.25000000  0.56798216  0.89124074  1
  Se  Se23  1  0.25000000  0.06798216  0.60875926  1
