# generated using pymatgen
data_Co2O3F
_symmetry_space_group_name_H-M   'P 1'
_cell_length_a   5.28151570
_cell_length_b   5.28151570
_cell_length_c   5.28151570
_cell_angle_alpha   69.85566324
_cell_angle_beta   106.65678927
_cell_angle_gamma   68.34754387
_symmetry_Int_Tables_number   1
_chemical_formula_structural   Co2O3F
_chemical_formula_sum   'Co4 O6 F2'
_cell_volume   113.18601316
_cell_formula_units_Z   2
loop_
 _symmetry_equiv_pos_site_id
 _symmetry_equiv_pos_as_xyz
  1  'x, y, z'
loop_
 _atom_site_type_symbol
 _atom_site_label
 _atom_site_symmetry_multiplicity
 _atom_site_fract_x
 _atom_site_fract_y
 _atom_site_fract_z
 _atom_site_occupancy
  Co  Co0  1  0.22285684  0.25000000  0.47285684  1
  Co  Co1  1  0.77714316  0.75000000  0.52714316  1
  Co  Co2  1  0.00000000  -0.00000000  0.00000000  1
  Co  Co3  1  0.50000000  0.50000000  0.00000000  1
  O  O4  1  0.06091083  0.75000000  0.81091083  1
  O  O5  1  0.50000000  0.80565555  0.69434445  1
  O  O6  1  0.00000000  0.30565555  0.69434445  1
  O  O7  1  0.50000000  0.19434445  0.30565555  1
  O  O8  1  0.00000000  0.69434445  0.30565555  1
  O  O9  1  0.93908917  0.25000000  0.18908917  1
  F  F10  1  0.52884347  0.25000000  0.77884347  1
  F  F11  1  0.47115653  0.75000000  0.22115653  1
