# generated using pymatgen
data_FeCSO7
_symmetry_space_group_name_H-M   'P 1'
_cell_length_a   8.72500986
_cell_length_b   6.47941509
_cell_length_c   5.15850897
_cell_angle_alpha   90.00000000
_cell_angle_beta   87.72147559
_cell_angle_gamma   90.00000000
_symmetry_Int_Tables_number   1
_chemical_formula_structural   FeCSO7
_chemical_formula_sum   'Fe2 C2 S2 O14'
_cell_volume   291.39521513
_cell_formula_units_Z   2
loop_
 _symmetry_equiv_pos_site_id
 _symmetry_equiv_pos_as_xyz
  1  'x, y, z'
loop_
 _atom_site_type_symbol
 _atom_site_label
 _atom_site_symmetry_multiplicity
 _atom_site_fract_x
 _atom_site_fract_y
 _atom_site_fract_z
 _atom_site_occupancy
  Fe  Fe0  1  0.33712773  0.75000000  0.79354080  1
  Fe  Fe1  1  0.66287227  0.25000000  0.20645920  1
  C  C2  1  0.06233525  0.75000000  0.73469135  1
  C  C3  1  0.93766475  0.25000000  0.26530865  1
  S  S4  1  0.42555279  0.25000000  0.71572968  1
  S  S5  1  0.57444721  0.75000000  0.28427032  1
  O  O6  1  0.07924628  0.25000000  0.29584603  1
  O  O7  1  0.12238739  0.75000000  0.96130736  1
  O  O8  1  0.16310536  0.75000000  0.54142444  1
  O  O9  1  0.33177332  0.06627424  0.77658022  1
  O  O10  1  0.33177332  0.43372576  0.77658022  1
  O  O11  1  0.43193858  0.75000000  0.13490280  1
  O  O12  1  0.47314143  0.25000000  0.43372395  1
  O  O13  1  0.52685857  0.75000000  0.56627605  1
  O  O14  1  0.56806142  0.25000000  0.86509720  1
  O  O15  1  0.66822668  0.56627424  0.22341978  1
  O  O16  1  0.66822668  0.93372576  0.22341978  1
  O  O17  1  0.83689464  0.25000000  0.45857556  1
  O  O18  1  0.87761261  0.25000000  0.03869264  1
  O  O19  1  0.92075372  0.75000000  0.70415397  1
