# generated using pymatgen
data_Sb2Se3
_symmetry_space_group_name_H-M   'P 1'
_cell_length_a   3.96423592
_cell_length_b   14.31091661
_cell_length_c   13.05021537
_cell_angle_alpha   90.00000000
_cell_angle_beta   90.00000000
_cell_angle_gamma   90.00000000
_symmetry_Int_Tables_number   1
_chemical_formula_structural   Sb2Se3
_chemical_formula_sum   'Sb8 Se12'
_cell_volume   740.36285658
_cell_formula_units_Z   4
loop_
 _symmetry_equiv_pos_site_id
 _symmetry_equiv_pos_as_xyz
  1  'x, y, z'
loop_
 _atom_site_type_symbol
 _atom_site_label
 _atom_site_symmetry_multiplicity
 _atom_site_fract_x
 _atom_site_fract_y
 _atom_site_fract_z
 _atom_site_occupancy
  Sb  Sb0  1  0.75000000  0.73705182  0.10641406  1
  Sb  Sb1  1  0.75000000  0.76294818  0.60641406  1
  Sb  Sb2  1  0.25000000  0.26294818  0.89358594  1
  Sb  Sb3  1  0.25000000  0.23705182  0.39358594  1
  Sb  Sb4  1  0.75000000  0.61484600  0.34572278  1
  Sb  Sb5  1  0.25000000  0.38515400  0.65427722  1
  Sb  Sb6  1  0.25000000  0.11484600  0.15427722  1
  Sb  Sb7  1  0.75000000  0.88515400  0.84572278  1
  Se  Se8  1  0.75000000  0.43215873  0.78560192  1
  Se  Se9  1  0.75000000  0.70786730  0.79468825  1
  Se  Se10  1  0.25000000  0.29213270  0.20531175  1
  Se  Se11  1  0.25000000  0.56784127  0.21439808  1
  Se  Se12  1  0.75000000  0.79213270  0.29468825  1
  Se  Se13  1  0.25000000  0.20786730  0.70531175  1
  Se  Se14  1  0.75000000  0.14719807  0.95983088  1
  Se  Se15  1  0.25000000  0.93215873  0.71439808  1
  Se  Se16  1  0.75000000  0.35280193  0.45983088  1
  Se  Se17  1  0.75000000  0.06784127  0.28560192  1
  Se  Se18  1  0.25000000  0.64719807  0.54016912  1
  Se  Se19  1  0.25000000  0.85280193  0.04016912  1
