# generated using pymatgen
data_AgSbS2
_symmetry_space_group_name_H-M   'P 1'
_cell_length_a   5.79649074
_cell_length_b   7.99809772
_cell_length_c   13.91493330
_cell_angle_alpha   78.15543350
_cell_angle_beta   90.00000014
_cell_angle_gamma   111.24562666
_symmetry_Int_Tables_number   1
_chemical_formula_structural   AgSbS2
_chemical_formula_sum   'Ag4 Sb4 S8'
_cell_volume   586.50278507
_cell_formula_units_Z   4
loop_
 _symmetry_equiv_pos_site_id
 _symmetry_equiv_pos_as_xyz
  1  'x, y, z'
loop_
 _atom_site_type_symbol
 _atom_site_label
 _atom_site_symmetry_multiplicity
 _atom_site_fract_x
 _atom_site_fract_y
 _atom_site_fract_z
 _atom_site_occupancy
  Ag  Ag0  1  0.01189031  0.01264768  0.99639644  1
  Ag  Ag1  1  0.49991942  0.01147314  0.49680536  1
  Ag  Ag2  1  0.51155372  0.01147314  0.99680536  1
  Ag  Ag3  1  0.00075736  0.01264768  0.49639644  1
  Sb  Sb4  1  0.37991276  0.60344144  0.14025041  1
  Sb  Sb5  1  0.78011528  0.41694240  0.34162180  1
  Sb  Sb6  1  0.22352868  0.60344144  0.64025041  1
  Sb  Sb7  1  0.63682712  0.41694240  0.84162180  1
  S  S8  1  0.40103530  0.62274427  0.80129270  1
  S  S9  1  0.19776547  0.90955090  0.63582474  1
  S  S10  1  0.30894716  0.10571892  0.85686583  1
  S  S11  1  0.79677176  0.10571892  0.35686583  1
  S  S12  1  0.78522207  0.38908126  0.68094472  1
  S  S13  1  0.60385919  0.38908126  0.18094472  1
  S  S14  1  0.22170898  0.62274427  0.30129270  1
  S  S15  1  0.71178543  0.90955090  0.13582474  1
