# generated using pymatgen
data_FeHO2
_symmetry_space_group_name_H-M   'P 1'
_cell_length_a   9.22455572
_cell_length_b   6.16233264
_cell_length_c   11.34466426
_cell_angle_alpha   90.08888989
_cell_angle_beta   84.07353544
_cell_angle_gamma   90.16305355
_symmetry_Int_Tables_number   1
_chemical_formula_structural   FeHO2
_chemical_formula_sum   'Fe16 H16 O32'
_cell_volume   641.43508173
_cell_formula_units_Z   16
loop_
 _symmetry_equiv_pos_site_id
 _symmetry_equiv_pos_as_xyz
  1  'x, y, z'
loop_
 _atom_site_type_symbol
 _atom_site_label
 _atom_site_symmetry_multiplicity
 _atom_site_fract_x
 _atom_site_fract_y
 _atom_site_fract_z
 _atom_site_occupancy
  Fe  Fe0  1  0.31293900  0.98789356  0.11792823  1
  Fe  Fe1  1  0.17672804  0.00115534  0.62588460  1
  Fe  Fe2  1  0.82674049  0.24907072  0.60930936  1
  Fe  Fe3  1  0.69087970  0.24965521  0.12183749  1
  Fe  Fe4  1  0.70330413  0.00039041  0.85219564  1
  Fe  Fe5  1  0.84142236  0.99043443  0.32883900  1
  Fe  Fe6  1  0.21277868  0.24958703  0.35276092  1
  Fe  Fe7  1  0.32191759  0.24563503  0.84197554  1
  Fe  Fe8  1  0.31163916  0.50758604  0.11637360  1
  Fe  Fe9  1  0.19628959  0.49583977  0.62684212  1
  Fe  Fe10  1  0.82784578  0.73931123  0.60723322  1
  Fe  Fe11  1  0.70572883  0.74131837  0.12544684  1
  Fe  Fe12  1  0.70754938  0.49337413  0.83671769  1
  Fe  Fe13  1  0.84983789  0.50916779  0.33533124  1
  Fe  Fe14  1  0.21648518  0.74196741  0.35353203  1
  Fe  Fe15  1  0.35735571  0.74654445  0.83625303  1
  H  H16  1  0.02322278  0.99523045  0.46145724  1
  H  H17  1  0.46245192  0.02142401  0.66686834  1
  H  H18  1  0.52487390  0.26004042  0.95741989  1
  H  H19  1  0.92558539  0.13905552  0.11227441  1
  H  H20  1  0.63105363  0.97274824  0.56611094  1
  H  H21  1  0.54090799  0.98178088  0.28541892  1
  H  H22  1  0.07303475  0.26334285  0.16442194  1
  H  H23  1  0.44838490  0.26062274  0.20323296  1
  H  H24  1  0.02746158  0.24918474  0.78775753  1
  H  H25  1  0.49108062  0.48300823  0.67486594  1
  H  H26  1  0.94692308  0.79041318  0.79815542  1
  H  H27  1  0.01714103  0.49532928  0.48890116  1
  H  H28  1  0.55136516  0.50186798  0.29056044  1
  H  H29  1  0.05744796  0.74325334  0.16742822  1
  H  H30  1  0.50515089  0.74513640  0.00175410  1
  H  H31  1  0.10181718  0.66209364  0.84054797  1
  O  O32  1  0.34255571  0.99601956  0.29367949  1
  O  O33  1  0.05750420  0.99420136  0.37181334  1
  O  O34  1  0.36759054  0.00191264  0.71295784  1
  O  O35  1  0.29411312  0.99484760  0.94697550  1
  O  O36  1  0.83592890  0.23697994  0.79304766  1
  O  O37  1  0.54703900  0.24678773  0.87113204  1
  O  O38  1  0.89090855  0.21907902  0.18455844  1
  O  O39  1  0.80283510  0.24660982  0.43168716  1
  O  O40  1  0.67660852  0.99564618  0.63921782  1
  O  O41  1  0.97221257  0.99273700  0.59512863  1
  O  O42  1  0.64450521  0.99209378  0.24936216  1
  O  O43  1  0.73845616  0.99823972  0.01773882  1
  O  O44  1  0.18016387  0.24960173  0.16224962  1
  O  O45  1  0.46462924  0.24770364  0.11534092  1
  O  O46  1  0.13434330  0.24893988  0.75766521  1
  O  O47  1  0.24115930  0.24531666  0.52275362  1
  O  O48  1  0.34754817  0.49529499  0.29352584  1
  O  O49  1  0.06070521  0.49676004  0.37079882  1
  O  O50  1  0.38732533  0.48844271  0.71163555  1
  O  O51  1  0.29099693  0.49857842  0.94569689  1
  O  O52  1  0.84342148  0.75971800  0.79339562  1
  O  O53  1  0.56255907  0.75044267  0.86409529  1
  O  O54  1  0.88832368  0.74229834  0.20583237  1
  O  O55  1  0.79028079  0.74945184  0.44027968  1
  O  O56  1  0.69039018  0.49695469  0.65978703  1
  O  O57  1  0.98202969  0.49618357  0.58540788  1
  O  O58  1  0.65275948  0.49076447  0.25052405  1
  O  O59  1  0.73071508  0.49298687  0.01346369  1
  O  O60  1  0.17019096  0.74634118  0.16373455  1
  O  O61  1  0.46999683  0.74560735  0.09057482  1
  O  O62  1  0.14984506  0.72702670  0.76815815  1
  O  O63  1  0.23940746  0.74900610  0.52618956  1
