# generated using pymatgen
data_H2O
_symmetry_space_group_name_H-M   'P 1'
_cell_length_a   5.85223726
_cell_length_b   11.01986907
_cell_length_c   11.08852441
_cell_angle_alpha   81.60290026
_cell_angle_beta   110.78169901
_cell_angle_gamma   129.07766596
_symmetry_Int_Tables_number   1
_chemical_formula_structural   H2O
_chemical_formula_sum   'H24 O12'
_cell_volume   516.03854050
_cell_formula_units_Z   12
loop_
 _symmetry_equiv_pos_site_id
 _symmetry_equiv_pos_as_xyz
  1  'x, y, z'
loop_
 _atom_site_type_symbol
 _atom_site_label
 _atom_site_symmetry_multiplicity
 _atom_site_fract_x
 _atom_site_fract_y
 _atom_site_fract_z
 _atom_site_occupancy
  H  H0  1  0.19994829  0.65686847  0.14193638  1
  H  H1  1  0.69864817  0.12503364  0.63920414  1
  H  H2  1  0.96942720  0.31023175  0.27783296  1
  H  H3  1  0.80005171  0.34313153  0.85806362  1
  H  H4  1  0.30135183  0.87496636  0.36079586  1
  H  H5  1  0.03057280  0.68976825  0.72216704  1
  H  H6  1  0.87330711  0.40917698  0.19568003  1
  H  H7  1  0.51346430  0.82442195  0.60278898  1
  H  H8  1  0.46598909  0.14056374  0.14349816  1
  H  H9  1  0.12669289  0.59082302  0.80431997  1
  H  H10  1  0.48653570  0.17557805  0.39721102  1
  H  H11  1  0.53401091  0.85943626  0.85650184  1
  H  H12  1  0.26553313  0.25439757  0.43751064  1
  H  H13  1  0.93740844  0.31625458  0.77615451  1
  H  H14  1  0.89477554  0.93828827  0.91962286  1
  H  H15  1  0.73446687  0.74560243  0.56248936  1
  H  H16  1  0.06259156  0.68374542  0.22384549  1
  H  H17  1  0.10522446  0.06171173  0.08037714  1
  H  H18  1  0.29075953  0.38423719  0.50029288  1
  H  H19  1  0.82174042  0.98776319  0.60819519  1
  H  H20  1  0.83571056  0.08307350  0.77507291  1
  H  H21  1  0.70924047  0.61576281  0.49970712  1
  H  H22  1  0.17825958  0.01223681  0.39180481  1
  H  H23  1  0.16428944  0.91692650  0.22492709  1
  O  O24  1  0.09782747  0.61221886  0.20660322  1
  O  O25  1  0.66126804  0.88415212  0.55594740  1
  O  O26  1  0.80395671  0.30061152  0.20121709  1
  O  O27  1  0.90217253  0.38778114  0.79339678  1
  O  O28  1  0.33873196  0.11584788  0.44405260  1
  O  O29  1  0.19604329  0.69938848  0.79878291  1
  O  O30  1  0.89557254  0.15600466  0.70498918  1
  O  O31  1  0.75351346  0.96424862  0.88737154  1
  O  O32  1  0.25846473  0.34282210  0.41900673  1
  O  O33  1  0.10442746  0.84399534  0.29501082  1
  O  O34  1  0.24648654  0.03575138  0.11262846  1
  O  O35  1  0.74153527  0.65717790  0.58099327  1
