# generated using pymatgen
data_Fe2CoAs2(H5O7)2
_symmetry_space_group_name_H-M   'P 1'
_cell_length_a   5.72597052
_cell_length_b   9.43797206
_cell_length_c   10.74176001
_cell_angle_alpha   90.00000000
_cell_angle_beta   90.20112676
_cell_angle_gamma   90.00000000
_symmetry_Int_Tables_number   1
_chemical_formula_structural   Fe2CoAs2(H5O7)2
_chemical_formula_sum   'Fe4 Co2 As4 H20 O28'
_cell_volume   580.49778164
_cell_formula_units_Z   2
loop_
 _symmetry_equiv_pos_site_id
 _symmetry_equiv_pos_as_xyz
  1  'x, y, z'
loop_
 _atom_site_type_symbol
 _atom_site_label
 _atom_site_symmetry_multiplicity
 _atom_site_fract_x
 _atom_site_fract_y
 _atom_site_fract_z
 _atom_site_occupancy
  Fe  Fe0  1  0.35486856  0.13840990  0.45382695  1
  Fe  Fe1  1  0.14513144  0.63840990  0.54617305  1
  Fe  Fe2  1  0.64513144  0.86159010  0.54617305  1
  Fe  Fe3  1  0.85486856  0.36159010  0.45382695  1
  Co  Co4  1  0.50000000  0.50000000  0.00000000  1
  Co  Co5  1  -0.00000000  0.00000000  0.00000000  1
  As  As6  1  0.68006637  0.57312826  0.71575315  1
  As  As7  1  0.81993363  0.07312826  0.28424685  1
  As  As8  1  0.31993363  0.42687174  0.28424685  1
  As  As9  1  0.18006637  0.92687174  0.71575315  1
  H  H10  1  0.30982332  0.80367653  0.06420653  1
  H  H11  1  0.19017668  0.30367653  0.93579347  1
  H  H12  1  0.69017668  0.19632347  0.93579347  1
  H  H13  1  0.80982332  0.69632347  0.06420653  1
  H  H14  1  0.27104510  0.69435377  0.90198482  1
  H  H15  1  0.22895490  0.19435377  0.09801518  1
  H  H16  1  0.72895490  0.30564623  0.09801518  1
  H  H17  1  0.77104510  0.80564623  0.90198482  1
  H  H18  1  0.06472556  0.44363676  0.88505206  1
  H  H19  1  0.43527444  0.94363676  0.11494794  1
  H  H20  1  0.32816222  0.44904459  0.74946484  1
  H  H21  1  0.17183778  0.94904459  0.25053516  1
  H  H22  1  0.67183778  0.55095541  0.25053516  1
  H  H23  1  0.82816222  0.05095541  0.74946484  1
  H  H24  1  0.50763796  0.65776070  0.41252488  1
  H  H25  1  -0.00763796  0.15776070  0.58747512  1
  H  H26  1  0.49236204  0.34223930  0.58747512  1
  H  H27  1  0.00763796  0.84223930  0.41252488  1
  H  H28  1  0.93527444  0.55636324  0.11494794  1
  H  H29  1  0.56472556  0.05636324  0.88505206  1
  O  O30  1  0.74429214  0.00194977  0.14747836  1
  O  O31  1  0.25570786  -0.00194977  0.85252164  1
  O  O32  1  0.65708546  0.75271093  0.70473228  1
  O  O33  1  0.24429214  0.49805023  0.14747836  1
  O  O34  1  0.34291454  0.24728907  0.29526772  1
  O  O35  1  0.15708546  0.74728907  0.70473228  1
  O  O36  1  0.92695561  0.77756776  0.47052318  1
  O  O37  1  0.57304439  0.27756776  0.52947682  1
  O  O38  1  0.07304439  0.22243224  0.52947682  1
  O  O39  1  0.42695561  0.72243224  0.47052318  1
  O  O40  1  0.71980900  0.10305735  0.88387153  1
  O  O41  1  0.78019100  0.60305735  0.11612847  1
  O  O42  1  0.28019100  0.89694265  0.11612847  1
  O  O43  1  0.21980900  0.39694265  0.88387153  1
  O  O44  1  0.88773605  0.81225230  0.96832771  1
  O  O45  1  0.61226395  0.31225230  0.03167229  1
  O  O46  1  0.11226395  0.18774770  0.03167229  1
  O  O47  1  0.38773605  0.68774770  0.96832771  1
  O  O48  1  0.90001579  0.00572587  0.67056341  1
  O  O49  1  0.59998421  0.50572587  0.32943659  1
  O  O50  1  0.09998421  0.99427413  0.32943659  1
  O  O51  1  0.40001579  0.49427413  0.67056341  1
  O  O52  1  0.36575377  0.98525328  0.59610039  1
  O  O53  1  0.13424623  0.48525328  0.40389961  1
  O  O54  1  0.63424623  0.01474672  0.40389961  1
  O  O55  1  0.86575377  0.51474672  0.59610039  1
  O  O56  1  0.84291454  0.25271093  0.29526772  1
  O  O57  1  0.75570786  0.50194977  0.85252164  1
