# generated using pymatgen
data_HI3
_symmetry_space_group_name_H-M   'P 1'
_cell_length_a   13.12620766
_cell_length_b   10.32501166
_cell_length_c   5.80551917
_cell_angle_alpha   52.69815127
_cell_angle_beta   117.74246194
_cell_angle_gamma   118.26003395
_symmetry_Int_Tables_number   1
_chemical_formula_structural   HI3
_chemical_formula_sum   'H2 I6'
_cell_volume   533.06916362
_cell_formula_units_Z   2
loop_
 _symmetry_equiv_pos_site_id
 _symmetry_equiv_pos_as_xyz
  1  'x, y, z'
loop_
 _atom_site_type_symbol
 _atom_site_label
 _atom_site_symmetry_multiplicity
 _atom_site_fract_x
 _atom_site_fract_y
 _atom_site_fract_z
 _atom_site_occupancy
  H  H0  1  0.30314878  0.66124249  0.70941443  1
  H  H1  1  0.69376925  0.33643485  0.28615424  1
  I  I2  1  0.25390462  0.42750343  0.21025131  1
  I  I3  1  0.67833716  0.82937144  0.23806112  1
  I  I4  1  0.23834900  0.80325277  0.38960852  1
  I  I5  1  0.75029342  0.57584318  0.79478254  1
  I  I6  1  0.32201003  0.16762509  0.76003957  1
  I  I7  1  0.76018975  0.19872974  0.61168827  1
