# generated using pymatgen
data_Sm2Fe17B3
_symmetry_space_group_name_H-M   'P 1'
_cell_length_a   6.56729182
_cell_length_b   6.56729182
_cell_length_c   6.56729191
_cell_angle_alpha   84.00218444
_cell_angle_beta   84.00218444
_cell_angle_gamma   84.00218277
_symmetry_Int_Tables_number   1
_chemical_formula_structural   Sm2Fe17B3
_chemical_formula_sum   'Sm2 Fe17 B3'
_cell_volume   278.89381208
_cell_formula_units_Z   1
loop_
 _symmetry_equiv_pos_site_id
 _symmetry_equiv_pos_as_xyz
  1  'x, y, z'
loop_
 _atom_site_type_symbol
 _atom_site_label
 _atom_site_symmetry_multiplicity
 _atom_site_fract_x
 _atom_site_fract_y
 _atom_site_fract_z
 _atom_site_occupancy
  Sm  Sm0  1  0.65724357  0.65724357  0.65724357  1
  Sm  Sm1  1  0.34275643  0.34275643  0.34275643  1
  Fe  Fe2  1  0.00000000  0.00000000  0.50000000  1
  Fe  Fe3  1  0.00000000  0.50000000  -0.00000000  1
  Fe  Fe4  1  0.50000000  0.00000000  -0.00000000  1
  Fe  Fe5  1  0.27954551  0.72045449  0.00000000  1
  Fe  Fe6  1  0.72045449  0.00000000  0.27954551  1
  Fe  Fe7  1  1.00000000  0.27954551  0.72045449  1
  Fe  Fe8  1  0.27954551  1.00000000  0.72045449  1
  Fe  Fe9  1  0.00000000  0.72045449  0.27954551  1
  Fe  Fe10  1  0.72045449  0.27954551  -0.00000000  1
  Fe  Fe11  1  0.33830435  0.33830435  0.85045185  1
  Fe  Fe12  1  0.33830435  0.85045185  0.33830435  1
  Fe  Fe13  1  0.85045185  0.33830435  0.33830435  1
  Fe  Fe14  1  0.66169565  0.66169565  0.14954815  1
  Fe  Fe15  1  0.66169565  0.14954815  0.66169565  1
  Fe  Fe16  1  0.14954815  0.66169565  0.66169565  1
  Fe  Fe17  1  0.90501512  0.90501512  0.90501512  1
  Fe  Fe18  1  0.09498488  0.09498488  0.09498488  1
  B  B19  1  0.50000000  0.50000000  -0.00000000  1
  B  B20  1  0.50000000  0.00000000  0.50000000  1
  B  B21  1  0.00000000  0.50000000  0.50000000  1
