# generated using pymatgen
data_LiH2N
_symmetry_space_group_name_H-M   'P 1'
_cell_length_a   3.41003104
_cell_length_b   5.81230954
_cell_length_c   6.52452937
_cell_angle_alpha   90.00000000
_cell_angle_beta   90.00000000
_cell_angle_gamma   90.00000000
_symmetry_Int_Tables_number   1
_chemical_formula_structural   LiH2N
_chemical_formula_sum   'Li4 H8 N4'
_cell_volume   129.31718958
_cell_formula_units_Z   4
loop_
 _symmetry_equiv_pos_site_id
 _symmetry_equiv_pos_as_xyz
  1  'x, y, z'
loop_
 _atom_site_type_symbol
 _atom_site_label
 _atom_site_symmetry_multiplicity
 _atom_site_fract_x
 _atom_site_fract_y
 _atom_site_fract_z
 _atom_site_occupancy
  Li  Li0  1  0.85160747  0.35739590  0.95093165  1
  Li  Li1  1  0.14839253  0.85739590  0.04906835  1
  Li  Li2  1  0.35160747  0.85739590  0.54906835  1
  Li  Li3  1  0.64839253  0.35739590  0.45093165  1
  H  H4  1  0.81157069  0.68221629  0.75554141  1
  H  H5  1  0.18842931  0.18221629  0.24445859  1
  H  H6  1  0.31157069  0.18221629  0.74445859  1
  H  H7  1  0.68842931  0.68221629  0.25554141  1
  H  H8  1  0.93494682  0.05006984  0.41685507  1
  H  H9  1  0.06505318  0.55006984  0.58314493  1
  H  H10  1  0.43494682  0.55006984  0.08314493  1
  H  H11  1  0.56505318  0.05006984  0.91685507  1
  N  N12  1  0.83032090  0.66030797  0.59862091  1
  N  N13  1  0.16967910  0.16030797  0.40137909  1
  N  N14  1  0.33032090  0.16030797  0.90137909  1
  N  N15  1  0.66967910  0.66030797  0.09862091  1
