# generated using pymatgen
data_Li2LuSiO5
_symmetry_space_group_name_H-M   'P 1'
_cell_length_a   5.26102991
_cell_length_b   5.43714013
_cell_length_c   8.36349714
_cell_angle_alpha   106.24407462
_cell_angle_beta   100.56013418
_cell_angle_gamma   102.26781936
_symmetry_Int_Tables_number   1
_chemical_formula_structural   Li2LuSiO5
_chemical_formula_sum   'Li4 Lu2 Si2 O10'
_cell_volume   216.80117075
_cell_formula_units_Z   2
loop_
 _symmetry_equiv_pos_site_id
 _symmetry_equiv_pos_as_xyz
  1  'x, y, z'
loop_
 _atom_site_type_symbol
 _atom_site_label
 _atom_site_symmetry_multiplicity
 _atom_site_fract_x
 _atom_site_fract_y
 _atom_site_fract_z
 _atom_site_occupancy
  Li  Li0  1  0.19918737  0.16681128  0.48397332  1
  Li  Li1  1  0.80081263  0.83318872  0.51602668  1
  Li  Li2  1  0.03741754  0.25900260  0.95587144  1
  Li  Li3  1  0.96258246  0.74099740  0.04412856  1
  Lu  Lu4  1  0.61424649  0.23147140  0.24196194  1
  Lu  Lu5  1  0.38575351  0.76852860  0.75803806  1
  Si  Si6  1  0.22314060  0.68798630  0.32543733  1
  Si  Si7  1  0.77685940  0.31201370  0.67456267  1
  O  O8  1  0.49163164  0.58236920  0.34053698  1
  O  O9  1  0.50836836  0.41763080  0.65946302  1
  O  O10  1  0.25763488  0.95493494  0.26395465  1
  O  O11  1  0.74236512  0.04506506  0.73604535  1
  O  O12  1  0.15613177  0.78546489  0.51503399  1
  O  O13  1  0.84386823  0.21453511  0.48496601  1
  O  O14  1  0.96688094  0.45657558  0.17708863  1
  O  O15  1  0.03311906  0.54342442  0.82291137  1
  O  O16  1  0.36559563  0.11577355  0.96943484  1
  O  O17  1  0.63440437  0.88422645  0.03056516  1
