# generated using pymatgen
data_Na4W4O15
_symmetry_space_group_name_H-M   'P 1'
_cell_length_a   5.25163317
_cell_length_b   7.75178118
_cell_length_c   8.68656527
_cell_angle_alpha   111.57433072
_cell_angle_beta   96.70297178
_cell_angle_gamma   92.61830191
_symmetry_Int_Tables_number   1
_chemical_formula_structural   Na4W4O15
_chemical_formula_sum   'Na4 W4 O15'
_cell_volume   325.09708877
_cell_formula_units_Z   1
loop_
 _symmetry_equiv_pos_site_id
 _symmetry_equiv_pos_as_xyz
  1  'x, y, z'
loop_
 _atom_site_type_symbol
 _atom_site_label
 _atom_site_symmetry_multiplicity
 _atom_site_fract_x
 _atom_site_fract_y
 _atom_site_fract_z
 _atom_site_occupancy
  Na  Na0  1  0.74728903  0.22537892  0.62724021  1
  Na  Na1  1  0.25271097  0.77462108  0.37275979  1
  Na  Na2  1  0.31821231  0.51303324  0.81350099  1
  Na  Na3  1  0.68178769  0.48696676  0.18649901  1
  W  W4  1  0.18736428  0.23328328  0.31636398  1
  W  W5  1  0.81263572  0.76671672  0.68363602  1
  W  W6  1  0.34612890  0.03480653  0.83953345  1
  W  W7  1  0.65387110  0.96519347  0.16046655  1
  O  O8  1  -0.00000000  0.50000000  0.00000000  1
  O  O9  1  0.13307945  0.29800716  0.52958447  1
  O  O10  1  0.86692055  0.70199284  0.47041553  1
  O  O11  1  0.49180453  0.26328673  0.87257593  1
  O  O12  1  0.50819547  0.73671327  0.12742407  1
  O  O13  1  0.14522444  0.77183831  0.79705741  1
  O  O14  1  0.85477556  0.22816169  0.20294259  1
  O  O15  1  0.32954222  0.08332279  0.07643397  1
  O  O16  1  0.67045778  0.91667721  0.92356603  1
  O  O17  1  0.49814304  0.09753724  0.35788104  1
  O  O18  1  0.50185696  0.90246276  0.64211896  1
  O  O19  1  0.01701101  0.05564132  0.74853429  1
  O  O20  1  0.98298899  0.94435868  0.25146571  1
  O  O21  1  0.32451478  0.44751639  0.31231057  1
  O  O22  1  0.67548522  0.55248361  0.68768943  1
