# generated using pymatgen
data_Hf3AlAu2
_symmetry_space_group_name_H-M   'P 1'
_cell_length_a   8.70395304
_cell_length_b   8.70395304
_cell_length_c   8.70395304
_cell_angle_alpha   60.00000000
_cell_angle_beta   60.00000000
_cell_angle_gamma   60.00000000
_symmetry_Int_Tables_number   1
_chemical_formula_structural   Hf3AlAu2
_chemical_formula_sum   'Hf12 Al4 Au8'
_cell_volume   466.26693661
_cell_formula_units_Z   4
loop_
 _symmetry_equiv_pos_site_id
 _symmetry_equiv_pos_as_xyz
  1  'x, y, z'
loop_
 _atom_site_type_symbol
 _atom_site_label
 _atom_site_symmetry_multiplicity
 _atom_site_fract_x
 _atom_site_fract_y
 _atom_site_fract_z
 _atom_site_occupancy
  Hf  Hf0  1  0.43008731  0.81991269  0.81991269  1
  Hf  Hf1  1  0.81991269  0.43008731  0.43008731  1
  Hf  Hf2  1  0.81991269  0.43008731  0.81991269  1
  Hf  Hf3  1  0.43008731  0.81991269  0.43008731  1
  Hf  Hf4  1  0.81991269  0.81991269  0.43008731  1
  Hf  Hf5  1  0.43008731  0.43008731  0.81991269  1
  Hf  Hf6  1  0.56991269  0.18008731  0.18008731  1
  Hf  Hf7  1  0.18008731  0.56991269  0.56991269  1
  Hf  Hf8  1  0.18008731  0.56991269  0.18008731  1
  Hf  Hf9  1  0.56991269  0.18008731  0.56991269  1
  Hf  Hf10  1  0.18008731  0.18008731  0.56991269  1
  Hf  Hf11  1  0.56991269  0.56991269  0.18008731  1
  Al  Al12  1  0.00000000  0.00000000  0.50000000  1
  Al  Al13  1  -0.00000000  0.50000000  -0.00000000  1
  Al  Al14  1  0.50000000  0.00000000  -0.00000000  1
  Al  Al15  1  -0.00000000  0.00000000  -0.00000000  1
  Au  Au16  1  0.21367786  0.21367786  0.85896641  1
  Au  Au17  1  0.21367786  0.85896641  0.21367786  1
  Au  Au18  1  0.85896641  0.21367786  0.21367786  1
  Au  Au19  1  0.21367786  0.21367786  0.21367786  1
  Au  Au20  1  0.78632214  0.78632214  0.14103359  1
  Au  Au21  1  0.78632214  0.14103359  0.78632214  1
  Au  Au22  1  0.14103359  0.78632214  0.78632214  1
  Au  Au23  1  0.78632214  0.78632214  0.78632214  1
