# generated using pymatgen
data_Na3U2O10F7
_symmetry_space_group_name_H-M   'P 1'
_cell_length_a   7.82065977
_cell_length_b   7.18303452
_cell_length_c   8.84749966
_cell_angle_alpha   76.46353005
_cell_angle_beta   67.00330754
_cell_angle_gamma   74.03386923
_symmetry_Int_Tables_number   1
_chemical_formula_structural   Na3U2O10F7
_chemical_formula_sum   'Na3 U2 O10 F7'
_cell_volume   435.34565784
_cell_formula_units_Z   1
loop_
 _symmetry_equiv_pos_site_id
 _symmetry_equiv_pos_as_xyz
  1  'x, y, z'
loop_
 _atom_site_type_symbol
 _atom_site_label
 _atom_site_symmetry_multiplicity
 _atom_site_fract_x
 _atom_site_fract_y
 _atom_site_fract_z
 _atom_site_occupancy
  Na  Na0  1  0.15278553  0.55044220  0.04006277  1
  Na  Na1  1  0.84721447  0.44955780  0.95993723  1
  Na  Na2  1  -0.00000000  0.50000000  0.50000000  1
  U  U3  1  0.00029497  0.00804625  0.26867948  1
  U  U4  1  0.99970503  0.99195375  0.73132052  1
  O  O5  1  0.25610455  0.97426473  0.18956199  1
  O  O6  1  0.74389545  0.02573527  0.81043801  1
  O  O7  1  0.74529391  0.04228106  0.34545858  1
  O  O8  1  0.25470609  0.95771894  0.65454142  1
  O  O9  1  0.55264392  0.60069201  0.28622156  1
  O  O10  1  0.44735608  0.39930799  0.71377844  1
  O  O11  1  0.54061823  0.52797163  0.66514522  1
  O  O12  1  0.45938177  0.47202837  0.33485478  1
  O  O13  1  0.48148440  0.41950985  0.03982725  1
  O  O14  1  0.51851560  0.58049015  0.96017275  1
  F  F15  1  -0.00000000  0.00000000  -0.00000000  1
  F  F16  1  0.03460135  0.68462206  0.26030725  1
  F  F17  1  0.96539865  0.31537794  0.73969275  1
  F  F18  1  0.97852384  0.32460970  0.14539069  1
  F  F19  1  0.02147616  0.67539030  0.85460931  1
  F  F20  1  0.99310527  0.18725616  0.46851152  1
  F  F21  1  0.00689473  0.81274384  0.53148848  1
