# generated using pymatgen
data_Sb4IO6
_symmetry_space_group_name_H-M   'P 1'
_cell_length_a   4.16805481
_cell_length_b   9.79952259
_cell_length_c   11.25629389
_cell_angle_alpha   108.47903452
_cell_angle_beta   90.00000005
_cell_angle_gamma   102.27864873
_symmetry_Int_Tables_number   1
_chemical_formula_structural   Sb4IO6
_chemical_formula_sum   'Sb8 I2 O12'
_cell_volume   424.95382390
_cell_formula_units_Z   2
loop_
 _symmetry_equiv_pos_site_id
 _symmetry_equiv_pos_as_xyz
  1  'x, y, z'
loop_
 _atom_site_type_symbol
 _atom_site_label
 _atom_site_symmetry_multiplicity
 _atom_site_fract_x
 _atom_site_fract_y
 _atom_site_fract_z
 _atom_site_occupancy
  Sb  Sb0  1  0.26634730  0.53269461  0.16757970  1
  Sb  Sb1  1  0.73365270  0.46730539  0.83242030  1
  Sb  Sb2  1  0.49499280  0.98998560  0.26889151  1
  Sb  Sb3  1  0.50500720  0.01001440  0.73110849  1
  Sb  Sb4  1  0.07991591  0.15983181  0.97985757  1
  Sb  Sb5  1  0.92008409  0.84016819  0.02014243  1
  Sb  Sb6  1  0.30892885  0.61785770  0.66563534  1
  Sb  Sb7  1  0.69107115  0.38214230  0.33436466  1
  I  I8  1  0.11062087  0.22124174  0.52257554  1
  I  I9  1  0.88937913  0.77875826  0.47742446  1
  O  O10  1  0.26644040  0.53288081  0.80940230  1
  O  O11  1  0.73355960  0.46711919  0.19059770  1
  O  O12  1  0.03151234  0.06302468  0.79044736  1
  O  O13  1  0.96848766  0.93697532  0.20955264  1
  O  O14  1  0.42989645  0.85979289  0.08081405  1
  O  O15  1  0.57010355  0.14020711  0.91918595  1
  O  O16  1  0.20445570  0.40891139  0.28929232  1
  O  O17  1  0.79554430  0.59108861  0.71070768  1
  O  O18  1  0.18682527  0.37365054  0.99813793  1
  O  O19  1  0.81317473  0.62634946  0.00186207  1
  O  O20  1  0.41341108  0.82682216  0.78091064  1
  O  O21  1  0.58658892  0.17317784  0.21908936  1
