# generated using pymatgen
data_K2Fe(PSe3)2
_symmetry_space_group_name_H-M   'P 1'
_cell_length_a   6.43313324
_cell_length_b   7.72424888
_cell_length_c   13.03962600
_cell_angle_alpha   90.00000000
_cell_angle_beta   90.00000000
_cell_angle_gamma   102.66796578
_symmetry_Int_Tables_number   1
_chemical_formula_structural   K2Fe(PSe3)2
_chemical_formula_sum   'K4 Fe2 P4 Se12'
_cell_volume   632.18071407
_cell_formula_units_Z   2
loop_
 _symmetry_equiv_pos_site_id
 _symmetry_equiv_pos_as_xyz
  1  'x, y, z'
loop_
 _atom_site_type_symbol
 _atom_site_label
 _atom_site_symmetry_multiplicity
 _atom_site_fract_x
 _atom_site_fract_y
 _atom_site_fract_z
 _atom_site_occupancy
  K  K0  1  0.72478482  0.54415432  0.69333022  1
  K  K1  1  0.22478482  0.04415432  0.80666978  1
  K  K2  1  0.27521518  0.45584568  0.30666978  1
  K  K3  1  0.77521518  0.95584568  0.19333022  1
  Fe  Fe4  1  -0.00000000  0.50000000  0.00000000  1
  Fe  Fe5  1  0.50000000  -0.00000000  0.50000000  1
  P  P6  1  0.51667633  0.36822640  0.03304004  1
  P  P7  1  0.01667633  0.86822640  0.46695996  1
  P  P8  1  0.48332367  0.63177360  0.96695996  1
  P  P9  1  0.98332367  0.13177360  0.53304004  1
  Se  Se10  1  0.72740601  0.43482678  0.16703133  1
  Se  Se11  1  0.22740601  0.93482678  0.33296867  1
  Se  Se12  1  0.27259399  0.56517322  0.83296867  1
  Se  Se13  1  0.77259399  0.06517322  0.66703133  1
  Se  Se14  1  0.69581977  0.25309987  0.91690107  1
  Se  Se15  1  0.19581977  0.75309987  0.58309893  1
  Se  Se16  1  0.30418023  0.74690013  0.08309893  1
  Se  Se17  1  0.80418023  0.24690013  0.41690107  1
  Se  Se18  1  0.17678064  0.23992787  0.05649564  1
  Se  Se19  1  0.67678064  0.73992787  0.44350436  1
  Se  Se20  1  0.82321936  0.76007213  0.94350436  1
  Se  Se21  1  0.32321936  0.26007213  0.55649564  1
