# generated using pymatgen
data_Tm8Rh5C12
_symmetry_space_group_name_H-M   'P 1'
_cell_length_a   3.48149425
_cell_length_b   7.34560049
_cell_length_c   13.99141719
_cell_angle_alpha   94.38897293
_cell_angle_beta   97.14699447
_cell_angle_gamma   90.00000000
_symmetry_Int_Tables_number   1
_chemical_formula_structural   Tm8Rh5C12
_chemical_formula_sum   'Tm8 Rh5 C12'
_cell_volume   353.97418618
_cell_formula_units_Z   1
loop_
 _symmetry_equiv_pos_site_id
 _symmetry_equiv_pos_as_xyz
  1  'x, y, z'
loop_
 _atom_site_type_symbol
 _atom_site_label
 _atom_site_symmetry_multiplicity
 _atom_site_fract_x
 _atom_site_fract_y
 _atom_site_fract_z
 _atom_site_occupancy
  Tm  Tm0  1  0.70684466  0.11545944  0.41368931  1
  Tm  Tm1  1  0.29315534  0.88454056  0.58631069  1
  Tm  Tm2  1  0.70007772  0.60933876  0.40015544  1
  Tm  Tm3  1  0.29992228  0.39066124  0.59984456  1
  Tm  Tm4  1  0.58801251  0.82790695  0.17602502  1
  Tm  Tm5  1  0.41198749  0.17209305  0.82397498  1
  Tm  Tm6  1  0.54696211  0.29625897  0.09392422  1
  Tm  Tm7  1  0.45303789  0.70374103  0.90607578  1
  Rh  Rh8  1  -0.00000000  0.00000000  -0.00000000  1
  Rh  Rh9  1  0.88953637  0.50535209  0.77907273  1
  Rh  Rh10  1  0.11046363  0.49464791  0.22092727  1
  Rh  Rh11  1  0.88371282  0.87377167  0.76742563  1
  Rh  Rh12  1  0.11628718  0.12622833  0.23257437  1
  C  C13  1  0.97727794  0.24557181  0.95455587  1
  C  C14  1  0.02272206  0.75442819  0.04544413  1
  C  C15  1  0.95224214  0.38746769  0.90448429  1
  C  C16  1  0.04775786  0.61253231  0.09551571  1
  C  C17  1  0.83141969  0.65333968  0.66283938  1
  C  C18  1  0.16858031  0.34666032  0.33716062  1
  C  C19  1  0.78305349  0.63477113  0.56610698  1
  C  C20  1  0.21694651  0.36522887  0.43389302  1
  C  C21  1  0.84150590  0.12767096  0.68301179  1
  C  C22  1  0.15849410  0.87232904  0.31698821  1
  C  C23  1  0.79256570  0.13120837  0.58513141  1
  C  C24  1  0.20743430  0.86879163  0.41486859  1
