# generated using pymatgen
data_Ba8CuSi16
_symmetry_space_group_name_H-M   'P 1'
_cell_length_a   7.04657473
_cell_length_b   8.38448848
_cell_length_c   12.34489037
_cell_angle_alpha   89.02030003
_cell_angle_beta   91.30259122
_cell_angle_gamma   94.19787589
_symmetry_Int_Tables_number   1
_chemical_formula_structural   Ba8CuSi16
_chemical_formula_sum   'Ba8 Cu1 Si16'
_cell_volume   727.12804397
_cell_formula_units_Z   1
loop_
 _symmetry_equiv_pos_site_id
 _symmetry_equiv_pos_as_xyz
  1  'x, y, z'
loop_
 _atom_site_type_symbol
 _atom_site_label
 _atom_site_symmetry_multiplicity
 _atom_site_fract_x
 _atom_site_fract_y
 _atom_site_fract_z
 _atom_site_occupancy
  Ba  Ba0  1  0.74518511  0.01013309  0.28136200  1
  Ba  Ba1  1  0.27076101  0.50584086  0.79597916  1
  Ba  Ba2  1  0.30733172  0.01607244  0.71228843  1
  Ba  Ba3  1  0.66061780  0.52986760  0.22485939  1
  Ba  Ba4  1  0.77415725  0.16954342  0.91308985  1
  Ba  Ba5  1  0.19867696  0.34695170  0.41899208  1
  Ba  Ba6  1  0.27485455  0.79095481  0.06525574  1
  Ba  Ba7  1  0.69590513  0.69111175  0.58291471  1
  Cu  Cu8  1  0.00109808  0.96504383  0.51527487  1
  Si  Si9  1  0.76230170  0.55498820  0.92054304  1
  Si  Si10  1  0.25431695  0.96529479  0.40073752  1
  Si  Si11  1  0.25313049  0.39552149  0.07125994  1
  Si  Si12  1  0.72982093  0.07678645  0.58013013  1
  Si  Si13  1  0.77645639  0.80303196  0.02643054  1
  Si  Si14  1  0.20798449  0.72795635  0.53836460  1
  Si  Si15  1  0.27503023  0.16700365  0.95649210  1
  Si  Si16  1  0.70784152  0.32726501  0.47262655  1
  Si  Si17  1  0.94124017  0.79704119  0.85612393  1
  Si  Si18  1  0.02861434  0.72179586  0.37111483  1
  Si  Si19  1  0.45356784  0.18343564  0.12538234  1
  Si  Si20  1  0.62706409  0.31768734  0.65040573  1
  Si  Si21  1  0.11512203  0.10314259  0.12692603  1
  Si  Si22  1  0.96642451  0.32633433  0.16945559  1
  Si  Si23  1  0.60325696  0.79008458  0.85620852  1
  Si  Si24  1  0.36923974  0.71711107  0.36778235  1
