# generated using pymatgen
data_Mg7VH16
_symmetry_space_group_name_H-M   'P 1'
_cell_length_a   6.56760552
_cell_length_b   6.56760552
_cell_length_c   6.56760552
_cell_angle_alpha   60.00000000
_cell_angle_beta   60.00000000
_cell_angle_gamma   60.00000000
_symmetry_Int_Tables_number   1
_chemical_formula_structural   Mg7VH16
_chemical_formula_sum   'Mg7 V1 H16'
_cell_volume   200.31163693
_cell_formula_units_Z   1
loop_
 _symmetry_equiv_pos_site_id
 _symmetry_equiv_pos_as_xyz
  1  'x, y, z'
loop_
 _atom_site_type_symbol
 _atom_site_label
 _atom_site_symmetry_multiplicity
 _atom_site_fract_x
 _atom_site_fract_y
 _atom_site_fract_z
 _atom_site_occupancy
  Mg  Mg0  1  0.50000000  0.00000000  0.00000000  1
  Mg  Mg1  1  0.50000000  0.00000000  0.50000000  1
  Mg  Mg2  1  0.50000000  0.50000000  0.00000000  1
  Mg  Mg3  1  0.00000000  0.50000000  0.50000000  1
  Mg  Mg4  1  0.00000000  0.50000000  0.00000000  1
  Mg  Mg5  1  0.00000000  0.00000000  0.50000000  1
  Mg  Mg6  1  0.50000000  0.50000000  0.50000000  1
  V  V7  1  0.00000000  0.00000000  0.00000000  1
  H  H8  1  0.65275627  0.11574791  0.11574791  1
  H  H9  1  0.11574791  0.65275627  0.11574791  1
  H  H10  1  0.11574791  0.11574791  0.65275627  1
  H  H11  1  0.11574791  0.11574791  0.11574791  1
  H  H12  1  0.34724373  0.88425209  0.88425209  1
  H  H13  1  0.88425209  0.34724373  0.88425209  1
  H  H14  1  0.88425209  0.88425209  0.34724373  1
  H  H15  1  0.88425209  0.88425209  0.88425209  1
  H  H16  1  0.88475760  0.37174747  0.37174747  1
  H  H17  1  0.37174747  0.88475760  0.37174747  1
  H  H18  1  0.37174747  0.37174747  0.88475760  1
  H  H19  1  0.37174747  0.37174747  0.37174747  1
  H  H20  1  0.11524240  0.62825253  0.62825253  1
  H  H21  1  0.62825253  0.11524240  0.62825253  1
  H  H22  1  0.62825253  0.62825253  0.11524240  1
  H  H23  1  0.62825253  0.62825253  0.62825253  1
