# generated using pymatgen
data_Zr2Re
_symmetry_space_group_name_H-M   'P 1'
_cell_length_a   5.68209905
_cell_length_b   10.22281116
_cell_length_c   10.22281116
_cell_angle_alpha   90.00000000
_cell_angle_beta   90.00000000
_cell_angle_gamma   90.00000000
_symmetry_Int_Tables_number   1
_chemical_formula_structural   Zr2Re
_chemical_formula_sum   'Zr20 Re10'
_cell_volume   593.81269336
_cell_formula_units_Z   10
loop_
 _symmetry_equiv_pos_site_id
 _symmetry_equiv_pos_as_xyz
  1  'x, y, z'
loop_
 _atom_site_type_symbol
 _atom_site_label
 _atom_site_symmetry_multiplicity
 _atom_site_fract_x
 _atom_site_fract_y
 _atom_site_fract_z
 _atom_site_occupancy
  Zr  Zr0  1  0.50000000  0.10137637  0.89862363  1
  Zr  Zr1  1  0.50000000  0.89862363  0.10137637  1
  Zr  Zr2  1  0.00000000  0.39862363  0.39862363  1
  Zr  Zr3  1  0.00000000  0.60137637  0.60137637  1
  Zr  Zr4  1  0.50000000  0.37009634  0.96530887  1
  Zr  Zr5  1  0.50000000  0.62990366  0.03469113  1
  Zr  Zr6  1  0.00000000  0.12990366  0.46530887  1
  Zr  Zr7  1  0.00000000  0.87009634  0.53469113  1
  Zr  Zr8  1  0.50000000  0.96530887  0.37009634  1
  Zr  Zr9  1  0.50000000  0.03469113  0.62990366  1
  Zr  Zr10  1  0.00000000  0.46530887  0.12990366  1
  Zr  Zr11  1  0.00000000  0.53469113  0.87009634  1
  Zr  Zr12  1  0.24925914  0.31808881  0.68191119  1
  Zr  Zr13  1  0.24925914  0.68191119  0.31808881  1
  Zr  Zr14  1  0.74925914  0.18191119  0.18191119  1
  Zr  Zr15  1  0.74925914  0.81808881  0.81808881  1
  Zr  Zr16  1  0.75074086  0.68191119  0.31808881  1
  Zr  Zr17  1  0.75074086  0.31808881  0.68191119  1
  Zr  Zr18  1  0.25074086  0.81808881  0.81808881  1
  Zr  Zr19  1  0.25074086  0.18191119  0.18191119  1
  Re  Re20  1  0.50000000  0.50000000  0.50000000  1
  Re  Re21  1  0.00000000  0.00000000  -0.00000000  1
  Re  Re22  1  0.50000000  0.43080207  0.25154861  1
  Re  Re23  1  0.50000000  0.56919793  0.74845139  1
  Re  Re24  1  0.00000000  0.06919793  0.75154861  1
  Re  Re25  1  0.00000000  0.93080207  0.24845139  1
  Re  Re26  1  0.50000000  0.25154861  0.43080207  1
  Re  Re27  1  0.50000000  0.74845139  0.56919793  1
  Re  Re28  1  0.00000000  0.75154861  0.06919793  1
  Re  Re29  1  0.00000000  0.24845139  0.93080207  1
