# generated using pymatgen
data_Cu3(I3O10)2
_symmetry_space_group_name_H-M   'P 1'
_cell_length_a   7.26239863
_cell_length_b   7.78225733
_cell_length_c   8.17369820
_cell_angle_alpha   105.50032257
_cell_angle_beta   95.18989078
_cell_angle_gamma   93.62513726
_symmetry_Int_Tables_number   1
_chemical_formula_structural   Cu3(I3O10)2
_chemical_formula_sum   'Cu3 I6 O20'
_cell_volume   441.49047937
_cell_formula_units_Z   1
loop_
 _symmetry_equiv_pos_site_id
 _symmetry_equiv_pos_as_xyz
  1  'x, y, z'
loop_
 _atom_site_type_symbol
 _atom_site_label
 _atom_site_symmetry_multiplicity
 _atom_site_fract_x
 _atom_site_fract_y
 _atom_site_fract_z
 _atom_site_occupancy
  Cu  Cu0  1  0.00000000  -0.00000000  -0.00000000  1
  Cu  Cu1  1  0.41886942  0.37538427  0.58655466  1
  Cu  Cu2  1  0.58113058  0.62461573  0.41344534  1
  I  I3  1  0.60350634  0.87562671  0.13713716  1
  I  I4  1  0.39649366  0.12437329  0.86286284  1
  I  I5  1  0.85732526  0.39996560  0.14667578  1
  I  I6  1  0.14267474  0.60003440  0.85332422  1
  I  I7  1  0.18431566  0.85261267  0.40342516  1
  I  I8  1  0.81568434  0.14738733  0.59657484  1
  O  O9  1  0.53032979  0.18980766  0.07347384  1
  O  O10  1  0.46967021  0.81019234  0.92652616  1
  O  O11  1  0.58213069  0.65257247  0.17936374  1
  O  O12  1  0.41786931  0.34742753  0.82063626  1
  O  O13  1  0.83959981  0.83425718  0.06191717  1
  O  O14  1  0.16040019  0.16574282  0.93808283  1
  O  O15  1  0.79636076  0.47599066  0.36817519  1
  O  O16  1  0.20363924  0.52400934  0.63182481  1
  O  O17  1  0.08138793  0.52985533  0.18195017  1
  O  O18  1  0.91861207  0.47014467  0.81804983  1
  O  O19  1  0.93007740  0.18262794  0.18265807  1
  O  O20  1  0.06992260  0.81737206  0.81734193  1
  O  O21  1  0.41561707  0.81161069  0.49491536  1
  O  O22  1  0.58438293  0.18838931  0.50508464  1
  O  O23  1  0.80587601  0.91901315  0.45194027  1
  O  O24  1  0.19412399  0.08098685  0.54805973  1
  O  O25  1  0.24960843  0.89725152  0.20649005  1
  O  O26  1  0.75039157  0.10274848  0.79350995  1
  O  O27  1  0.39857722  0.41845240  0.36772608  1
  O  O28  1  0.60142278  0.58154760  0.63227392  1
