# generated using pymatgen
data_As4(Pb3S5)3
_symmetry_space_group_name_H-M   'P 1'
_cell_length_a   8.80297296
_cell_length_b   10.85735444
_cell_length_c   10.85735444
_cell_angle_alpha   112.98176359
_cell_angle_beta   105.67982628
_cell_angle_gamma   105.67982628
_symmetry_Int_Tables_number   1
_chemical_formula_structural   As4(Pb3S5)3
_chemical_formula_sum   'As4 Pb9 S15'
_cell_volume   833.04493583
_cell_formula_units_Z   1
loop_
 _symmetry_equiv_pos_site_id
 _symmetry_equiv_pos_as_xyz
  1  'x, y, z'
loop_
 _atom_site_type_symbol
 _atom_site_label
 _atom_site_symmetry_multiplicity
 _atom_site_fract_x
 _atom_site_fract_y
 _atom_site_fract_z
 _atom_site_occupancy
  As  As0  1  0.43272341  0.37391828  1.00000000  1
  As  As1  1  0.05880514  0.62608172  0.62608172  1
  As  As2  1  0.43272341  1.00000000  0.37391828  1
  As  As3  1  0.94792096  1.00000000  1.00000000  1
  Pb  Pb4  1  0.73025850  0.76703026  0.52335189  1
  Pb  Pb5  1  0.96322824  0.75632163  0.23296974  1
  Pb  Pb6  1  0.20690661  0.47664811  0.24367837  1
  Pb  Pb7  1  0.20690661  0.24367837  0.47664811  1
  Pb  Pb8  1  0.96322824  0.23296974  0.75632163  1
  Pb  Pb9  1  0.73025850  0.52335189  0.76703026  1
  Pb  Pb10  1  0.39138354  0.69249925  1.00000000  1
  Pb  Pb11  1  0.69888429  0.30750075  0.30750075  1
  Pb  Pb12  1  0.39138354  1.00000000  0.69249925  1
  S  S13  1  0.61601903  0.61331980  0.19178683  1
  S  S14  1  0.00269923  0.57846703  0.38668020  1
  S  S15  1  0.42423220  0.80821317  0.42153297  1
  S  S16  1  0.42423220  0.42153297  0.80821317  1
  S  S17  1  0.00269923  0.38668020  0.57846703  1
  S  S18  1  0.61601903  0.19178683  0.61331980  1
  S  S19  1  0.76512854  0.80469129  0.00000000  1
  S  S20  1  0.96043725  0.19530871  0.19530871  1
  S  S21  1  0.76512854  0.00000000  0.80469129  1
  S  S22  1  0.58613671  0.24360738  0.00000000  1
  S  S23  1  0.34252933  0.75639262  0.75639262  1
  S  S24  1  0.58613671  0.00000000  0.24360738  1
  S  S25  1  0.06049486  0.51039357  1.00000000  1
  S  S26  1  0.55010129  0.48960643  0.48960643  1
  S  S27  1  0.06049486  1.00000000  0.51039357  1
