# generated using pymatgen
data_Gd6Mn23
_symmetry_space_group_name_H-M   'P 1'
_cell_length_a   8.60295974
_cell_length_b   8.60295974
_cell_length_c   8.60295974
_cell_angle_alpha   60.00000000
_cell_angle_beta   60.00000000
_cell_angle_gamma   60.00000000
_symmetry_Int_Tables_number   1
_chemical_formula_structural   Gd6Mn23
_chemical_formula_sum   'Gd6 Mn23'
_cell_volume   450.22403260
_cell_formula_units_Z   1
loop_
 _symmetry_equiv_pos_site_id
 _symmetry_equiv_pos_as_xyz
  1  'x, y, z'
loop_
 _atom_site_type_symbol
 _atom_site_label
 _atom_site_symmetry_multiplicity
 _atom_site_fract_x
 _atom_site_fract_y
 _atom_site_fract_z
 _atom_site_occupancy
  Gd  Gd0  1  0.71022991  0.28977009  0.28977009  1
  Gd  Gd1  1  0.71022991  0.28977009  0.71022991  1
  Gd  Gd2  1  0.71022991  0.71022991  0.28977009  1
  Gd  Gd3  1  0.28977009  0.71022991  0.71022991  1
  Gd  Gd4  1  0.28977009  0.71022991  0.28977009  1
  Gd  Gd5  1  0.28977009  0.28977009  0.71022991  1
  Mn  Mn6  1  -0.00000000  -0.00000000  0.00000000  1
  Mn  Mn7  1  0.50000000  -0.00000000  0.00000000  1
  Mn  Mn8  1  0.50000000  -0.00000000  0.50000000  1
  Mn  Mn9  1  0.50000000  0.50000000  0.00000000  1
  Mn  Mn10  1  -0.00000000  0.50000000  0.50000000  1
  Mn  Mn11  1  -0.00000000  0.50000000  0.00000000  1
  Mn  Mn12  1  -0.00000000  -0.00000000  0.50000000  1
  Mn  Mn13  1  0.64204210  0.11931930  0.11931930  1
  Mn  Mn14  1  0.11931930  0.64204210  0.11931930  1
  Mn  Mn15  1  0.11931930  0.11931930  0.64204210  1
  Mn  Mn16  1  0.11931930  0.11931930  0.11931930  1
  Mn  Mn17  1  0.35795790  0.88068070  0.88068070  1
  Mn  Mn18  1  0.88068070  0.35795790  0.88068070  1
  Mn  Mn19  1  0.88068070  0.88068070  0.35795790  1
  Mn  Mn20  1  0.88068070  0.88068070  0.88068070  1
  Mn  Mn21  1  0.03230437  0.32256521  0.32256521  1
  Mn  Mn22  1  0.32256521  0.03230437  0.32256521  1
  Mn  Mn23  1  0.32256521  0.32256521  0.03230437  1
  Mn  Mn24  1  0.32256521  0.32256521  0.32256521  1
  Mn  Mn25  1  0.96769563  0.67743479  0.67743479  1
  Mn  Mn26  1  0.67743479  0.96769563  0.67743479  1
  Mn  Mn27  1  0.67743479  0.67743479  0.96769563  1
  Mn  Mn28  1  0.67743479  0.67743479  0.67743479  1
