# generated using pymatgen
data_VCdCoO5
_symmetry_space_group_name_H-M   'P 1'
_cell_length_a   5.94092357
_cell_length_b   8.00800870
_cell_length_c   8.84148409
_cell_angle_alpha   90.00000000
_cell_angle_beta   90.00000000
_cell_angle_gamma   90.00000000
_symmetry_Int_Tables_number   1
_chemical_formula_structural   VCdCoO5
_chemical_formula_sum   'V4 Cd4 Co4 O20'
_cell_volume   420.63331942
_cell_formula_units_Z   4
loop_
 _symmetry_equiv_pos_site_id
 _symmetry_equiv_pos_as_xyz
  1  'x, y, z'
loop_
 _atom_site_type_symbol
 _atom_site_label
 _atom_site_symmetry_multiplicity
 _atom_site_fract_x
 _atom_site_fract_y
 _atom_site_fract_z
 _atom_site_occupancy
  V  V0  1  0.75000000  0.34787739  0.31776578  1
  V  V1  1  0.75000000  0.84787739  0.18223422  1
  V  V2  1  0.25000000  0.65212261  0.68223422  1
  V  V3  1  0.25000000  0.15212261  0.81776578  1
  Cd  Cd4  1  0.25000000  0.63361572  0.31922001  1
  Cd  Cd5  1  0.25000000  0.13361572  0.18077999  1
  Cd  Cd6  1  0.75000000  0.36638428  0.68077999  1
  Cd  Cd7  1  0.75000000  0.86638428  0.81922001  1
  Co  Co8  1  -0.00000000  0.00000000  0.50000000  1
  Co  Co9  1  0.50000000  0.50000000  0.00000000  1
  Co  Co10  1  0.50000000  -0.00000000  0.50000000  1
  Co  Co11  1  -0.00000000  0.50000000  0.00000000  1
  O  O12  1  0.50492195  0.36582925  0.20566257  1
  O  O13  1  0.99507805  0.86582925  0.29433743  1
  O  O14  1  0.00492195  0.63417075  0.79433743  1
  O  O15  1  0.49507805  0.13417075  0.70566257  1
  O  O16  1  0.49507805  0.63417075  0.79433743  1
  O  O17  1  0.00492195  0.13417075  0.70566257  1
  O  O18  1  0.99507805  0.36582925  0.20566257  1
  O  O19  1  0.50492195  0.86582925  0.29433743  1
  O  O20  1  0.75000000  0.15103299  0.40726283  1
  O  O21  1  0.75000000  0.65103299  0.09273717  1
  O  O22  1  0.25000000  0.84896701  0.59273717  1
  O  O23  1  0.25000000  0.34896701  0.90726283  1
  O  O24  1  0.25000000  0.11914064  0.42686415  1
  O  O25  1  0.25000000  0.61914064  0.07313585  1
  O  O26  1  0.75000000  0.88085936  0.57313585  1
  O  O27  1  0.75000000  0.38085936  0.92686415  1
  O  O28  1  0.75000000  0.49362904  0.46033938  1
  O  O29  1  0.75000000  0.99362904  0.03966062  1
  O  O30  1  0.25000000  0.50637096  0.53966062  1
  O  O31  1  0.25000000  0.00637096  0.96033938  1
