# generated using pymatgen
data_MnH7C3NO6
_symmetry_space_group_name_H-M   'P 1'
_cell_length_a   8.68789883
_cell_length_b   12.84709792
_cell_length_c   12.84623874
_cell_angle_alpha   120.00065230
_cell_angle_beta   90.00000000
_cell_angle_gamma   90.00000000
_symmetry_Int_Tables_number   1
_chemical_formula_structural   MnH7C3NO6
_chemical_formula_sum   'Mn6 H42 C18 N6 O36'
_cell_volume   1241.71965380
_cell_formula_units_Z   6
loop_
 _symmetry_equiv_pos_site_id
 _symmetry_equiv_pos_as_xyz
  1  'x, y, z'
loop_
 _atom_site_type_symbol
 _atom_site_label
 _atom_site_symmetry_multiplicity
 _atom_site_fract_x
 _atom_site_fract_y
 _atom_site_fract_z
 _atom_site_occupancy
  Mn  Mn0  1  0.08028004  0.99520300  0.66425582  1
  Mn  Mn1  1  0.08002643  0.33588370  0.33071470  1
  Mn  Mn2  1  0.08008511  0.66929897  0.00515700  1
  Mn  Mn3  1  0.58028004  0.00479700  0.33574418  1
  Mn  Mn4  1  0.58002643  0.66411630  0.66928530  1
  Mn  Mn5  1  0.58008511  0.33070103  0.99484300  1
  H  H6  1  0.85850705  0.15714950  0.87518050  1
  H  H7  1  0.85851107  0.12479964  0.28196572  1
  H  H8  1  0.85855066  0.71806743  0.84286278  1
  H  H9  1  0.35850705  0.84285050  0.12481950  1
  H  H10  1  0.35851107  0.87520036  0.71803428  1
  H  H11  1  0.35855066  0.28193257  0.15713722  1
  H  H12  1  0.87123765  0.04848003  0.49995196  1
  H  H13  1  0.87122883  0.50006285  0.54854137  1
  H  H14  1  0.87133070  0.45152238  0.95152246  1
  H  H15  1  0.37123765  0.95151997  0.50004804  1
  H  H16  1  0.37122883  0.49993715  0.45145863  1
  H  H17  1  0.37133070  0.54847762  0.04847754  1
  H  H18  1  0.78638582  0.83633327  0.61954916  1
  H  H19  1  0.78630004  0.38043546  0.21676385  1
  H  H20  1  0.78634621  0.78319389  0.16365700  1
  H  H21  1  0.28638582  0.16366673  0.38045084  1
  H  H22  1  0.28630004  0.61956454  0.78323615  1
  H  H23  1  0.28634621  0.21680611  0.83634300  1
  H  H24  1  0.17503796  0.36329131  0.60831462  1
  H  H25  1  0.17501963  0.39170702  0.75497365  1
  H  H26  1  0.17500931  0.24507619  0.63672367  1
  H  H27  1  0.67503796  0.63670869  0.39168538  1
  H  H28  1  0.67501963  0.60829298  0.24502635  1
  H  H29  1  0.67500931  0.75492381  0.36327633  1
  H  H30  1  0.01906077  0.33338153  0.66666283  1
  H  H31  1  0.51906077  0.66661847  0.33333717  1
  H  H32  1  0.17379695  0.57914277  0.30599326  1
  H  H33  1  0.17379171  0.69398022  0.27323003  1
  H  H34  1  0.17375026  0.72679038  0.42086943  1
  H  H35  1  0.67379695  0.42085723  0.69400674  1
  H  H36  1  0.67379171  0.30601978  0.72676997  1
  H  H37  1  0.67375026  0.27320962  0.57913057  1
  H  H38  1  0.01726078  0.66661595  0.33332653  1
  H  H39  1  0.51726078  0.33338405  0.66667347  1
  H  H40  1  0.48086408  0.02670183  0.08747299  1
  H  H41  1  0.48085327  0.91258571  0.93923431  1
  H  H42  1  0.48090043  0.06077033  0.97333054  1
  H  H43  1  0.98086408  0.97329817  0.91252701  1
  H  H44  1  0.98085327  0.08741429  0.06076569  1
  H  H45  1  0.98090043  0.93922967  0.02666946  1
  H  H46  1  0.63719441  0.99999278  0.99999315  1
  H  H47  1  0.13719441  0.00000722  0.00000685  1
  C  C48  1  0.84156806  0.19069104  0.81158658  1
  C  C49  1  0.84150867  0.18836680  0.37908058  1
  C  C50  1  0.84151654  0.62099340  0.80938640  1
  C  C51  1  0.34156806  0.80930896  0.18841342  1
  C  C52  1  0.34150867  0.81163320  0.62091942  1
  C  C53  1  0.34151654  0.37900660  0.19061360  1
  C  C54  1  0.84374702  0.95378062  0.47086147  1
  C  C55  1  0.84362605  0.52917776  0.48296133  1
  C  C56  1  0.84370060  0.51704683  0.04622127  1
  C  C57  1  0.34374702  0.04621938  0.52913853  1
  C  C58  1  0.34362605  0.47082224  0.51703867  1
  C  C59  1  0.34370060  0.48295317  0.95377873  1
  C  C60  1  0.81117911  0.86385470  0.71443522  1
  C  C61  1  0.81114957  0.28557077  0.14936826  1
  C  C62  1  0.81117695  0.85059965  0.13618475  1
  C  C63  1  0.31117911  0.13614530  0.28556478  1
  C  C64  1  0.31114957  0.71442923  0.85063174  1
  C  C65  1  0.31117695  0.14940035  0.86381525  1
  N  N66  1  0.13695139  0.33337494  0.66667834  1
  N  N67  1  0.63695139  0.66662506  0.33332166  1
  N  N68  1  0.13504536  0.66663086  0.33336434  1
  N  N69  1  0.63504536  0.33336914  0.66663566  1
  N  N70  1  0.51937754  0.00001732  0.00001591  1
  N  N71  1  0.01937754  0.99998268  0.99998409  1
  O  O72  1  0.93425752  0.15804507  0.72508763  1
  O  O73  1  0.93415869  0.27491556  0.43289945  1
  O  O74  1  0.93417444  0.56722681  0.84219903  1
  O  O75  1  0.43425752  0.84195493  0.27491237  1
  O  O76  1  0.43415869  0.72508444  0.56710055  1
  O  O77  1  0.43417444  0.43277319  0.15780097  1
  O  O78  1  0.72757929  0.26152669  0.83261970  1
  O  O79  1  0.72757620  0.16724845  0.42885429  1
  O  O80  1  0.72762523  0.57119429  0.73850345  1
  O  O81  1  0.22757929  0.73847331  0.16738030  1
  O  O82  1  0.22757620  0.83275155  0.57114571  1
  O  O83  1  0.22762523  0.42880571  0.26149655  1
  O  O84  1  0.93133471  0.89777096  0.50463567  1
  O  O85  1  0.93115238  0.49542076  0.39311730  1
  O  O86  1  0.93126505  0.60684797  0.10239256  1
  O  O87  1  0.43133471  0.10222904  0.49536433  1
  O  O88  1  0.43115238  0.50457924  0.60688270  1
  O  O89  1  0.43126505  0.39315203  0.89760744  1
  O  O90  1  0.72449725  0.90878828  0.40528042  1
  O  O91  1  0.72437610  0.59474988  0.50360683  1
  O  O92  1  0.72437623  0.49638664  0.09106202  1
  O  O93  1  0.22449725  0.09121172  0.59471958  1
  O  O94  1  0.22437610  0.40525012  0.49639317  1
  O  O95  1  0.22437623  0.50361336  0.90893798  1
  O  O96  1  0.92859291  0.93108591  0.76158992  1
  O  O97  1  0.92850945  0.23837703  0.16944466  1
  O  O98  1  0.92870343  0.83055594  0.06901500  1
  O  O99  1  0.42859291  0.06891409  0.23841008  1
  O  O100  1  0.42850945  0.76162297  0.83055534  1
  O  O101  1  0.42870343  0.16944406  0.93098500  1
  O  O102  1  0.72371839  0.82743147  0.76836514  1
  O  O103  1  0.72379085  0.23164449  0.05892701  1
  O  O104  1  0.72378585  0.94092881  0.17256408  1
  O  O105  1  0.22371839  0.17256853  0.23163486  1
  O  O106  1  0.22379085  0.76835551  0.94107299  1
  O  O107  1  0.22378585  0.05907119  0.82743592  1
