# generated using pymatgen
data_H12C2S(NO2)2
_symmetry_space_group_name_H-M   'P 1'
_cell_length_a   9.05300537
_cell_length_b   13.35103736
_cell_length_c   13.84092299
_cell_angle_alpha   112.06635660
_cell_angle_beta   90.00000000
_cell_angle_gamma   90.00000000
_symmetry_Int_Tables_number   1
_chemical_formula_structural   H12C2S(NO2)2
_chemical_formula_sum   'H96 C16 S8 N16 O32'
_cell_volume   1550.36925840
_cell_formula_units_Z   8
loop_
 _symmetry_equiv_pos_site_id
 _symmetry_equiv_pos_as_xyz
  1  'x, y, z'
loop_
 _atom_site_type_symbol
 _atom_site_label
 _atom_site_symmetry_multiplicity
 _atom_site_fract_x
 _atom_site_fract_y
 _atom_site_fract_z
 _atom_site_occupancy
  H  H0  1  0.88002577  0.89032945  0.75948236  1
  H  H1  1  0.38002577  0.10967055  0.74051764  1
  H  H2  1  0.11997423  0.10967055  0.24051764  1
  H  H3  1  0.61997423  0.89032945  0.25948236  1
  H  H4  1  0.00598611  0.94371591  0.85692876  1
  H  H5  1  0.50598611  0.05628409  0.64307124  1
  H  H6  1  0.99401389  0.05628409  0.14307124  1
  H  H7  1  0.49401389  0.94371591  0.35692876  1
  H  H8  1  0.84525675  0.89414413  0.88257236  1
  H  H9  1  0.34525675  0.10585587  0.61742764  1
  H  H10  1  0.15474325  0.10585587  0.11742764  1
  H  H11  1  0.65474325  0.89414413  0.38257236  1
  H  H12  1  0.66520032  0.10657127  0.06220580  1
  H  H13  1  0.16520032  0.89342873  0.43779420  1
  H  H14  1  0.33479968  0.89342873  0.93779420  1
  H  H15  1  0.83479968  0.10657127  0.56220580  1
  H  H16  1  0.65018041  0.23322656  0.06010874  1
  H  H17  1  0.15018041  0.76677344  0.43989126  1
  H  H18  1  0.34981959  0.76677344  0.93989126  1
  H  H19  1  0.84981959  0.23322656  0.56010874  1
  H  H20  1  0.50505249  0.14455895  0.02202520  1
  H  H21  1  0.00505249  0.85544105  0.47797480  1
  H  H22  1  0.49494751  0.85544105  0.97797480  1
  H  H23  1  0.99494751  0.14455895  0.52202520  1
  H  H24  1  0.38800649  0.25113232  0.40962638  1
  H  H25  1  0.88800649  0.74886768  0.09037362  1
  H  H26  1  0.61199351  0.74886768  0.59037362  1
  H  H27  1  0.11199351  0.25113232  0.90962638  1
  H  H28  1  0.52618985  0.34375215  0.44026796  1
  H  H29  1  0.02618985  0.65624785  0.05973204  1
  H  H30  1  0.47381015  0.65624785  0.55973204  1
  H  H31  1  0.97381015  0.34375215  0.94026796  1
  H  H32  1  0.36570623  0.36958597  0.39207564  1
  H  H33  1  0.86570623  0.63041403  0.10792436  1
  H  H34  1  0.63429377  0.63041403  0.60792436  1
  H  H35  1  0.13429377  0.36958597  0.89207564  1
  H  H36  1  0.67440223  0.44241330  0.89879320  1
  H  H37  1  0.17440223  0.55758670  0.60120680  1
  H  H38  1  0.32559777  0.55758670  0.10120680  1
  H  H39  1  0.82559777  0.44241330  0.39879320  1
  H  H40  1  0.66620564  0.44106222  0.77539278  1
  H  H41  1  0.16620564  0.55893778  0.72460722  1
  H  H42  1  0.33379436  0.55893778  0.22460722  1
  H  H43  1  0.83379436  0.44106222  0.27539278  1
  H  H44  1  0.51662446  0.48071729  0.85503826  1
  H  H45  1  0.01662446  0.51928271  0.64496174  1
  H  H46  1  0.48337554  0.51928271  0.14496174  1
  H  H47  1  0.98337554  0.48071729  0.35503826  1
  H  H48  1  0.02706544  0.76418233  0.86986513  1
  H  H49  1  0.52706544  0.23581767  0.63013487  1
  H  H50  1  0.97293456  0.23581767  0.13013487  1
  H  H51  1  0.47293456  0.76418233  0.36986513  1
  H  H52  1  0.91050287  0.71331756  0.75724765  1
  H  H53  1  0.41050287  0.28668244  0.74275235  1
  H  H54  1  0.08949713  0.28668244  0.24275235  1
  H  H55  1  0.58949713  0.71331756  0.25724765  1
  H  H56  1  0.08850545  0.76707252  0.74795577  1
  H  H57  1  0.58850545  0.23292748  0.75204423  1
  H  H58  1  0.91149455  0.23292748  0.25204423  1
  H  H59  1  0.41149455  0.76707252  0.24795577  1
  H  H60  1  0.79637067  0.11316874  0.91383351  1
  H  H61  1  0.29637067  0.88683126  0.58616649  1
  H  H62  1  0.20362933  0.88683126  0.08616649  1
  H  H63  1  0.70362933  0.11316874  0.41383351  1
  H  H64  1  0.63558953  0.16515347  0.87432374  1
  H  H65  1  0.13558953  0.83484653  0.62567626  1
  H  H66  1  0.36441047  0.83484653  0.12567626  1
  H  H67  1  0.86441047  0.16515347  0.37432374  1
  H  H68  1  0.63629743  0.02942966  0.87055144  1
  H  H69  1  0.13629743  0.97057034  0.62944856  1
  H  H70  1  0.36370257  0.97057034  0.12944856  1
  H  H71  1  0.86370257  0.02942966  0.37055144  1
  H  H72  1  0.57913212  0.19454438  0.28000254  1
  H  H73  1  0.07913212  0.80545562  0.21999746  1
  H  H74  1  0.42086788  0.80545562  0.71999746  1
  H  H75  1  0.92086788  0.19454438  0.78000254  1
  H  H76  1  0.40992995  0.22037469  0.22787138  1
  H  H77  1  0.90992995  0.77962531  0.27212862  1
  H  H78  1  0.59007005  0.77962531  0.77212862  1
  H  H79  1  0.09007005  0.22037469  0.72787138  1
  H  H80  1  0.55488393  0.31933704  0.26041844  1
  H  H81  1  0.05488393  0.68066296  0.23958156  1
  H  H82  1  0.44511607  0.68066296  0.73958156  1
  H  H83  1  0.94511607  0.31933704  0.76041844  1
  H  H84  1  0.80795938  0.59388263  0.88670814  1
  H  H85  1  0.30795938  0.40611737  0.61329186  1
  H  H86  1  0.19204062  0.40611737  0.11329186  1
  H  H87  1  0.69204062  0.59388263  0.38670814  1
  H  H88  1  0.64577941  0.63359393  0.83613302  1
  H  H89  1  0.14577941  0.36640607  0.66386698  1
  H  H90  1  0.35422059  0.36640607  0.16386698  1
  H  H91  1  0.85422059  0.63359393  0.33613302  1
  H  H92  1  0.64749523  0.63921676  0.96750987  1
  H  H93  1  0.14749523  0.36078324  0.53249013  1
  H  H94  1  0.35250477  0.36078324  0.03249013  1
  H  H95  1  0.85250477  0.63921676  0.46750987  1
  C  C96  1  0.99293737  0.77446818  0.79844391  1
  C  C97  1  0.49293737  0.22553182  0.70155609  1
  C  C98  1  0.00706263  0.22553182  0.20155609  1
  C  C99  1  0.50706263  0.77446818  0.29844391  1
  C  C100  1  0.67559282  0.11191437  0.91223687  1
  C  C101  1  0.17559282  0.88808563  0.58776313  1
  C  C102  1  0.32440718  0.88808563  0.08776313  1
  C  C103  1  0.82440718  0.11191437  0.41223687  1
  C  C104  1  0.50051587  0.25738344  0.28176582  1
  C  C105  1  0.00051587  0.74261656  0.21823418  1
  C  C106  1  0.49948413  0.74261656  0.71823418  1
  C  C107  1  0.99948413  0.25738344  0.78176582  1
  C  C108  1  0.68706874  0.59542601  0.88816834  1
  C  C109  1  0.18706874  0.40457399  0.61183166  1
  C  C110  1  0.31293126  0.40457399  0.11183166  1
  C  C111  1  0.81293126  0.59542601  0.38816834  1
  S  S112  1  0.76248190  0.92316308  0.07692647  1
  S  S113  1  0.26248190  0.07683692  0.42307353  1
  S  S114  1  0.23751810  0.07683692  0.92307353  1
  S  S115  1  0.73751810  0.92316308  0.57692647  1
  S  S116  1  0.76840937  0.43549578  0.08278968  1
  S  S117  1  0.26840937  0.56450422  0.41721032  1
  S  S118  1  0.23159063  0.56450422  0.91721032  1
  S  S119  1  0.73159063  0.43549578  0.58278968  1
  N  N120  1  0.92709666  0.88353785  0.82618818  1
  N  N121  1  0.42709666  0.11646215  0.67381182  1
  N  N122  1  0.07290334  0.11646215  0.17381182  1
  N  N123  1  0.57290334  0.88353785  0.32618818  1
  N  N124  1  0.61991575  0.15208532  0.02096288  1
  N  N125  1  0.11991575  0.84791468  0.47903712  1
  N  N126  1  0.38008425  0.84791468  0.97903712  1
  N  N127  1  0.88008425  0.15208532  0.52096288  1
  N  N128  1  0.44015352  0.30916954  0.38873446  1
  N  N129  1  0.94015352  0.69083046  0.11126554  1
  N  N130  1  0.55984648  0.69083046  0.61126554  1
  N  N131  1  0.05984648  0.30916954  0.88873446  1
  N  N132  1  0.63180791  0.48241927  0.85144307  1
  N  N133  1  0.13180791  0.51758073  0.64855693  1
  N  N134  1  0.36819209  0.51758073  0.14855693  1
  N  N135  1  0.86819209  0.48241927  0.35144307  1
  O  O136  1  0.69151082  0.88932082  0.97064346  1
  O  O137  1  0.19151082  0.11067918  0.52935654  1
  O  O138  1  0.30848918  0.11067918  0.02935654  1
  O  O139  1  0.80848918  0.88932082  0.47064346  1
  O  O140  1  0.69199375  0.86152227  0.13538982  1
  O  O141  1  0.19199375  0.13847773  0.36461018  1
  O  O142  1  0.30800625  0.13847773  0.86461018  1
  O  O143  1  0.80800625  0.86152227  0.63538982  1
  O  O144  1  0.92321559  0.89803028  0.06423115  1
  O  O145  1  0.42321559  0.10196972  0.43576885  1
  O  O146  1  0.07678441  0.10196972  0.93576885  1
  O  O147  1  0.57678441  0.89803028  0.56423115  1
  O  O148  1  0.74138776  0.04214463  0.13385761  1
  O  O149  1  0.24138776  0.95785537  0.36614239  1
  O  O150  1  0.25861224  0.95785537  0.86614239  1
  O  O151  1  0.75861224  0.04214463  0.63385761  1
  O  O152  1  0.68303305  0.53932677  0.11184850  1
  O  O153  1  0.18303305  0.46067323  0.38815150  1
  O  O154  1  0.31696695  0.46067323  0.88815150  1
  O  O155  1  0.81696695  0.53932677  0.61184850  1
  O  O156  1  0.70450173  0.36880307  0.13929943  1
  O  O157  1  0.20450173  0.63119693  0.36070057  1
  O  O158  1  0.29549827  0.63119693  0.86070057  1
  O  O159  1  0.79549827  0.36880307  0.63929943  1
  O  O160  1  0.92587889  0.45924382  0.11127334  1
  O  O161  1  0.42587889  0.54075618  0.38872666  1
  O  O162  1  0.07412111  0.54075618  0.88872666  1
  O  O163  1  0.57412111  0.45924382  0.61127334  1
  O  O164  1  0.75562391  0.37344630  0.96691295  1
  O  O165  1  0.25562391  0.62655370  0.53308705  1
  O  O166  1  0.24437609  0.62655370  0.03308705  1
  O  O167  1  0.74437609  0.37344630  0.46691295  1
