# generated using pymatgen
data_UH12C6N3O8
_symmetry_space_group_name_H-M   'P 1'
_cell_length_a   9.38551503
_cell_length_b   11.05331220
_cell_length_c   14.06618673
_cell_angle_alpha   90.00000000
_cell_angle_beta   90.00000000
_cell_angle_gamma   101.37012745
_symmetry_Int_Tables_number   1
_chemical_formula_structural   UH12C6N3O8
_chemical_formula_sum   'U4 H48 C24 N12 O32'
_cell_volume   1430.60175004
_cell_formula_units_Z   4
loop_
 _symmetry_equiv_pos_site_id
 _symmetry_equiv_pos_as_xyz
  1  'x, y, z'
loop_
 _atom_site_type_symbol
 _atom_site_label
 _atom_site_symmetry_multiplicity
 _atom_site_fract_x
 _atom_site_fract_y
 _atom_site_fract_z
 _atom_site_occupancy
  U  U0  1  0.58652178  0.99301893  0.27644999  1
  U  U1  1  0.08652178  0.49301893  0.22355001  1
  U  U2  1  0.41347822  0.00698107  0.72355001  1
  U  U3  1  0.91347822  0.50698107  0.77644999  1
  H  H4  1  0.74498863  0.68191282  0.07645141  1
  H  H5  1  0.24498863  0.18191282  0.42354859  1
  H  H6  1  0.25501137  0.31808718  0.92354859  1
  H  H7  1  0.75501137  0.81808718  0.57645141  1
  H  H8  1  0.57276108  0.60246074  0.11855382  1
  H  H9  1  0.07276108  0.10246074  0.38144618  1
  H  H10  1  0.42723892  0.39753926  0.88144618  1
  H  H11  1  0.92723892  0.89753926  0.61855382  1
  H  H12  1  0.73100778  0.60596570  0.18956871  1
  H  H13  1  0.23100778  0.10596570  0.31043129  1
  H  H14  1  0.26899222  0.39403430  0.81043129  1
  H  H15  1  0.76899222  0.89403430  0.68956871  1
  H  H16  1  0.46545628  0.34146323  0.10149848  1
  H  H17  1  0.96545628  0.84146323  0.39850152  1
  H  H18  1  0.53454372  0.65853677  0.89850152  1
  H  H19  1  0.03454372  0.15853677  0.60149848  1
  H  H20  1  0.56533147  0.27502698  0.01304431  1
  H  H21  1  0.06533147  0.77502698  0.48695569  1
  H  H22  1  0.43466853  0.72497302  0.98695569  1
  H  H23  1  0.93466853  0.22497302  0.51304431  1
  H  H24  1  0.65811620  0.37923991  0.10084887  1
  H  H25  1  0.15811620  0.87923991  0.39915113  1
  H  H26  1  0.34188380  0.62076009  0.89915113  1
  H  H27  1  0.84188380  0.12076009  0.60084887  1
  H  H28  1  0.64589099  0.67275927  0.41132903  1
  H  H29  1  0.14589099  0.17275927  0.08867097  1
  H  H30  1  0.35410901  0.32724073  0.58867097  1
  H  H31  1  0.85410901  0.82724073  0.91132903  1
  H  H32  1  0.75256497  0.61942071  0.49944705  1
  H  H33  1  0.25256497  0.11942071  0.00055295  1
  H  H34  1  0.24743503  0.38057929  0.50055295  1
  H  H35  1  0.74743503  0.88057929  0.99944705  1
  H  H36  1  0.77191135  0.41175468  0.50411874  1
  H  H37  1  0.27191135  0.91175468  0.99588126  1
  H  H38  1  0.22808865  0.58824532  0.49588126  1
  H  H39  1  0.72808865  0.08824532  0.00411874  1
  H  H40  1  0.66402727  0.30747837  0.42665238  1
  H  H41  1  0.16402727  0.80747837  0.07334762  1
  H  H42  1  0.33597273  0.69252163  0.57334762  1
  H  H43  1  0.83597273  0.19252163  0.92665238  1
  H  H44  1  0.50386420  0.52845410  0.30896789  1
  H  H45  1  0.00386420  0.02845410  0.19103211  1
  H  H46  1  0.49613580  0.47154590  0.69103211  1
  H  H47  1  0.99613580  0.97154590  0.80896789  1
  H  H48  1  0.52605151  0.37466304  0.31011979  1
  H  H49  1  0.02605151  0.87466304  0.18988021  1
  H  H50  1  0.47394849  0.62533696  0.68988021  1
  H  H51  1  0.97394849  0.12533696  0.81011979  1
  C  C52  1  0.64852421  0.77395564  0.18592119  1
  C  C53  1  0.14852421  0.27395564  0.31407881  1
  C  C54  1  0.35147579  0.22604436  0.81407881  1
  C  C55  1  0.85147579  0.72604436  0.68592119  1
  C  C56  1  0.57133823  0.20009705  0.15316033  1
  C  C57  1  0.07133823  0.70009705  0.34683967  1
  C  C58  1  0.42866177  0.79990295  0.84683967  1
  C  C59  1  0.92866177  0.29990295  0.65316033  1
  C  C60  1  0.49789914  0.06884477  0.49551468  1
  C  C61  1  0.99789914  0.56884477  0.00448532  1
  C  C62  1  0.50210086  0.93115523  0.50448532  1
  C  C63  1  0.00210086  0.43115523  0.99551468  1
  C  C64  1  0.67768223  0.65910397  0.14000573  1
  C  C65  1  0.17768223  0.15910397  0.35999427  1
  C  C66  1  0.32231777  0.34089603  0.85999427  1
  C  C67  1  0.82231777  0.84089603  0.64000573  1
  C  C68  1  0.56385107  0.30498544  0.08714972  1
  C  C69  1  0.06385107  0.80498544  0.41285028  1
  C  C70  1  0.43614893  0.69501456  0.91285028  1
  C  C71  1  0.93614893  0.19501456  0.58714972  1
  C  C72  1  0.64396270  0.48657340  0.41030052  1
  C  C73  1  0.14396270  0.98657340  0.08969948  1
  C  C74  1  0.35603730  0.51342660  0.58969948  1
  C  C75  1  0.85603730  0.01342660  0.91030052  1
  N  N76  1  0.68354869  0.60225224  0.44280199  1
  N  N77  1  0.18354869  0.10225224  0.05719801  1
  N  N78  1  0.31645131  0.39774776  0.55719801  1
  N  N79  1  0.81645131  0.89774776  0.94280199  1
  N  N80  1  0.69980673  0.39598117  0.44883096  1
  N  N81  1  0.19980673  0.89598117  0.05116904  1
  N  N82  1  0.30019327  0.60401883  0.55116904  1
  N  N83  1  0.80019327  0.10401883  0.94883096  1
  N  N84  1  0.54635503  0.46065496  0.33988058  1
  N  N85  1  0.04635503  0.96065496  0.16011942  1
  N  N86  1  0.45364497  0.53934504  0.66011942  1
  N  N87  1  0.95364497  0.03934504  0.83988058  1
  O  O88  1  0.39358387  0.93931564  0.26068990  1
  O  O89  1  0.89358387  0.43931564  0.23931010  1
  O  O90  1  0.60641613  0.06068436  0.73931010  1
  O  O91  1  0.10641613  0.56068436  0.76068990  1
  O  O92  1  0.78054330  0.04617275  0.29263661  1
  O  O93  1  0.28054330  0.54617275  0.20736339  1
  O  O94  1  0.21945670  0.95382725  0.70736339  1
  O  O95  1  0.71945670  0.45382725  0.79263661  1
  O  O96  1  0.64189787  0.86929133  0.13565935  1
  O  O97  1  0.14189787  0.36929133  0.36434065  1
  O  O98  1  0.35810213  0.13070867  0.86434065  1
  O  O99  1  0.85810213  0.63070867  0.63565935  1
  O  O100  1  0.62702859  0.77799258  0.27571972  1
  O  O101  1  0.12702859  0.27799258  0.22428028  1
  O  O102  1  0.37297141  0.22200742  0.72428028  1
  O  O103  1  0.87297141  0.72200742  0.77571972  1
  O  O104  1  0.54301038  0.20730795  0.24169429  1
  O  O105  1  0.04301038  0.70730795  0.25830571  1
  O  O106  1  0.45698962  0.79269205  0.75830571  1
  O  O107  1  0.95698962  0.29269205  0.74169429  1
  O  O108  1  0.60741059  0.10152997  0.12175445  1
  O  O109  1  0.10741059  0.60152997  0.37824555  1
  O  O110  1  0.39258941  0.89847003  0.87824555  1
  O  O111  1  0.89258941  0.39847003  0.62175445  1
  O  O112  1  0.45056720  0.11919142  0.56627363  1
  O  O113  1  0.95056720  0.61919142  0.93372637  1
  O  O114  1  0.54943280  0.88080858  0.43372637  1
  O  O115  1  0.04943280  0.38080858  0.06627363  1
  O  O116  1  0.54243410  0.11998692  0.41728610  1
  O  O117  1  0.04243410  0.61998692  0.08271390  1
  O  O118  1  0.45756590  0.88001308  0.58271390  1
  O  O119  1  0.95756590  0.38001308  0.91728610  1
