# generated using pymatgen
data_YbPH5CO7
_symmetry_space_group_name_H-M   'P 1'
_cell_length_a   6.46359667
_cell_length_b   7.07566510
_cell_length_c   7.67560983
_cell_angle_alpha   105.13132371
_cell_angle_beta   93.91797113
_cell_angle_gamma   92.74209908
_symmetry_Int_Tables_number   1
_chemical_formula_structural   YbPH5CO7
_chemical_formula_sum   'Yb2 P2 H10 C2 O14'
_cell_volume   337.28876039
_cell_formula_units_Z   2
loop_
 _symmetry_equiv_pos_site_id
 _symmetry_equiv_pos_as_xyz
  1  'x, y, z'
loop_
 _atom_site_type_symbol
 _atom_site_label
 _atom_site_symmetry_multiplicity
 _atom_site_fract_x
 _atom_site_fract_y
 _atom_site_fract_z
 _atom_site_occupancy
  Yb  Yb0  1  0.86647530  0.76087391  0.03140062  1
  Yb  Yb1  1  0.13352470  0.23912609  0.96859938  1
  P  P2  1  0.33598833  0.76619862  0.01848742  1
  P  P3  1  0.66401167  0.23380138  0.98151258  1
  H  H4  1  0.41496662  0.74885962  0.84760473  1
  H  H5  1  0.58503338  0.25114038  0.15239527  1
  H  H6  1  0.70982221  0.67988338  0.63108766  1
  H  H7  1  0.29017779  0.32011662  0.36891234  1
  H  H8  1  0.79949006  0.49923843  0.69397182  1
  H  H9  1  0.20050994  0.50076157  0.30602818  1
  H  H10  1  0.54920310  0.79039802  0.37072152  1
  H  H11  1  0.45079690  0.20960198  0.62927848  1
  H  H12  1  0.52032868  0.90266983  0.58270765  1
  H  H13  1  0.47967132  0.09733017  0.41729235  1
  C  C14  1  0.91505939  0.17812086  0.47814598  1
  C  C15  1  0.08494061  0.82187914  0.52185402  1
  O  O16  1  0.19882417  0.94333614  0.05571307  1
  O  O17  1  0.80117583  0.05666386  0.94428693  1
  O  O18  1  0.53087233  0.79213034  0.15319332  1
  O  O19  1  0.46912767  0.20786966  0.84680668  1
  O  O20  1  0.19325641  0.58086653  0.00185540  1
  O  O21  1  0.80674359  0.41913347  0.99814460  1
  O  O22  1  0.03584485  0.72985651  0.37218376  1
  O  O23  1  0.96415515  0.27014349  0.62781624  1
  O  O24  1  0.86251146  0.08086781  0.33192484  1
  O  O25  1  0.13748854  0.91913219  0.66807516  1
  O  O26  1  0.80484548  0.64161649  0.72233701  1
  O  O27  1  0.19515452  0.35838351  0.27766299  1
  O  O28  1  0.57904550  0.79181201  0.50214840  1
  O  O29  1  0.42095450  0.20818799  0.49785160  1
