# generated using pymatgen
data_PH18C6NF4
_symmetry_space_group_name_H-M   'P 1'
_cell_length_a   8.59109989
_cell_length_b   10.96171885
_cell_length_c   13.87682468
_cell_angle_alpha   90.00000000
_cell_angle_beta   90.00000000
_cell_angle_gamma   90.00000000
_symmetry_Int_Tables_number   1
_chemical_formula_structural   PH18C6NF4
_chemical_formula_sum   'P4 H72 C24 N4 F16'
_cell_volume   1306.82528578
_cell_formula_units_Z   4
loop_
 _symmetry_equiv_pos_site_id
 _symmetry_equiv_pos_as_xyz
  1  'x, y, z'
loop_
 _atom_site_type_symbol
 _atom_site_label
 _atom_site_symmetry_multiplicity
 _atom_site_fract_x
 _atom_site_fract_y
 _atom_site_fract_z
 _atom_site_occupancy
  P  P0  1  0.25000000  0.26531474  0.71278674  1
  P  P1  1  0.25000000  0.23468526  0.21278674  1
  P  P2  1  0.75000000  0.73468526  0.28721326  1
  P  P3  1  0.75000000  0.76531474  0.78721326  1
  H  H4  1  0.14597849  0.07295972  0.65824355  1
  H  H5  1  0.35402151  0.42704028  0.15824355  1
  H  H6  1  0.64597849  0.92704028  0.34175645  1
  H  H7  1  0.85402151  0.57295972  0.84175645  1
  H  H8  1  0.85402151  0.92704028  0.34175645  1
  H  H9  1  0.64597849  0.57295972  0.84175645  1
  H  H10  1  0.35402151  0.07295972  0.65824355  1
  H  H11  1  0.14597849  0.42704028  0.15824355  1
  H  H12  1  0.25000000  0.15014664  0.56335805  1
  H  H13  1  0.25000000  0.34985336  0.06335805  1
  H  H14  1  0.75000000  0.84985336  0.43664195  1
  H  H15  1  0.75000000  0.65014664  0.93664195  1
  H  H16  1  0.14566667  0.45706732  0.76916551  1
  H  H17  1  0.35433333  0.04293268  0.26916551  1
  H  H18  1  0.64566667  0.54293268  0.23083449  1
  H  H19  1  0.85433333  0.95706732  0.73083449  1
  H  H20  1  0.85433333  0.54293268  0.23083449  1
  H  H21  1  0.64566667  0.95706732  0.73083449  1
  H  H22  1  0.35433333  0.45706732  0.76916551  1
  H  H23  1  0.14566667  0.04293268  0.26916551  1
  H  H24  1  0.25000000  0.37765285  0.86227357  1
  H  H25  1  0.25000000  0.12234715  0.36227357  1
  H  H26  1  0.75000000  0.62234715  0.13772643  1
  H  H27  1  0.75000000  0.87765285  0.63772643  1
  H  H28  1  0.85453127  0.39757191  0.62055779  1
  H  H29  1  0.64546873  0.10242809  0.12055779  1
  H  H30  1  0.35453127  0.60242809  0.37944221  1
  H  H31  1  0.14546873  0.89757191  0.87944221  1
  H  H32  1  0.14546873  0.60242809  0.37944221  1
  H  H33  1  0.35453127  0.89757191  0.87944221  1
  H  H34  1  0.64546873  0.39757191  0.62055779  1
  H  H35  1  0.85453127  0.10242809  0.12055779  1
  H  H36  1  0.75000000  0.49747183  0.54032714  1
  H  H37  1  0.75000000  0.00252817  0.04032714  1
  H  H38  1  0.25000000  0.50252817  0.45967286  1
  H  H39  1  0.25000000  0.99747183  0.95967286  1
  H  H40  1  0.85441189  0.17916559  0.59335857  1
  H  H41  1  0.64558811  0.32083441  0.09335857  1
  H  H42  1  0.35441189  0.82083441  0.40664143  1
  H  H43  1  0.14558811  0.67916559  0.90664143  1
  H  H44  1  0.14558811  0.82083441  0.40664143  1
  H  H45  1  0.35441189  0.67916559  0.90664143  1
  H  H46  1  0.64558811  0.17916559  0.59335857  1
  H  H47  1  0.85441189  0.32083441  0.09335857  1
  H  H48  1  0.75000000  0.11546167  0.49297617  1
  H  H49  1  0.75000000  0.38453833  0.99297617  1
  H  H50  1  0.25000000  0.88453833  0.50702383  1
  H  H51  1  0.25000000  0.61546167  0.00702383  1
  H  H52  1  0.89189315  0.25222669  0.38257327  1
  H  H53  1  0.60810685  0.24777331  0.88257327  1
  H  H54  1  0.39189315  0.74777331  0.61742673  1
  H  H55  1  0.10810685  0.75222669  0.11742673  1
  H  H56  1  0.10810685  0.74777331  0.61742673  1
  H  H57  1  0.39189315  0.75222669  0.11742673  1
  H  H58  1  0.60810685  0.25222669  0.38257327  1
  H  H59  1  0.89189315  0.24777331  0.88257327  1
  H  H60  1  0.99550384  0.31363892  0.48417009  1
  H  H61  1  0.50449616  0.18636108  0.98417009  1
  H  H62  1  0.49550384  0.68636108  0.51582991  1
  H  H63  1  0.00449616  0.81363892  0.01582991  1
  H  H64  1  0.00449616  0.68636108  0.51582991  1
  H  H65  1  0.49550384  0.81363892  0.01582991  1
  H  H66  1  0.50449616  0.31363892  0.48417009  1
  H  H67  1  0.99550384  0.18636108  0.98417009  1
  H  H68  1  0.88934615  0.41329082  0.40454440  1
  H  H69  1  0.61065385  0.08670918  0.90454440  1
  H  H70  1  0.38934615  0.58670918  0.59545560  1
  H  H71  1  0.11065385  0.91329082  0.09545560  1
  H  H72  1  0.11065385  0.58670918  0.59545560  1
  H  H73  1  0.38934615  0.91329082  0.09545560  1
  H  H74  1  0.61065385  0.41329082  0.40454440  1
  H  H75  1  0.88934615  0.08670918  0.90454440  1
  C  C76  1  0.25000000  0.12514056  0.63950632  1
  C  C77  1  0.25000000  0.37485944  0.13950632  1
  C  C78  1  0.75000000  0.87485944  0.36049368  1
  C  C79  1  0.75000000  0.62514056  0.86049368  1
  C  C80  1  0.25000000  0.40446324  0.78609357  1
  C  C81  1  0.25000000  0.09553676  0.28609357  1
  C  C82  1  0.75000000  0.59553676  0.21390643  1
  C  C83  1  0.75000000  0.90446324  0.71390643  1
  C  C84  1  0.75000000  0.40826376  0.57592515  1
  C  C85  1  0.75000000  0.09173624  0.07592515  1
  C  C86  1  0.25000000  0.59173624  0.42407485  1
  C  C87  1  0.25000000  0.90826376  0.92407485  1
  C  C88  1  0.75000000  0.18635589  0.54830753  1
  C  C89  1  0.75000000  0.31364411  0.04830753  1
  C  C90  1  0.25000000  0.81364411  0.45169247  1
  C  C91  1  0.25000000  0.68635589  0.95169247  1
  C  C92  1  0.89239546  0.32265282  0.43848947  1
  C  C93  1  0.60760454  0.17734718  0.93848947  1
  C  C94  1  0.39239546  0.67734718  0.56151053  1
  C  C95  1  0.10760454  0.82265282  0.06151053  1
  C  C96  1  0.10760454  0.67734718  0.56151053  1
  C  C97  1  0.39239546  0.82265282  0.06151053  1
  C  C98  1  0.60760454  0.32265282  0.43848947  1
  C  C99  1  0.89239546  0.17734718  0.93848947  1
  N  N100  1  0.75000000  0.31003816  0.50029679  1
  N  N101  1  0.75000000  0.18996184  0.00029679  1
  N  N102  1  0.25000000  0.68996184  0.49970321  1
  N  N103  1  0.25000000  0.81003816  0.99970321  1
  F  F104  1  0.04875670  0.26587907  0.71118158  1
  F  F105  1  0.45124330  0.23412093  0.21118158  1
  F  F106  1  0.54875670  0.73412093  0.28881842  1
  F  F107  1  0.95124330  0.76587907  0.78881842  1
  F  F108  1  0.95124330  0.73412093  0.28881842  1
  F  F109  1  0.54875670  0.76587907  0.78881842  1
  F  F110  1  0.45124330  0.26587907  0.71118158  1
  F  F111  1  0.04875670  0.23412093  0.21118158  1
  F  F112  1  0.25000000  0.35658094  0.61007208  1
  F  F113  1  0.25000000  0.14341906  0.11007208  1
  F  F114  1  0.75000000  0.64341906  0.38992792  1
  F  F115  1  0.75000000  0.85658094  0.88992792  1
  F  F116  1  0.25000000  0.17528115  0.81381286  1
  F  F117  1  0.25000000  0.32471885  0.31381286  1
  F  F118  1  0.75000000  0.82471885  0.18618714  1
  F  F119  1  0.75000000  0.67528115  0.68618714  1
