# generated using pymatgen
data_MgH7C3NO6
_symmetry_space_group_name_H-M   'P 1'
_cell_length_a   8.18927155
_cell_length_b   12.86497589
_cell_length_c   12.86499182
_cell_angle_alpha   120.00027895
_cell_angle_beta   90.00000000
_cell_angle_gamma   90.00000000
_symmetry_Int_Tables_number   1
_chemical_formula_structural   MgH7C3NO6
_chemical_formula_sum   'Mg6 H42 C18 N6 O36'
_cell_volume   1173.79748351
_cell_formula_units_Z   6
loop_
 _symmetry_equiv_pos_site_id
 _symmetry_equiv_pos_as_xyz
  1  'x, y, z'
loop_
 _atom_site_type_symbol
 _atom_site_label
 _atom_site_symmetry_multiplicity
 _atom_site_fract_x
 _atom_site_fract_y
 _atom_site_fract_z
 _atom_site_occupancy
  Mg  Mg0  1  0.91351959  0.99550782  0.33132680  1
  Mg  Mg1  1  0.91351150  0.66867523  0.66417908  1
  Mg  Mg2  1  0.91351318  0.33581664  0.00448914  1
  Mg  Mg3  1  0.41351959  0.00449218  0.66867320  1
  Mg  Mg4  1  0.41351150  0.33132477  0.33582092  1
  Mg  Mg5  1  0.41351318  0.66418336  0.99551086  1
  H  H6  1  0.00570078  0.72690891  0.30573130  1
  H  H7  1  0.00571581  0.69423867  0.42117676  1
  H  H8  1  0.00576754  0.57879492  0.27306261  1
  H  H9  1  0.50570078  0.27309109  0.69426870  1
  H  H10  1  0.50571581  0.30576133  0.57882324  1
  H  H11  1  0.50576754  0.42120508  0.72693739  1
  H  H12  1  0.84141498  0.66662006  0.33330982  1
  H  H13  1  0.34141498  0.33337994  0.66669018  1
  H  H14  1  0.00963492  0.24615921  0.60396721  1
  H  H15  1  0.00970168  0.39605951  0.64219308  1
  H  H16  1  0.00968463  0.35783725  0.75386704  1
  H  H17  1  0.50963492  0.75384079  0.39603279  1
  H  H18  1  0.50970168  0.60394049  0.35780692  1
  H  H19  1  0.50968463  0.64216275  0.24613296  1
  H  H20  1  0.84513631  0.33337977  0.66668979  1
  H  H21  1  0.34513631  0.66662023  0.33331021  1
  H  H22  1  0.31646674  0.06060699  0.08783842  1
  H  H23  1  0.31646689  0.91216161  0.97276822  1
  H  H24  1  0.31646660  0.02723165  0.93939289  1
  H  H25  1  0.81646674  0.93939301  0.91216158  1
  H  H26  1  0.81646689  0.08783839  0.02723178  1
  H  H27  1  0.81646660  0.97276835  0.06060711  1
  H  H28  1  0.48083055  0.99999996  0.99999978  1
  H  H29  1  0.98083055  0.00000004  0.00000022  1
  H  H30  1  0.19252460  0.87758950  0.15427163  1
  H  H31  1  0.19252349  0.84572835  0.72331663  1
  H  H32  1  0.19252372  0.27668372  0.12241217  1
  H  H33  1  0.69252460  0.12241050  0.84572837  1
  H  H34  1  0.69252349  0.15427165  0.27668337  1
  H  H35  1  0.69252372  0.72331628  0.87758783  1
  H  H36  1  0.20298384  0.94469025  0.44827688  1
  H  H37  1  0.20298221  0.55172342  0.49641309  1
  H  H38  1  0.20298443  0.50358693  0.05530946  1
  H  H39  1  0.70298384  0.05530975  0.55172312  1
  H  H40  1  0.70298221  0.44827658  0.50358691  1
  H  H41  1  0.70298443  0.49641307  0.94469054  1
  H  H42  1  0.10798538  0.22192093  0.38446119  1
  H  H43  1  0.10798511  0.61553964  0.83746066  1
  H  H44  1  0.10798621  0.16253894  0.77807800  1
  H  H45  1  0.60798538  0.77807907  0.61553881  1
  H  H46  1  0.60798511  0.38446036  0.16253934  1
  H  H47  1  0.60798621  0.83746106  0.22192200  1
  C  C48  1  0.17380051  0.81409036  0.18755629  1
  C  C49  1  0.17380053  0.81244139  0.62653214  1
  C  C50  1  0.17380134  0.37346655  0.18590947  1
  C  C51  1  0.67380051  0.18590964  0.81244371  1
  C  C52  1  0.67380053  0.18755861  0.37346786  1
  C  C53  1  0.67380134  0.62653345  0.81409053  1
  C  C54  1  0.17996467  0.04086175  0.51199815  1
  C  C55  1  0.17996562  0.48800261  0.52886339  1
  C  C56  1  0.17996644  0.47113660  0.95913846  1
  C  C57  1  0.67996467  0.95913825  0.48800185  1
  C  C58  1  0.67996562  0.51199739  0.47113661  1
  C  C59  1  0.67996644  0.52886340  0.04086154  1
  C  C60  1  0.14050408  0.15331271  0.29142742  1
  C  C61  1  0.14050403  0.70857295  0.86188484  1
  C  C62  1  0.14050335  0.13811590  0.84668839  1
  C  C63  1  0.64050408  0.84668729  0.70857258  1
  C  C64  1  0.64050403  0.29142705  0.13811516  1
  C  C65  1  0.64050335  0.86188410  0.15331161  1
  N  N66  1  0.96636080  0.66664122  0.33332037  1
  N  N67  1  0.46636080  0.33335878  0.66667963  1
  N  N68  1  0.97021169  0.33335852  0.66667911  1
  N  N69  1  0.47021169  0.66664148  0.33332089  1
  N  N70  1  0.35576355  0.00000015  -0.00000028  1
  N  N71  1  0.85576355  0.99999985  0.00000028  1
  O  O72  1  0.05852438  0.83850034  0.26312726  1
  O  O73  1  0.05852645  0.73686842  0.57537095  1
  O  O74  1  0.05852801  0.42462965  0.16149941  1
  O  O75  1  0.55852438  0.16149966  0.73687274  1
  O  O76  1  0.55852645  0.26313158  0.42462905  1
  O  O77  1  0.55852801  0.57537035  0.83850059  1
  O  O78  1  0.26664774  0.72376324  0.14943975  1
  O  O79  1  0.26664926  0.85055625  0.57432166  1
  O  O80  1  0.26665080  0.42567977  0.27623662  1
  O  O81  1  0.76664774  0.27623676  0.85056025  1
  O  O82  1  0.76664926  0.14944375  0.42567834  1
  O  O83  1  0.76665080  0.57432023  0.72376338  1
  O  O84  1  0.06237291  0.09030058  0.48783669  1
  O  O85  1  0.06237425  0.51216308  0.60246333  1
  O  O86  1  0.06237268  0.39753874  0.90969970  1
  O  O87  1  0.56237291  0.90969942  0.51216331  1
  O  O88  1  0.56237425  0.48783692  0.39753667  1
  O  O89  1  0.56237268  0.60246126  0.09030030  1
  O  O90  1  0.27025394  0.09399167  0.60383638  1
  O  O91  1  0.27025749  0.39616607  0.49015747  1
  O  O92  1  0.27025830  0.50984229  0.90600719  1
  O  O93  1  0.77025394  0.90600833  0.39616362  1
  O  O94  1  0.77025749  0.60383393  0.50984253  1
  O  O95  1  0.77025830  0.49015771  0.09399281  1
  O  O96  1  0.05443825  0.05932167  0.23956787  1
  O  O97  1  0.05443726  0.76043132  0.81975197  1
  O  O98  1  0.05443970  0.18024875  0.94067752  1
  O  O99  1  0.55443825  0.94067833  0.76043213  1
  O  O100  1  0.55443726  0.23956868  0.18024803  1
  O  O101  1  0.55443970  0.81975125  0.05932248  1
  O  O102  1  0.26309682  0.17508897  0.24408441  1
  O  O103  1  0.26309696  0.75591598  0.93100286  1
  O  O104  1  0.26309753  0.06899567  0.82491220  1
  O  O105  1  0.76309682  0.82491103  0.75591559  1
  O  O106  1  0.76309696  0.24408402  0.06899714  1
  O  O107  1  0.76309753  0.93100433  0.17508780  1
