# generated using pymatgen
data_CdP14Pb
_symmetry_space_group_name_H-M   'P 1'
_cell_length_a   9.77399988
_cell_length_b   12.12746073
_cell_length_c   15.01930924
_cell_angle_alpha   90.00000000
_cell_angle_beta   90.00000000
_cell_angle_gamma   90.00000000
_symmetry_Int_Tables_number   1
_chemical_formula_structural   CdP14Pb
_chemical_formula_sum   'Cd4 P56 Pb4'
_cell_volume   1780.29579338
_cell_formula_units_Z   4
loop_
 _symmetry_equiv_pos_site_id
 _symmetry_equiv_pos_as_xyz
  1  'x, y, z'
loop_
 _atom_site_type_symbol
 _atom_site_label
 _atom_site_symmetry_multiplicity
 _atom_site_fract_x
 _atom_site_fract_y
 _atom_site_fract_z
 _atom_site_occupancy
  Cd  Cd0  1  0.25000000  0.85383961  0.87463615  1
  Cd  Cd1  1  0.25000000  0.64616039  0.37463615  1
  Cd  Cd2  1  0.75000000  0.14616039  0.12536385  1
  Cd  Cd3  1  0.75000000  0.35383961  0.62536385  1
  P  P4  1  0.25000000  0.68085922  0.54452857  1
  P  P5  1  0.25000000  0.81914078  0.04452857  1
  P  P6  1  0.75000000  0.31914078  0.45547143  1
  P  P7  1  0.75000000  0.18085922  0.95547143  1
  P  P8  1  0.25000000  0.26664063  0.96380632  1
  P  P9  1  0.25000000  0.23335937  0.46380632  1
  P  P10  1  0.75000000  0.73335937  0.03619368  1
  P  P11  1  0.75000000  0.76664063  0.53619368  1
  P  P12  1  0.25000000  0.12191784  0.58452354  1
  P  P13  1  0.25000000  0.37808216  0.08452354  1
  P  P14  1  0.75000000  0.87808216  0.41547646  1
  P  P15  1  0.75000000  0.62191784  0.91547646  1
  P  P16  1  0.25000000  0.64426055  0.85042073  1
  P  P17  1  0.25000000  0.85573945  0.35042073  1
  P  P18  1  0.75000000  0.35573945  0.14957927  1
  P  P19  1  0.75000000  0.14426055  0.64957927  1
  P  P20  1  0.07041091  0.15881168  0.98412686  1
  P  P21  1  0.42958909  0.34118832  0.48412686  1
  P  P22  1  0.57041091  0.84118832  0.01587314  1
  P  P23  1  0.92958909  0.65881168  0.51587314  1
  P  P24  1  0.92958909  0.84118832  0.01587314  1
  P  P25  1  0.57041091  0.65881168  0.51587314  1
  P  P26  1  0.42958909  0.15881168  0.98412686  1
  P  P27  1  0.07041091  0.34118832  0.48412686  1
  P  P28  1  0.07251666  0.79217932  0.55904273  1
  P  P29  1  0.42748334  0.70782068  0.05904273  1
  P  P30  1  0.57251666  0.20782068  0.44095727  1
  P  P31  1  0.92748334  0.29217932  0.94095727  1
  P  P32  1  0.92748334  0.20782068  0.44095727  1
  P  P33  1  0.57251666  0.29217932  0.94095727  1
  P  P34  1  0.42748334  0.79217932  0.55904273  1
  P  P35  1  0.07251666  0.70782068  0.05904273  1
  P  P36  1  0.07555323  0.59363917  0.93281264  1
  P  P37  1  0.42444677  0.90636083  0.43281264  1
  P  P38  1  0.57555323  0.40636083  0.06718736  1
  P  P39  1  0.92444677  0.09363917  0.56718736  1
  P  P40  1  0.92444677  0.40636083  0.06718736  1
  P  P41  1  0.57555323  0.09363917  0.56718736  1
  P  P42  1  0.42444677  0.59363917  0.93281264  1
  P  P43  1  0.07555323  0.90636083  0.43281264  1
  P  P44  1  0.06910088  0.17618282  0.66123978  1
  P  P45  1  0.43089912  0.32381718  0.16123978  1
  P  P46  1  0.56910088  0.82381718  0.33876022  1
  P  P47  1  0.93089912  0.67618282  0.83876022  1
  P  P48  1  0.93089912  0.82381718  0.33876022  1
  P  P49  1  0.56910088  0.67618282  0.83876022  1
  P  P50  1  0.43089912  0.17618282  0.66123978  1
  P  P51  1  0.06910088  0.32381718  0.16123978  1
  P  P52  1  0.03415055  0.35189917  0.62882366  1
  P  P53  1  0.46584945  0.14810083  0.12882366  1
  P  P54  1  0.53415055  0.64810083  0.37117634  1
  P  P55  1  0.96584945  0.85189917  0.87117634  1
  P  P56  1  0.96584945  0.64810083  0.37117634  1
  P  P57  1  0.53415055  0.85189917  0.87117634  1
  P  P58  1  0.46584945  0.35189917  0.62882366  1
  P  P59  1  0.03415055  0.14810083  0.12882366  1
  Pb  Pb60  1  0.25000000  0.50659810  0.68279538  1
  Pb  Pb61  1  0.25000000  0.99340190  0.18279538  1
  Pb  Pb62  1  0.75000000  0.49340190  0.31720462  1
  Pb  Pb63  1  0.75000000  0.00659810  0.81720462  1
