# generated using pymatgen
data_Si5H15C4NO12
_symmetry_space_group_name_H-M   'P 1'
_cell_length_a   8.95292646
_cell_length_b   9.00407946
_cell_length_c   9.43953758
_cell_angle_alpha   90.00000000
_cell_angle_beta   90.00000000
_cell_angle_gamma   96.10280881
_symmetry_Int_Tables_number   1
_chemical_formula_structural   Si5H15C4NO12
_chemical_formula_sum   'Si10 H30 C8 N2 O24'
_cell_volume   756.63563734
_cell_formula_units_Z   2
loop_
 _symmetry_equiv_pos_site_id
 _symmetry_equiv_pos_as_xyz
  1  'x, y, z'
loop_
 _atom_site_type_symbol
 _atom_site_label
 _atom_site_symmetry_multiplicity
 _atom_site_fract_x
 _atom_site_fract_y
 _atom_site_fract_z
 _atom_site_occupancy
  Si  Si0  1  0.04268852  0.26320446  0.75311082  1
  Si  Si1  1  0.95731148  0.73679554  0.25311082  1
  Si  Si2  1  0.78118770  0.24902111  0.51601899  1
  Si  Si3  1  0.21881230  0.75097889  0.01601899  1
  Si  Si4  1  0.21516877  0.75111820  0.48880519  1
  Si  Si5  1  0.78483123  0.24888180  0.98880519  1
  Si  Si6  1  0.23630935  0.97866460  0.75363515  1
  Si  Si7  1  0.76369065  0.02133540  0.25363515  1
  Si  Si8  1  0.53259604  0.19993840  0.75455424  1
  Si  Si9  1  0.46740396  0.80006160  0.25455424  1
  H  H10  1  0.21416880  0.09769903  0.41542206  1
  H  H11  1  0.78583120  0.90230097  0.91542206  1
  H  H12  1  0.05692354  0.15728145  0.32605443  1
  H  H13  1  0.94307646  0.84271855  0.82605443  1
  H  H14  1  0.17482309  0.03899456  0.23787772  1
  H  H15  1  0.82517691  0.96100544  0.73787772  1
  H  H16  1  0.42004747  0.42948392  0.37103493  1
  H  H17  1  0.57995253  0.57051608  0.87103493  1
  H  H18  1  0.37604310  0.25464425  0.45879666  1
  H  H19  1  0.62395690  0.74535575  0.95879666  1
  H  H20  1  0.50105482  0.26842350  0.31179874  1
  H  H21  1  0.49894518  0.73157650  0.81179874  1
  H  H22  1  0.24263435  0.15763562  0.05747697  1
  H  H23  1  0.75736565  0.84236438  0.55747697  1
  H  H24  1  0.43121242  0.18604812  0.12069812  1
  H  H25  1  0.56878758  0.81395188  0.62069812  1
  H  H26  1  0.34389244  0.34010306  0.05029188  1
  H  H27  1  0.65610756  0.65989694  0.55029188  1
  H  H28  1  0.19654637  0.45708889  0.14684586  1
  H  H29  1  0.80345363  0.54291111  0.64684586  1
  H  H30  1  0.05477489  0.36053574  0.25501513  1
  H  H31  1  0.94522511  0.63946426  0.75501513  1
  H  H32  1  0.20420219  0.47530605  0.33696551  1
  H  H33  1  0.79579781  0.52469395  0.83696551  1
  H  H34  1  0.80145735  0.47627403  0.36935731  1
  H  H35  1  0.19854265  0.52372597  0.86935731  1
  H  H36  1  0.79797808  0.47788571  0.12251409  1
  H  H37  1  0.20202192  0.52211429  0.62251409  1
  H  H38  1  0.34502447  0.36691419  0.75574453  1
  H  H39  1  0.65497553  0.63308581  0.25574453  1
  C  C40  1  0.17214347  0.13077637  0.31295022  1
  C  C41  1  0.82785653  0.86922363  0.81295022  1
  C  C42  1  0.40078961  0.30875366  0.35678342  1
  C  C43  1  0.59921039  0.69124634  0.85678342  1
  C  C44  1  0.32576587  0.23606759  0.11078849  1
  C  C45  1  0.67423413  0.76393241  0.61078849  1
  C  C46  1  0.17400707  0.40006455  0.24827927  1
  C  C47  1  0.82599293  0.59993545  0.74827927  1
  N  N48  1  0.26800869  0.26864519  0.25755646  1
  N  N49  1  0.73199131  0.73135481  0.75755646  1
  O  O50  1  0.16415896  0.40792004  0.75048207  1
  O  O51  1  0.83584104  0.59207996  0.25048207  1
  O  O52  1  0.12487369  0.10819185  0.74719239  1
  O  O53  1  0.87512631  0.89180815  0.24719239  1
  O  O54  1  0.75539507  0.40858754  0.44937427  1
  O  O55  1  0.24460493  0.59141246  0.94937427  1
  O  O56  1  0.24686089  0.58720858  0.54228060  1
  O  O57  1  0.75313911  0.41279142  0.04228060  1
  O  O58  1  0.79835036  0.11824852  0.39764480  1
  O  O59  1  0.20164964  0.88175148  0.89764480  1
  O  O60  1  0.20280892  0.86944124  0.61804567  1
  O  O61  1  0.79719108  0.13055876  0.11804567  1
  O  O62  1  0.45504580  0.35366740  0.76413014  1
  O  O63  1  0.54495420  0.64633260  0.26413014  1
  O  O64  1  0.63307431  0.19304900  0.61099434  1
  O  O65  1  0.36692569  0.80695100  0.11099434  1
  O  O66  1  0.35740524  0.81592625  0.39032644  1
  O  O67  1  0.64259476  0.18407375  0.89032644  1
  O  O68  1  0.93097880  0.25671319  0.61503662  1
  O  O69  1  0.06902120  0.74328681  0.11503662  1
  O  O70  1  0.06012877  0.74893810  0.39773557  1
  O  O71  1  0.93987123  0.25106190  0.89773557  1
  O  O72  1  0.41142039  0.04981211  0.75238086  1
  O  O73  1  0.58857961  0.95018789  0.25238086  1
