# generated using pymatgen
data_SnH3NF3
_symmetry_space_group_name_H-M   'P 1'
_cell_length_a   6.31737153
_cell_length_b   8.46864717
_cell_length_c   8.46864717
_cell_angle_alpha   101.80601620
_cell_angle_beta   99.16773262
_cell_angle_gamma   99.16773262
_symmetry_Int_Tables_number   1
_chemical_formula_structural   SnH3NF3
_chemical_formula_sum   'Sn4 H12 N4 F12'
_cell_volume   429.09810398
_cell_formula_units_Z   4
loop_
 _symmetry_equiv_pos_site_id
 _symmetry_equiv_pos_as_xyz
  1  'x, y, z'
loop_
 _atom_site_type_symbol
 _atom_site_label
 _atom_site_symmetry_multiplicity
 _atom_site_fract_x
 _atom_site_fract_y
 _atom_site_fract_z
 _atom_site_occupancy
  Sn  Sn0  1  0.45618833  0.89818707  0.69347169  1
  Sn  Sn1  1  0.04381167  0.30652831  0.10181293  1
  Sn  Sn2  1  0.54381167  0.10181293  0.30652831  1
  Sn  Sn3  1  0.95618833  0.69347169  0.89818707  1
  H  H4  1  0.85556420  0.83810452  0.37904016  1
  H  H5  1  0.64443580  0.62095984  0.16189548  1
  H  H6  1  0.14443580  0.16189548  0.62095984  1
  H  H7  1  0.35556420  0.37904016  0.83810452  1
  H  H8  1  0.85229906  0.70296828  0.50859691  1
  H  H9  1  0.64770094  0.49140309  0.29703172  1
  H  H10  1  0.14770094  0.29703172  0.49140309  1
  H  H11  1  0.35229906  0.50859691  0.70296828  1
  H  H12  1  0.97828257  0.66612380  0.33694515  1
  H  H13  1  0.52171743  0.66305485  0.33387620  1
  H  H14  1  0.02171743  0.33387620  0.66305485  1
  H  H15  1  0.47828257  0.33694515  0.66612380  1
  N  N16  1  0.85230657  0.71244449  0.38678038  1
  N  N17  1  0.64769343  0.61321962  0.28755551  1
  N  N18  1  0.14769343  0.28755551  0.61321962  1
  N  N19  1  0.35230657  0.38678038  0.71244449  1
  F  F20  1  0.24117303  0.67052950  0.67994245  1
  F  F21  1  0.25882697  0.32005755  0.32947050  1
  F  F22  1  0.75882697  0.32947050  0.32005755  1
  F  F23  1  0.74117303  0.67994245  0.67052950  1
  F  F24  1  0.42537783  0.81933700  0.43806135  1
  F  F25  1  0.07462217  0.56193865  0.18066300  1
  F  F26  1  0.57462217  0.18066300  0.56193865  1
  F  F27  1  0.92537783  0.43806135  0.81933700  1
  F  F28  1  0.16617110  0.99235113  0.64944391  1
  F  F29  1  0.33382890  0.35055609  0.00764887  1
  F  F30  1  0.83382890  0.00764887  0.35055609  1
  F  F31  1  0.66617110  0.64944391  0.99235113  1
