# generated using pymatgen
data_TiSi7H48(C8O)2
_symmetry_space_group_name_H-M   'P 1'
_cell_length_a   10.52506875
_cell_length_b   10.61488687
_cell_length_c   16.50758900
_cell_angle_alpha   79.24482782
_cell_angle_beta   88.22160705
_cell_angle_gamma   86.60540644
_symmetry_Int_Tables_number   1
_chemical_formula_structural   TiSi7H48(C8O)2
_chemical_formula_sum   'Ti2 Si14 H96 C32 O4'
_cell_volume   1808.31584709
_cell_formula_units_Z   2
loop_
 _symmetry_equiv_pos_site_id
 _symmetry_equiv_pos_as_xyz
  1  'x, y, z'
loop_
 _atom_site_type_symbol
 _atom_site_label
 _atom_site_symmetry_multiplicity
 _atom_site_fract_x
 _atom_site_fract_y
 _atom_site_fract_z
 _atom_site_occupancy
  Ti  Ti0  1  0.17949221  0.90075249  0.63382599  1
  Ti  Ti1  1  0.82050779  0.09924751  0.36617401  1
  Si  Si2  1  0.19163587  0.17756249  0.70028473  1
  Si  Si3  1  0.80836413  0.82243751  0.29971527  1
  Si  Si4  1  0.32545619  0.83564707  0.81294141  1
  Si  Si5  1  0.67454381  0.16435293  0.18705859  1
  Si  Si6  1  0.98616019  0.28083853  0.71503183  1
  Si  Si7  1  0.01383981  0.71916147  0.28496817  1
  Si  Si8  1  0.27578514  0.05600261  0.82811995  1
  Si  Si9  1  0.72421486  0.94399739  0.17188005  1
  Si  Si10  1  0.23987726  0.68280544  0.92240165  1
  Si  Si11  1  0.76012274  0.31719456  0.07759835  1
  Si  Si12  1  0.32801188  0.32695730  0.61819310  1
  Si  Si13  1  0.67198812  0.67304270  0.38180690  1
  Si  Si14  1  0.54689450  0.79185968  0.78940979  1
  Si  Si15  1  0.45310550  0.20814032  0.21059021  1
  H  H16  1  0.95532654  0.88294371  0.56359251  1
  H  H17  1  0.04467346  0.11705629  0.43640749  1
  H  H18  1  0.01648629  0.72654827  0.61041842  1
  H  H19  1  0.98351371  0.27345173  0.38958158  1
  H  H20  1  0.93865260  0.83007779  0.67269212  1
  H  H21  1  0.06134740  0.16992221  0.32730788  1
  H  H22  1  0.38192542  0.92206126  0.52844645  1
  H  H23  1  0.61807458  0.07793874  0.47155355  1
  H  H24  1  0.30146778  0.78033765  0.52201912  1
  H  H25  1  0.69853222  0.21966235  0.47798088  1
  H  H26  1  0.23726630  0.93477504  0.47296476  1
  H  H27  1  0.76273370  0.06522496  0.52703524  1
  H  H28  1  0.86652561  0.08125541  0.72304649  1
  H  H29  1  0.13347439  0.91874459  0.27695351  1
  H  H30  1  0.89072571  0.11351392  0.82355797  1
  H  H31  1  0.10927429  0.88648608  0.17644203  1
  H  H32  1  0.77241295  0.20463760  0.75926002  1
  H  H33  1  0.22758705  0.79536240  0.24073998  1
  H  H34  1  0.98279354  0.44251735  0.58268607  1
  H  H35  1  0.01720646  0.55748265  0.41731393  1
  H  H36  1  0.92605611  0.29451782  0.56668602  1
  H  H37  1  0.07394389  0.70548218  0.43331398  1
  H  H38  1  0.82703642  0.39818395  0.61732659  1
  H  H39  1  0.17296358  0.60181605  0.38267341  1
  H  H40  1  0.88638309  0.44718803  0.78696654  1
  H  H41  1  0.11361691  0.55281197  0.21303346  1
  H  H42  1  0.01618593  0.36753129  0.84542970  1
  H  H43  1  0.98381407  0.63246871  0.15457030  1
  H  H44  1  0.04507513  0.48614600  0.75635433  1
  H  H45  1  0.95492487  0.51385400  0.24364567  1
  H  H46  1  0.13408092  0.16468155  0.92093601  1
  H  H47  1  0.86591908  0.83531845  0.07906399  1
  H  H48  1  0.06452777  0.02176233  0.90584137  1
  H  H49  1  0.93547223  0.97823767  0.09415863  1
  H  H50  1  0.19461725  0.01313534  0.97385058  1
  H  H51  1  0.80538275  0.98686466  0.02614942  1
  H  H52  1  0.45041653  0.07446146  0.92293538  1
  H  H53  1  0.54958347  0.92553854  0.07706462  1
  H  H54  1  0.50358924  0.12280133  0.81845274  1
  H  H55  1  0.49641076  0.87719867  0.18154726  1
  H  H56  1  0.40109412  0.22816102  0.86681819  1
  H  H57  1  0.59890588  0.77183898  0.13318181  1
  H  H58  1  0.26693032  0.49276458  0.84937428  1
  H  H59  1  0.73306968  0.50723542  0.15062572  1
  H  H60  1  0.38932207  0.48940120  0.92179289  1
  H  H61  1  0.61067793  0.51059880  0.07820711  1
  H  H62  1  0.23328584  0.44596529  0.95647854  1
  H  H63  1  0.76671416  0.55403471  0.04352146  1
  H  H64  1  0.02453270  0.79147455  0.93664224  1
  H  H65  1  0.97546730  0.20852545  0.06335776  1
  H  H66  1  0.02179937  0.68668645  0.86395993  1
  H  H67  1  0.97820063  0.31331355  0.13604007  1
  H  H68  1  0.02275357  0.62256686  0.97142429  1
  H  H69  1  0.97724643  0.37743314  0.02857571  1
  H  H70  1  0.26060965  0.62977752  0.07450248  1
  H  H71  1  0.73939035  0.37022248  0.92549752  1
  H  H72  1  0.40252742  0.69725967  0.02866672  1
  H  H73  1  0.59747258  0.30274033  0.97133328  1
  H  H74  1  0.26546293  0.79817378  0.04095168  1
  H  H75  1  0.73453707  0.20182622  0.95904832  1
  H  H76  1  0.67763835  0.61607387  0.74414203  1
  H  H77  1  0.32236165  0.38392613  0.25585797  1
  H  H78  1  0.56602925  0.54969142  0.82151611  1
  H  H79  1  0.43397075  0.45030858  0.17848389  1
  H  H80  1  0.51689772  0.60515259  0.71823904  1
  H  H81  1  0.48310228  0.39484741  0.28176096  1
  H  H82  1  0.64407201  0.90884345  0.88935410  1
  H  H83  1  0.35592799  0.09115655  0.11064590  1
  H  H84  1  0.62219044  0.74634370  0.93616905  1
  H  H85  1  0.37780956  0.25365630  0.06383095  1
  H  H86  1  0.74916686  0.78467632  0.86361079  1
  H  H87  1  0.25083314  0.21532368  0.13638921  1
  H  H88  1  0.69781996  0.88067578  0.67805593  1
  H  H89  1  0.30218004  0.11932422  0.32194407  1
  H  H90  1  0.53946617  0.90290871  0.64188800  1
  H  H91  1  0.46053383  0.09709129  0.35811200  1
  H  H92  1  0.59489046  0.00583024  0.70548631  1
  H  H93  1  0.40510954  0.99416976  0.29451369  1
  H  H94  1  0.51595924  0.32627334  0.70924638  1
  H  H95  1  0.48404076  0.67372666  0.29075362  1
  H  H96  1  0.54426128  0.21374868  0.64166702  1
  H  H97  1  0.45573872  0.78625132  0.35833298  1
  H  H98  1  0.55301164  0.38071015  0.60326832  1
  H  H99  1  0.44698836  0.61928985  0.39673168  1
  H  H100  1  0.34084331  0.56192305  0.58483567  1
  H  H101  1  0.65915669  0.43807695  0.41516433  1
  H  H102  1  0.17869634  0.52383804  0.59998724  1
  H  H103  1  0.82130366  0.47616196  0.40001276  1
  H  H104  1  0.27730409  0.51940568  0.68631222  1
  H  H105  1  0.72269591  0.48059432  0.31368778  1
  H  H106  1  0.35325147  0.20846591  0.49956200  1
  H  H107  1  0.64674853  0.79153409  0.50043800  1
  H  H108  1  0.21922276  0.31891524  0.48490308  1
  H  H109  1  0.78077724  0.68108476  0.51509692  1
  H  H110  1  0.37563278  0.37494211  0.46807133  1
  H  H111  1  0.62436722  0.62505789  0.53192867  1
  C  C112  1  0.86836177  0.15756338  0.75961286  1
  C  C113  1  0.13163823  0.84243662  0.24038714  1
  C  C114  1  0.92589912  0.36120643  0.61019314  1
  C  C115  1  0.07410088  0.63879357  0.38980686  1
  C  C116  1  0.98469042  0.40694979  0.78245913  1
  C  C117  1  0.01530958  0.59305021  0.21754087  1
  C  C118  1  0.15459237  0.06401822  0.91527209  1
  C  C119  1  0.84540763  0.93598178  0.08472791  1
  C  C120  1  0.42260142  0.12734960  0.86165338  1
  C  C121  1  0.57739858  0.87265040  0.13834662  1
  C  C122  1  0.28743865  0.51203148  0.91062878  1
  C  C123  1  0.71256135  0.48796852  0.08937122  1
  C  C124  1  0.06005033  0.69809315  0.92321803  1
  C  C125  1  0.93994967  0.30190685  0.07678197  1
  C  C126  1  0.29799853  0.70481843  0.02589647  1
  C  C127  1  0.70200147  0.29518157  0.97410353  1
  C  C128  1  0.57845982  0.62447995  0.76654905  1
  C  C129  1  0.42154018  0.37552005  0.23345095  1
  C  C130  1  0.64917939  0.80970016  0.87840229  1
  C  C131  1  0.35082061  0.19029984  0.12159771  1
  C  C132  1  0.59912666  0.90662212  0.69478387  1
  C  C133  1  0.40087334  0.09337788  0.30521613  1
  C  C134  1  0.50149630  0.30882943  0.64673058  1
  C  C135  1  0.49850370  0.69117057  0.35326942  1
  C  C136  1  0.27501967  0.49838719  0.62370336  1
  C  C137  1  0.72498033  0.50161281  0.37629664  1
  C  C138  1  0.31712784  0.30462163  0.50766650  1
  C  C139  1  0.68287216  0.69537837  0.49233350  1
  C  C140  1  0.00194803  0.82712374  0.61873281  1
  C  C141  1  0.99805197  0.17287626  0.38126719  1
  C  C142  1  0.28809104  0.88202854  0.52740722  1
  C  C143  1  0.71190896  0.11797146  0.47259278  1
  O  O144  1  0.25622645  0.81186182  0.72588412  1
  O  O145  1  0.74377355  0.18813818  0.27411588  1
  O  O146  1  0.16175448  0.06838995  0.64072016  1
  O  O147  1  0.83824552  0.93161005  0.35927984  1
