# generated using pymatgen
data_NiH6(CO3)2
_symmetry_space_group_name_H-M   'P 1'
_cell_length_a   5.45166863
_cell_length_b   9.88218548
_cell_length_c   15.14417171
_cell_angle_alpha   106.26110088
_cell_angle_beta   90.00000000
_cell_angle_gamma   90.00000000
_symmetry_Int_Tables_number   1
_chemical_formula_structural   NiH6(CO3)2
_chemical_formula_sum   'Ni6 H36 C12 O36'
_cell_volume   783.24427273
_cell_formula_units_Z   6
loop_
 _symmetry_equiv_pos_site_id
 _symmetry_equiv_pos_as_xyz
  1  'x, y, z'
loop_
 _atom_site_type_symbol
 _atom_site_label
 _atom_site_symmetry_multiplicity
 _atom_site_fract_x
 _atom_site_fract_y
 _atom_site_fract_z
 _atom_site_occupancy
  Ni  Ni0  1  0.62620617  0.95592813  0.82216020  1
  Ni  Ni1  1  0.12620617  0.04407187  0.67783980  1
  Ni  Ni2  1  0.37379383  0.04407187  0.17783980  1
  Ni  Ni3  1  0.87379383  0.95592813  0.32216020  1
  Ni  Ni4  1  0.50000000  0.50000000  0.50000000  1
  Ni  Ni5  1  0.00000000  0.50000000  -0.00000000  1
  H  H6  1  0.74778753  0.82306127  0.94399548  1
  H  H7  1  0.24778753  0.17693873  0.55600452  1
  H  H8  1  0.25221247  0.17693873  0.05600452  1
  H  H9  1  0.75221247  0.82306127  0.44399548  1
  H  H10  1  0.73562893  0.98449797  0.00395084  1
  H  H11  1  0.23562893  0.01550203  0.49604916  1
  H  H12  1  0.26437107  0.01550203  0.99604916  1
  H  H13  1  0.76437107  0.98449797  0.50395084  1
  H  H14  1  0.15307223  0.95013113  0.83956492  1
  H  H15  1  0.65307223  0.04986887  0.66043508  1
  H  H16  1  0.84692777  0.04986887  0.16043508  1
  H  H17  1  0.34692777  0.95013113  0.33956492  1
  H  H18  1  0.25418971  0.79554000  0.83639880  1
  H  H19  1  0.75418971  0.20446000  0.66360120  1
  H  H20  1  0.74581029  0.20446000  0.16360120  1
  H  H21  1  0.24581029  0.79554000  0.33639880  1
  H  H22  1  0.60741335  0.81662022  0.57482300  1
  H  H23  1  0.10741335  0.18337978  0.92517700  1
  H  H24  1  0.39258665  0.18337978  0.42517700  1
  H  H25  1  0.89258665  0.81662022  0.07482300  1
  H  H26  1  0.92938420  0.62120487  0.46998248  1
  H  H27  1  0.42938420  0.37879513  0.03001752  1
  H  H28  1  0.07061580  0.37879513  0.53001752  1
  H  H29  1  0.57061580  0.62120487  0.96998248  1
  H  H30  1  0.79141850  0.55338439  0.37648384  1
  H  H31  1  0.29141850  0.44661561  0.12351616  1
  H  H32  1  0.20858150  0.44661561  0.62351616  1
  H  H33  1  0.70858150  0.55338439  0.87648384  1
  H  H34  1  0.65273407  0.45595730  0.70231612  1
  H  H35  1  0.15273407  0.54404270  0.79768388  1
  H  H36  1  0.34726593  0.54404270  0.29768388  1
  H  H37  1  0.84726593  0.45595730  0.20231612  1
  H  H38  1  0.49179658  0.35746354  0.74482144  1
  H  H39  1  -0.00820342  0.64253646  0.75517856  1
  H  H40  1  0.50820342  0.64253646  0.25517856  1
  H  H41  1  0.00820342  0.35746354  0.24482144  1
  C  C42  1  0.48544833  0.81584947  0.63318383  1
  C  C43  1  0.98544833  0.18415053  0.86681617  1
  C  C44  1  0.51455167  0.18415053  0.36681617  1
  C  C45  1  0.01455167  0.81584947  0.13318383  1
  C  C46  1  0.61432864  0.70840648  0.67445986  1
  C  C47  1  0.11432864  0.29159352  0.82554014  1
  C  C48  1  0.38567136  0.29159352  0.32554014  1
  C  C49  1  0.88567136  0.70840648  0.17445986  1
  C  C50  1  0.23830900  0.76359955  0.58642347  1
  C  C51  1  0.73830900  0.23640045  0.91357653  1
  C  C52  1  0.76169100  0.23640045  0.41357653  1
  C  C53  1  0.26169100  0.76359955  0.08642347  1
  O  O54  1  0.77456907  0.92080571  0.94285403  1
  O  O55  1  0.27456907  0.07919429  0.55714597  1
  O  O56  1  0.22543093  0.07919429  0.05714597  1
  O  O57  1  0.72543093  0.92080571  0.44285403  1
  O  O58  1  0.28595618  0.89694143  0.86427724  1
  O  O59  1  0.78595618  0.10305857  0.63572276  1
  O  O60  1  0.71404382  0.10305857  0.13572276  1
  O  O61  1  0.21404382  0.89694143  0.36427724  1
  O  O62  1  0.46818210  0.95080228  0.69559303  1
  O  O63  1  0.96818210  0.04919772  0.80440697  1
  O  O64  1  0.53181790  0.04919772  0.30440697  1
  O  O65  1  0.03181790  0.95080228  0.19559303  1
  O  O66  1  0.71074737  0.75384391  0.75345212  1
  O  O67  1  0.21074737  0.24615609  0.74654788  1
  O  O68  1  0.28925263  0.24615609  0.24654788  1
  O  O69  1  0.78925263  0.75384391  0.25345212  1
  O  O70  1  0.63552444  0.58007729  0.62780531  1
  O  O71  1  0.13552444  0.41992271  0.87219469  1
  O  O72  1  0.36447556  0.41992271  0.37219469  1
  O  O73  1  0.86447556  0.58007729  0.12780531  1
  O  O74  1  0.05267514  0.84236737  0.60905571  1
  O  O75  1  0.55267514  0.15763263  0.89094429  1
  O  O76  1  0.94732486  0.15763263  0.39094429  1
  O  O77  1  0.44732486  0.84236737  0.10905571  1
  O  O78  1  0.22842488  0.64760981  0.52262797  1
  O  O79  1  0.72842488  0.35239019  0.97737203  1
  O  O80  1  0.77157512  0.35239019  0.47737203  1
  O  O81  1  0.27157512  0.64760981  0.02262797  1
  O  O82  1  0.76749523  0.61792353  0.43854913  1
  O  O83  1  0.26749523  0.38207647  0.06145087  1
  O  O84  1  0.23250477  0.38207647  0.56145087  1
  O  O85  1  0.73250477  0.61792353  0.93854913  1
  O  O86  1  0.66024666  0.39260371  0.74230905  1
  O  O87  1  0.16024666  0.60739629  0.75769095  1
  O  O88  1  0.33975334  0.60739629  0.25769095  1
  O  O89  1  0.83975334  0.39260371  0.24230905  1
