# generated using pymatgen
data_Rb4(ZnAs)7
_symmetry_space_group_name_H-M   'P 1'
_cell_length_a   4.54723290
_cell_length_b   12.57710679
_cell_length_c   17.33116744
_cell_angle_alpha   90.00000000
_cell_angle_beta   90.00000000
_cell_angle_gamma   100.41486039
_symmetry_Int_Tables_number   1
_chemical_formula_structural   Rb4(ZnAs)7
_chemical_formula_sum   'Rb8 Zn14 As14'
_cell_volume   974.85719130
_cell_formula_units_Z   2
loop_
 _symmetry_equiv_pos_site_id
 _symmetry_equiv_pos_as_xyz
  1  'x, y, z'
loop_
 _atom_site_type_symbol
 _atom_site_label
 _atom_site_symmetry_multiplicity
 _atom_site_fract_x
 _atom_site_fract_y
 _atom_site_fract_z
 _atom_site_occupancy
  Rb  Rb0  1  0.14001915  0.28003829  0.88762584  1
  Rb  Rb1  1  0.85998085  0.71996171  0.11237416  1
  Rb  Rb2  1  0.14001915  0.28003829  0.61237416  1
  Rb  Rb3  1  0.85998085  0.71996171  0.38762584  1
  Rb  Rb4  1  0.71298104  0.42596207  0.25000000  1
  Rb  Rb5  1  0.28701896  0.57403793  0.75000000  1
  Rb  Rb6  1  -0.00000000  -0.00000000  0.50000000  1
  Rb  Rb7  1  -0.00000000  -0.00000000  -0.00000000  1
  Zn  Zn8  1  0.14838361  0.29676722  0.39058460  1
  Zn  Zn9  1  0.85161639  0.70323278  0.60941540  1
  Zn  Zn10  1  0.14838361  0.29676722  0.10941540  1
  Zn  Zn11  1  0.85161639  0.70323278  0.89058460  1
  Zn  Zn12  1  0.28411887  0.56823774  0.96902321  1
  Zn  Zn13  1  0.71588113  0.43176226  0.03097679  1
  Zn  Zn14  1  0.28411887  0.56823774  0.53097679  1
  Zn  Zn15  1  0.71588113  0.43176226  0.46902321  1
  Zn  Zn16  1  0.57422610  0.14845221  0.32927335  1
  Zn  Zn17  1  0.42577390  0.85154779  0.67072665  1
  Zn  Zn18  1  0.57422610  0.14845221  0.17072665  1
  Zn  Zn19  1  0.42577390  0.85154779  0.82927335  1
  Zn  Zn20  1  0.00250151  0.00500301  0.25000000  1
  Zn  Zn21  1  0.99749849  0.99499699  0.75000000  1
  As  As22  1  0.47181035  0.94362070  0.31970635  1
  As  As23  1  0.52818965  0.05637930  0.68029365  1
  As  As24  1  0.47181035  0.94362070  0.18029365  1
  As  As25  1  0.52818965  0.05637930  0.81970635  1
  As  As26  1  0.24947841  0.49895681  0.39518955  1
  As  As27  1  0.75052159  0.50104319  0.60481045  1
  As  As28  1  0.24947841  0.49895681  0.10481045  1
  As  As29  1  0.75052159  0.50104319  0.89518955  1
  As  As30  1  0.61447020  0.22894040  0.45886868  1
  As  As31  1  0.38552980  0.77105960  0.54113132  1
  As  As32  1  0.61447020  0.22894040  0.04113132  1
  As  As33  1  0.38552980  0.77105960  0.95886868  1
  As  As34  1  0.10549327  0.21098654  0.25000000  1
  As  As35  1  0.89450673  0.78901346  0.75000000  1
