# generated using pymatgen
data_YMg14ZnO16
_symmetry_space_group_name_H-M   'P 1'
_cell_length_a   8.70638759
_cell_length_b   8.77458118
_cell_length_c   4.34959350
_cell_angle_alpha   90.00000000
_cell_angle_beta   90.00000000
_cell_angle_gamma   90.00000000
_symmetry_Int_Tables_number   1
_chemical_formula_structural   YMg14ZnO16
_chemical_formula_sum   'Y1 Mg14 Zn1 O16'
_cell_volume   332.28678089
_cell_formula_units_Z   1
loop_
 _symmetry_equiv_pos_site_id
 _symmetry_equiv_pos_as_xyz
  1  'x, y, z'
loop_
 _atom_site_type_symbol
 _atom_site_label
 _atom_site_symmetry_multiplicity
 _atom_site_fract_x
 _atom_site_fract_y
 _atom_site_fract_z
 _atom_site_occupancy
  Y  Y0  1  -0.00000000  -0.00000000  -0.00000000  1
  Mg  Mg1  1  0.50000000  0.00000000  -0.00000000  1
  Mg  Mg2  1  0.50000000  0.50000000  -0.00000000  1
  Mg  Mg3  1  -0.00000000  0.26518784  0.50000000  1
  Mg  Mg4  1  -0.00000000  0.73481216  0.50000000  1
  Mg  Mg5  1  0.50000000  0.25342565  0.50000000  1
  Mg  Mg6  1  0.50000000  0.74657435  0.50000000  1
  Mg  Mg7  1  0.26311292  -0.00000000  0.50000000  1
  Mg  Mg8  1  0.25230154  0.50000000  0.50000000  1
  Mg  Mg9  1  0.73688708  0.00000000  0.50000000  1
  Mg  Mg10  1  0.74769846  0.50000000  0.50000000  1
  Mg  Mg11  1  0.25672827  0.25960779  -0.00000000  1
  Mg  Mg12  1  0.25672827  0.74039221  0.00000000  1
  Mg  Mg13  1  0.74327173  0.25960779  -0.00000000  1
  Mg  Mg14  1  0.74327173  0.74039221  0.00000000  1
  Zn  Zn15  1  0.00000000  0.50000000  -0.00000000  1
  O  O16  1  0.25994773  0.00000000  0.00000000  1
  O  O17  1  0.26618877  0.50000000  0.00000000  1
  O  O18  1  0.74005227  -0.00000000  0.00000000  1
  O  O19  1  0.73381123  0.50000000  0.00000000  1
  O  O20  1  0.25049450  0.24814294  0.50000000  1
  O  O21  1  0.25049450  0.75185706  0.50000000  1
  O  O22  1  0.74950550  0.24814294  0.50000000  1
  O  O23  1  0.74950550  0.75185706  0.50000000  1
  O  O24  1  0.00000000  -0.00000000  0.50000000  1
  O  O25  1  0.00000000  0.50000000  0.50000000  1
  O  O26  1  0.50000000  -0.00000000  0.50000000  1
  O  O27  1  0.50000000  0.50000000  0.50000000  1
  O  O28  1  0.00000000  0.25051349  -0.00000000  1
  O  O29  1  -0.00000000  0.74948651  -0.00000000  1
  O  O30  1  0.50000000  0.24770861  -0.00000000  1
  O  O31  1  0.50000000  0.75229139  0.00000000  1
