# generated using pymatgen
data_TaP2H27C9Cl2
_symmetry_space_group_name_H-M   'P 1'
_cell_length_a   9.75478335
_cell_length_b   14.34815020
_cell_length_c   14.77738810
_cell_angle_alpha   97.51752766
_cell_angle_beta   90.00000000
_cell_angle_gamma   109.87271387
_symmetry_Int_Tables_number   1
_chemical_formula_structural   TaP2H27C9Cl2
_chemical_formula_sum   'Ta4 P8 H108 C36 Cl8'
_cell_volume   1926.20907638
_cell_formula_units_Z   4
loop_
 _symmetry_equiv_pos_site_id
 _symmetry_equiv_pos_as_xyz
  1  'x, y, z'
loop_
 _atom_site_type_symbol
 _atom_site_label
 _atom_site_symmetry_multiplicity
 _atom_site_fract_x
 _atom_site_fract_y
 _atom_site_fract_z
 _atom_site_occupancy
  Ta  Ta0  1  0.59340418  0.77673105  0.91324243  1
  Ta  Ta1  1  0.81667313  0.22326895  0.58675757  1
  Ta  Ta2  1  0.40659582  0.22326895  0.08675757  1
  Ta  Ta3  1  0.18332687  0.77673105  0.41324243  1
  P  P4  1  0.84692635  0.79079044  0.82931036  1
  P  P5  1  0.05613591  0.20920956  0.67068964  1
  P  P6  1  0.15307365  0.20920956  0.17068964  1
  P  P7  1  0.94386409  0.79079044  0.32931036  1
  P  P8  1  0.35337596  0.65786063  0.99497397  1
  P  P9  1  0.69551534  0.34213937  0.50502603  1
  P  P10  1  0.64662404  0.34213937  0.00502603  1
  P  P11  1  0.30448466  0.65786063  0.49497397  1
  H  H12  1  0.43283713  0.82216864  0.78517200  1
  H  H13  1  0.61066849  0.17783136  0.71482800  1
  H  H14  1  0.56716287  0.17783136  0.21482800  1
  H  H15  1  0.38933151  0.82216864  0.28517200  1
  H  H16  1  0.30435098  0.72711480  0.83736573  1
  H  H17  1  0.57723618  0.27288520  0.66263427  1
  H  H18  1  0.69564902  0.27288520  0.16263427  1
  H  H19  1  0.42276382  0.72711480  0.33736573  1
  H  H20  1  0.36772715  0.85426394  0.89320907  1
  H  H21  1  0.51346321  0.14573606  0.60679093  1
  H  H22  1  0.63227285  0.14573606  0.10679093  1
  H  H23  1  0.48653679  0.85426394  0.39320907  1
  H  H24  1  0.61441927  0.97633941  0.91012296  1
  H  H25  1  0.63807987  0.02366059  0.58987704  1
  H  H26  1  0.38558073  0.02366059  0.08987704  1
  H  H27  1  0.36192013  0.97633941  0.41012296  1
  H  H28  1  0.79399745  0.97287823  0.91759943  1
  H  H29  1  0.82111922  0.02712177  0.58240057  1
  H  H30  1  0.20600255  0.02712177  0.08240057  1
  H  H31  1  0.17888078  0.97287823  0.41759943  1
  H  H32  1  0.69190569  0.93607628  0.81073042  1
  H  H33  1  0.75582941  0.06392372  0.68926958  1
  H  H34  1  0.30809431  0.06392372  0.18926958  1
  H  H35  1  0.24417059  0.93607628  0.31073042  1
  H  H36  1  0.55567960  0.81611357  0.10605313  1
  H  H37  1  0.73956603  0.18388643  0.39394687  1
  H  H38  1  0.44432040  0.18388643  0.89394687  1
  H  H39  1  0.26043397  0.81611357  0.60605313  1
  H  H40  1  0.70259357  0.91089947  0.06711950  1
  H  H41  1  0.79169410  0.08910053  0.43288050  1
  H  H42  1  0.29740643  0.08910053  0.93288050  1
  H  H43  1  0.20830590  0.91089947  0.56711950  1
  H  H44  1  0.52225079  0.91016819  0.05041868  1
  H  H45  1  0.61208260  0.08983181  0.44958132  1
  H  H46  1  0.47774921  0.08983181  0.94958132  1
  H  H47  1  0.38791740  0.91016819  0.55041868  1
  H  H48  1  0.97423392  0.83717392  0.69086784  1
  H  H49  1  0.13706000  0.16282608  0.80913216  1
  H  H50  1  0.02576608  0.16282608  0.30913216  1
  H  H51  1  0.86294000  0.83717392  0.19086784  1
  H  H52  1  0.78281878  0.77595989  0.66889482  1
  H  H53  1  0.00685889  0.22404011  0.83110518  1
  H  H54  1  0.21718122  0.22404011  0.33110518  1
  H  H55  1  0.99314111  0.77595989  0.16889482  1
  H  H56  1  0.85132329  0.90416531  0.71964145  1
  H  H57  1  0.94715798  0.09583469  0.78035855  1
  H  H58  1  0.14867671  0.09583469  0.28035855  1
  H  H59  1  0.05284202  0.90416531  0.21964145  1
  H  H60  1  0.00957672  0.95633335  0.89629127  1
  H  H61  1  0.05324336  0.04366665  0.60370873  1
  H  H62  1  0.99042328  0.04366665  0.10370873  1
  H  H63  1  0.94675664  0.95633335  0.39629127  1
  H  H64  1  0.01129770  0.86124760  0.96278870  1
  H  H65  1  0.15005011  0.13875240  0.53721130  1
  H  H66  1  0.98870230  0.13875240  0.03721130  1
  H  H67  1  0.84994989  0.86124760  0.46278870  1
  H  H68  1  0.10890510  0.87534581  0.85978062  1
  H  H69  1  0.23355929  0.12465419  0.64021938  1
  H  H70  1  0.89109490  0.12465419  0.14021938  1
  H  H71  1  0.76644071  0.87534581  0.35978062  1
  H  H72  1  0.91036759  0.65377939  0.87343265  1
  H  H73  1  0.25658820  0.34622061  0.62656735  1
  H  H74  1  0.08963241  0.34622061  0.12656735  1
  H  H75  1  0.74341180  0.65377939  0.37343265  1
  H  H76  1  0.80791383  0.61838461  0.76683252  1
  H  H77  1  0.18952923  0.38161539  0.73316748  1
  H  H78  1  0.19208617  0.38161539  0.23316748  1
  H  H79  1  0.81047077  0.61838461  0.26683252  1
  H  H80  1  0.99672417  0.69506276  0.77100783  1
  H  H81  1  0.30166141  0.30493724  0.72899217  1
  H  H82  1  0.00327583  0.30493724  0.22899217  1
  H  H83  1  0.69833859  0.69506276  0.27100783  1
  H  H84  1  0.29120615  0.78673672  0.09289354  1
  H  H85  1  0.50446942  0.21326328  0.40710646  1
  H  H86  1  0.70879385  0.21326328  0.90710646  1
  H  H87  1  0.49553058  0.78673672  0.59289354  1
  H  H88  1  0.18627088  0.74973521  0.98708008  1
  H  H89  1  0.43653567  0.25026479  0.51291992  1
  H  H90  1  0.81372912  0.25026479  0.01291992  1
  H  H91  1  0.56346433  0.74973521  0.48708008  1
  H  H92  1  0.14205306  0.67126594  0.07586678  1
  H  H93  1  0.47078712  0.32873406  0.42413322  1
  H  H94  1  0.85794694  0.32873406  0.92413322  1
  H  H95  1  0.52921288  0.67126594  0.57586678  1
  H  H96  1  0.13135524  0.51200272  0.96395429  1
  H  H97  1  0.61935252  0.48799728  0.53604571  1
  H  H98  1  0.86864476  0.48799728  0.03604571  1
  H  H99  1  0.38064748  0.51200272  0.46395429  1
  H  H100  1  0.18494827  0.57115103  0.86379314  1
  H  H101  1  0.61379724  0.42884897  0.63620686  1
  H  H102  1  0.81505173  0.42884897  0.13620686  1
  H  H103  1  0.38620276  0.57115103  0.36379314  1
  H  H104  1  0.27951424  0.49536749  0.90101823  1
  H  H105  1  0.78414675  0.50463251  0.59898177  1
  H  H106  1  0.72048576  0.50463251  0.09898177  1
  H  H107  1  0.21585325  0.49536749  0.40101823  1
  H  H108  1  0.43308084  0.54469210  0.07174082  1
  H  H109  1  0.88838874  0.45530790  0.42825918  1
  H  H110  1  0.56691916  0.45530790  0.92825918  1
  H  H111  1  0.11161126  0.54469210  0.57174082  1
  H  H112  1  0.45709205  0.65938674  0.14468205  1
  H  H113  1  0.79770531  0.34061326  0.35531795  1
  H  H114  1  0.54290795  0.34061326  0.85531795  1
  H  H115  1  0.20229469  0.65938674  0.64468205  1
  H  H116  1  0.27973982  0.56674049  0.12489468  1
  H  H117  1  0.71299933  0.43325951  0.37510532  1
  H  H118  1  0.72026018  0.43325951  0.87510532  1
  H  H119  1  0.28700067  0.56674049  0.62489468  1
  C  C120  1  0.39919386  0.79621714  0.85153578  1
  C  C121  1  0.60297673  0.20378286  0.64846422  1
  C  C122  1  0.60080614  0.20378286  0.14846422  1
  C  C123  1  0.39702327  0.79621714  0.35153578  1
  C  C124  1  0.68432236  0.93352570  0.88492834  1
  C  C125  1  0.75079666  0.06647430  0.61507166  1
  C  C126  1  0.31567764  0.06647430  0.11507166  1
  C  C127  1  0.24920334  0.93352570  0.38492834  1
  C  C128  1  0.58843728  0.86160732  0.05019376  1
  C  C129  1  0.72682996  0.13839268  0.44980624  1
  C  C130  1  0.41156272  0.13839268  0.94980624  1
  C  C131  1  0.27317004  0.86160732  0.55019376  1
  C  C132  1  0.86612321  0.83152772  0.71634609  1
  C  C133  1  0.03459549  0.16847228  0.78365391  1
  C  C134  1  0.13387679  0.16847228  0.28365391  1
  C  C135  1  0.96540451  0.83152772  0.21634609  1
  C  C136  1  0.01006382  0.87982001  0.89315242  1
  C  C137  1  0.13024381  0.12017999  0.60684758  1
  C  C138  1  0.98993618  0.12017999  0.10684758  1
  C  C139  1  0.86975619  0.87982001  0.39315242  1
  C  C140  1  0.89511630  0.67795677  0.80788294  1
  C  C141  1  0.21715953  0.32204323  0.69211706  1
  C  C142  1  0.10488370  0.32204323  0.19211706  1
  C  C143  1  0.78284047  0.67795677  0.30788294  1
  C  C144  1  0.23122960  0.72294622  0.04219114  1
  C  C145  1  0.50828338  0.27705378  0.45780886  1
  C  C146  1  0.76877040  0.27705378  0.95780886  1
  C  C147  1  0.49171662  0.72294622  0.54219114  1
  C  C148  1  0.22470484  0.54870688  0.92401116  1
  C  C149  1  0.67599796  0.45129312  0.57598884  1
  C  C150  1  0.77529516  0.45129312  0.07598884  1
  C  C151  1  0.32400204  0.54870688  0.42401116  1
  C  C152  1  0.38373080  0.60152795  0.09366525  1
  C  C153  1  0.78220285  0.39847205  0.40633475  1
  C  C154  1  0.61626920  0.39847205  0.90633475  1
  C  C155  1  0.21779715  0.60152795  0.59366525  1
  Cl  Cl156  1  0.71435808  0.69345137  0.00623999  1
  Cl  Cl157  1  0.02090671  0.30654863  0.49376001  1
  Cl  Cl158  1  0.28564192  0.30654863  0.99376001  1
  Cl  Cl159  1  0.97909329  0.69345137  0.50623999  1
  Cl  Cl160  1  0.52187276  0.62830022  0.79430959  1
  Cl  Cl161  1  0.89357254  0.37169978  0.70569041  1
  Cl  Cl162  1  0.47812724  0.37169978  0.20569041  1
  Cl  Cl163  1  0.10642746  0.62830022  0.29430959  1
