# generated using pymatgen
data_Fe3H16C4(SeN)4
_symmetry_space_group_name_H-M   'P 1'
_cell_length_a   7.88430155
_cell_length_b   9.47296735
_cell_length_c   10.71894480
_cell_angle_alpha   69.85780782
_cell_angle_beta   68.42159157
_cell_angle_gamma   65.40840522
_symmetry_Int_Tables_number   1
_chemical_formula_structural   Fe3H16C4(SeN)4
_chemical_formula_sum   'Fe6 H32 C8 Se8 N8'
_cell_volume   659.38820889
_cell_formula_units_Z   2
loop_
 _symmetry_equiv_pos_site_id
 _symmetry_equiv_pos_as_xyz
  1  'x, y, z'
loop_
 _atom_site_type_symbol
 _atom_site_label
 _atom_site_symmetry_multiplicity
 _atom_site_fract_x
 _atom_site_fract_y
 _atom_site_fract_z
 _atom_site_occupancy
  Fe  Fe0  1  -0.00000000  -0.00000000  0.50000000  1
  Fe  Fe1  1  0.50000000  0.50000000  0.00000000  1
  Fe  Fe2  1  0.52089011  0.12047777  0.87500407  1
  Fe  Fe3  1  0.51637194  0.37952223  0.62499593  1
  Fe  Fe4  1  0.47910989  0.87952223  0.12499593  1
  Fe  Fe5  1  0.48362806  0.62047777  0.37500407  1
  H  H6  1  0.01700064  0.15303040  0.24836106  1
  H  H7  1  0.41839210  0.34696960  0.25163894  1
  H  H8  1  0.98299936  0.84696960  0.75163894  1
  H  H9  1  0.58160790  0.65303040  0.74836106  1
  H  H10  1  0.79898175  0.83017463  0.53481490  1
  H  H11  1  0.16397129  0.66982537  0.96518510  1
  H  H12  1  0.20101825  0.16982537  0.46518510  1
  H  H13  1  0.83602871  0.33017463  0.03481490  1
  H  H14  1  0.74935640  0.14593755  0.20697820  1
  H  H15  1  0.10227215  0.35406245  0.29302180  1
  H  H16  1  0.25064360  0.85406245  0.79302180  1
  H  H17  1  0.89772785  0.64593755  0.70697820  1
  H  H18  1  0.63486783  0.11855167  0.38777807  1
  H  H19  1  0.14119757  0.38144833  0.11222193  1
  H  H20  1  0.36513217  0.88144833  0.61222193  1
  H  H21  1  0.85880243  0.61855167  0.88777807  1
  H  H22  1  0.78227056  0.85725556  0.31655013  1
  H  H23  1  0.95607625  0.64274444  0.18344987  1
  H  H24  1  0.21772944  0.14274444  0.68344987  1
  H  H25  1  0.04392375  0.35725556  0.81655013  1
  H  H26  1  0.02545851  0.73707096  0.46198513  1
  H  H27  1  0.22451460  0.76292904  0.03801487  1
  H  H28  1  0.97454149  0.26292904  0.53801487  1
  H  H29  1  0.77548540  0.23707096  0.96198513  1
  H  H30  1  0.00930624  0.89187354  0.24436266  1
  H  H31  1  0.14554244  0.60812646  0.25563734  1
  H  H32  1  0.99069376  0.10812646  0.75563734  1
  H  H33  1  0.85445756  0.39187354  0.74436266  1
  H  H34  1  0.82857861  0.26758801  0.34592712  1
  H  H35  1  0.44209374  0.23241199  0.15407288  1
  H  H36  1  0.17142139  0.73241199  0.65407288  1
  H  H37  1  0.55790626  0.76758801  0.84592712  1
  C  C38  1  0.77406171  0.09111065  0.30991614  1
  C  C39  1  0.17508850  0.40888935  0.19008386  1
  C  C40  1  0.22593829  0.90888935  0.69008386  1
  C  C41  1  0.82491150  0.59111065  0.80991614  1
  C  C42  1  0.87285373  0.91352044  0.32540240  1
  C  C43  1  0.11177656  0.58647956  0.17459760  1
  C  C44  1  0.12714627  0.08647956  0.67459760  1
  C  C45  1  0.88822344  0.41352044  0.82540240  1
  Se  Se46  1  0.67395121  0.09876572  0.64294880  1
  Se  Se47  1  0.41566573  0.40123428  0.85705120  1
  Se  Se48  1  0.32604879  0.90123428  0.35705120  1
  Se  Se49  1  0.58433427  0.59876572  0.14294880  1
  Se  Se50  1  0.75017519  0.96454090  0.00166272  1
  Se  Se51  1  0.71637881  0.53545910  0.49833728  1
  Se  Se52  1  0.24982481  0.03545910  0.99833728  1
  Se  Se53  1  0.28362119  0.46454090  0.50166272  1
  N  N54  1  0.90171167  0.15233709  0.33427210  1
  N  N55  1  0.38832086  0.34766291  0.16572790  1
  N  N56  1  0.09828833  0.84766291  0.66572790  1
  N  N57  1  0.61167914  0.65233709  0.83427210  1
  N  N58  1  0.91952784  0.84772146  0.46055082  1
  N  N59  1  0.22780012  0.65227854  0.03944918  1
  N  N60  1  0.08047216  0.15227854  0.53944918  1
  N  N61  1  0.77219988  0.34772146  0.96055082  1
