# generated using pymatgen
data_Ge2RuC4(Cl3O2)2
_symmetry_space_group_name_H-M   'P 1'
_cell_length_a   8.66073037
_cell_length_b   9.40249257
_cell_length_c   10.35020374
_cell_angle_alpha   90.00000000
_cell_angle_beta   90.00000000
_cell_angle_gamma   95.03021441
_symmetry_Int_Tables_number   1
_chemical_formula_structural   Ge2RuC4(Cl3O2)2
_chemical_formula_sum   'Ge4 Ru2 C8 Cl12 O8'
_cell_volume   839.59635449
_cell_formula_units_Z   2
loop_
 _symmetry_equiv_pos_site_id
 _symmetry_equiv_pos_as_xyz
  1  'x, y, z'
loop_
 _atom_site_type_symbol
 _atom_site_label
 _atom_site_symmetry_multiplicity
 _atom_site_fract_x
 _atom_site_fract_y
 _atom_site_fract_z
 _atom_site_occupancy
  Ge  Ge0  1  0.28674934  0.50545135  0.66917149  1
  Ge  Ge1  1  0.78674934  0.00545135  0.83082851  1
  Ge  Ge2  1  0.71325066  0.49454865  0.33082851  1
  Ge  Ge3  1  0.21325066  0.99454865  0.16917149  1
  Ru  Ru4  1  0.50000000  0.50000000  0.50000000  1
  Ru  Ru5  1  0.00000000  0.00000000  -0.00000000  1
  C  C6  1  0.50659598  0.70946171  0.48258120  1
  C  C7  1  0.00659598  0.20946171  0.01741880  1
  C  C8  1  0.49340402  0.29053829  0.51741880  1
  C  C9  1  0.99340402  0.79053829  0.98258120  1
  C  C10  1  0.66237713  0.52542869  0.63405810  1
  C  C11  1  0.16237713  0.02542869  0.86594190  1
  C  C12  1  0.33762287  0.47457131  0.36594190  1
  C  C13  1  0.83762287  0.97457131  0.13405810  1
  Cl  Cl14  1  0.35351338  0.48061608  0.87044045  1
  Cl  Cl15  1  0.85351338  0.98061608  0.62955955  1
  Cl  Cl16  1  0.64648662  0.51938392  0.12955955  1
  Cl  Cl17  1  0.14648662  0.01938392  0.37044045  1
  Cl  Cl18  1  0.09577752  0.33894732  0.64572880  1
  Cl  Cl19  1  0.59577752  0.83894732  0.85427120  1
  Cl  Cl20  1  0.90422248  0.66105268  0.35427120  1
  Cl  Cl21  1  0.40422248  0.16105268  0.14572880  1
  Cl  Cl22  1  0.16669604  0.70092946  0.66767571  1
  Cl  Cl23  1  0.66669604  0.20092946  0.83232429  1
  Cl  Cl24  1  0.83330396  0.29907054  0.33232429  1
  Cl  Cl25  1  0.33330396  0.79907054  0.16767571  1
  O  O26  1  0.51163040  0.83135441  0.47300745  1
  O  O27  1  0.01163040  0.33135441  0.02699255  1
  O  O28  1  0.48836960  0.16864559  0.52699255  1
  O  O29  1  0.98836960  0.66864559  0.97300745  1
  O  O30  1  0.75720568  0.54166385  0.71125849  1
  O  O31  1  0.25720568  0.04166385  0.78874151  1
  O  O32  1  0.24279432  0.45833615  0.28874151  1
  O  O33  1  0.74279432  0.95833615  0.21125849  1
