# generated using pymatgen
data_NaS2N(O2F)2
_symmetry_space_group_name_H-M   'P 1'
_cell_length_a   9.60141338
_cell_length_b   10.70671111
_cell_length_c   12.19042370
_cell_angle_alpha   90.00000000
_cell_angle_beta   90.00000000
_cell_angle_gamma   98.66268432
_symmetry_Int_Tables_number   1
_chemical_formula_structural   NaS2N(O2F)2
_chemical_formula_sum   'Na8 S16 N8 O32 F16'
_cell_volume   1238.87425736
_cell_formula_units_Z   8
loop_
 _symmetry_equiv_pos_site_id
 _symmetry_equiv_pos_as_xyz
  1  'x, y, z'
loop_
 _atom_site_type_symbol
 _atom_site_label
 _atom_site_symmetry_multiplicity
 _atom_site_fract_x
 _atom_site_fract_y
 _atom_site_fract_z
 _atom_site_occupancy
  Na  Na0  1  0.54217856  0.25306353  0.48813396  1
  Na  Na1  1  0.04217856  0.75306353  0.01186604  1
  Na  Na2  1  0.45782144  0.74693647  0.51186604  1
  Na  Na3  1  0.95782144  0.24693647  0.98813396  1
  Na  Na4  1  0.89350061  0.32949636  0.67071519  1
  Na  Na5  1  0.39350061  0.82949636  0.82928481  1
  Na  Na6  1  0.10649939  0.67050364  0.32928481  1
  Na  Na7  1  0.60649939  0.17050364  0.17071519  1
  S  S8  1  0.62445656  0.17464882  0.86464278  1
  S  S9  1  0.12445656  0.67464882  0.63535722  1
  S  S10  1  0.37554344  0.82535118  0.13535722  1
  S  S11  1  0.87554344  0.32535118  0.36464278  1
  S  S12  1  0.65704074  0.53953107  0.64615767  1
  S  S13  1  0.15704074  0.03953107  0.85384233  1
  S  S14  1  0.34295926  0.46046893  0.35384233  1
  S  S15  1  0.84295926  0.96046893  0.14615767  1
  S  S16  1  0.70463402  0.64825972  0.85412143  1
  S  S17  1  0.20463402  0.14825972  0.64587857  1
  S  S18  1  0.29536598  0.35174028  0.14587857  1
  S  S19  1  0.79536598  0.85174028  0.35412143  1
  S  S20  1  0.63827514  0.02468981  0.68135923  1
  S  S21  1  0.13827514  0.52468981  0.81864077  1
  S  S22  1  0.36172486  0.97531019  0.31864077  1
  S  S23  1  0.86172486  0.47531019  0.18135923  1
  N  N24  1  0.57830983  0.04636337  0.79992540  1
  N  N25  1  0.07830983  0.54636337  0.70007460  1
  N  N26  1  0.42169017  0.95363663  0.20007460  1
  N  N27  1  0.92169017  0.45363663  0.29992540  1
  N  N28  1  0.72150857  0.54478525  0.76408226  1
  N  N29  1  0.22150857  0.04478525  0.73591774  1
  N  N30  1  0.27849143  0.45521475  0.23591774  1
  N  N31  1  0.77849143  0.95521475  0.26408226  1
  O  O32  1  0.76781290  0.23477418  0.84543398  1
  O  O33  1  0.26781290  0.73477418  0.65456602  1
  O  O34  1  0.23218710  0.76522582  0.15456602  1
  O  O35  1  0.73218710  0.26522582  0.34543398  1
  O  O36  1  0.68030597  0.13669018  0.61600467  1
  O  O37  1  0.18030597  0.63669018  0.88399533  1
  O  O38  1  0.31969403  0.86330982  0.38399533  1
  O  O39  1  0.81969403  0.36330982  0.11600467  1
  O  O40  1  0.52320840  0.58180333  0.62983491  1
  O  O41  1  0.02320840  0.08180333  0.87016509  1
  O  O42  1  0.47679160  0.41819667  0.37016509  1
  O  O43  1  0.97679160  0.91819667  0.12983491  1
  O  O44  1  0.54884490  0.91931401  0.63329709  1
  O  O45  1  0.04884490  0.41931401  0.86670291  1
  O  O46  1  0.45115510  0.08068599  0.36670291  1
  O  O47  1  0.95115510  0.58068599  0.13329709  1
  O  O48  1  0.60657260  0.73336910  0.82908783  1
  O  O49  1  0.10657260  0.23336910  0.67091217  1
  O  O50  1  0.39342740  0.26663090  0.17091217  1
  O  O51  1  0.89342740  0.76663090  0.32908783  1
  O  O52  1  0.83995354  0.69805358  0.89858487  1
  O  O53  1  0.33995354  0.19805358  0.60141513  1
  O  O54  1  0.16004646  0.30194642  0.10141513  1
  O  O55  1  0.66004646  0.80194642  0.39858487  1
  O  O56  1  0.57445266  0.15961376  0.97498166  1
  O  O57  1  0.07445266  0.65961376  0.52501834  1
  O  O58  1  0.42554734  0.84038624  0.02501834  1
  O  O59  1  0.92554734  0.34038624  0.47498166  1
  O  O60  1  0.67859601  0.42009199  0.59867542  1
  O  O61  1  0.17859601  0.92009199  0.90132458  1
  O  O62  1  0.32140399  0.57990801  0.40132458  1
  O  O63  1  0.82140399  0.07990801  0.09867542  1
  F  F64  1  0.53070539  0.26857608  0.80870821  1
  F  F65  1  0.03070539  0.76857608  0.69129179  1
  F  F66  1  0.46929461  0.73142392  0.19129179  1
  F  F67  1  0.96929461  0.23142392  0.30870821  1
  F  F68  1  0.76524097  0.64199385  0.57970962  1
  F  F69  1  0.26524097  0.14199385  0.92029038  1
  F  F70  1  0.23475903  0.35800615  0.42029038  1
  F  F71  1  0.73475903  0.85800615  0.07970962  1
  F  F72  1  0.63095072  0.55887406  0.94923307  1
  F  F73  1  0.13095072  0.05887406  0.55076693  1
  F  F74  1  0.36904928  0.44112594  0.05076693  1
  F  F75  1  0.86904928  0.94112594  0.44923307  1
  F  F76  1  0.78324136  0.97405546  0.70621642  1
  F  F77  1  0.28324136  0.47405546  0.79378358  1
  F  F78  1  0.21675864  0.02594454  0.29378358  1
  F  F79  1  0.71675864  0.52594454  0.20621642  1
