# generated using pymatgen
data_Ca(BO2)3
_symmetry_space_group_name_H-M   'P 1'
_cell_length_a   6.51402931
_cell_length_b   6.81749116
_cell_length_c   10.41212503
_cell_angle_alpha   90.00000000
_cell_angle_beta   90.00000000
_cell_angle_gamma   115.79299614
_symmetry_Int_Tables_number   1
_chemical_formula_structural   Ca(BO2)3
_chemical_formula_sum   'Ca4 B12 O24'
_cell_volume   416.32801081
_cell_formula_units_Z   4
loop_
 _symmetry_equiv_pos_site_id
 _symmetry_equiv_pos_as_xyz
  1  'x, y, z'
loop_
 _atom_site_type_symbol
 _atom_site_label
 _atom_site_symmetry_multiplicity
 _atom_site_fract_x
 _atom_site_fract_y
 _atom_site_fract_z
 _atom_site_occupancy
  Ca  Ca0  1  0.62158547  0.79867574  0.06740873  1
  Ca  Ca1  1  0.37841453  0.70132426  0.56740873  1
  Ca  Ca2  1  0.37841453  0.20132426  0.93259127  1
  Ca  Ca3  1  0.62158547  0.29867574  0.43259127  1
  B  B4  1  0.75791564  0.90589426  0.38774085  1
  B  B5  1  0.24208436  0.59410574  0.88774085  1
  B  B6  1  0.24208436  0.09410574  0.61225915  1
  B  B7  1  0.75791564  0.40589426  0.11225915  1
  B  B8  1  0.13051667  0.26190849  0.42009033  1
  B  B9  1  0.86948333  0.23809151  0.92009033  1
  B  B10  1  0.86948333  0.73809151  0.57990967  1
  B  B11  1  0.13051667  0.76190849  0.07990967  1
  B  B12  1  0.08020096  0.02030273  0.23112941  1
  B  B13  1  0.91979904  0.47969727  0.73112941  1
  B  B14  1  0.91979904  0.97969727  0.76887059  1
  B  B15  1  0.08020096  0.52030273  0.26887059  1
  O  O16  1  0.54703707  0.92881114  0.37904784  1
  O  O17  1  0.45296293  0.57118886  0.87904784  1
  O  O18  1  0.45296293  0.07118886  0.62095216  1
  O  O19  1  0.54703707  0.42881114  0.12095216  1
  O  O20  1  0.85337504  0.89535880  0.25990307  1
  O  O21  1  0.14662496  0.60464120  0.75990307  1
  O  O22  1  0.14662496  0.10464120  0.74009693  1
  O  O23  1  0.85337504  0.39535880  0.24009693  1
  O  O24  1  0.72797135  0.71095323  0.46533799  1
  O  O25  1  0.27202865  0.78904677  0.96533799  1
  O  O26  1  0.27202865  0.28904677  0.53466201  1
  O  O27  1  0.72797135  0.21095323  0.03466201  1
  O  O28  1  0.89192189  0.11442733  0.45470495  1
  O  O29  1  0.10807811  0.38557267  0.95470495  1
  O  O30  1  0.10807811  0.88557267  0.54529505  1
  O  O31  1  0.89192189  0.61442733  0.04529505  1
  O  O32  1  0.22079424  0.17973323  0.31236171  1
  O  O33  1  0.77920576  0.32026677  0.81236171  1
  O  O34  1  0.77920576  0.82026677  0.68763829  1
  O  O35  1  0.22079424  0.67973323  0.18763829  1
  O  O36  1  0.15968533  0.48384852  0.38600555  1
  O  O37  1  0.84031467  0.01615148  0.88600555  1
  O  O38  1  0.84031467  0.51615148  0.61399445  1
  O  O39  1  0.15968533  0.98384852  0.11399445  1
