# generated using pymatgen
data_SbAsH6(CF4)2
_symmetry_space_group_name_H-M   'P 1'
_cell_length_a   11.03515681
_cell_length_b   11.03515681
_cell_length_c   11.03515681
_cell_angle_alpha   95.72623905
_cell_angle_beta   114.92348100
_cell_angle_gamma   118.60817105
_symmetry_Int_Tables_number   1
_chemical_formula_structural   SbAsH6(CF4)2
_chemical_formula_sum   'Sb4 As4 H24 C8 F32'
_cell_volume   990.16471881
_cell_formula_units_Z   4
loop_
 _symmetry_equiv_pos_site_id
 _symmetry_equiv_pos_as_xyz
  1  'x, y, z'
loop_
 _atom_site_type_symbol
 _atom_site_label
 _atom_site_symmetry_multiplicity
 _atom_site_fract_x
 _atom_site_fract_y
 _atom_site_fract_z
 _atom_site_occupancy
  Sb  Sb0  1  0.75000000  0.16665007  0.91665007  1
  Sb  Sb1  1  0.25000000  0.33334993  0.58334993  1
  Sb  Sb2  1  0.25000000  0.83334993  0.08334993  1
  Sb  Sb3  1  0.75000000  0.66665007  0.41665007  1
  As  As4  1  0.71578310  0.25000000  0.46578310  1
  As  As5  1  0.78421690  0.75000000  0.03421690  1
  As  As6  1  0.28421690  0.75000000  0.53421690  1
  As  As7  1  0.21578310  0.25000000  0.96578310  1
  H  H8  1  0.84337417  0.31652507  0.32483980  1
  H  H9  1  0.99168527  0.01853436  0.17516020  1
  H  H10  1  0.50831473  0.18347493  0.52684909  1
  H  H11  1  0.65662583  0.48146564  0.97315091  1
  H  H12  1  0.15662583  0.68347493  0.67516020  1
  H  H13  1  0.00831473  0.98146564  0.82483980  1
  H  H14  1  0.49168527  0.81652507  0.47315091  1
  H  H15  1  0.34337417  0.51853436  0.02684909  1
  H  H16  1  0.62493771  0.23200645  0.21517399  1
  H  H17  1  0.01683246  0.90976372  0.28482601  1
  H  H18  1  0.48316754  0.26799355  0.39293126  1
  H  H19  1  0.87506229  0.59023628  0.10706874  1
  H  H20  1  0.37506229  0.76799355  0.78482601  1
  H  H21  1  0.98316754  0.09023628  0.71517399  1
  H  H22  1  0.51683246  0.73200645  0.60706874  1
  H  H23  1  0.12493771  0.40976372  0.89293126  1
  H  H24  1  0.69713031  0.11588566  0.25849876  1
  H  H25  1  0.85738690  0.93863154  0.24150124  1
  H  H26  1  0.64261310  0.38411434  0.58124464  1
  H  H27  1  0.80286969  0.56136846  0.91875536  1
  H  H28  1  0.30286969  0.88411434  0.74150124  1
  H  H29  1  0.14261310  0.06136846  0.75849876  1
  H  H30  1  0.35738690  0.61588566  0.41875536  1
  H  H31  1  0.19713031  0.43863154  0.08124464  1
  C  C32  1  0.72122079  0.22556282  0.29433251  1
  C  C33  1  0.93123031  0.92688828  0.20566749  1
  C  C34  1  0.56876969  0.27443718  0.49565796  1
  C  C35  1  0.77877921  0.57311172  0.00434204  1
  C  C36  1  0.27877921  0.77443718  0.70566749  1
  C  C37  1  0.06876969  0.07311172  0.79433251  1
  C  C38  1  0.43123031  0.72556282  0.50434204  1
  C  C39  1  0.22122079  0.42688828  0.99565796  1
  F  F40  1  0.91447480  0.33136265  0.09783606  1
  F  F41  1  0.23352659  0.31663874  0.40216394  1
  F  F42  1  0.26647341  0.16863735  0.58311214  1
  F  F43  1  0.58552520  0.18336126  0.91688786  1
  F  F44  1  0.08552520  0.66863735  0.90216394  1
  F  F45  1  0.76647341  0.68336126  0.59783606  1
  F  F46  1  0.73352659  0.83136265  0.41688786  1
  F  F47  1  0.41447480  0.81663874  0.08311214  1
  F  F48  1  0.78314606  0.29590565  0.81247837  1
  F  F49  1  0.48342728  0.47066769  0.68752163  1
  F  F50  1  0.01657272  0.20409435  0.48724041  1
  F  F51  1  0.71685394  0.02933231  0.01275959  1
  F  F52  1  0.21685394  0.70409435  0.18752163  1
  F  F53  1  0.51657272  0.52933231  0.31247837  1
  F  F54  1  0.98342728  0.79590565  0.51275959  1
  F  F55  1  0.28314606  0.97066769  0.98724041  1
  F  F56  1  0.91387035  0.14876966  0.90989315  1
  F  F57  1  0.23887652  0.50397720  0.59010685  1
  F  F58  1  0.26112348  0.35123034  0.76510069  1
  F  F59  1  0.58612965  0.99602280  0.73489931  1
  F  F60  1  0.08612965  0.85123034  0.09010685  1
  F  F61  1  0.76112348  0.49602280  0.40989315  1
  F  F62  1  0.73887652  0.64876966  0.23489931  1
  F  F63  1  0.41387035  0.00397720  0.26510069  1
  F  F64  1  0.71232486  0.10684036  0.51986953  1
  F  F65  1  0.58697083  0.69245533  0.98013047  1
  F  F66  1  0.91302917  0.39315964  0.60548450  1
  F  F67  1  0.78767514  0.80754467  0.89451550  1
  F  F68  1  0.28767514  0.89315964  0.48013047  1
  F  F69  1  0.41302917  0.30754467  0.01986953  1
  F  F70  1  0.08697083  0.60684036  0.39451550  1
  F  F71  1  0.21232486  0.19245533  0.10548450  1
