# generated using pymatgen
data_Rb2Te2O2F7
_symmetry_space_group_name_H-M   'P 1'
_cell_length_a   6.03045745
_cell_length_b   13.08777802
_cell_length_c   12.79973779
_cell_angle_alpha   90.00000000
_cell_angle_beta   90.00000000
_cell_angle_gamma   93.92950297
_symmetry_Int_Tables_number   1
_chemical_formula_structural   Rb2Te2O2F7
_chemical_formula_sum   'Rb8 Te8 O8 F28'
_cell_volume   1007.84808894
_cell_formula_units_Z   4
loop_
 _symmetry_equiv_pos_site_id
 _symmetry_equiv_pos_as_xyz
  1  'x, y, z'
loop_
 _atom_site_type_symbol
 _atom_site_label
 _atom_site_symmetry_multiplicity
 _atom_site_fract_x
 _atom_site_fract_y
 _atom_site_fract_z
 _atom_site_occupancy
  Rb  Rb0  1  0.27418026  0.87960600  0.61312741  1
  Rb  Rb1  1  0.72581974  0.12039400  0.11312741  1
  Rb  Rb2  1  0.27009405  0.87314305  0.19136528  1
  Rb  Rb3  1  0.72990595  0.12685695  0.69136528  1
  Rb  Rb4  1  0.23063282  0.62260102  0.42333704  1
  Rb  Rb5  1  0.76936718  0.37739898  0.92333704  1
  Rb  Rb6  1  0.22111748  0.62423570  0.84552236  1
  Rb  Rb7  1  0.77888252  0.37576430  0.34552236  1
  Te  Te8  1  0.22872402  0.13554304  0.39632444  1
  Te  Te9  1  0.77127598  0.86445696  0.89632444  1
  Te  Te10  1  0.19298876  0.09051384  0.90007246  1
  Te  Te11  1  0.80701124  0.90948616  0.40007246  1
  Te  Te12  1  0.27392373  0.36266682  0.63745707  1
  Te  Te13  1  0.72607627  0.63733318  0.13745707  1
  Te  Te14  1  0.30785968  0.41080096  0.13400964  1
  Te  Te15  1  0.69214032  0.58919904  0.63400964  1
  O  O16  1  0.05182380  0.20767016  0.89373918  1
  O  O17  1  0.94817620  0.79232984  0.39373918  1
  O  O18  1  0.10386837  0.99537015  0.39411024  1
  O  O19  1  0.89613163  0.00462985  0.89411024  1
  O  O20  1  0.44799070  0.29324275  0.13166239  1
  O  O21  1  0.55200930  0.70675725  0.63166239  1
  O  O22  1  0.39558139  0.50358899  0.63258982  1
  O  O23  1  0.60441861  0.49641101  0.13258982  1
  F  F24  1  0.50604655  0.15430316  0.90807578  1
  F  F25  1  0.49395345  0.84569684  0.40807578  1
  F  F26  1  0.20267653  0.07308571  0.05597345  1
  F  F27  1  0.79732347  0.92691429  0.55597345  1
  F  F28  1  0.43671015  0.07930411  0.50426931  1
  F  F29  1  0.56328985  0.92069589  0.00426931  1
  F  F30  1  0.24057414  0.07959014  0.74325602  1
  F  F31  1  0.75942586  0.92040986  0.24325602  1
  F  F32  1  0.42363497  0.07797967  0.28323510  1
  F  F33  1  0.57636503  0.92202033  0.78323510  1
  F  F34  1  0.97250271  0.16613020  0.29980970  1
  F  F35  1  0.02749729  0.83386980  0.79980970  1
  F  F36  1  0.01969410  0.16069026  0.51640933  1
  F  F37  1  0.98030590  0.83930974  0.01640933  1
  F  F38  1  0.27782390  0.43060763  0.97922267  1
  F  F39  1  0.72217610  0.56939237  0.47922267  1
  F  F40  1  0.00656875  0.65187848  0.63350615  1
  F  F41  1  0.99343125  0.34812152  0.13350615  1
  F  F42  1  0.45802809  0.66283903  0.22931604  1
  F  F43  1  0.54197191  0.33716097  0.72931604  1
  F  F44  1  0.52594523  0.66456908  0.01460472  1
  F  F45  1  0.47405477  0.33543092  0.51460472  1
  F  F46  1  0.28199615  0.41930026  0.29248921  1
  F  F47  1  0.71800385  0.58069974  0.79248921  1
  F  F48  1  0.05834538  0.41532066  0.53160112  1
  F  F49  1  0.94165462  0.58467934  0.03160112  1
  F  F50  1  0.08641607  0.42206466  0.75261405  1
  F  F51  1  0.91358393  0.57793534  0.25261405  1
