# generated using pymatgen
data_K2I2ClO6
_symmetry_space_group_name_H-M   'P 1'
_cell_length_a   6.59970672
_cell_length_b   8.73620678
_cell_length_c   15.34819763
_cell_angle_alpha   90.00000000
_cell_angle_beta   90.00000000
_cell_angle_gamma   90.00000000
_symmetry_Int_Tables_number   1
_chemical_formula_structural   K2I2ClO6
_chemical_formula_sum   'K8 I8 Cl4 O24'
_cell_volume   884.92186164
_cell_formula_units_Z   4
loop_
 _symmetry_equiv_pos_site_id
 _symmetry_equiv_pos_as_xyz
  1  'x, y, z'
loop_
 _atom_site_type_symbol
 _atom_site_label
 _atom_site_symmetry_multiplicity
 _atom_site_fract_x
 _atom_site_fract_y
 _atom_site_fract_z
 _atom_site_occupancy
  K  K0  1  0.97611064  0.47862516  0.98430260  1
  K  K1  1  0.02388936  0.97862516  0.01569740  1
  K  K2  1  0.97611064  0.97862516  0.51569740  1
  K  K3  1  0.02388936  0.47862516  0.48430260  1
  K  K4  1  0.55435570  0.98928557  0.23521674  1
  K  K5  1  0.44564430  0.48928557  0.76478326  1
  K  K6  1  0.55435570  0.48928557  0.26478326  1
  K  K7  1  0.44564430  0.98928557  0.73521674  1
  I  I8  1  0.93028009  0.24750358  0.71689859  1
  I  I9  1  0.06971991  0.74750358  0.28310141  1
  I  I10  1  0.93028009  0.74750358  0.78310141  1
  I  I11  1  0.06971991  0.24750358  0.21689859  1
  I  I12  1  0.51855367  0.23401706  0.03242914  1
  I  I13  1  0.48144633  0.73401706  0.96757086  1
  I  I14  1  0.51855367  0.73401706  0.46757086  1
  I  I15  1  0.48144633  0.23401706  0.53242914  1
  Cl  Cl16  1  0.77692950  0.72057450  0.12421388  1
  Cl  Cl17  1  0.22307050  0.22057450  0.87578612  1
  Cl  Cl18  1  0.77692950  0.22057450  0.37578612  1
  Cl  Cl19  1  0.22307050  0.72057450  0.62421388  1
  O  O20  1  0.82408795  0.31626647  0.61178070  1
  O  O21  1  0.17591205  0.81626647  0.38821930  1
  O  O22  1  0.82408795  0.81626647  0.88821930  1
  O  O23  1  0.17591205  0.31626647  0.11178070  1
  O  O24  1  0.70251147  0.23371114  0.78070033  1
  O  O25  1  0.29748853  0.73371114  0.21929967  1
  O  O26  1  0.70251147  0.73371114  0.71929967  1
  O  O27  1  0.29748853  0.23371114  0.28070033  1
  O  O28  1  0.98936751  0.04756879  0.69300826  1
  O  O29  1  0.01063249  0.54756879  0.30699174  1
  O  O30  1  0.98936751  0.54756879  0.80699174  1
  O  O31  1  0.01063249  0.04756879  0.19300826  1
  O  O32  1  0.73616459  0.20243045  0.96313674  1
  O  O33  1  0.26383541  0.70243045  0.03686326  1
  O  O34  1  0.73616459  0.70243045  0.53686326  1
  O  O35  1  0.26383541  0.20243045  0.46313674  1
  O  O36  1  0.65114195  0.29455326  0.13163436  1
  O  O37  1  0.34885805  0.79455326  0.86836564  1
  O  O38  1  0.65114195  0.79455326  0.36836564  1
  O  O39  1  0.34885805  0.29455326  0.63163436  1
  O  O40  1  0.44313941  0.03726402  0.05806010  1
  O  O41  1  0.55686059  0.53726402  0.94193990  1
  O  O42  1  0.44313941  0.53726402  0.44193990  1
  O  O43  1  0.55686059  0.03726402  0.55806010  1
