# generated using pymatgen
data_CuH20C6(NCl2)2
_symmetry_space_group_name_H-M   'P 1'
_cell_length_a   8.54153796
_cell_length_b   13.22084332
_cell_length_c   14.80162552
_cell_angle_alpha   90.00000000
_cell_angle_beta   90.00000000
_cell_angle_gamma   98.13615788
_symmetry_Int_Tables_number   1
_chemical_formula_structural   CuH20C6(NCl2)2
_chemical_formula_sum   'Cu4 H80 C24 N8 Cl16'
_cell_volume   1654.66897706
_cell_formula_units_Z   4
loop_
 _symmetry_equiv_pos_site_id
 _symmetry_equiv_pos_as_xyz
  1  'x, y, z'
loop_
 _atom_site_type_symbol
 _atom_site_label
 _atom_site_symmetry_multiplicity
 _atom_site_fract_x
 _atom_site_fract_y
 _atom_site_fract_z
 _atom_site_occupancy
  Cu  Cu0  1  0.77785446  0.22992629  0.60071880  1
  Cu  Cu1  1  0.22214554  0.27007371  0.10071880  1
  Cu  Cu2  1  0.22214554  0.77007371  0.39928120  1
  Cu  Cu3  1  0.77785446  0.72992629  0.89928120  1
  H  H4  1  0.07678631  0.34398998  0.48876866  1
  H  H5  1  0.92321369  0.15601002  0.98876866  1
  H  H6  1  0.92321369  0.65601002  0.51123134  1
  H  H7  1  0.07678631  0.84398998  0.01123134  1
  H  H8  1  0.46065169  0.05625298  0.65773729  1
  H  H9  1  0.53934831  0.44374702  0.15773729  1
  H  H10  1  0.53934831  0.94374702  0.34226271  1
  H  H11  1  0.46065169  0.55625298  0.84226271  1
  H  H12  1  0.34222120  0.43788734  0.48036415  1
  H  H13  1  0.65777880  0.06211266  0.98036415  1
  H  H14  1  0.65777880  0.56211266  0.51963585  1
  H  H15  1  0.34222120  0.93788734  0.01963585  1
  H  H16  1  0.33349156  0.31087677  0.52627320  1
  H  H17  1  0.66650844  0.18912323  0.02627320  1
  H  H18  1  0.66650844  0.68912323  0.47372680  1
  H  H19  1  0.33349156  0.81087677  0.97372680  1
  H  H20  1  0.39448646  0.33560168  0.41136295  1
  H  H21  1  0.60551354  0.16439832  0.91136295  1
  H  H22  1  0.60551354  0.66439832  0.58863705  1
  H  H23  1  0.39448646  0.83560168  0.08863705  1
  H  H24  1  0.99405179  0.38024458  0.33850102  1
  H  H25  1  0.00594821  0.11975542  0.83850102  1
  H  H26  1  0.00594821  0.61975542  0.66149898  1
  H  H27  1  0.99405179  0.88024458  0.16149898  1
  H  H28  1  0.19413657  0.38351681  0.30042576  1
  H  H29  1  0.80586343  0.11648319  0.80042576  1
  H  H30  1  0.80586343  0.61648319  0.69957424  1
  H  H31  1  0.19413657  0.88351681  0.19957424  1
  H  H32  1  0.14455344  0.47891008  0.37881980  1
  H  H33  1  0.85544656  0.02108992  0.87881980  1
  H  H34  1  0.85544656  0.52108992  0.62118020  1
  H  H35  1  0.14455344  0.97891008  0.12118020  1
  H  H36  1  0.13200833  0.17640565  0.46972208  1
  H  H37  1  0.86799167  0.32359435  0.96972208  1
  H  H38  1  0.86799167  0.82359435  0.53027792  1
  H  H39  1  0.13200833  0.67640565  0.03027792  1
  H  H40  1  0.18946006  0.20627706  0.35416017  1
  H  H41  1  0.81053994  0.29372294  0.85416017  1
  H  H42  1  0.81053994  0.79372294  0.64583983  1
  H  H43  1  0.18946006  0.70627706  0.14583983  1
  H  H44  1  0.98836538  0.20719080  0.38968615  1
  H  H45  1  0.01163462  0.29280920  0.88968615  1
  H  H46  1  0.01163462  0.79280920  0.61031385  1
  H  H47  1  0.98836538  0.70719080  0.11031385  1
  H  H48  1  0.51776611  0.88264874  0.65684452  1
  H  H49  1  0.48223389  0.61735126  0.15684452  1
  H  H50  1  0.48223389  0.11735126  0.34315548  1
  H  H51  1  0.51776611  0.38264874  0.84315548  1
  H  H52  1  0.31008667  0.83862874  0.66641762  1
  H  H53  1  0.68991333  0.66137126  0.16641762  1
  H  H54  1  0.68991333  0.16137126  0.33358238  1
  H  H55  1  0.31008667  0.33862874  0.83358238  1
  H  H56  1  0.38602205  0.90353027  0.56543771  1
  H  H57  1  0.61397795  0.59646973  0.06543771  1
  H  H58  1  0.61397795  0.09646973  0.43456229  1
  H  H59  1  0.38602205  0.40353027  0.93456229  1
  H  H60  1  0.37745802  0.06754814  0.80887121  1
  H  H61  1  0.62254198  0.43245186  0.30887121  1
  H  H62  1  0.62254198  0.93245186  0.19112879  1
  H  H63  1  0.37745802  0.56754814  0.69112879  1
  H  H64  1  0.30107859  0.93332448  0.80651422  1
  H  H65  1  0.69892141  0.56667552  0.30651422  1
  H  H66  1  0.69892141  0.06667552  0.19348578  1
  H  H67  1  0.30107859  0.43332448  0.69348578  1
  H  H68  1  0.51002952  0.97356885  0.79584256  1
  H  H69  1  0.48997048  0.52643115  0.29584256  1
  H  H70  1  0.48997048  0.02643115  0.20415744  1
  H  H71  1  0.51002952  0.47356885  0.70415744  1
  H  H72  1  0.21042091  0.10367848  0.67855290  1
  H  H73  1  0.78957909  0.39632152  0.17855290  1
  H  H74  1  0.78957909  0.89632152  0.32144710  1
  H  H75  1  0.21042091  0.60367848  0.82144710  1
  H  H76  1  0.20283554  0.02025745  0.58228145  1
  H  H77  1  0.79716446  0.47974255  0.08228145  1
  H  H78  1  0.79716446  0.97974255  0.41771855  1
  H  H79  1  0.20283554  0.52025745  0.91771855  1
  H  H80  1  0.12535256  0.97173575  0.68916847  1
  H  H81  1  0.87464744  0.52826425  0.18916847  1
  H  H82  1  0.87464744  0.02826425  0.31083153  1
  H  H83  1  0.12535256  0.47173575  0.81083153  1
  C  C84  1  0.31759437  0.35595678  0.46575826  1
  C  C85  1  0.68240563  0.14404322  0.96575826  1
  C  C86  1  0.68240563  0.64404322  0.53424174  1
  C  C87  1  0.31759437  0.85595678  0.03424174  1
  C  C88  1  0.11857435  0.39899054  0.35729072  1
  C  C89  1  0.88142565  0.10100946  0.85729072  1
  C  C90  1  0.88142565  0.60100946  0.64270928  1
  C  C91  1  0.11857435  0.89899054  0.14270928  1
  C  C92  1  0.11248540  0.22198195  0.41019512  1
  C  C93  1  0.88751460  0.27801805  0.91019512  1
  C  C94  1  0.88751460  0.77801805  0.58980488  1
  C  C95  1  0.11248540  0.72198195  0.08980488  1
  C  C96  1  0.39938715  0.89834487  0.63879997  1
  C  C97  1  0.60061285  0.60165513  0.13879997  1
  C  C98  1  0.60061285  0.10165513  0.36120003  1
  C  C99  1  0.39938715  0.39834487  0.86120003  1
  C  C100  1  0.39242153  0.99299019  0.78064820  1
  C  C101  1  0.60757847  0.50700981  0.28064820  1
  C  C102  1  0.60757847  0.00700981  0.21935180  1
  C  C103  1  0.39242153  0.49299019  0.71935180  1
  C  C104  1  0.21668354  0.02555792  0.65579850  1
  C  C105  1  0.78331646  0.47444208  0.15579850  1
  C  C106  1  0.78331646  0.97444208  0.34420150  1
  C  C107  1  0.21668354  0.52555792  0.84420150  1
  N  N108  1  0.15042936  0.33214143  0.43439971  1
  N  N109  1  0.84957064  0.16785857  0.93439971  1
  N  N110  1  0.84957064  0.66785857  0.56560029  1
  N  N111  1  0.15042936  0.83214143  0.06560029  1
  N  N112  1  0.37446029  0.99735138  0.68059761  1
  N  N113  1  0.62553971  0.50264862  0.18059761  1
  N  N114  1  0.62553971  0.00264862  0.31940239  1
  N  N115  1  0.37446029  0.49735138  0.81940239  1
  Cl  Cl116  1  0.03496959  0.28362255  0.63810517  1
  Cl  Cl117  1  0.96503041  0.21637745  0.13810517  1
  Cl  Cl118  1  0.96503041  0.71637745  0.36189483  1
  Cl  Cl119  1  0.03496959  0.78362255  0.86189483  1
  Cl  Cl120  1  0.77697385  0.05857894  0.60711101  1
  Cl  Cl121  1  0.22302615  0.44142106  0.10711101  1
  Cl  Cl122  1  0.22302615  0.94142106  0.39288899  1
  Cl  Cl123  1  0.77697385  0.55857894  0.89288899  1
  Cl  Cl124  1  0.76382720  0.35322981  0.49541005  1
  Cl  Cl125  1  0.23617280  0.14677019  0.99541005  1
  Cl  Cl126  1  0.23617280  0.64677019  0.50458995  1
  Cl  Cl127  1  0.76382720  0.85322981  0.00458995  1
  Cl  Cl128  1  0.53639984  0.22775133  0.66561845  1
  Cl  Cl129  1  0.46360016  0.27224867  0.16561845  1
  Cl  Cl130  1  0.46360016  0.77224867  0.33438155  1
  Cl  Cl131  1  0.53639984  0.72775133  0.83438155  1
