# generated using pymatgen
data_Si4Te2H44Pt(C8Cl)2
_symmetry_space_group_name_H-M   'P 1'
_cell_length_a   6.88540161
_cell_length_b   13.09028647
_cell_length_c   20.96328892
_cell_angle_alpha   95.11867612
_cell_angle_beta   89.99999998
_cell_angle_gamma   105.24794590
_symmetry_Int_Tables_number   1
_chemical_formula_structural   Si4Te2H44Pt(C8Cl)2
_chemical_formula_sum   'Si8 Te4 H88 Pt2 C32 Cl4'
_cell_volume   1815.13428124
_cell_formula_units_Z   2
loop_
 _symmetry_equiv_pos_site_id
 _symmetry_equiv_pos_as_xyz
  1  'x, y, z'
loop_
 _atom_site_type_symbol
 _atom_site_label
 _atom_site_symmetry_multiplicity
 _atom_site_fract_x
 _atom_site_fract_y
 _atom_site_fract_z
 _atom_site_occupancy
  Si  Si0  1  0.39222662  0.32530009  0.14157107  1
  Si  Si1  1  0.06692653  0.67469991  0.35842893  1
  Si  Si2  1  0.60777338  0.67469991  0.85842893  1
  Si  Si3  1  0.93307347  0.32530009  0.64157107  1
  Si  Si4  1  0.39512523  0.15099815  0.88710810  1
  Si  Si5  1  0.24412708  0.84900185  0.61289190  1
  Si  Si6  1  0.60487477  0.84900185  0.11289190  1
  Si  Si7  1  0.75587292  0.15099815  0.38710810  1
  Te  Te8  1  0.69884165  0.32558792  0.00593737  1
  Te  Te9  1  0.37325373  0.67441208  0.49406263  1
  Te  Te10  1  0.30115835  0.67441208  0.99406263  1
  Te  Te11  1  0.62674627  0.32558792  0.50593737  1
  H  H12  1  0.32103402  0.33750735  0.02556130  1
  H  H13  1  0.98352667  0.66249265  0.47443870  1
  H  H14  1  0.67896598  0.66249265  0.97443870  1
  H  H15  1  0.01647333  0.33750735  0.52556130  1
  H  H16  1  0.49160372  0.45602577  0.06012916  1
  H  H17  1  0.03557795  0.54397423  0.43987084  1
  H  H18  1  0.50839628  0.54397423  0.93987084  1
  H  H19  1  0.96442205  0.45602577  0.56012916  1
  H  H20  1  0.68022369  0.31274022  0.87919634  1
  H  H21  1  0.36748346  0.68725978  0.62080366  1
  H  H22  1  0.31977631  0.68725978  0.12080366  1
  H  H23  1  0.63251654  0.31274022  0.37919634  1
  H  H24  1  0.46016323  0.34813874  0.90783073  1
  H  H25  1  0.11202449  0.65186126  0.59216927  1
  H  H26  1  0.53983677  0.65186126  0.09216927  1
  H  H27  1  0.88797551  0.34813874  0.40783073  1
  H  H28  1  0.58039734  0.28298887  0.23177776  1
  H  H29  1  0.29740847  0.71701113  0.26822224  1
  H  H30  1  0.41960266  0.71701113  0.76822224  1
  H  H31  1  0.70259153  0.28298887  0.73177776  1
  H  H32  1  0.66728057  0.23774640  0.15725760  1
  H  H33  1  0.42953417  0.76225360  0.34274240  1
  H  H34  1  0.33271943  0.76225360  0.84274240  1
  H  H35  1  0.57046583  0.23774640  0.65725760  1
  H  H36  1  0.74260688  0.37571336  0.18513316  1
  H  H37  1  0.36689352  0.62428664  0.31486684  1
  H  H38  1  0.25739312  0.62428664  0.81486684  1
  H  H39  1  0.63310648  0.37571336  0.68513316  1
  H  H40  1  0.43361302  0.50646243  0.19542517  1
  H  H41  1  0.92715059  0.49353757  0.30457483  1
  H  H42  1  0.56638698  0.49353757  0.80457483  1
  H  H43  1  0.07284941  0.50646243  0.69542517  1
  H  H44  1  0.18190224  0.45325976  0.16558811  1
  H  H45  1  0.72864249  0.54674024  0.33441189  1
  H  H46  1  0.81809776  0.54674024  0.83441189  1
  H  H47  1  0.27135751  0.45325976  0.66558811  1
  H  H48  1  0.26276934  0.40903824  0.23664376  1
  H  H49  1  0.85373110  0.59096176  0.26335624  1
  H  H50  1  0.73723066  0.59096176  0.76335624  1
  H  H51  1  0.14626890  0.40903824  0.73664376  1
  H  H52  1  0.13451982  0.18020566  0.18569775  1
  H  H53  1  0.95431416  0.81979434  0.31430225  1
  H  H54  1  0.86548018  0.81979434  0.81430225  1
  H  H55  1  0.04568584  0.18020566  0.68569775  1
  H  H56  1  0.05116807  0.20743771  0.11029761  1
  H  H57  1  0.84373036  0.79256229  0.38970239  1
  H  H58  1  0.94883193  0.79256229  0.88970239  1
  H  H59  1  0.15626964  0.20743771  0.61029761  1
  H  H60  1  0.23072570  0.13148217  0.11407062  1
  H  H61  1  0.09924353  0.86851783  0.38592938  1
  H  H62  1  0.76927430  0.86851783  0.88592938  1
  H  H63  1  0.90075647  0.13148217  0.61407062  1
  H  H64  1  0.65688938  0.08801156  0.82538067  1
  H  H65  1  0.56887782  0.91198844  0.67461933  1
  H  H66  1  0.34311062  0.91198844  0.17461933  1
  H  H67  1  0.43112218  0.08801156  0.32538067  1
  H  H68  1  0.66819785  0.06364812  0.90733424  1
  H  H69  1  0.60454973  0.93635188  0.59266576  1
  H  H70  1  0.33180215  0.93635188  0.09266576  1
  H  H71  1  0.39545027  0.06364812  0.40733424  1
  H  H72  1  0.47654858  0.97993652  0.85513565  1
  H  H73  1  0.49661205  0.02006348  0.64486435  1
  H  H74  1  0.52345142  0.02006348  0.14486435  1
  H  H75  1  0.50338795  0.97993652  0.35513565  1
  H  H76  1  0.12911662  0.01605173  0.93643353  1
  H  H77  1  0.11306489  0.98394827  0.56356647  1
  H  H78  1  0.87088338  0.98394827  0.06356647  1
  H  H79  1  0.88693511  0.01605173  0.43643353  1
  H  H80  1  0.30277096  0.09356246  0.99597653  1
  H  H81  1  0.20920850  0.90643754  0.50402347  1
  H  H82  1  0.69722904  0.90643754  0.00402347  1
  H  H83  1  0.79079150  0.09356246  0.49597653  1
  H  H84  1  0.11654605  0.14713772  0.96263183  1
  H  H85  1  0.96940833  0.85286228  0.53736817  1
  H  H86  1  0.88345395  0.85286228  0.03736817  1
  H  H87  1  0.03059167  0.14713772  0.46263183  1
  H  H88  1  0.14504244  0.07435461  0.79961948  1
  H  H89  1  0.07068783  0.92564539  0.70038052  1
  H  H90  1  0.85495756  0.92564539  0.20038052  1
  H  H91  1  0.92931217  0.07435461  0.29961948  1
  H  H92  1  0.14088784  0.20761887  0.82424313  1
  H  H93  1  0.93326896  0.79238113  0.67575687  1
  H  H94  1  0.85911216  0.79238113  0.17575687  1
  H  H95  1  0.06673104  0.20761887  0.32424313  1
  H  H96  1  0.33377936  0.18282800  0.77337215  1
  H  H97  1  0.15095136  0.81717200  0.72662785  1
  H  H98  1  0.66622064  0.81717200  0.22662785  1
  H  H99  1  0.84904864  0.18282800  0.27337215  1
  Pt  Pt100  1  -0.00000000  0.50000000  -0.00000000  1
  Pt  Pt101  1  0.50000000  0.50000000  0.50000000  1
  C  C102  1  0.45367212  0.36905955  0.05776762  1
  C  C103  1  0.08461257  0.63094045  0.44223238  1
  C  C104  1  0.54632788  0.63094045  0.94223238  1
  C  C105  1  0.91538743  0.36905955  0.55776762  1
  C  C106  1  0.55185583  0.29185802  0.91140110  1
  C  C107  1  0.25999782  0.70814198  0.58859890  1
  C  C108  1  0.44814417  0.70814198  0.08859890  1
  C  C109  1  0.74000218  0.29185802  0.41140110  1
  C  C110  1  0.61738573  0.30326054  0.18259046  1
  C  C111  1  0.31412520  0.69673946  0.31740954  1
  C  C112  1  0.38261427  0.69673946  0.81740954  1
  C  C113  1  0.68587480  0.30326054  0.68259046  1
  C  C114  1  0.30891861  0.43406436  0.18876771  1
  C  C115  1  0.87485426  0.56593564  0.31123229  1
  C  C116  1  0.69108139  0.56593564  0.81123229  1
  C  C117  1  0.12514574  0.43406436  0.68876771  1
  C  C118  1  0.18272065  0.19914358  0.13703547  1
  C  C119  1  0.98357707  0.80085642  0.36296453  1
  C  C120  1  0.81727935  0.80085642  0.86296453  1
  C  C121  1  0.01642293  0.19914358  0.63703547  1
  C  C122  1  0.56570923  0.06266702  0.86702937  1
  C  C123  1  0.50304221  0.93733298  0.63297063  1
  C  C124  1  0.43429077  0.93733298  0.13297063  1
  C  C125  1  0.49695779  0.06266702  0.36702937  1
  C  C126  1  0.22035358  0.09696665  0.95172089  1
  C  C127  1  0.12338693  0.90303335  0.54827911  1
  C  C128  1  0.77964642  0.90303335  0.04827911  1
  C  C129  1  0.87661307  0.09696665  0.45172089  1
  C  C130  1  0.24024657  0.15527733  0.81393118  1
  C  C131  1  0.08496923  0.84472267  0.68606882  1
  C  C132  1  0.75975343  0.84472267  0.18606882  1
  C  C133  1  0.91503077  0.15527733  0.31393118  1
  Cl  Cl134  1  0.90212349  0.57977682  0.09427138  1
  Cl  Cl135  1  0.32234667  0.42022318  0.40572862  1
  Cl  Cl136  1  0.09787651  0.42022318  0.90572862  1
  Cl  Cl137  1  0.67765333  0.57977682  0.59427138  1
