# generated using pymatgen
data_TlP3H54Pt(C4F)6
_symmetry_space_group_name_H-M   'P 1'
_cell_length_a   11.95801206
_cell_length_b   17.02521297
_cell_length_c   18.42625283
_cell_angle_alpha   90.00000000
_cell_angle_beta   105.80396787
_cell_angle_gamma   90.00000000
_symmetry_Int_Tables_number   1
_chemical_formula_structural   TlP3H54Pt(C4F)6
_chemical_formula_sum   'Tl4 P12 H216 Pt4 C96 F24'
_cell_volume   3609.55387635
_cell_formula_units_Z   4
loop_
 _symmetry_equiv_pos_site_id
 _symmetry_equiv_pos_as_xyz
  1  'x, y, z'
loop_
 _atom_site_type_symbol
 _atom_site_label
 _atom_site_symmetry_multiplicity
 _atom_site_fract_x
 _atom_site_fract_y
 _atom_site_fract_z
 _atom_site_occupancy
  Tl  Tl0  1  0.60551700  0.46234745  0.09943279  1
  Tl  Tl1  1  0.39448300  0.96234745  0.40056721  1
  Tl  Tl2  1  0.39448300  0.53765255  0.90056721  1
  Tl  Tl3  1  0.60551700  0.03765255  0.59943279  1
  P  P4  1  0.63377617  0.47700366  0.31115893  1
  P  P5  1  0.36622383  0.97700366  0.18884107  1
  P  P6  1  0.36622383  0.52299634  0.68884107  1
  P  P7  1  0.63377617  0.02299634  0.81115893  1
  P  P8  1  0.90165742  0.36836156  0.19260834  1
  P  P9  1  0.09834258  0.86836156  0.30739166  1
  P  P10  1  0.09834258  0.63163844  0.80739166  1
  P  P11  1  0.90165742  0.13163844  0.69260834  1
  P  P12  1  0.31607594  0.31731360  0.01097241  1
  P  P13  1  0.68392406  0.81731360  0.48902759  1
  P  P14  1  0.68392406  0.68268640  0.98902759  1
  P  P15  1  0.31607594  0.18268640  0.51097241  1
  H  H16  1  0.58048758  0.67188634  0.20753995  1
  H  H17  1  0.41951242  0.17188634  0.29246005  1
  H  H18  1  0.41951242  0.32811366  0.79246005  1
  H  H19  1  0.58048758  0.82811366  0.70753995  1
  H  H20  1  0.69872111  0.65613516  0.28822489  1
  H  H21  1  0.30127889  0.15613516  0.21177511  1
  H  H22  1  0.30127889  0.34386484  0.71177511  1
  H  H23  1  0.69872111  0.84386484  0.78822489  1
  H  H24  1  0.67804667  0.59293586  0.20898727  1
  H  H25  1  0.32195333  0.09293586  0.29101273  1
  H  H26  1  0.32195333  0.40706414  0.79101273  1
  H  H27  1  0.67804667  0.90706414  0.70898727  1
  H  H28  1  0.40815631  0.61752179  0.18774371  1
  H  H29  1  0.59184369  0.11752179  0.31225629  1
  H  H30  1  0.59184369  0.38247821  0.81225629  1
  H  H31  1  0.40815631  0.88247821  0.68774371  1
  H  H32  1  0.45599869  0.52565242  0.16340511  1
  H  H33  1  0.54400131  0.02565242  0.33659489  1
  H  H34  1  0.54400131  0.47434758  0.83659489  1
  H  H35  1  0.45599869  0.97434758  0.66340511  1
  H  H36  1  0.37223355  0.53077069  0.22914423  1
  H  H37  1  0.62776645  0.03077069  0.27085577  1
  H  H38  1  0.62776645  0.46922931  0.77085577  1
  H  H39  1  0.37223355  0.96922931  0.72914423  1
  H  H40  1  0.45245979  0.59091914  0.35929255  1
  H  H41  1  0.54754021  0.09091914  0.14070745  1
  H  H42  1  0.54754021  0.40908086  0.64070745  1
  H  H43  1  0.45245979  0.90908086  0.85929255  1
  H  H44  1  0.58589405  0.64426376  0.38057946  1
  H  H45  1  0.41410595  0.14426376  0.11942054  1
  H  H46  1  0.41410595  0.35573624  0.61942054  1
  H  H47  1  0.58589405  0.85573624  0.88057946  1
  H  H48  1  0.46792605  0.67520573  0.30659307  1
  H  H49  1  0.53207395  0.17520573  0.19340693  1
  H  H50  1  0.53207395  0.32479427  0.69340693  1
  H  H51  1  0.46792605  0.82479427  0.80659307  1
  H  H52  1  0.88063639  0.57421740  0.45760650  1
  H  H53  1  0.11936361  0.07421740  0.04239350  1
  H  H54  1  0.11936361  0.42578260  0.54239350  1
  H  H55  1  0.88063639  0.92578260  0.95760650  1
  H  H56  1  0.84498270  0.57044621  0.35740871  1
  H  H57  1  0.15501730  0.07044621  0.14259129  1
  H  H58  1  0.15501730  0.42955379  0.64259129  1
  H  H59  1  0.84498270  0.92955379  0.85740871  1
  H  H60  1  0.75970031  0.62757358  0.40418925  1
  H  H61  1  0.24029969  0.12757358  0.09581075  1
  H  H62  1  0.24029969  0.37242642  0.59581075  1
  H  H63  1  0.75970031  0.87242642  0.90418925  1
  H  H64  1  0.61525740  0.56008661  0.46395554  1
  H  H65  1  0.38474260  0.06008661  0.03604446  1
  H  H66  1  0.38474260  0.43991339  0.53604446  1
  H  H67  1  0.61525740  0.93991339  0.96395554  1
  H  H68  1  0.63231424  0.45771632  0.48501970  1
  H  H69  1  0.36768576  0.95771632  0.01498030  1
  H  H70  1  0.36768576  0.54228368  0.51498030  1
  H  H71  1  0.63231424  0.04228368  0.98501970  1
  H  H72  1  0.74560015  0.52445104  0.52540275  1
  H  H73  1  0.25439985  0.02445104  0.97459725  1
  H  H74  1  0.25439985  0.47554896  0.47459725  1
  H  H75  1  0.74560015  0.97554896  0.02540275  1
  H  H76  1  0.88471198  0.44735704  0.48682555  1
  H  H77  1  0.11528802  0.94735704  0.01317445  1
  H  H78  1  0.11528802  0.55264296  0.51317445  1
  H  H79  1  0.88471198  0.05264296  0.98682555  1
  H  H80  1  0.78076435  0.37575390  0.44234967  1
  H  H81  1  0.21923565  0.87575390  0.05765033  1
  H  H82  1  0.21923565  0.62424610  0.55765033  1
  H  H83  1  0.78076435  0.12424610  0.94234967  1
  H  H84  1  0.86943051  0.42072814  0.39100871  1
  H  H85  1  0.13056949  0.92072814  0.10899129  1
  H  H86  1  0.13056949  0.57927186  0.60899129  1
  H  H87  1  0.86943051  0.07927186  0.89100871  1
  H  H88  1  0.39928479  0.32180574  0.25044555  1
  H  H89  1  0.60071521  0.82180574  0.24955445  1
  H  H90  1  0.60071521  0.67819426  0.74955445  1
  H  H91  1  0.39928479  0.17819426  0.75044555  1
  H  H92  1  0.40985554  0.41070354  0.20370764  1
  H  H93  1  0.59014446  0.91070354  0.29629236  1
  H  H94  1  0.59014446  0.58929646  0.79629236  1
  H  H95  1  0.40985554  0.08929646  0.70370764  1
  H  H96  1  0.52394555  0.34036344  0.21814279  1
  H  H97  1  0.47605445  0.84036344  0.28185721  1
  H  H98  1  0.47605445  0.65963656  0.78185721  1
  H  H99  1  0.52394555  0.15963656  0.71814279  1
  H  H100  1  0.51365624  0.28653184  0.36737826  1
  H  H101  1  0.48634376  0.78653184  0.13262174  1
  H  H102  1  0.48634376  0.71346816  0.63262174  1
  H  H103  1  0.51365624  0.21346816  0.86737826  1
  H  H104  1  0.65017473  0.30776708  0.35001500  1
  H  H105  1  0.34982527  0.80776708  0.14998500  1
  H  H106  1  0.34982527  0.69223292  0.64998500  1
  H  H107  1  0.65017473  0.19223292  0.85001500  1
  H  H108  1  0.61312977  0.34795861  0.43036681  1
  H  H109  1  0.38687023  0.84795861  0.06963319  1
  H  H110  1  0.38687023  0.65204139  0.56963319  1
  H  H111  1  0.61312977  0.15204139  0.93036681  1
  H  H112  1  0.45984904  0.45962138  0.41208836  1
  H  H113  1  0.54015096  0.95962138  0.08791164  1
  H  H114  1  0.54015096  0.54037862  0.58791164  1
  H  H115  1  0.45984904  0.04037862  0.91208836  1
  H  H116  1  0.36614638  0.47454711  0.31994674  1
  H  H117  1  0.63385362  0.97454711  0.18005326  1
  H  H118  1  0.63385362  0.52545289  0.68005326  1
  H  H119  1  0.36614638  0.02545289  0.81994674  1
  H  H120  1  0.37197397  0.38190059  0.36444293  1
  H  H121  1  0.62802603  0.88190059  0.13555707  1
  H  H122  1  0.62802603  0.61809941  0.63555707  1
  H  H123  1  0.37197397  0.11809941  0.86444293  1
  H  H124  1  0.11474359  0.35522357  0.38707519  1
  H  H125  1  0.88525641  0.85522357  0.11292481  1
  H  H126  1  0.88525641  0.64477643  0.61292481  1
  H  H127  1  0.11474359  0.14477643  0.88707519  1
  H  H128  1  0.13848658  0.41375505  0.31344941  1
  H  H129  1  0.86151342  0.91375505  0.18655059  1
  H  H130  1  0.86151342  0.58624495  0.68655059  1
  H  H131  1  0.13848658  0.08624495  0.81344941  1
  H  H132  1  0.01036284  0.42797062  0.34374887  1
  H  H133  1  0.98963716  0.92797062  0.15625113  1
  H  H134  1  0.98963716  0.57202938  0.65625113  1
  H  H135  1  0.01036284  0.07202938  0.84374887  1
  H  H136  1  0.99723628  0.25277295  0.37492035  1
  H  H137  1  0.00276372  0.75277295  0.12507965  1
  H  H138  1  0.00276372  0.74722705  0.62507965  1
  H  H139  1  0.99723628  0.24722705  0.87492035  1
  H  H140  1  0.86601083  0.30464899  0.33071044  1
  H  H141  1  0.13398917  0.80464899  0.16928956  1
  H  H142  1  0.13398917  0.69535101  0.66928956  1
  H  H143  1  0.86601083  0.19535101  0.83071044  1
  H  H144  1  0.90223379  0.21696762  0.28998590  1
  H  H145  1  0.09776621  0.71696762  0.21001410  1
  H  H146  1  0.09776621  0.78303238  0.71001410  1
  H  H147  1  0.90223379  0.28303238  0.78998590  1
  H  H148  1  0.06795074  0.21450879  0.22884524  1
  H  H149  1  0.93204926  0.71450879  0.27115476  1
  H  H150  1  0.93204926  0.78549121  0.77115476  1
  H  H151  1  0.06795074  0.28549121  0.72884524  1
  H  H152  1  0.16095162  0.29728834  0.23482364  1
  H  H153  1  0.83904838  0.79728834  0.26517636  1
  H  H154  1  0.83904838  0.70271166  0.76517636  1
  H  H155  1  0.16095162  0.20271166  0.73482364  1
  H  H156  1  0.15716153  0.24490230  0.31740632  1
  H  H157  1  0.84283847  0.74490230  0.18259368  1
  H  H158  1  0.84283847  0.75509770  0.68259368  1
  H  H159  1  0.15716153  0.25509770  0.81740632  1
  H  H160  1  0.16658262  0.42315558  0.21053350  1
  H  H161  1  0.83341738  0.92315558  0.28946650  1
  H  H162  1  0.83341738  0.57684442  0.78946650  1
  H  H163  1  0.16658262  0.07684442  0.71053350  1
  H  H164  1  0.11515538  0.38205671  0.11864326  1
  H  H165  1  0.88484462  0.88205671  0.38135674  1
  H  H166  1  0.88484462  0.61794329  0.88135674  1
  H  H167  1  0.11515538  0.11794329  0.61864326  1
  H  H168  1  0.14048423  0.48394876  0.12996638  1
  H  H169  1  0.85951577  0.98394876  0.37003362  1
  H  H170  1  0.85951577  0.51605124  0.87003362  1
  H  H171  1  0.14048423  0.01605124  0.62996638  1
  H  H172  1  0.91869878  0.42994394  0.03317894  1
  H  H173  1  0.08130122  0.92994394  0.46682106  1
  H  H174  1  0.08130122  0.57005606  0.96682106  1
  H  H175  1  0.91869878  0.07005606  0.53317894  1
  H  H176  1  0.82329320  0.48859833  0.07052796  1
  H  H177  1  0.17670680  0.98859833  0.42947204  1
  H  H178  1  0.17670680  0.51140167  0.92947204  1
  H  H179  1  0.82329320  0.01140167  0.57052796  1
  H  H180  1  0.95358215  0.52852939  0.06077352  1
  H  H181  1  0.04641785  0.02852939  0.43922648  1
  H  H182  1  0.04641785  0.47147061  0.93922648  1
  H  H183  1  0.95358215  0.97147061  0.56077352  1
  H  H184  1  0.02148296  0.57265573  0.17976279  1
  H  H185  1  0.97851704  0.07265573  0.32023721  1
  H  H186  1  0.97851704  0.42734427  0.82023721  1
  H  H187  1  0.02148296  0.92734427  0.67976279  1
  H  H188  1  0.89738349  0.54015285  0.20765976  1
  H  H189  1  0.10261651  0.04015285  0.29234024  1
  H  H190  1  0.10261651  0.45984715  0.79234024  1
  H  H191  1  0.89738349  0.95984715  0.70765976  1
  H  H192  1  0.03995383  0.51589565  0.26314973  1
  H  H193  1  0.96004617  0.01589565  0.23685027  1
  H  H194  1  0.96004617  0.48410435  0.73685027  1
  H  H195  1  0.03995383  0.98410435  0.76314973  1
  H  H196  1  0.97138280  0.31609085  0.03830565  1
  H  H197  1  0.02861720  0.81609085  0.46169435  1
  H  H198  1  0.02861720  0.68390915  0.96169435  1
  H  H199  1  0.97138280  0.18390915  0.53830565  1
  H  H200  1  0.04222608  0.25618253  0.11595678  1
  H  H201  1  0.95777392  0.75618253  0.38404322  1
  H  H202  1  0.95777392  0.74381747  0.88404322  1
  H  H203  1  0.04222608  0.24381747  0.61595678  1
  H  H204  1  0.93080577  0.21690016  0.04098886  1
  H  H205  1  0.06919423  0.71690016  0.45901114  1
  H  H206  1  0.06919423  0.78309984  0.95901114  1
  H  H207  1  0.93080577  0.28309984  0.54098886  1
  H  H208  1  0.78941717  0.17264764  0.09866218  1
  H  H209  1  0.21058283  0.67264764  0.40133782  1
  H  H210  1  0.21058283  0.82735236  0.90133782  1
  H  H211  1  0.78941717  0.32735236  0.59866218  1
  H  H212  1  0.90162182  0.18124012  0.18352001  1
  H  H213  1  0.09837818  0.68124012  0.31647999  1
  H  H214  1  0.09837818  0.81875988  0.81647999  1
  H  H215  1  0.90162182  0.31875988  0.68352001  1
  H  H216  1  0.76104310  0.22165715  0.17691416  1
  H  H217  1  0.23895690  0.72165715  0.32308584  1
  H  H218  1  0.23895690  0.77834285  0.82308584  1
  H  H219  1  0.76104310  0.27834285  0.67691416  1
  H  H220  1  0.67437050  0.31236067  0.07149111  1
  H  H221  1  0.32562950  0.81236067  0.42850889  1
  H  H222  1  0.32562950  0.68763933  0.92850889  1
  H  H223  1  0.67437050  0.18763933  0.57149111  1
  H  H224  1  0.76152246  0.37041902  0.02621309  1
  H  H225  1  0.23847754  0.87041902  0.47378691  1
  H  H226  1  0.23847754  0.62958098  0.97378691  1
  H  H227  1  0.76152246  0.12958098  0.52621309  1
  H  H228  1  0.73917749  0.26944589  0.00601150  1
  H  H229  1  0.26082251  0.76944589  0.49398850  1
  H  H230  1  0.26082251  0.73055411  0.99398850  1
  H  H231  1  0.73917749  0.23055411  0.50601150  1
  Pt  Pt232  1  0.75241816  0.42375512  0.23906043  1
  Pt  Pt233  1  0.24758184  0.92375512  0.26093957  1
  Pt  Pt234  1  0.24758184  0.57624488  0.76093957  1
  Pt  Pt235  1  0.75241816  0.07624488  0.73906043  1
  C  C236  1  0.55207289  0.57441294  0.27533091  1
  C  C237  1  0.44792711  0.07441294  0.22466909  1
  C  C238  1  0.44792711  0.42558706  0.72466909  1
  C  C239  1  0.55207289  0.92558706  0.77533091  1
  C  C240  1  0.63312186  0.62628438  0.24353284  1
  C  C241  1  0.36687814  0.12628438  0.25646716  1
  C  C242  1  0.36687814  0.37371562  0.75646716  1
  C  C243  1  0.63312186  0.87371562  0.74353284  1
  C  C244  1  0.44144170  0.55968104  0.21066980  1
  C  C245  1  0.55855830  0.05968104  0.28933020  1
  C  C246  1  0.55855830  0.44031896  0.78933020  1
  C  C247  1  0.44144170  0.94031896  0.71066980  1
  C  C248  1  0.51335589  0.62258163  0.33501425  1
  C  C249  1  0.48664411  0.12258163  0.16498575  1
  C  C250  1  0.48664411  0.37741837  0.66498575  1
  C  C251  1  0.51335589  0.87741837  0.83501425  1
  C  C252  1  0.73499465  0.49913296  0.41000167  1
  C  C253  1  0.26500535  0.99913296  0.08999833  1
  C  C254  1  0.26500535  0.50086704  0.58999833  1
  C  C255  1  0.73499465  0.00086704  0.91000167  1
  C  C256  1  0.80810402  0.57261064  0.40568329  1
  C  C257  1  0.19189598  0.07261064  0.09431671  1
  C  C258  1  0.19189598  0.42738936  0.59431671  1
  C  C259  1  0.80810402  0.92738936  0.90568329  1
  C  C260  1  0.67644244  0.51084338  0.47371289  1
  C  C261  1  0.32355756  0.01084338  0.02628711  1
  C  C262  1  0.32355756  0.48915662  0.52628711  1
  C  C263  1  0.67644244  0.98915662  0.97371289  1
  C  C264  1  0.82179977  0.43090821  0.43317580  1
  C  C265  1  0.17820023  0.93090821  0.06682420  1
  C  C266  1  0.17820023  0.56909179  0.56682420  1
  C  C267  1  0.82179977  0.06909179  0.93317580  1
  C  C268  1  0.51952280  0.40185369  0.32189548  1
  C  C269  1  0.48047720  0.90185369  0.17810452  1
  C  C270  1  0.48047720  0.59814631  0.67810452  1
  C  C271  1  0.51952280  0.09814631  0.82189548  1
  C  C272  1  0.46044951  0.36769672  0.24347405  1
  C  C273  1  0.53955049  0.86769672  0.25652595  1
  C  C274  1  0.53955049  0.63230328  0.75652595  1
  C  C275  1  0.46044951  0.13230328  0.74347405  1
  C  C276  1  0.57970578  0.33243806  0.37060417  1
  C  C277  1  0.42029422  0.83243806  0.12939583  1
  C  C278  1  0.42029422  0.66756194  0.62939583  1
  C  C279  1  0.57970578  0.16756194  0.87060417  1
  C  C280  1  0.42486321  0.43257075  0.35669628  1
  C  C281  1  0.57513679  0.93257075  0.14330372  1
  C  C282  1  0.57513679  0.56742925  0.64330372  1
  C  C283  1  0.42486321  0.06742925  0.85669628  1
  C  C284  1  0.00896718  0.31952658  0.27826187  1
  C  C285  1  0.99103282  0.81952658  0.22173813  1
  C  C286  1  0.99103282  0.68047342  0.72173813  1
  C  C287  1  0.00896718  0.18047342  0.77826187  1
  C  C288  1  0.07108634  0.38399189  0.33323855  1
  C  C289  1  0.92891366  0.88399189  0.16676145  1
  C  C290  1  0.92891366  0.61600811  0.66676145  1
  C  C291  1  0.07108634  0.11600811  0.83323855  1
  C  C292  1  0.93808894  0.27047264  0.32040576  1
  C  C293  1  0.06191106  0.77047264  0.17959424  1
  C  C294  1  0.06191106  0.72952736  0.67959424  1
  C  C295  1  0.93808894  0.22952736  0.82040576  1
  C  C296  1  0.10352073  0.26634497  0.26250274  1
  C  C297  1  0.89647927  0.76634497  0.23749726  1
  C  C298  1  0.89647927  0.73365503  0.73749726  1
  C  C299  1  0.10352073  0.23365503  0.76250274  1
  C  C300  1  0.98279234  0.45065568  0.15578449  1
  C  C301  1  0.01720766  0.95065568  0.34421551  1
  C  C302  1  0.01720766  0.54934432  0.84421551  1
  C  C303  1  0.98279234  0.04934432  0.65578449  1
  C  C304  1  0.10795707  0.43238370  0.15413921  1
  C  C305  1  0.89204293  0.93238370  0.34586079  1
  C  C306  1  0.89204293  0.56761630  0.84586079  1
  C  C307  1  0.10795707  0.06761630  0.65413921  1
  C  C308  1  0.91444792  0.47435711  0.07541534  1
  C  C309  1  0.08555208  0.97435711  0.42458466  1
  C  C310  1  0.08555208  0.52564289  0.92458466  1
  C  C311  1  0.91444792  0.02564289  0.57541534  1
  C  C312  1  0.98532767  0.52385089  0.20540343  1
  C  C313  1  0.01467233  0.02385089  0.29459657  1
  C  C314  1  0.01467233  0.47614911  0.79459657  1
  C  C315  1  0.98532767  0.97614911  0.70540343  1
  C  C316  1  0.86140039  0.28876304  0.11410055  1
  C  C317  1  0.13859961  0.78876304  0.38589945  1
  C  C318  1  0.13859961  0.71123696  0.88589945  1
  C  C319  1  0.86140039  0.21123696  0.61410055  1
  C  C320  1  0.95815356  0.26959634  0.07613711  1
  C  C321  1  0.04184644  0.76959634  0.42386289  1
  C  C322  1  0.04184644  0.73040366  0.92386289  1
  C  C323  1  0.95815356  0.23040366  0.57613711  1
  C  C324  1  0.82699596  0.21202705  0.14662860  1
  C  C325  1  0.17300404  0.71202705  0.35337140  1
  C  C326  1  0.17300404  0.78797295  0.85337140  1
  C  C327  1  0.82699596  0.28797295  0.64662860  1
  C  C328  1  0.75293977  0.31337451  0.05156746  1
  C  C329  1  0.24706023  0.81337451  0.44843254  1
  C  C330  1  0.24706023  0.68662549  0.94843254  1
  C  C331  1  0.75293977  0.18662549  0.55156746  1
  F  F332  1  0.31862781  0.40775573  0.04398011  1
  F  F333  1  0.68137219  0.90775573  0.45601989  1
  F  F334  1  0.68137219  0.59224427  0.95601989  1
  F  F335  1  0.31862781  0.09224427  0.54398011  1
  F  F336  1  0.28187114  0.28360240  0.08525316  1
  F  F337  1  0.71812886  0.78360240  0.41474684  1
  F  F338  1  0.71812886  0.71639760  0.91474684  1
  F  F339  1  0.28187114  0.21639760  0.58525316  1
  F  F340  1  0.31596706  0.22796222  0.97824118  1
  F  F341  1  0.68403294  0.72796222  0.52175882  1
  F  F342  1  0.68403294  0.77203778  0.02175882  1
  F  F343  1  0.31596706  0.27203778  0.47824118  1
  F  F344  1  0.35190006  0.35204760  0.93686447  1
  F  F345  1  0.64809994  0.85204760  0.56313553  1
  F  F346  1  0.64809994  0.64795240  0.06313553  1
  F  F347  1  0.35190006  0.14795240  0.43686447  1
  F  F348  1  0.45557327  0.30856388  0.05582437  1
  F  F349  1  0.54442673  0.80856388  0.44417563  1
  F  F350  1  0.54442673  0.69143612  0.94417563  1
  F  F351  1  0.45557327  0.19143612  0.55582437  1
  F  F352  1  0.17842936  0.32724710  0.96641572  1
  F  F353  1  0.82157064  0.82724710  0.53358428  1
  F  F354  1  0.82157064  0.67275290  0.03358428  1
  F  F355  1  0.17842936  0.17275290  0.46641572  1
