# generated using pymatgen
data_DyCO4
_symmetry_space_group_name_H-M   'P 1'
_cell_length_a   9.67282076
_cell_length_b   12.08537175
_cell_length_c   12.08539141
_cell_angle_alpha   120.00061011
_cell_angle_beta   90.00000000
_cell_angle_gamma   90.00000000
_symmetry_Int_Tables_number   1
_chemical_formula_structural   DyCO4
_chemical_formula_sum   'Dy18 C18 O72'
_cell_volume   1223.49397873
_cell_formula_units_Z   18
loop_
 _symmetry_equiv_pos_site_id
 _symmetry_equiv_pos_as_xyz
  1  'x, y, z'
loop_
 _atom_site_type_symbol
 _atom_site_label
 _atom_site_symmetry_multiplicity
 _atom_site_fract_x
 _atom_site_fract_y
 _atom_site_fract_z
 _atom_site_occupancy
  Dy  Dy0  1  0.24353147  0.10868179  0.87770307  1
  Dy  Dy1  1  0.24352915  0.12228706  0.23097761  1
  Dy  Dy2  1  0.24354454  0.76903782  0.89132963  1
  Dy  Dy3  1  0.75646853  0.10868179  0.87770307  1
  Dy  Dy4  1  0.75647085  0.12228706  0.23097761  1
  Dy  Dy5  1  0.75645546  0.76903782  0.89132963  1
  Dy  Dy6  1  0.26099699  0.77860636  0.56380537  1
  Dy  Dy7  1  0.26099590  0.43619027  0.21480350  1
  Dy  Dy8  1  0.26099929  0.78519817  0.22139351  1
  Dy  Dy9  1  0.73900301  0.77860636  0.56380537  1
  Dy  Dy10  1  0.73900410  0.43619027  0.21480350  1
  Dy  Dy11  1  0.73900071  0.78519817  0.22139351  1
  Dy  Dy12  1  0.24251521  0.44428162  0.89650789  1
  Dy  Dy13  1  0.24250662  0.10349942  0.54778811  1
  Dy  Dy14  1  0.24251758  0.45221242  0.55569815  1
  Dy  Dy15  1  0.75748479  0.44428162  0.89650789  1
  Dy  Dy16  1  0.75749338  0.10349942  0.54778811  1
  Dy  Dy17  1  0.75748242  0.45221242  0.55569815  1
  C  C18  1  0.00000000  0.86745831  0.35211449  1
  C  C19  1  0.00000000  0.64788257  0.51534388  1
  C  C20  1  0.00000000  0.48465154  0.13254298  1
  C  C21  1  0.00000000  0.90188188  0.79554885  1
  C  C22  1  0.00000000  0.20445586  0.10632634  1
  C  C23  1  0.00000000  0.89365989  0.09811613  1
  C  C24  1  0.00000000  0.21751955  0.75566067  1
  C  C25  1  0.00000000  0.24433723  0.46184596  1
  C  C26  1  0.00000000  0.53816563  0.78246970  1
  C  C27  1  0.50000000  0.87006112  0.42394964  1
  C  C28  1  0.50000000  0.57604912  0.44611047  1
  C  C29  1  0.50000000  0.55388686  0.12994244  1
  C  C30  1  0.50000000  0.15545075  0.68304293  1
  C  C31  1  0.50000000  0.31694873  0.47240291  1
  C  C32  1  0.50000000  0.52760589  0.84456209  1
  C  C33  1  0.50000000  0.97239747  0.80098521  1
  C  C34  1  0.50000000  0.19901090  0.17141510  1
  C  C35  1  0.50000000  0.82859591  0.02761112  1
  O  O36  1  0.00000000  0.76129362  0.24387398  1
  O  O37  1  0.00000000  0.75613148  0.51742430  1
  O  O38  1  0.00000000  0.48257792  0.23870456  1
  O  O39  1  0.11670318  0.91839088  0.40282673  1
  O  O40  1  0.11670271  0.59717706  0.51556024  1
  O  O41  1  0.11670373  0.48443064  0.08160976  1
  O  O42  1  0.88329682  0.91839088  0.40282673  1
  O  O43  1  0.88329729  0.59717706  0.51556024  1
  O  O44  1  0.88329627  0.48443064  0.08160976  1
  O  O45  1  0.00000000  0.02537972  0.85146934  1
  O  O46  1  0.00000000  0.14852422  0.17391350  1
  O  O47  1  0.00000000  0.82607747  0.97460383  1
  O  O48  1  0.11675395  0.84177197  0.76817786  1
  O  O49  1  0.11674856  0.23182150  0.07359766  1
  O  O50  1  0.11675375  0.92639395  0.15821747  1
  O  O51  1  0.88324605  0.84177197  0.76817786  1
  O  O52  1  0.88325144  0.23182150  0.07359766  1
  O  O53  1  0.88324625  0.92639395  0.15821747  1
  O  O54  1  0.00000000  0.16181396  0.63236454  1
  O  O55  1  0.00000000  0.36763056  0.52943408  1
  O  O56  1  0.00000000  0.47056916  0.83817579  1
  O  O57  1  0.11615761  0.24482592  0.81651205  1
  O  O58  1  0.11616042  0.18348502  0.42830468  1
  O  O59  1  0.11616380  0.57170093  0.75516685  1
  O  O60  1  0.88384239  0.24482592  0.81651205  1
  O  O61  1  0.88383958  0.18348502  0.42830468  1
  O  O62  1  0.88383620  0.57170093  0.75516685  1
  O  O63  1  0.50000000  0.80744789  0.30030442  1
  O  O64  1  0.50000000  0.69969636  0.50714621  1
  O  O65  1  0.50000000  0.49285323  0.19255267  1
  O  O66  1  0.61694423  0.90026507  0.48365529  1
  O  O67  1  0.61694126  0.51634680  0.41661263  1
  O  O68  1  0.61694285  0.58338534  0.09973644  1
  O  O69  1  0.38305577  0.90026507  0.48365529  1
  O  O70  1  0.38305874  0.51634680  0.41661263  1
  O  O71  1  0.38305715  0.58338534  0.09973644  1
  O  O72  1  0.50000000  0.15026547  0.57287780  1
  O  O73  1  0.50000000  0.42712001  0.57738135  1
  O  O74  1  0.50000000  0.42261708  0.84973968  1
  O  O75  1  0.61763127  0.15615813  0.73331776  1
  O  O76  1  0.61762850  0.26667234  0.42283358  1
  O  O77  1  0.61763035  0.57716769  0.84385808  1
  O  O78  1  0.38236873  0.15615813  0.73331776  1
  O  O79  1  0.38237150  0.26667234  0.42283358  1
  O  O80  1  0.38236965  0.57716769  0.84385808  1
  O  O81  1  0.50000000  0.08206957  0.90522581  1
  O  O82  1  0.50000000  0.09476768  0.17683834  1
  O  O83  1  0.50000000  0.82316800  0.91794811  1
  O  O84  1  0.61680632  0.92161382  0.75041034  1
  O  O85  1  0.61680464  0.24958717  0.17121142  1
  O  O86  1  0.61680715  0.82880330  0.07840295  1
  O  O87  1  0.38319368  0.92161382  0.75041034  1
  O  O88  1  0.38319536  0.24958717  0.17121142  1
  O  O89  1  0.38319285  0.82880330  0.07840295  1
  O  O90  1  0.25607206  -0.00000125  0.99999850  1
  O  O91  1  0.74392794  -0.00000125  0.99999850  1
  O  O92  1  0.24398834  0.66666360  0.33333265  1
  O  O93  1  0.75601166  0.66666360  0.33333265  1
  O  O94  1  0.25188991  0.33334469  0.66667163  1
  O  O95  1  0.74811009  0.33334469  0.66667163  1
  O  O96  1  0.30742943  0.32343494  0.99184379  1
  O  O97  1  0.30742338  0.00815072  0.33159211  1
  O  O98  1  0.30743615  0.66841094  0.67656310  1
  O  O99  1  0.69257057  0.32343494  0.99184379  1
  O  O100  1  0.69257662  0.00815072  0.33159211  1
  O  O101  1  0.69256385  0.66841094  0.67656310  1
  O  O102  1  0.19045224  0.66389966  0.00884040  1
  O  O103  1  0.19045806  0.99115841  0.65506242  1
  O  O104  1  0.19045938  0.34493454  0.33609218  1
  O  O105  1  0.80954776  0.66389966  0.00884040  1
  O  O106  1  0.80954194  0.99115841  0.65506242  1
  O  O107  1  0.80954062  0.34493454  0.33609218  1
