# generated using pymatgen
data_H10C3N3Cl
_symmetry_space_group_name_H-M   'P 1'
_cell_length_a   7.71655545
_cell_length_b   8.84043450
_cell_length_c   12.56234051
_cell_angle_alpha   82.29673902
_cell_angle_beta   72.11361502
_cell_angle_gamma   64.12334019
_symmetry_Int_Tables_number   1
_chemical_formula_structural   H10C3N3Cl
_chemical_formula_sum   'H40 C12 N12 Cl4'
_cell_volume   733.78321986
_cell_formula_units_Z   4
loop_
 _symmetry_equiv_pos_site_id
 _symmetry_equiv_pos_as_xyz
  1  'x, y, z'
loop_
 _atom_site_type_symbol
 _atom_site_label
 _atom_site_symmetry_multiplicity
 _atom_site_fract_x
 _atom_site_fract_y
 _atom_site_fract_z
 _atom_site_occupancy
  H  H0  1  0.70065122  0.48659024  0.85223316  1
  H  H1  1  0.53947461  0.01340976  0.64776684  1
  H  H2  1  0.81275854  0.48659024  0.64776684  1
  H  H3  1  0.44711562  0.01340976  0.85223316  1
  H  H4  1  0.29934878  0.51340976  0.14776684  1
  H  H5  1  0.46052539  0.98659024  0.35223316  1
  H  H6  1  0.18724146  0.51340976  0.35223316  1
  H  H7  1  0.55288438  0.98659024  0.14776684  1
  H  H8  1  0.68111015  0.30432720  0.91320408  1
  H  H9  1  0.39864144  0.19567280  0.58679592  1
  H  H10  1  0.01456264  0.30432720  0.58679592  1
  H  H11  1  0.40568577  0.19567280  0.91320408  1
  H  H12  1  0.31888985  0.69567280  0.08679592  1
  H  H13  1  0.60135856  0.80432720  0.41320408  1
  H  H14  1  0.98543736  0.69567280  0.41320408  1
  H  H15  1  0.59431423  0.80432720  0.08679592  1
  H  H16  1  0.19369487  0.95320266  0.62244849  1
  H  H17  1  0.26934602  0.54679734  0.87755151  1
  H  H18  1  0.85310247  0.95320266  0.87755151  1
  H  H19  1  0.18385663  0.54679734  0.62244849  1
  H  H20  1  0.80630513  0.04679734  0.37755151  1
  H  H21  1  0.73065398  0.45320266  0.12244849  1
  H  H22  1  0.14689753  0.04679734  0.12244849  1
  H  H23  1  0.81614337  0.45320266  0.37755151  1
  H  H24  1  0.97553586  0.08557832  0.57914285  1
  H  H25  1  0.14025703  0.41442168  0.92085715  1
  H  H26  1  0.93888582  0.08557832  0.92085715  1
  H  H27  1  0.44532128  0.41442168  0.57914285  1
  H  H28  1  0.02446414  0.91442168  0.42085715  1
  H  H29  1  0.85974297  0.58557832  0.07914285  1
  H  H30  1  0.06111418  0.91442168  0.07914285  1
  H  H31  1  0.55467872  0.58557832  0.42085715  1
  H  H32  1  0.97828361  0.90614631  0.66229879  1
  H  H33  1  0.04672870  0.59385369  0.83770121  1
  H  H34  1  0.11557009  0.90614631  0.83770121  1
  H  H35  1  0.35941761  0.59385369  0.66229879  1
  H  H36  1  0.02171639  0.09385369  0.33770121  1
  H  H37  1  0.95327130  0.40614631  0.16229879  1
  H  H38  1  0.88442991  0.09385369  0.16229879  1
  H  H39  1  0.64058239  0.40614631  0.33770121  1
  C  C40  1  0.02882166  0.00773269  0.64777062  1
  C  C41  1  0.18432497  0.49226731  0.85222938  1
  C  C42  1  0.96344566  0.00773269  0.85222938  1
  C  C43  1  0.32340772  0.49226731  0.64777062  1
  C  C44  1  0.97117834  0.99226731  0.35222938  1
  C  C45  1  0.81567503  0.50773269  0.14777062  1
  C  C46  1  0.03655434  0.99226731  0.14777062  1
  C  C47  1  0.67659228  0.50773269  0.35222938  1
  C  C48  1  0.86211667  0.27576666  0.75000000  1
  C  C49  1  0.38788333  0.22423334  0.75000000  1
  C  C50  1  0.13788333  0.72423334  0.25000000  1
  C  C51  1  0.61211667  0.77576666  0.25000000  1
  N  N52  1  0.94689606  0.10620789  0.75000000  1
  N  N53  1  0.30310394  0.39379211  0.75000000  1
  N  N54  1  0.05310394  0.89379211  0.25000000  1
  N  N55  1  0.69689606  0.60620789  0.25000000  1
  N  N56  1  0.75018122  0.35918869  0.84651651  1
  N  N57  1  0.45588642  0.14081131  0.65348349  1
  N  N58  1  0.89063009  0.35918869  0.65348349  1
  N  N59  1  0.40330227  0.14081131  0.84651651  1
  N  N60  1  0.24981878  0.64081131  0.15348349  1
  N  N61  1  0.54411358  0.85918869  0.34651651  1
  N  N62  1  0.10936991  0.64081131  0.34651651  1
  N  N63  1  0.59669773  0.85918869  0.15348349  1
  Cl  Cl64  1  0.72040577  0.75000000  0.55918846  1
  Cl  Cl65  1  0.52959423  0.75000000  0.94081154  1
  Cl  Cl66  1  0.27959423  0.25000000  0.44081154  1
  Cl  Cl67  1  0.47040577  0.25000000  0.05918846  1
