# generated using pymatgen
data_Bi2AsO6
_symmetry_space_group_name_H-M   'P 1'
_cell_length_a   7.15790516
_cell_length_b   7.09348558
_cell_length_c   10.90730750
_cell_angle_alpha   90.00000000
_cell_angle_beta   108.18835999
_cell_angle_gamma   90.00000000
_symmetry_Int_Tables_number   1
_chemical_formula_structural   Bi2AsO6
_chemical_formula_sum   'Bi8 As4 O24'
_cell_volume   526.14205184
_cell_formula_units_Z   4
loop_
 _symmetry_equiv_pos_site_id
 _symmetry_equiv_pos_as_xyz
  1  'x, y, z'
loop_
 _atom_site_type_symbol
 _atom_site_label
 _atom_site_symmetry_multiplicity
 _atom_site_fract_x
 _atom_site_fract_y
 _atom_site_fract_z
 _atom_site_occupancy
  Bi  Bi0  1  0.25872326  0.09108233  0.97675209  1
  Bi  Bi1  1  0.74127674  0.59108233  0.52324791  1
  Bi  Bi2  1  0.74127674  0.90891767  0.02324791  1
  Bi  Bi3  1  0.25872326  0.40891767  0.47675209  1
  Bi  Bi4  1  0.40373201  0.63244167  0.17764040  1
  Bi  Bi5  1  0.59626799  0.13244167  0.32235960  1
  Bi  Bi6  1  0.59626799  0.36755833  0.82235960  1
  Bi  Bi7  1  0.40373201  0.86755833  0.67764040  1
  As  As8  1  0.12981077  0.92811130  0.32882366  1
  As  As9  1  0.87018923  0.42811130  0.17117634  1
  As  As10  1  0.87018923  0.07188870  0.67117634  1
  As  As11  1  0.12981077  0.57188870  0.82882366  1
  O  O12  1  0.50509235  0.92024922  0.11314741  1
  O  O13  1  0.49490765  0.42024922  0.38685259  1
  O  O14  1  0.49490765  0.07975078  0.88685259  1
  O  O15  1  0.50509235  0.57975078  0.61314741  1
  O  O16  1  0.42713799  0.27921416  0.14383602  1
  O  O17  1  0.57286201  0.77921416  0.35616398  1
  O  O18  1  0.57286201  0.72078584  0.85616398  1
  O  O19  1  0.42713799  0.22078584  0.64383602  1
  O  O20  1  0.17901252  0.86328491  0.18931292  1
  O  O21  1  0.82098748  0.36328491  0.31068708  1
  O  O22  1  0.82098748  0.13671509  0.81068708  1
  O  O23  1  0.17901252  0.63671509  0.68931292  1
  O  O24  1  0.17643369  0.77280041  0.45615769  1
  O  O25  1  0.82356631  0.27280041  0.04384231  1
  O  O26  1  0.82356631  0.22719959  0.54384231  1
  O  O27  1  0.17643369  0.72719959  0.95615769  1
  O  O28  1  0.29190344  0.11279958  0.38763470  1
  O  O29  1  0.70809656  0.61279958  0.11236530  1
  O  O30  1  0.70809656  0.88720042  0.61236530  1
  O  O31  1  0.29190344  0.38720042  0.88763470  1
  O  O32  1  0.88651978  0.98701018  0.27275929  1
  O  O33  1  0.11348022  0.48701018  0.22724071  1
  O  O34  1  0.11348022  0.01298982  0.72724071  1
  O  O35  1  0.88651978  0.51298982  0.77275929  1
