# generated using pymatgen
data_Sr2Fe(PO4)3
_symmetry_space_group_name_H-M   'P 1'
_cell_length_a   8.15590967
_cell_length_b   8.15590967
_cell_length_c   9.07976421
_cell_angle_alpha   113.87824237
_cell_angle_beta   113.87824237
_cell_angle_gamma   92.72378960
_symmetry_Int_Tables_number   1
_chemical_formula_structural   Sr2Fe(PO4)3
_chemical_formula_sum   'Sr4 Fe2 P6 O24'
_cell_volume   488.60514847
_cell_formula_units_Z   2
loop_
 _symmetry_equiv_pos_site_id
 _symmetry_equiv_pos_as_xyz
  1  'x, y, z'
loop_
 _atom_site_type_symbol
 _atom_site_label
 _atom_site_symmetry_multiplicity
 _atom_site_fract_x
 _atom_site_fract_y
 _atom_site_fract_z
 _atom_site_occupancy
  Sr  Sr0  1  0.66460023  0.74577003  0.30080722  1
  Sr  Sr1  1  0.25422997  0.33539977  0.19919278  1
  Sr  Sr2  1  0.33539977  0.25422997  0.69919278  1
  Sr  Sr3  1  0.74577003  0.66460023  0.80080722  1
  Fe  Fe4  1  -0.00000000  0.50000000  0.50000000  1
  Fe  Fe5  1  0.50000000  -0.00000000  -0.00000000  1
  P  P6  1  0.96912795  0.03087205  0.25000000  1
  P  P7  1  0.03087205  0.96912795  0.75000000  1
  P  P8  1  0.63253388  0.24902366  0.45076268  1
  P  P9  1  0.75097634  0.36746612  0.04923732  1
  P  P10  1  0.36746612  0.75097634  0.54923732  1
  P  P11  1  0.24902366  0.63253388  0.95076268  1
  O  O12  1  0.02946733  0.23465290  0.40013325  1
  O  O13  1  0.76534710  0.97053267  0.09986675  1
  O  O14  1  0.97053267  0.76534710  0.59986675  1
  O  O15  1  0.23465290  0.02946733  0.90013325  1
  O  O16  1  0.80104552  0.42011470  0.55051118  1
  O  O17  1  0.57988530  0.19895448  0.94948882  1
  O  O18  1  0.19895448  0.57988530  0.44948882  1
  O  O19  1  0.42011470  0.80104552  0.05051118  1
  O  O20  1  0.80574132  0.46672500  0.25617255  1
  O  O21  1  0.53327500  0.19425868  0.24382745  1
  O  O22  1  0.19425868  0.53327500  0.74382745  1
  O  O23  1  0.46672500  0.80574132  0.75617255  1
  O  O24  1  0.97161739  0.88743431  0.32028656  1
  O  O25  1  0.11256569  0.02838261  0.17971344  1
  O  O26  1  0.02838261  0.11256569  0.67971344  1
  O  O27  1  0.88743431  0.97161739  0.82028656  1
  O  O28  1  0.49940644  0.31923719  0.53020227  1
  O  O29  1  0.68076281  0.50059356  0.96979773  1
  O  O30  1  0.50059356  0.68076281  0.46979773  1
  O  O31  1  0.31923719  0.49940644  0.03020227  1
  O  O32  1  0.69564814  0.08329351  0.47602550  1
  O  O33  1  0.91670649  0.30435186  0.02397450  1
  O  O34  1  0.30435186  0.91670649  0.52397450  1
  O  O35  1  0.08329351  0.69564814  0.97602550  1
