# generated using pymatgen
data_Cu2H12C4Br3N
_symmetry_space_group_name_H-M   'P 1'
_cell_length_a   6.72304156
_cell_length_b   9.98371879
_cell_length_c   17.62809209
_cell_angle_alpha   90.00000000
_cell_angle_beta   90.00000000
_cell_angle_gamma   90.00000000
_symmetry_Int_Tables_number   1
_chemical_formula_structural   Cu2H12C4Br3N
_chemical_formula_sum   'Cu8 H48 C16 Br12 N4'
_cell_volume   1183.21439968
_cell_formula_units_Z   4
loop_
 _symmetry_equiv_pos_site_id
 _symmetry_equiv_pos_as_xyz
  1  'x, y, z'
loop_
 _atom_site_type_symbol
 _atom_site_label
 _atom_site_symmetry_multiplicity
 _atom_site_fract_x
 _atom_site_fract_y
 _atom_site_fract_z
 _atom_site_occupancy
  Cu  Cu0  1  0.50266648  0.06241556  0.56875095  1
  Cu  Cu1  1  0.99733352  0.43758444  0.06875095  1
  Cu  Cu2  1  0.00266648  0.93758444  0.43124905  1
  Cu  Cu3  1  0.49733352  0.56241556  0.93124905  1
  Cu  Cu4  1  0.49733352  0.93758444  0.43124905  1
  Cu  Cu5  1  0.00266648  0.56241556  0.93124905  1
  Cu  Cu6  1  0.99733352  0.06241556  0.56875095  1
  Cu  Cu7  1  0.50266648  0.43758444  0.06875095  1
  H  H8  1  0.43030858  0.66163616  0.71384564  1
  H  H9  1  0.06969142  0.83836384  0.21384564  1
  H  H10  1  0.93030858  0.33836384  0.28615436  1
  H  H11  1  0.56969142  0.16163616  0.78615436  1
  H  H12  1  0.56969142  0.33836384  0.28615436  1
  H  H13  1  0.93030858  0.16163616  0.78615436  1
  H  H14  1  0.06969142  0.66163616  0.71384564  1
  H  H15  1  0.43030858  0.83836384  0.21384564  1
  H  H16  1  0.56210608  0.55083222  0.65167027  1
  H  H17  1  0.93789392  0.94916778  0.15167027  1
  H  H18  1  0.06210608  0.44916778  0.34832973  1
  H  H19  1  0.43789392  0.05083222  0.84832973  1
  H  H20  1  0.43789392  0.44916778  0.34832973  1
  H  H21  1  0.06210608  0.05083222  0.84832973  1
  H  H22  1  0.93789392  0.55083222  0.65167027  1
  H  H23  1  0.56210608  0.94916778  0.15167027  1
  H  H24  1  0.43086826  0.69317474  0.61348814  1
  H  H25  1  0.06913174  0.80682526  0.11348814  1
  H  H26  1  0.93086826  0.30682526  0.38651186  1
  H  H27  1  0.56913174  0.19317474  0.88651186  1
  H  H28  1  0.56913174  0.30682526  0.38651186  1
  H  H29  1  0.93086826  0.19317474  0.88651186  1
  H  H30  1  0.06913174  0.69317474  0.61348814  1
  H  H31  1  0.43086826  0.80682526  0.11348814  1
  H  H32  1  0.25000000  0.47169390  0.76467971  1
  H  H33  1  0.25000000  0.02830610  0.26467971  1
  H  H34  1  0.75000000  0.52830610  0.23532029  1
  H  H35  1  0.75000000  0.97169390  0.73532029  1
  H  H36  1  0.11640709  0.36264104  0.70118613  1
  H  H37  1  0.38359291  0.13735896  0.20118613  1
  H  H38  1  0.61640709  0.63735896  0.29881387  1
  H  H39  1  0.88359291  0.86264104  0.79881387  1
  H  H40  1  0.88359291  0.63735896  0.29881387  1
  H  H41  1  0.61640709  0.86264104  0.79881387  1
  H  H42  1  0.38359291  0.36264104  0.70118613  1
  H  H43  1  0.11640709  0.13735896  0.20118613  1
  H  H44  1  0.25000000  0.54622298  0.52947441  1
  H  H45  1  0.25000000  0.95377702  0.02947441  1
  H  H46  1  0.75000000  0.45377702  0.47052559  1
  H  H47  1  0.75000000  0.04622298  0.97052559  1
  H  H48  1  0.38325423  0.40399155  0.56736212  1
  H  H49  1  0.11674577  0.09600845  0.06736212  1
  H  H50  1  0.88325423  0.59600845  0.43263788  1
  H  H51  1  0.61674577  0.90399155  0.93263788  1
  H  H52  1  0.61674577  0.59600845  0.43263788  1
  H  H53  1  0.88325423  0.90399155  0.93263788  1
  H  H54  1  0.11674577  0.40399155  0.56736212  1
  H  H55  1  0.38325423  0.09600845  0.06736212  1
  C  C56  1  0.43205959  0.61583558  0.65744483  1
  C  C57  1  0.06794041  0.88416442  0.15744483  1
  C  C58  1  0.93205959  0.38416442  0.34255517  1
  C  C59  1  0.56794041  0.11583558  0.84255517  1
  C  C60  1  0.56794041  0.38416442  0.34255517  1
  C  C61  1  0.93205959  0.11583558  0.84255517  1
  C  C62  1  0.06794041  0.61583558  0.65744483  1
  C  C63  1  0.43205959  0.88416442  0.15744483  1
  C  C64  1  0.25000000  0.42385946  0.70886313  1
  C  C65  1  0.25000000  0.07614054  0.20886313  1
  C  C66  1  0.75000000  0.57614054  0.29113687  1
  C  C67  1  0.75000000  0.92385946  0.79113687  1
  C  C68  1  0.25000000  0.46670507  0.57224962  1
  C  C69  1  0.25000000  0.03329493  0.07224962  1
  C  C70  1  0.75000000  0.53329493  0.42775038  1
  C  C71  1  0.75000000  0.96670507  0.92775038  1
  Br  Br72  1  0.75000000  0.87541943  0.53917725  1
  Br  Br73  1  0.75000000  0.62458057  0.03917725  1
  Br  Br74  1  0.25000000  0.12458057  0.46082275  1
  Br  Br75  1  0.25000000  0.37541943  0.96082275  1
  Br  Br76  1  0.75000000  0.24277994  0.59329444  1
  Br  Br77  1  0.75000000  0.25722006  0.09329444  1
  Br  Br78  1  0.25000000  0.75722006  0.40670556  1
  Br  Br79  1  0.25000000  0.74277994  0.90670556  1
  Br  Br80  1  0.25000000  0.00731149  0.66306203  1
  Br  Br81  1  0.25000000  0.49268851  0.16306203  1
  Br  Br82  1  0.75000000  0.99268851  0.33693797  1
  Br  Br83  1  0.75000000  0.50731149  0.83693797  1
  N  N84  1  0.25000000  0.53069743  0.64913533  1
  N  N85  1  0.25000000  0.96930257  0.14913533  1
  N  N86  1  0.75000000  0.46930257  0.35086467  1
  N  N87  1  0.75000000  0.03069743  0.85086467  1
