# generated using pymatgen
data_H13C2Cl3O8
_symmetry_space_group_name_H-M   'P 1'
_cell_length_a   8.68795738
_cell_length_b   8.78770726
_cell_length_c   9.18472780
_cell_angle_alpha   88.64573456
_cell_angle_beta   62.31108424
_cell_angle_gamma   73.51848212
_symmetry_Int_Tables_number   1
_chemical_formula_structural   H13C2Cl3O8
_chemical_formula_sum   'H26 C4 Cl6 O16'
_cell_volume   590.55962534
_cell_formula_units_Z   2
loop_
 _symmetry_equiv_pos_site_id
 _symmetry_equiv_pos_as_xyz
  1  'x, y, z'
loop_
 _atom_site_type_symbol
 _atom_site_label
 _atom_site_symmetry_multiplicity
 _atom_site_fract_x
 _atom_site_fract_y
 _atom_site_fract_z
 _atom_site_occupancy
  H  H0  1  0.00545437  0.53970486  0.81376647  1
  H  H1  1  0.99454563  0.46029514  0.18623353  1
  H  H2  1  0.85803027  0.47238683  0.72643220  1
  H  H3  1  0.14196973  0.52761317  0.27356780  1
  H  H4  1  0.00739896  0.31862771  0.74111761  1
  H  H5  1  0.99260104  0.68137229  0.25888239  1
  H  H6  1  0.16754708  0.61475734  0.82687362  1
  H  H7  1  0.83245292  0.38524266  0.17312638  1
  H  H8  1  0.97078446  0.74504254  0.85708272  1
  H  H9  1  0.02921554  0.25495746  0.14291728  1
  H  H10  1  0.78257204  0.96996678  0.95809080  1
  H  H11  1  0.21742796  0.03003322  0.04190920  1
  H  H12  1  0.80425089  0.91036888  0.78060100  1
  H  H13  1  0.19574911  0.08963112  0.21939900  1
  H  H14  1  0.77359065  0.88491006  0.53753640  1
  H  H15  1  0.22640935  0.11508994  0.46246360  1
  H  H16  1  0.70592464  0.75991190  0.66198840  1
  H  H17  1  0.29407536  0.24008810  0.33801160  1
  H  H18  1  0.45663439  0.95190588  0.77185867  1
  H  H19  1  0.54336561  0.04809412  0.22814133  1
  H  H20  1  0.33682210  0.83760467  0.81850250  1
  H  H21  1  0.66317790  0.16239533  0.18149750  1
  H  H22  1  0.18883688  0.06569762  0.74614164  1
  H  H23  1  0.81116312  0.93430238  0.25385836  1
  H  H24  1  0.01373059  0.05252615  0.74531775  1
  H  H25  1  0.98626941  0.94747385  0.25468225  1
  C  C26  1  0.55527221  0.35541486  0.70748675  1
  C  C27  1  0.44472779  0.64458514  0.29251325  1
  C  C28  1  0.52664006  0.54076893  0.73196228  1
  C  C29  1  0.47335994  0.45923107  0.26803772  1
  Cl  Cl30  1  0.78219435  0.25005925  0.55710848  1
  Cl  Cl31  1  0.21780565  0.74994075  0.44289152  1
  Cl  Cl32  1  0.51150903  0.29127937  0.90546178  1
  Cl  Cl33  1  0.48849097  0.70872063  0.09453822  1
  Cl  Cl34  1  0.40148928  0.31528601  0.64890934  1
  Cl  Cl35  1  0.59851072  0.68471399  0.35109066  1
  O  O36  1  0.36766318  0.63423007  0.77824607  1
  O  O37  1  0.63233682  0.36576993  0.22175393  1
  O  O38  1  0.66524259  0.57797108  0.70922519  1
  O  O39  1  0.33475741  0.42202892  0.29077481  1
  O  O40  1  0.97023673  0.43671424  0.73829984  1
  O  O41  1  0.02976327  0.56328576  0.26170016  1
  O  O42  1  0.03268210  0.63121503  0.87195844  1
  O  O43  1  0.96731790  0.36878497  0.12804156  1
  O  O44  1  0.87228992  0.91705802  0.84195532  1
  O  O45  1  0.12771008  0.08294198  0.15804468  1
  O  O46  1  0.71155342  0.87174386  0.65656656  1
  O  O47  1  0.28844658  0.12825614  0.34343344  1
  O  O48  1  0.32765667  0.95253637  0.83536218  1
  O  O49  1  0.67234333  0.04746363  0.16463782  1
  O  O50  1  0.10195150  0.11450558  0.70344576  1
  O  O51  1  0.89804850  0.88549442  0.29655424  1
