# generated using pymatgen
data_BP(H3N)3
_symmetry_space_group_name_H-M   'P 1'
_cell_length_a   6.76757571
_cell_length_b   10.83747754
_cell_length_c   10.69363118
_cell_angle_alpha   90.00000000
_cell_angle_beta   90.00000000
_cell_angle_gamma   101.45435232
_symmetry_Int_Tables_number   1
_chemical_formula_structural   BP(H3N)3
_chemical_formula_sum   'B4 P4 H36 N12'
_cell_volume   768.68692269
_cell_formula_units_Z   4
loop_
 _symmetry_equiv_pos_site_id
 _symmetry_equiv_pos_as_xyz
  1  'x, y, z'
loop_
 _atom_site_type_symbol
 _atom_site_label
 _atom_site_symmetry_multiplicity
 _atom_site_fract_x
 _atom_site_fract_y
 _atom_site_fract_z
 _atom_site_occupancy
  B  B0  1  0.92582687  0.26013184  0.53491299  1
  B  B1  1  0.57417313  0.73986816  0.03491299  1
  B  B2  1  0.07417313  0.73986816  0.46508701  1
  B  B3  1  0.42582687  0.26013184  0.96508701  1
  P  P4  1  0.67518724  0.24608508  0.45212802  1
  P  P5  1  0.82481276  0.75391492  0.95212802  1
  P  P6  1  0.32481276  0.75391492  0.54787198  1
  P  P7  1  0.17518724  0.24608508  0.04787198  1
  H  H8  1  0.67922254  0.15184794  0.26033919  1
  H  H9  1  0.82077746  0.84815206  0.76033919  1
  H  H10  1  0.32077746  0.84815206  0.73966081  1
  H  H11  1  0.17922254  0.15184794  0.23966081  1
  H  H12  1  0.58541853  0.04748714  0.37149035  1
  H  H13  1  0.91458147  0.95251286  0.87149035  1
  H  H14  1  0.41458147  0.95251286  0.62850965  1
  H  H15  1  0.08541853  0.04748714  0.12850965  1
  H  H16  1  0.34434484  0.20103187  0.52587979  1
  H  H17  1  0.15565516  0.79896813  0.02587979  1
  H  H18  1  0.65565516  0.79896813  0.47412021  1
  H  H19  1  0.84434484  0.20103187  0.97412021  1
  H  H20  1  0.51378808  0.23767276  0.64252083  1
  H  H21  1  0.98621192  0.76232724  0.14252083  1
  H  H22  1  0.48621192  0.76232724  0.35747917  1
  H  H23  1  0.01378808  0.23767276  0.85747917  1
  H  H24  1  0.54433150  0.38501396  0.32279833  1
  H  H25  1  0.95566850  0.61498604  0.82279833  1
  H  H26  1  0.45566850  0.61498604  0.67720167  1
  H  H27  1  0.04433150  0.38501396  0.17720167  1
  H  H28  1  0.74938867  0.45859475  0.40491072  1
  H  H29  1  0.75061133  0.54140525  0.90491072  1
  H  H30  1  0.25061133  0.54140525  0.59508928  1
  H  H31  1  0.24938867  0.45859475  0.09508928  1
  H  H32  1  0.92271904  0.33317269  0.62164659  1
  H  H33  1  0.57728096  0.66682731  0.12164659  1
  H  H34  1  0.07728096  0.66682731  0.37835341  1
  H  H35  1  0.42271904  0.33317269  0.87835341  1
  H  H36  1  0.05309433  0.29904510  0.45612696  1
  H  H37  1  0.44690567  0.70095490  0.95612696  1
  H  H38  1  0.94690567  0.70095490  0.54387304  1
  H  H39  1  0.55309433  0.29904510  0.04387304  1
  H  H40  1  0.92781236  0.15361567  0.56995942  1
  H  H41  1  0.57218764  0.84638433  0.06995942  1
  H  H42  1  0.07218764  0.84638433  0.43004058  1
  H  H43  1  0.42781236  0.15361567  0.93004058  1
  N  N44  1  0.59758684  0.13810350  0.34071841  1
  N  N45  1  0.90241316  0.86189650  0.84071841  1
  N  N46  1  0.40241316  0.86189650  0.65928159  1
  N  N47  1  0.09758684  0.13810350  0.15928159  1
  N  N48  1  0.48784137  0.20108757  0.55493998  1
  N  N49  1  0.01215863  0.79891243  0.05493998  1
  N  N50  1  0.51215863  0.79891243  0.44506002  1
  N  N51  1  0.98784137  0.20108757  0.94506002  1
  N  N52  1  0.67226036  0.37617459  0.36870324  1
  N  N53  1  0.82773964  0.62382541  0.86870324  1
  N  N54  1  0.32773964  0.62382541  0.63129676  1
  N  N55  1  0.17226036  0.37617459  0.13129676  1
