# generated using pymatgen
data_KGaH9C3F
_symmetry_space_group_name_H-M   'P 1'
_cell_length_a   13.21328960
_cell_length_b   13.21328960
_cell_length_c   13.21328960
_cell_angle_alpha   60.00000000
_cell_angle_beta   60.00000000
_cell_angle_gamma   60.00000000
_symmetry_Int_Tables_number   1
_chemical_formula_structural   KGaH9C3F
_chemical_formula_sum   'K8 Ga8 H72 C24 F8'
_cell_volume   1631.24000424
_cell_formula_units_Z   8
loop_
 _symmetry_equiv_pos_site_id
 _symmetry_equiv_pos_as_xyz
  1  'x, y, z'
loop_
 _atom_site_type_symbol
 _atom_site_label
 _atom_site_symmetry_multiplicity
 _atom_site_fract_x
 _atom_site_fract_y
 _atom_site_fract_z
 _atom_site_occupancy
  K  K0  1  0.77183176  0.07605608  0.07605608  1
  K  K1  1  0.07605608  0.07605608  0.77183176  1
  K  K2  1  0.07605608  0.07605608  0.07605608  1
  K  K3  1  0.07605608  0.77183176  0.07605608  1
  K  K4  1  0.57605608  0.27183176  0.57605608  1
  K  K5  1  0.57605608  0.57605608  0.27183176  1
  K  K6  1  0.57605608  0.57605608  0.57605608  1
  K  K7  1  0.27183176  0.57605608  0.57605608  1
  Ga  Ga8  1  0.86719474  0.39841579  0.86719474  1
  Ga  Ga9  1  0.86719474  0.86719474  0.39841579  1
  Ga  Ga10  1  0.39841579  0.86719474  0.86719474  1
  Ga  Ga11  1  0.86719474  0.86719474  0.86719474  1
  Ga  Ga12  1  0.89841579  0.36719474  0.36719474  1
  Ga  Ga13  1  0.36719474  0.36719474  0.89841579  1
  Ga  Ga14  1  0.36719474  0.89841579  0.36719474  1
  Ga  Ga15  1  0.36719474  0.36719474  0.36719474  1
  H  H16  1  0.09913023  0.38247819  0.76487885  1
  H  H17  1  0.75351273  0.38247819  0.09913023  1
  H  H18  1  0.76487885  0.38247819  0.75351273  1
  H  H19  1  0.75351273  0.76487885  0.38247819  1
  H  H20  1  0.76487885  0.09913023  0.38247819  1
  H  H21  1  0.09913023  0.75351273  0.38247819  1
  H  H22  1  0.38247819  0.09913023  0.75351273  1
  H  H23  1  0.38247819  0.75351273  0.76487885  1
  H  H24  1  0.38247819  0.76487885  0.09913023  1
  H  H25  1  0.76487885  0.75351273  0.09913023  1
  H  H26  1  0.09913023  0.76487885  0.75351273  1
  H  H27  1  0.75351273  0.09913023  0.76487885  1
  H  H28  1  0.88247819  0.59913023  0.26487885  1
  H  H29  1  0.88247819  0.25351273  0.59913023  1
  H  H30  1  0.88247819  0.26487885  0.25351273  1
  H  H31  1  0.26487885  0.25351273  0.88247819  1
  H  H32  1  0.59913023  0.26487885  0.88247819  1
  H  H33  1  0.25351273  0.59913023  0.88247819  1
  H  H34  1  0.59913023  0.88247819  0.25351273  1
  H  H35  1  0.25351273  0.88247819  0.26487885  1
  H  H36  1  0.26487885  0.88247819  0.59913023  1
  H  H37  1  0.25351273  0.26487885  0.59913023  1
  H  H38  1  0.26487885  0.59913023  0.25351273  1
  H  H39  1  0.59913023  0.25351273  0.26487885  1
  H  H40  1  0.99907522  0.53642671  0.76358610  1
  H  H41  1  0.70091198  0.53642671  0.99907522  1
  H  H42  1  0.76358610  0.53642671  0.70091198  1
  H  H43  1  0.70091198  0.76358610  0.53642671  1
  H  H44  1  0.76358610  0.99907522  0.53642671  1
  H  H45  1  0.99907522  0.70091198  0.53642671  1
  H  H46  1  0.53642671  0.99907522  0.70091198  1
  H  H47  1  0.53642671  0.70091198  0.76358610  1
  H  H48  1  0.53642671  0.76358610  0.99907522  1
  H  H49  1  0.76358610  0.70091198  0.99907522  1
  H  H50  1  0.99907522  0.76358610  0.70091198  1
  H  H51  1  0.70091198  0.99907522  0.76358610  1
  H  H52  1  0.03642671  0.49907522  0.26358610  1
  H  H53  1  0.03642671  0.20091198  0.49907522  1
  H  H54  1  0.03642671  0.26358610  0.20091198  1
  H  H55  1  0.26358610  0.20091198  0.03642671  1
  H  H56  1  0.49907522  0.26358610  0.03642671  1
  H  H57  1  0.20091198  0.49907522  0.03642671  1
  H  H58  1  0.49907522  0.03642671  0.20091198  1
  H  H59  1  0.20091198  0.03642671  0.26358610  1
  H  H60  1  0.26358610  0.03642671  0.49907522  1
  H  H61  1  0.20091198  0.26358610  0.49907522  1
  H  H62  1  0.26358610  0.49907522  0.20091198  1
  H  H63  1  0.49907522  0.20091198  0.26358610  1
  H  H64  1  0.03093086  0.42287003  0.90150858  1
  H  H65  1  0.64469053  0.42287003  0.03093086  1
  H  H66  1  0.90150858  0.42287003  0.64469053  1
  H  H67  1  0.64469053  0.90150858  0.42287003  1
  H  H68  1  0.90150858  0.03093086  0.42287003  1
  H  H69  1  0.03093086  0.64469053  0.42287003  1
  H  H70  1  0.42287003  0.03093086  0.64469053  1
  H  H71  1  0.42287003  0.64469053  0.90150858  1
  H  H72  1  0.42287003  0.90150858  0.03093086  1
  H  H73  1  0.90150858  0.64469053  0.03093086  1
  H  H74  1  0.03093086  0.90150858  0.64469053  1
  H  H75  1  0.64469053  0.03093086  0.90150858  1
  H  H76  1  0.92287003  0.53093086  0.40150858  1
  H  H77  1  0.92287003  0.14469053  0.53093086  1
  H  H78  1  0.92287003  0.40150858  0.14469053  1
  H  H79  1  0.40150858  0.14469053  0.92287003  1
  H  H80  1  0.53093086  0.40150858  0.92287003  1
  H  H81  1  0.14469053  0.53093086  0.92287003  1
  H  H82  1  0.53093086  0.92287003  0.14469053  1
  H  H83  1  0.14469053  0.92287003  0.40150858  1
  H  H84  1  0.40150858  0.92287003  0.53093086  1
  H  H85  1  0.14469053  0.40150858  0.53093086  1
  H  H86  1  0.40150858  0.53093086  0.14469053  1
  H  H87  1  0.53093086  0.14469053  0.40150858  1
  C  C88  1  0.01535378  0.43798276  0.82031278  1
  C  C89  1  0.72635068  0.43798276  0.01535378  1
  C  C90  1  0.82031278  0.43798276  0.72635068  1
  C  C91  1  0.72635068  0.82031278  0.43798276  1
  C  C92  1  0.82031278  0.01535378  0.43798276  1
  C  C93  1  0.01535378  0.72635068  0.43798276  1
  C  C94  1  0.43798276  0.01535378  0.72635068  1
  C  C95  1  0.43798276  0.72635068  0.82031278  1
  C  C96  1  0.43798276  0.82031278  0.01535378  1
  C  C97  1  0.82031278  0.72635068  0.01535378  1
  C  C98  1  0.01535378  0.82031278  0.72635068  1
  C  C99  1  0.72635068  0.01535378  0.82031278  1
  C  C100  1  0.93798276  0.51535378  0.32031278  1
  C  C101  1  0.93798276  0.22635068  0.51535378  1
  C  C102  1  0.93798276  0.32031278  0.22635068  1
  C  C103  1  0.32031278  0.22635068  0.93798276  1
  C  C104  1  0.51535378  0.32031278  0.93798276  1
  C  C105  1  0.22635068  0.51535378  0.93798276  1
  C  C106  1  0.51535378  0.93798276  0.22635068  1
  C  C107  1  0.22635068  0.93798276  0.32031278  1
  C  C108  1  0.32031278  0.93798276  0.51535378  1
  C  C109  1  0.22635068  0.32031278  0.51535378  1
  C  C110  1  0.32031278  0.51535378  0.22635068  1
  C  C111  1  0.51535378  0.22635068  0.32031278  1
  F  F112  1  0.93050855  0.20847434  0.93050855  1
  F  F113  1  0.93050855  0.93050855  0.20847434  1
  F  F114  1  0.20847434  0.93050855  0.93050855  1
  F  F115  1  0.93050855  0.93050855  0.93050855  1
  F  F116  1  0.70847434  0.43050855  0.43050855  1
  F  F117  1  0.43050855  0.43050855  0.70847434  1
  F  F118  1  0.43050855  0.70847434  0.43050855  1
  F  F119  1  0.43050855  0.43050855  0.43050855  1
