# generated using pymatgen
data_P2H17C6NO2
_symmetry_space_group_name_H-M   'P 1'
_cell_length_a   5.98934575
_cell_length_b   9.89631066
_cell_length_c   11.00395207
_cell_angle_alpha   73.58487713
_cell_angle_beta   89.57614176
_cell_angle_gamma   87.51622592
_symmetry_Int_Tables_number   1
_chemical_formula_structural   P2H17C6NO2
_chemical_formula_sum   'P4 H34 C12 N2 O4'
_cell_volume   625.04985128
_cell_formula_units_Z   2
loop_
 _symmetry_equiv_pos_site_id
 _symmetry_equiv_pos_as_xyz
  1  'x, y, z'
loop_
 _atom_site_type_symbol
 _atom_site_label
 _atom_site_symmetry_multiplicity
 _atom_site_fract_x
 _atom_site_fract_y
 _atom_site_fract_z
 _atom_site_occupancy
  P  P0  1  0.82874587  0.91893511  0.30778767  1
  P  P1  1  0.17125413  0.08106489  0.69221233  1
  P  P2  1  0.84847951  0.54763171  0.77711874  1
  P  P3  1  0.15152049  0.45236829  0.22288126  1
  H  H4  1  0.97606705  0.71229077  0.52763372  1
  H  H5  1  0.02393295  0.28770923  0.47236628  1
  H  H6  1  0.75095095  0.67480476  0.35487395  1
  H  H7  1  0.24904905  0.32519524  0.64512605  1
  H  H8  1  0.52952220  0.77079535  0.40730809  1
  H  H9  1  0.47047780  0.22920465  0.59269191  1
  H  H10  1  0.54625726  0.59100903  0.62531622  1
  H  H11  1  0.45374274  0.40899097  0.37468378  1
  H  H12  1  0.77613924  0.49311099  0.58382288  1
  H  H13  1  0.22386076  0.50688901  0.41617712  1
  H  H14  1  0.78959999  0.04855237  0.46148026  1
  H  H15  1  0.21040001  0.95144763  0.53851974  1
  H  H16  1  0.77030997  0.16190628  0.30367744  1
  H  H17  1  0.22969003  0.83809372  0.69632256  1
  H  H18  1  0.53538344  0.06107324  0.37214218  1
  H  H19  1  0.46461656  0.93892676  0.62785782  1
  H  H20  1  0.75186984  0.85904381  0.11517823  1
  H  H21  1  0.24813016  0.14095619  0.88482177  1
  H  H22  1  0.51645680  0.95438326  0.15907661  1
  H  H23  1  0.48354320  0.04561674  0.84092339  1
  H  H24  1  0.76330276  0.04414391  0.09279139  1
  H  H25  1  0.23669724  0.95585609  0.90720861  1
  H  H26  1  0.78200849  0.78277429  0.79501878  1
  H  H27  1  0.21799151  0.21722571  0.20498122  1
  H  H28  1  0.54653671  0.67539341  0.85109164  1
  H  H29  1  0.45346329  0.32460659  0.14890836  1
  H  H30  1  0.79435288  0.65293723  0.94631810  1
  H  H31  1  0.20564712  0.34706277  0.05368190  1
  H  H32  1  0.78762292  0.29876007  0.82013156  1
  H  H33  1  0.21237708  0.70123993  0.17986844  1
  H  H34  1  0.78585585  0.35883158  0.95941306  1
  H  H35  1  0.21414415  0.64116842  0.04058694  1
  H  H36  1  0.54379785  0.39198314  0.85839929  1
  H  H37  1  0.45620215  0.60801686  0.14160071  1
  C  C38  1  0.71261679  0.75530778  0.40576464  1
  C  C39  1  0.28738321  0.24469222  0.59423536  1
  C  C40  1  0.72954717  0.58677272  0.61680836  1
  C  C41  1  0.27045283  0.41322728  0.38319164  1
  C  C42  1  0.71833091  0.06090232  0.36688251  1
  C  C43  1  0.28166909  0.93909768  0.63311749  1
  C  C44  1  0.69923511  0.94582790  0.15447949  1
  C  C45  1  0.30076489  0.05417210  0.84552051  1
  C  C46  1  0.72944320  0.67757211  0.84889202  1
  C  C47  1  0.27055680  0.32242789  0.15110798  1
  C  C48  1  0.72689468  0.38321977  0.86073273  1
  C  C49  1  0.27310532  0.61678023  0.13926727  1
  N  N50  1  0.80566472  0.71903243  0.53386476  1
  N  N51  1  0.19433528  0.28096757  0.46613524  1
  O  O52  1  0.08053503  0.90902003  0.30385858  1
  O  O53  1  0.91946497  0.09097997  0.69614142  1
  O  O54  1  0.10025951  0.54036875  0.77817796  1
  O  O55  1  0.89974049  0.45963125  0.22182204  1
