# generated using pymatgen
data_Na4Ga3Ge3B(HO3)4
_symmetry_space_group_name_H-M   'P 1'
_cell_length_a   9.24225201
_cell_length_b   9.24225201
_cell_length_c   9.24225201
_cell_angle_alpha   90.00000000
_cell_angle_beta   90.00000000
_cell_angle_gamma   90.00000000
_symmetry_Int_Tables_number   1
_chemical_formula_structural   Na4Ga3Ge3B(HO3)4
_chemical_formula_sum   'Na8 Ga6 Ge6 B2 H8 O24'
_cell_volume   789.46597822
_cell_formula_units_Z   2
loop_
 _symmetry_equiv_pos_site_id
 _symmetry_equiv_pos_as_xyz
  1  'x, y, z'
loop_
 _atom_site_type_symbol
 _atom_site_label
 _atom_site_symmetry_multiplicity
 _atom_site_fract_x
 _atom_site_fract_y
 _atom_site_fract_z
 _atom_site_occupancy
  Na  Na0  1  0.32939460  0.67060540  0.32939460  1
  Na  Na1  1  0.67060540  0.32939460  0.32939460  1
  Na  Na2  1  0.32939460  0.32939460  0.67060540  1
  Na  Na3  1  0.67060540  0.67060540  0.67060540  1
  Na  Na4  1  0.82939460  0.82939460  0.17060540  1
  Na  Na5  1  0.17060540  0.82939460  0.82939460  1
  Na  Na6  1  0.82939460  0.17060540  0.82939460  1
  Na  Na7  1  0.17060540  0.17060540  0.17060540  1
  Ga  Ga8  1  -0.00000000  0.50000000  0.25000000  1
  Ga  Ga9  1  0.50000000  0.75000000  -0.00000000  1
  Ga  Ga10  1  0.25000000  0.00000000  0.50000000  1
  Ga  Ga11  1  0.50000000  0.25000000  -0.00000000  1
  Ga  Ga12  1  0.75000000  0.00000000  0.50000000  1
  Ga  Ga13  1  -0.00000000  0.50000000  0.75000000  1
  Ge  Ge14  1  0.50000000  0.00000000  0.25000000  1
  Ge  Ge15  1  -0.00000000  0.75000000  0.50000000  1
  Ge  Ge16  1  0.25000000  0.50000000  -0.00000000  1
  Ge  Ge17  1  -0.00000000  0.25000000  0.50000000  1
  Ge  Ge18  1  0.75000000  0.50000000  -0.00000000  1
  Ge  Ge19  1  0.50000000  0.00000000  0.75000000  1
  B  B20  1  0.50000000  0.50000000  0.50000000  1
  B  B21  1  -0.00000000  0.00000000  -0.00000000  1
  H  H22  1  0.07685185  0.92314815  0.07685185  1
  H  H23  1  0.92314815  0.07685185  0.07685185  1
  H  H24  1  0.07685185  0.07685185  0.92314815  1
  H  H25  1  0.92314815  0.92314815  0.92314815  1
  H  H26  1  0.57685185  0.57685185  0.42314815  1
  H  H27  1  0.42314815  0.57685185  0.57685185  1
  H  H28  1  0.57685185  0.42314815  0.57685185  1
  H  H29  1  0.42314815  0.42314815  0.42314815  1
  O  O30  1  0.08103501  0.64651350  0.36084672  1
  O  O31  1  0.35348650  0.63915328  0.08103501  1
  O  O32  1  0.36084672  0.91896499  0.35348650  1
  O  O33  1  0.91896499  0.35348650  0.36084672  1
  O  O34  1  0.64651350  0.36084672  0.08103501  1
  O  O35  1  0.63915328  0.08103501  0.35348650  1
  O  O36  1  0.08103501  0.35348650  0.63915328  1
  O  O37  1  0.35348650  0.36084672  0.91896499  1
  O  O38  1  0.36084672  0.08103501  0.64651350  1
  O  O39  1  0.91896499  0.64651350  0.63915328  1
  O  O40  1  0.64651350  0.63915328  0.91896499  1
  O  O41  1  0.63915328  0.91896499  0.64651350  1
  O  O42  1  0.58103501  0.86084672  0.14651350  1
  O  O43  1  0.85348650  0.58103501  0.13915328  1
  O  O44  1  0.86084672  0.85348650  0.41896499  1
  O  O45  1  0.41896499  0.86084672  0.85348650  1
  O  O46  1  0.14651350  0.58103501  0.86084672  1
  O  O47  1  0.13915328  0.85348650  0.58103501  1
  O  O48  1  0.58103501  0.13915328  0.85348650  1
  O  O49  1  0.85348650  0.41896499  0.86084672  1
  O  O50  1  0.86084672  0.14651350  0.58103501  1
  O  O51  1  0.41896499  0.13915328  0.14651350  1
  O  O52  1  0.14651350  0.41896499  0.13915328  1
  O  O53  1  0.13915328  0.14651350  0.41896499  1
