# generated using pymatgen
data_NiH4C2(S2N)2
_symmetry_space_group_name_H-M   'P 1'
_cell_length_a   8.94769200
_cell_length_b   9.07688356
_cell_length_c   10.09386186
_cell_angle_alpha   90.00000000
_cell_angle_beta   90.00000000
_cell_angle_gamma   101.12907081
_symmetry_Int_Tables_number   1
_chemical_formula_structural   NiH4C2(S2N)2
_chemical_formula_sum   'Ni4 H16 C8 S16 N8'
_cell_volume   804.37841851
_cell_formula_units_Z   4
loop_
 _symmetry_equiv_pos_site_id
 _symmetry_equiv_pos_as_xyz
  1  'x, y, z'
loop_
 _atom_site_type_symbol
 _atom_site_label
 _atom_site_symmetry_multiplicity
 _atom_site_fract_x
 _atom_site_fract_y
 _atom_site_fract_z
 _atom_site_occupancy
  Ni  Ni0  1  0.45466237  0.67346649  0.89335270  1
  Ni  Ni1  1  0.04533763  0.82653351  0.39335270  1
  Ni  Ni2  1  0.54533763  0.32653351  0.10664730  1
  Ni  Ni3  1  0.95466237  0.17346649  0.60664730  1
  H  H4  1  0.95107762  0.67840585  0.75694990  1
  H  H5  1  0.54892238  0.82159415  0.25694990  1
  H  H6  1  0.04892238  0.32159415  0.24305010  1
  H  H7  1  0.45107762  0.17840585  0.74305010  1
  H  H8  1  0.85764713  0.50626805  0.69171572  1
  H  H9  1  0.64235287  0.99373195  0.19171572  1
  H  H10  1  0.14235287  0.49373195  0.30828428  1
  H  H11  1  0.35764713  0.00626805  0.80828428  1
  H  H12  1  0.95988644  0.67376739  0.03401567  1
  H  H13  1  0.54011356  0.82623261  0.53401567  1
  H  H14  1  0.04011356  0.32623261  0.96598433  1
  H  H15  1  0.45988644  0.17376739  0.46598433  1
  H  H16  1  0.05645276  0.84301038  0.10240010  1
  H  H17  1  0.44354724  0.65698962  0.60240010  1
  H  H18  1  0.94354724  0.15698962  0.89759990  1
  H  H19  1  0.55645276  0.34301038  0.39759990  1
  C  C20  1  0.72131433  0.62516270  0.79311082  1
  C  C21  1  0.77868567  0.87483730  0.29311082  1
  C  C22  1  0.27868567  0.37483730  0.20688918  1
  C  C23  1  0.22131433  0.12516270  0.70688918  1
  C  C24  1  0.18830423  0.72651045  0.99214994  1
  C  C25  1  0.31169577  0.77348955  0.49214994  1
  C  C26  1  0.81169577  0.27348955  0.00785006  1
  C  C27  1  0.68830423  0.22651045  0.50785006  1
  S  S28  1  0.69766722  0.78026001  0.88141259  1
  S  S29  1  0.80233278  0.71973999  0.38141259  1
  S  S30  1  0.30233278  0.21973999  0.11858741  1
  S  S31  1  0.19766722  0.28026001  0.61858741  1
  S  S32  1  0.20866945  0.57479202  0.89718075  1
  S  S33  1  0.29133055  0.92520798  0.39718075  1
  S  S34  1  0.79133055  0.42520798  0.10281925  1
  S  S35  1  0.70866945  0.07479202  0.60281925  1
  S  S36  1  0.36301837  0.84341036  0.00709321  1
  S  S37  1  0.13698163  0.65658964  0.50709321  1
  S  S38  1  0.63698163  0.15658964  0.99290679  1
  S  S39  1  0.86301837  0.34341036  0.49290679  1
  S  S40  1  0.54809159  0.50515701  0.77736096  1
  S  S41  1  0.95190841  0.99484299  0.27736096  1
  S  S42  1  0.45190841  0.49484299  0.22263904  1
  S  S43  1  0.04809159  0.00515701  0.72263904  1
  N  N44  1  0.85249888  0.60040665  0.74660393  1
  N  N45  1  0.64750112  0.89959335  0.24660393  1
  N  N46  1  0.14750112  0.39959335  0.25339607  1
  N  N47  1  0.35249888  0.10040665  0.75339607  1
  N  N48  1  0.05947925  0.75077657  0.04439881  1
  N  N49  1  0.44052075  0.74922343  0.54439881  1
  N  N50  1  0.94052075  0.24922343  0.95560119  1
  N  N51  1  0.55947925  0.25077657  0.45560119  1
