# generated using pymatgen
data_CoH2CO3
_symmetry_space_group_name_H-M   'P 1'
_cell_length_a   7.99938521
_cell_length_b   7.99938521
_cell_length_c   7.99938494
_cell_angle_alpha   97.60601675
_cell_angle_beta   97.60601675
_cell_angle_gamma   97.60601384
_symmetry_Int_Tables_number   1
_chemical_formula_structural   CoH2CO3
_chemical_formula_sum   'Co6 H12 C6 O18'
_cell_volume   497.02772778
_cell_formula_units_Z   6
loop_
 _symmetry_equiv_pos_site_id
 _symmetry_equiv_pos_as_xyz
  1  'x, y, z'
loop_
 _atom_site_type_symbol
 _atom_site_label
 _atom_site_symmetry_multiplicity
 _atom_site_fract_x
 _atom_site_fract_y
 _atom_site_fract_z
 _atom_site_occupancy
  Co  Co0  1  0.06476425  0.70558533  0.97485083  1
  Co  Co1  1  0.70558533  0.97485083  0.06476425  1
  Co  Co2  1  0.97485083  0.06476425  0.70558533  1
  Co  Co3  1  0.93523575  0.29441467  0.02514917  1
  Co  Co4  1  0.29441467  0.02514917  0.93523575  1
  Co  Co5  1  0.02514917  0.93523575  0.29441467  1
  H  H6  1  0.79813739  0.68329453  0.10201820  1
  H  H7  1  0.68329453  0.10201820  0.79813739  1
  H  H8  1  0.10201820  0.79813739  0.68329453  1
  H  H9  1  0.20186261  0.31670547  0.89798180  1
  H  H10  1  0.31670547  0.89798180  0.20186261  1
  H  H11  1  0.89798180  0.20186261  0.31670547  1
  H  H12  1  0.85331673  0.52394104  0.60103643  1
  H  H13  1  0.52394104  0.60103643  0.85331673  1
  H  H14  1  0.60103643  0.85331673  0.52394104  1
  H  H15  1  0.14668327  0.47605896  0.39896357  1
  H  H16  1  0.47605896  0.39896357  0.14668327  1
  H  H17  1  0.39896357  0.14668327  0.47605896  1
  C  C18  1  0.88664568  0.42308258  0.67685940  1
  C  C19  1  0.42308258  0.67685940  0.88664568  1
  C  C20  1  0.67685940  0.88664568  0.42308258  1
  C  C21  1  0.11335432  0.57691742  0.32314060  1
  C  C22  1  0.57691742  0.32314060  0.11335432  1
  C  C23  1  0.32314060  0.11335432  0.57691742  1
  O  O24  1  0.91905931  0.46743412  0.83861782  1
  O  O25  1  0.46743412  0.83861782  0.91905931  1
  O  O26  1  0.83861782  0.91905931  0.46743412  1
  O  O27  1  0.08094069  0.53256588  0.16138218  1
  O  O28  1  0.53256588  0.16138218  0.08094069  1
  O  O29  1  0.16138218  0.08094069  0.53256588  1
  O  O30  1  0.88813859  0.27673719  0.59616014  1
  O  O31  1  0.27673719  0.59616014  0.88813859  1
  O  O32  1  0.59616014  0.88813859  0.27673719  1
  O  O33  1  0.11186141  0.72326281  0.40383986  1
  O  O34  1  0.72326281  0.40383986  0.11186141  1
  O  O35  1  0.40383986  0.11186141  0.72326281  1
  O  O36  1  0.86324671  0.78742830  0.07706374  1
  O  O37  1  0.78742830  0.07706374  0.86324671  1
  O  O38  1  0.07706374  0.86324671  0.78742830  1
  O  O39  1  0.13675329  0.21257170  0.92293626  1
  O  O40  1  0.21257170  0.92293626  0.13675329  1
  O  O41  1  0.92293626  0.13675329  0.21257170  1
