# generated using pymatgen
data_BaMoI4O15
_symmetry_space_group_name_H-M   'P 1'
_cell_length_a   5.90795036
_cell_length_b   13.53099662
_cell_length_c   18.39892661
_cell_angle_alpha   104.29206813
_cell_angle_beta   90.00000000
_cell_angle_gamma   90.00000000
_symmetry_Int_Tables_number   1
_chemical_formula_structural   BaMoI4O15
_chemical_formula_sum   'Ba4 Mo4 I16 O60'
_cell_volume   1425.29663050
_cell_formula_units_Z   4
loop_
 _symmetry_equiv_pos_site_id
 _symmetry_equiv_pos_as_xyz
  1  'x, y, z'
loop_
 _atom_site_type_symbol
 _atom_site_label
 _atom_site_symmetry_multiplicity
 _atom_site_fract_x
 _atom_site_fract_y
 _atom_site_fract_z
 _atom_site_occupancy
  Ba  Ba0  1  0.48538573  0.72005343  0.47767551  1
  Ba  Ba1  1  0.01461427  0.22005343  0.97767551  1
  Ba  Ba2  1  0.51461427  0.27994657  0.52232449  1
  Ba  Ba3  1  0.98538573  0.77994657  0.02232449  1
  Mo  Mo4  1  0.09017627  0.00785665  0.75102116  1
  Mo  Mo5  1  0.40982373  0.50785665  0.25102116  1
  Mo  Mo6  1  0.90982373  0.99214335  0.24897884  1
  Mo  Mo7  1  0.59017627  0.49214335  0.74897884  1
  I  I8  1  0.59275464  0.97527922  0.40812689  1
  I  I9  1  0.90724536  0.47527922  0.90812689  1
  I  I10  1  0.40724536  0.02472078  0.59187311  1
  I  I11  1  0.09275464  0.52472078  0.09187311  1
  I  I12  1  0.11230705  0.47092572  0.40871410  1
  I  I13  1  0.38769295  0.97092572  0.90871410  1
  I  I14  1  0.88769295  0.52907428  0.59128590  1
  I  I15  1  0.61230705  0.02907428  0.09128590  1
  I  I16  1  0.98112066  0.71386459  0.31995475  1
  I  I17  1  0.51887934  0.21386459  0.81995475  1
  I  I18  1  0.01887934  0.28613541  0.68004525  1
  I  I19  1  0.48112066  0.78613541  0.18004525  1
  I  I20  1  0.50320234  0.79230709  0.69049492  1
  I  I21  1  0.99679766  0.29230709  0.19049492  1
  I  I22  1  0.49679766  0.20769291  0.30950508  1
  I  I23  1  0.00320234  0.70769291  0.80950508  1
  O  O24  1  0.67540889  0.06320650  0.49743945  1
  O  O25  1  0.82459111  0.56320650  0.99743945  1
  O  O26  1  0.32459111  0.93679350  0.50256055  1
  O  O27  1  0.17540889  0.43679350  0.00256055  1
  O  O28  1  0.84151053  0.02149569  0.35717915  1
  O  O29  1  0.65848947  0.52149569  0.85717915  1
  O  O30  1  0.15848947  0.97850431  0.64282085  1
  O  O31  1  0.34151053  0.47850431  0.14282085  1
  O  O32  1  0.73020121  0.85711811  0.41465193  1
  O  O33  1  0.76979879  0.35711811  0.91465193  1
  O  O34  1  0.26979879  0.14288189  0.58534807  1
  O  O35  1  0.23020121  0.64288189  0.08534807  1
  O  O36  1  0.34477755  0.53657788  0.36279413  1
  O  O37  1  0.15522245  0.03657788  0.86279413  1
  O  O38  1  0.65522245  0.46342212  0.63720587  1
  O  O39  1  0.84477755  0.96342212  0.13720587  1
  O  O40  1  0.19041147  0.55609941  0.50003284  1
  O  O41  1  0.30958853  0.05609941  0.00003284  1
  O  O42  1  0.80958853  0.44390059  0.49996716  1
  O  O43  1  0.69041147  0.94390059  -0.00003284  1
  O  O44  1  0.27450512  0.35929700  0.41407858  1
  O  O45  1  0.22549488  0.85929700  0.91407858  1
  O  O46  1  0.72549488  0.64070300  0.58592142  1
  O  O47  1  0.77450512  0.14070300  0.08592142  1
  O  O48  1  0.09863141  0.60416745  0.24735051  1
  O  O49  1  0.40136859  0.10416745  0.74735051  1
  O  O50  1  0.90136859  0.39583255  0.75264949  1
  O  O51  1  0.59863141  0.89583255  0.25264949  1
  O  O52  1  0.89358228  0.64554465  0.39152659  1
  O  O53  1  0.60641772  0.14554465  0.89152659  1
  O  O54  1  0.10641772  0.35445535  0.60847341  1
  O  O55  1  0.39358228  0.85445535  0.10847341  1
  O  O56  1  0.24209086  0.77176726  0.36075289  1
  O  O57  1  0.25790914  0.27176726  0.86075289  1
  O  O58  1  0.75790914  0.22823274  0.63924711  1
  O  O59  1  0.74209086  0.72823274  0.13924711  1
  O  O60  1  0.37006607  0.90107173  0.76187415  1
  O  O61  1  0.12993393  0.40107173  0.26187415  1
  O  O62  1  0.62993393  0.09892827  0.23812585  1
  O  O63  1  0.87006607  0.59892827  0.73812585  1
  O  O64  1  0.56294898  0.85476929  0.61509420  1
  O  O65  1  0.93705102  0.35476929  0.11509420  1
  O  O66  1  0.43705102  0.14523071  0.38490580  1
  O  O67  1  0.06294898  0.64523071  0.88490580  1
  O  O68  1  0.25140492  0.72224321  0.65379481  1
  O  O69  1  0.24859508  0.22224321  0.15379481  1
  O  O70  1  0.74859508  0.27775679  0.34620519  1
  O  O71  1  0.75140492  0.77775679  0.84620519  1
  O  O72  1  0.92231456  0.11756358  0.76171282  1
  O  O73  1  0.57768544  0.61756358  0.26171282  1
  O  O74  1  0.07768544  0.88243642  0.23828718  1
  O  O75  1  0.42231456  0.38243642  0.73828718  1
  O  O76  1  0.89416630  0.91007292  0.74297528  1
  O  O77  1  0.60583370  0.41007292  0.24297528  1
  O  O78  1  0.10583370  0.08992708  0.25702472  1
  O  O79  1  0.39416630  0.58992708  0.75702472  1
  O  O80  1  0.99760404  0.75631044  0.50638656  1
  O  O81  1  0.50239596  0.25631044  0.00638656  1
  O  O82  1  0.00239596  0.24368956  0.49361344  1
  O  O83  1  0.49760404  0.74368956  0.99361344  1
