# generated using pymatgen
data_ZnBi6P2(O7F)2
_symmetry_space_group_name_H-M   'P 1'
_cell_length_a   5.63916448
_cell_length_b   8.90963085
_cell_length_c   16.15246094
_cell_angle_alpha   78.48929151
_cell_angle_beta   79.94691679
_cell_angle_gamma   71.55075404
_symmetry_Int_Tables_number   1
_chemical_formula_structural   ZnBi6P2(O7F)2
_chemical_formula_sum   'Zn2 Bi12 P4 O28 F4'
_cell_volume   748.91478227
_cell_formula_units_Z   2
loop_
 _symmetry_equiv_pos_site_id
 _symmetry_equiv_pos_as_xyz
  1  'x, y, z'
loop_
 _atom_site_type_symbol
 _atom_site_label
 _atom_site_symmetry_multiplicity
 _atom_site_fract_x
 _atom_site_fract_y
 _atom_site_fract_z
 _atom_site_occupancy
  Zn  Zn0  1  -0.00000000  0.50000000  0.50000000  1
  Zn  Zn1  1  -0.00000000  0.00000000  0.00000000  1
  Bi  Bi2  1  0.82863385  0.73472945  0.66432859  1
  Bi  Bi3  1  0.22769189  0.76527055  0.83567141  1
  Bi  Bi4  1  0.17136615  0.26527055  0.33567141  1
  Bi  Bi5  1  0.77230811  0.23472945  0.16432859  1
  Bi  Bi6  1  0.54404947  0.05321967  0.82817429  1
  Bi  Bi7  1  0.42544343  0.44678033  0.67182571  1
  Bi  Bi8  1  0.45595053  0.94678033  0.17182571  1
  Bi  Bi9  1  0.57455657  0.55321967  0.32817429  1
  Bi  Bi10  1  0.87928713  0.39750333  0.82674812  1
  Bi  Bi11  1  0.10353858  0.10249667  0.67325188  1
  Bi  Bi12  1  0.12071287  0.60249667  0.17325188  1
  Bi  Bi13  1  0.89646142  0.89750333  0.32674812  1
  P  P14  1  0.34364930  0.79293600  0.50355781  1
  P  P15  1  0.64014311  0.70706400  0.99644219  1
  P  P16  1  0.65635070  0.20706400  0.49644219  1
  P  P17  1  0.35985689  0.29293600  0.00355781  1
  O  O18  1  0.27841907  0.25000000  0.75000000  1
  O  O19  1  0.72158093  0.75000000  0.25000000  1
  O  O20  1  0.77590065  0.25000000  0.75000000  1
  O  O21  1  0.22409935  0.75000000  0.25000000  1
  O  O22  1  0.59257557  0.57869582  0.75414837  1
  O  O23  1  0.92541976  0.92130418  0.74585163  1
  O  O24  1  0.40742443  0.42130418  0.24585163  1
  O  O25  1  0.07458024  0.07869582  0.25414837  1
  O  O26  1  0.09092367  0.57998199  0.75740391  1
  O  O27  1  0.42830957  0.92001801  0.74259609  1
  O  O28  1  0.90907633  0.42001801  0.24259609  1
  O  O29  1  0.57169043  0.07998199  0.25740391  1
  O  O30  1  0.05144929  0.50985016  0.60966135  1
  O  O31  1  0.17096080  0.99014984  0.89033865  1
  O  O32  1  0.94855071  0.49014984  0.39033865  1
  O  O33  1  0.82903920  0.00985016  0.10966135  1
  O  O34  1  0.22203676  0.73224084  0.44429090  1
  O  O35  1  0.39856849  0.76775916  0.05570910  1
  O  O36  1  0.77796324  0.26775916  0.55570910  1
  O  O37  1  0.60143151  0.23224084  0.94429090  1
  O  O38  1  0.17837126  0.84583418  0.58430702  1
  O  O39  1  0.60851246  0.65416582  0.91569298  1
  O  O40  1  0.82162874  0.15416582  0.41569298  1
  O  O41  1  0.39148754  0.34583418  0.08430702  1
  O  O42  1  0.60803503  0.69018109  0.52127759  1
  O  O43  1  0.81949371  0.80981891  0.97872241  1
  O  O44  1  0.39196497  0.30981891  0.47872241  1
  O  O45  1  0.18050629  0.19018109  0.02127759  1
  F  F46  1  0.38050942  0.95813590  0.44628498  1
  F  F47  1  0.78493030  0.54186410  0.05371502  1
  F  F48  1  0.61949058  0.04186410  0.55371502  1
  F  F49  1  0.21506970  0.45813590  0.94628498  1
