# generated using pymatgen
data_SrP3H15(N2O5)2
_symmetry_space_group_name_H-M   'P 1'
_cell_length_a   10.60847761
_cell_length_b   11.04612721
_cell_length_c   12.09976797
_cell_angle_alpha   111.05186615
_cell_angle_beta   90.00000000
_cell_angle_gamma   90.00000000
_symmetry_Int_Tables_number   1
_chemical_formula_structural   SrP3H15(N2O5)2
_chemical_formula_sum   'Sr4 P12 H60 N16 O40'
_cell_volume   1323.24654393
_cell_formula_units_Z   4
loop_
 _symmetry_equiv_pos_site_id
 _symmetry_equiv_pos_as_xyz
  1  'x, y, z'
loop_
 _atom_site_type_symbol
 _atom_site_label
 _atom_site_symmetry_multiplicity
 _atom_site_fract_x
 _atom_site_fract_y
 _atom_site_fract_z
 _atom_site_occupancy
  Sr  Sr0  1  0.02550723  0.70118161  0.54702886  1
  Sr  Sr1  1  0.47449277  0.20118161  0.04702886  1
  Sr  Sr2  1  0.97449277  0.29881839  0.45297114  1
  Sr  Sr3  1  0.52550723  0.79881839  0.95297114  1
  P  P4  1  0.35412149  0.72584354  0.65072066  1
  P  P5  1  0.14587851  0.22584354  0.15072066  1
  P  P6  1  0.64587851  0.27415646  0.34927934  1
  P  P7  1  0.85412149  0.77415646  0.84927934  1
  P  P8  1  0.27719421  0.45768823  0.50388512  1
  P  P9  1  0.22280579  0.95768823  0.00388512  1
  P  P10  1  0.72280579  0.54231177  0.49611488  1
  P  P11  1  0.77719421  0.04231177  0.99611488  1
  P  P12  1  0.34071127  0.65012008  0.39316485  1
  P  P13  1  0.15928873  0.15012008  0.89316485  1
  P  P14  1  0.65928873  0.34987992  0.60683515  1
  P  P15  1  0.84071127  0.84987992  0.10683515  1
  H  H16  1  0.43393545  0.53044960  0.64058205  1
  H  H17  1  0.06606455  0.03044960  0.14058205  1
  H  H18  1  0.56606455  0.46955040  0.35941795  1
  H  H19  1  0.93393545  0.96955040  0.85941795  1
  H  H20  1  0.31854077  0.42385499  0.30890821  1
  H  H21  1  0.18145923  0.92385499  0.80890821  1
  H  H22  1  0.68145923  0.57614501  0.69109179  1
  H  H23  1  0.81854077  0.07614501  0.19109179  1
  H  H24  1  0.50911983  0.71778218  0.51765813  1
  H  H25  1  0.99088017  0.21778218  0.01765813  1
  H  H26  1  0.49088017  0.28221782  0.48234187  1
  H  H27  1  0.00911983  0.78221782  0.98234187  1
  H  H28  1  0.66346657  0.95966857  0.62411099  1
  H  H29  1  0.83653343  0.45966857  0.12411099  1
  H  H30  1  0.33653343  0.04033143  0.37588901  1
  H  H31  1  0.16346657  0.54033143  0.87588901  1
  H  H32  1  0.71655342  0.93309134  0.74533201  1
  H  H33  1  0.78344658  0.43309134  0.24533201  1
  H  H34  1  0.28344658  0.06690866  0.25466799  1
  H  H35  1  0.21655342  0.56690866  0.75466799  1
  H  H36  1  0.56841289  0.88653763  0.70119443  1
  H  H37  1  0.93158711  0.38653763  0.20119443  1
  H  H38  1  0.43158711  0.11346237  0.29880557  1
  H  H39  1  0.06841289  0.61346237  0.79880557  1
  H  H40  1  0.60774299  0.04648654  0.75987435  1
  H  H41  1  0.89225701  0.54648654  0.25987435  1
  H  H42  1  0.39225701  0.95351346  0.24012565  1
  H  H43  1  0.10774299  0.45351346  0.74012565  1
  H  H44  1  0.79992897  0.72810781  0.40681306  1
  H  H45  1  0.70007103  0.22810781  0.90681306  1
  H  H46  1  0.20007103  0.27189219  0.59318694  1
  H  H47  1  0.29992897  0.77189219  0.09318694  1
  H  H48  1  0.88787253  0.77570107  0.32211285  1
  H  H49  1  0.61212747  0.27570107  0.82211285  1
  H  H50  1  0.11212747  0.22429893  0.67788715  1
  H  H51  1  0.38787253  0.72429893  0.17788715  1
  H  H52  1  0.89902279  0.96726222  0.57217941  1
  H  H53  1  0.60097721  0.46726222  0.07217941  1
  H  H54  1  0.10097721  0.03273778  0.42782059  1
  H  H55  1  0.39902279  0.53273778  0.92782059  1
  H  H56  1  0.00450364  0.01491283  0.67374959  1
  H  H57  1  0.49549636  0.51491283  0.17374959  1
  H  H58  1  0.99549636  0.98508717  0.32625041  1
  H  H59  1  0.50450364  0.48508717  0.82625041  1
  H  H60  1  0.24515674  0.89689540  0.46605907  1
  H  H61  1  0.25484326  0.39689540  0.96605907  1
  H  H62  1  0.75484326  0.10310460  0.53394093  1
  H  H63  1  0.74515674  0.60310460  0.03394093  1
  H  H64  1  0.30137289  0.03172637  0.55562115  1
  H  H65  1  0.19862711  0.53172637  0.05562115  1
  H  H66  1  0.69862711  0.96827363  0.44437885  1
  H  H67  1  0.80137289  0.46827363  0.94437885  1
  H  H68  1  0.63764888  0.84132630  0.24527081  1
  H  H69  1  0.86235112  0.34132630  0.74527081  1
  H  H70  1  0.36235112  0.15867370  0.75472919  1
  H  H71  1  0.13764888  0.65867370  0.25472919  1
  H  H72  1  0.54665855  0.80132952  0.32864521  1
  H  H73  1  0.95334145  0.30132952  0.82864521  1
  H  H74  1  0.45334145  0.19867048  0.67135479  1
  H  H75  1  0.04665855  0.69867048  0.17135479  1
  N  N76  1  0.34674354  0.56328787  0.62770690  1
  N  N77  1  0.15325646  0.06328787  0.12770690  1
  N  N78  1  0.65325646  0.43671213  0.37229310  1
  N  N79  1  0.84674354  0.93671213  0.87229310  1
  N  N80  1  0.33857005  0.49519288  0.39041678  1
  N  N81  1  0.16142995  0.99519288  0.89041678  1
  N  N82  1  0.66142995  0.50480712  0.60958322  1
  N  N83  1  0.83857005  0.00480712  0.10958322  1
  N  N84  1  0.41225465  0.73342370  0.52265533  1
  N  N85  1  0.08774535  0.23342370  0.02265533  1
  N  N86  1  0.58774535  0.26657630  0.47734467  1
  N  N87  1  0.91225465  0.76657630  0.97734467  1
  N  N88  1  0.63766666  0.95487814  0.70583246  1
  N  N89  1  0.86233334  0.45487814  0.20583246  1
  N  N90  1  0.36233334  0.04512186  0.29416754  1
  N  N91  1  0.13766666  0.54512186  0.79416754  1
  O  O92  1  0.22084784  0.77650588  0.66896072  1
  O  O93  1  0.27915216  0.27650588  0.16896072  1
  O  O94  1  0.77915216  0.22349412  0.33103928  1
  O  O95  1  0.72084784  0.72349412  0.83103928  1
  O  O96  1  0.45198747  0.78458658  0.74541448  1
  O  O97  1  0.04801253  0.28458658  0.24541448  1
  O  O98  1  0.54801253  0.21541342  0.25458552  1
  O  O99  1  0.95198747  0.71541342  0.75458552  1
  O  O100  1  0.13645639  0.48854056  0.51646177  1
  O  O101  1  0.36354361  0.98854056  0.01646177  1
  O  O102  1  0.86354361  0.51145944  0.48353823  1
  O  O103  1  0.63645639  0.01145944  0.98353823  1
  O  O104  1  0.31421741  0.32129658  0.49033150  1
  O  O105  1  0.18578259  0.82129658  0.99033150  1
  O  O106  1  0.68578259  0.67870342  0.50966850  1
  O  O107  1  0.81421741  0.17870342  0.00966850  1
  O  O108  1  0.20744050  0.70566885  0.40093899  1
  O  O109  1  0.29255950  0.20566885  0.90093899  1
  O  O110  1  0.79255950  0.29433115  0.59906101  1
  O  O111  1  0.70744050  0.79433115  0.09906101  1
  O  O112  1  0.42311823  0.65282165  0.29157942  1
  O  O113  1  0.07688177  0.15282165  0.79157942  1
  O  O114  1  0.57688177  0.34717835  0.70842058  1
  O  O115  1  0.92311823  0.84717835  0.20842058  1
  O  O116  1  0.88522316  0.72164839  0.37200849  1
  O  O117  1  0.61477684  0.22164839  0.87200849  1
  O  O118  1  0.11477684  0.27835161  0.62799151  1
  O  O119  1  0.38522316  0.77835161  0.12799151  1
  O  O120  1  0.96628048  0.93786816  0.61330628  1
  O  O121  1  0.53371952  0.43786816  0.11330628  1
  O  O122  1  0.03371952  0.06213184  0.38669372  1
  O  O123  1  0.46628048  0.56213184  0.88669372  1
  O  O124  1  0.25126604  0.99047989  0.48173717  1
  O  O125  1  0.24873396  0.49047989  0.98173717  1
  O  O126  1  0.74873396  0.00952011  0.51826283  1
  O  O127  1  0.75126604  0.50952011  0.01826283  1
  O  O128  1  0.60207012  0.87180331  0.32637802  1
  O  O129  1  0.89792988  0.37180331  0.82637802  1
  O  O130  1  0.39792988  0.12819669  0.67362198  1
  O  O131  1  0.10207012  0.62819669  0.17362198  1
