# generated using pymatgen
data_Tm3Ru2
_symmetry_space_group_name_H-M   'P 1'
_cell_length_a   4.66688579
_cell_length_b   7.53167622
_cell_length_c   7.53167623
_cell_angle_alpha   120.00000065
_cell_angle_beta   90.00000000
_cell_angle_gamma   90.00000000
_symmetry_Int_Tables_number   1
_chemical_formula_structural   Tm3Ru2
_chemical_formula_sum   'Tm6 Ru4'
_cell_volume   229.26675588
_cell_formula_units_Z   2
loop_
 _symmetry_equiv_pos_site_id
 _symmetry_equiv_pos_as_xyz
  1  'x, y, z'
loop_
 _atom_site_type_symbol
 _atom_site_label
 _atom_site_symmetry_multiplicity
 _atom_site_fract_x
 _atom_site_fract_y
 _atom_site_fract_z
 _atom_site_occupancy
  Tm  Tm0  1  0.75000000  0.61363242  0.69443521  1
  Tm  Tm1  1  0.25000000  0.38636758  0.30556479  1
  Tm  Tm2  1  0.75000000  0.08080279  0.38636758  1
  Tm  Tm3  1  0.25000000  0.91919721  0.61363242  1
  Tm  Tm4  1  0.75000000  0.30556479  0.91919721  1
  Tm  Tm5  1  0.25000000  0.69443521  0.08080279  1
  Ru  Ru6  1  0.75000000  0.66666700  0.33333300  1
  Ru  Ru7  1  0.25000000  0.33333300  0.66666700  1
  Ru  Ru8  1  0.00000000  -0.00000000  -0.00000000  1
  Ru  Ru9  1  0.50000000  -0.00000000  -0.00000000  1
