# generated using pymatgen
data_Sr2Al4Fe3P4(H2O13)2
_symmetry_space_group_name_H-M   'P 1'
_cell_length_a   5.37404444
_cell_length_b   9.26713129
_cell_length_c   9.87883303
_cell_angle_alpha   110.00841361
_cell_angle_beta   91.24400187
_cell_angle_gamma   97.92019699
_symmetry_Int_Tables_number   1
_chemical_formula_structural   Sr2Al4Fe3P4(H2O13)2
_chemical_formula_sum   'Sr2 Al4 Fe3 P4 H4 O26'
_cell_volume   456.62559434
_cell_formula_units_Z   1
loop_
 _symmetry_equiv_pos_site_id
 _symmetry_equiv_pos_as_xyz
  1  'x, y, z'
loop_
 _atom_site_type_symbol
 _atom_site_label
 _atom_site_symmetry_multiplicity
 _atom_site_fract_x
 _atom_site_fract_y
 _atom_site_fract_z
 _atom_site_occupancy
  Sr  Sr0  1  0.12387051  0.26442050  0.41146384  1
  Sr  Sr1  1  0.87612949  0.73557950  0.58853616  1
  Al  Al2  1  0.51242366  0.07167650  0.15888332  1
  Al  Al3  1  0.48757634  0.92832350  0.84111668  1
  Al  Al4  1  0.50000000  -0.00000000  0.50000000  1
  Al  Al5  1  0.50000000  0.50000000  -0.00000000  1
  Fe  Fe6  1  -0.00000000  -0.00000000  -0.00000000  1
  Fe  Fe7  1  0.24044984  0.63183874  0.28178707  1
  Fe  Fe8  1  0.75955016  0.36816126  0.71821293  1
  P  P9  1  0.69361955  0.42806374  0.26975976  1
  P  P10  1  0.30638045  0.57193626  0.73024024  1
  P  P11  1  0.22319245  0.17766591  0.76185285  1
  P  P12  1  0.77680755  0.82233409  0.23814715  1
  H  H13  1  0.23871570  0.93279646  0.27716422  1
  H  H14  1  0.76128430  0.06720354  0.72283578  1
  H  H15  1  0.05232303  0.40780350  0.03882309  1
  H  H16  1  0.94767697  0.59219650  0.96117691  1
  O  O17  1  0.69032101  0.41916348  0.11261479  1
  O  O18  1  0.30967899  0.58083652  0.88738521  1
  O  O19  1  0.53943626  0.69914354  0.16599225  1
  O  O20  1  0.46056374  0.30085646  0.83400775  1
  O  O21  1  0.21608474  0.46015864  0.08996574  1
  O  O22  1  0.78391526  0.53984136  0.91003426  1
  O  O23  1  0.71756527  0.19056630  0.54532245  1
  O  O24  1  0.28243473  0.80943370  0.45467755  1
  O  O25  1  0.04714000  0.48314855  0.64650414  1
  O  O26  1  0.95286000  0.51685145  0.35349586  1
  O  O27  1  0.21283428  0.03892972  0.82054696  1
  O  O28  1  0.78716572  0.96107028  0.17945304  1
  O  O29  1  0.30519181  0.91038766  0.00643679  1
  O  O30  1  0.69480819  0.08961234  0.99356321  1
  O  O31  1  0.68056867  0.26309401  0.28156089  1
  O  O32  1  0.31943133  0.73690599  0.71843911  1
  O  O33  1  0.01856792  0.75192983  0.19829460  1
  O  O34  1  0.98143208  0.24807017  0.80170540  1
  O  O35  1  0.48403185  0.51196486  0.35415204  1
  O  O36  1  0.51596815  0.48803514  0.64584796  1
  O  O37  1  0.22233401  0.15900343  0.13554442  1
  O  O38  1  0.77766599  0.84099657  0.86445558  1
  O  O39  1  0.37015426  0.02461043  0.32067085  1
  O  O40  1  0.62984574  0.97538957  0.67932915  1
  O  O41  1  0.24249211  0.11614737  0.59712745  1
  O  O42  1  0.75750789  0.88385263  0.40287255  1
