# generated using pymatgen
data_Sb2Pb3S7
_symmetry_space_group_name_H-M   'P 1'
_cell_length_a   3.96695519
_cell_length_b   23.27223236
_cell_length_c   23.27223236
_cell_angle_alpha   119.99999789
_cell_angle_beta   90.00000000
_cell_angle_gamma   90.00000000
_symmetry_Int_Tables_number   1
_chemical_formula_structural   Sb2Pb3S7
_chemical_formula_sum   'Sb12 Pb18 S42'
_cell_volume   1860.64716052
_cell_formula_units_Z   6
loop_
 _symmetry_equiv_pos_site_id
 _symmetry_equiv_pos_as_xyz
  1  'x, y, z'
loop_
 _atom_site_type_symbol
 _atom_site_label
 _atom_site_symmetry_multiplicity
 _atom_site_fract_x
 _atom_site_fract_y
 _atom_site_fract_z
 _atom_site_occupancy
  Sb  Sb0  1  0.75000000  0.89084896  0.23958739  1
  Sb  Sb1  1  0.25000000  0.10915104  0.76041261  1
  Sb  Sb2  1  0.75000000  0.34873843  0.10915104  1
  Sb  Sb3  1  0.25000000  0.65126157  0.89084896  1
  Sb  Sb4  1  0.75000000  0.76041261  0.65126157  1
  Sb  Sb5  1  0.25000000  0.23958739  0.34873843  1
  Sb  Sb6  1  0.75000000  0.82708304  0.00817488  1
  Sb  Sb7  1  0.25000000  0.17291696  0.99182512  1
  Sb  Sb8  1  0.75000000  0.18109185  0.17291696  1
  Sb  Sb9  1  0.25000000  0.81890815  0.82708304  1
  Sb  Sb10  1  0.75000000  0.99182512  0.81890815  1
  Sb  Sb11  1  0.25000000  0.00817488  0.18109185  1
  Pb  Pb12  1  0.75000000  0.45462016  0.71113460  1
  Pb  Pb13  1  0.25000000  0.54537984  0.28886540  1
  Pb  Pb14  1  0.75000000  0.25651443  0.54537984  1
  Pb  Pb15  1  0.25000000  0.74348557  0.45462016  1
  Pb  Pb16  1  0.75000000  0.28886540  0.74348557  1
  Pb  Pb17  1  0.25000000  0.71113460  0.25651443  1
  Pb  Pb18  1  0.75000000  0.90125320  0.41904814  1
  Pb  Pb19  1  0.25000000  0.09874680  0.58095186  1
  Pb  Pb20  1  0.75000000  0.51779494  0.09874680  1
  Pb  Pb21  1  0.25000000  0.48220506  0.90125320  1
  Pb  Pb22  1  0.75000000  0.58095186  0.48220506  1
  Pb  Pb23  1  0.25000000  0.41904814  0.51779494  1
  Pb  Pb24  1  0.75000000  0.66717418  0.05729159  1
  Pb  Pb25  1  0.25000000  0.33282582  0.94270841  1
  Pb  Pb26  1  0.75000000  0.39011741  0.33282582  1
  Pb  Pb27  1  0.25000000  0.60988259  0.66717418  1
  Pb  Pb28  1  0.75000000  0.94270841  0.60988259  1
  Pb  Pb29  1  0.25000000  0.05729159  0.39011741  1
  S  S30  1  0.75000000  0.71385873  0.73093062  1
  S  S31  1  0.25000000  0.28614127  0.26906938  1
  S  S32  1  0.75000000  0.01707189  0.28614127  1
  S  S33  1  0.25000000  0.98292811  0.71385873  1
  S  S34  1  0.75000000  0.26906938  0.98292811  1
  S  S35  1  0.25000000  0.73093062  0.01707189  1
  S  S36  1  0.75000000  0.51107973  0.58637566  1
  S  S37  1  0.25000000  0.48892027  0.41362434  1
  S  S38  1  0.75000000  0.07529593  0.48892027  1
  S  S39  1  0.25000000  0.92470407  0.51107973  1
  S  S40  1  0.75000000  0.41362434  0.92470407  1
  S  S41  1  0.25000000  0.58637566  0.07529593  1
  S  S42  1  0.75000000  0.96910642  0.09981725  1
  S  S43  1  0.25000000  0.03089358  0.90018275  1
  S  S44  1  0.75000000  0.13071084  0.03089358  1
  S  S45  1  0.25000000  0.86928916  0.96910642  1
  S  S46  1  0.75000000  0.90018275  0.86928916  1
  S  S47  1  0.25000000  0.09981725  0.13071084  1
  S  S48  1  0.75000000  0.76761014  0.19262946  1
  S  S49  1  0.25000000  0.23238986  0.80737054  1
  S  S50  1  0.75000000  0.42501932  0.23238986  1
  S  S51  1  0.25000000  0.57498068  0.76761014  1
  S  S52  1  0.75000000  0.80737054  0.57498068  1
  S  S53  1  0.25000000  0.19262946  0.42501932  1
  S  S54  1  0.75000000  0.76840026  0.36817902  1
  S  S55  1  0.25000000  0.23159974  0.63182098  1
  S  S56  1  0.75000000  0.59977876  0.23159974  1
  S  S57  1  0.25000000  0.40022124  0.76840026  1
  S  S58  1  0.75000000  0.63182098  0.40022124  1
  S  S59  1  0.25000000  0.36817902  0.59977876  1
  S  S60  1  0.75000000  0.72423922  0.88450601  1
  S  S61  1  0.25000000  0.27576078  0.11549399  1
  S  S62  1  0.75000000  0.16026679  0.27576078  1
  S  S63  1  0.25000000  0.83973321  0.72423922  1
  S  S64  1  0.75000000  0.11549399  0.83973321  1
  S  S65  1  0.25000000  0.88450601  0.16026679  1
  S  S66  1  0.75000000  0.58331924  0.90503290  1
  S  S67  1  0.25000000  0.41668076  0.09496710  1
  S  S68  1  0.75000000  0.32171366  0.41668076  1
  S  S69  1  0.25000000  0.67828634  0.58331924  1
  S  S70  1  0.75000000  0.09496710  0.67828634  1
  S  S71  1  0.25000000  0.90503290  0.32171366  1
