# generated using pymatgen
data_Pr2Ge6Au
_symmetry_space_group_name_H-M   'P 1'
_cell_length_a   4.21173643
_cell_length_b   4.23386866
_cell_length_c   11.46717039
_cell_angle_alpha   90.00000000
_cell_angle_beta   100.58203826
_cell_angle_gamma   90.00000000
_symmetry_Int_Tables_number   1
_chemical_formula_structural   Pr2Ge6Au
_chemical_formula_sum   'Pr2 Ge6 Au1'
_cell_volume   201.00425163
_cell_formula_units_Z   1
loop_
 _symmetry_equiv_pos_site_id
 _symmetry_equiv_pos_as_xyz
  1  'x, y, z'
loop_
 _atom_site_type_symbol
 _atom_site_label
 _atom_site_symmetry_multiplicity
 _atom_site_fract_x
 _atom_site_fract_y
 _atom_site_fract_z
 _atom_site_occupancy
  Pr  Pr0  1  0.11676229  0.50000000  0.23352458  1
  Pr  Pr1  1  0.77943006  0.50000000  0.55886013  1
  Ge  Ge2  1  0.23444965  -0.00000000  0.46889930  1
  Ge  Ge3  1  0.38154008  0.50000000  0.76308015  1
  Ge  Ge4  1  0.67055223  -0.00000000  0.34110447  1
  Ge  Ge5  1  0.99198500  -0.00000000  0.98397001  1
  Ge  Ge6  1  0.49238964  0.50000000  0.98477928  1
  Ge  Ge7  1  0.88082979  0.00000000  0.76165958  1
  Au  Au8  1  0.55906125  -0.00000000  0.11812251  1
