# generated using pymatgen
data_La3BeAlS7
_symmetry_space_group_name_H-M   'P 1'
_cell_length_a   5.87409404
_cell_length_b   10.25754797
_cell_length_c   10.25754797
_cell_angle_alpha   119.99999676
_cell_angle_beta   90.00000000
_cell_angle_gamma   90.00000000
_symmetry_Int_Tables_number   1
_chemical_formula_structural   La3BeAlS7
_chemical_formula_sum   'La6 Be2 Al2 S14'
_cell_volume   535.25243776
_cell_formula_units_Z   2
loop_
 _symmetry_equiv_pos_site_id
 _symmetry_equiv_pos_as_xyz
  1  'x, y, z'
loop_
 _atom_site_type_symbol
 _atom_site_label
 _atom_site_symmetry_multiplicity
 _atom_site_fract_x
 _atom_site_fract_y
 _atom_site_fract_z
 _atom_site_occupancy
  La  La0  1  0.76796518  0.63069398  0.76085283  1
  La  La1  1  0.76796518  0.13015885  0.36930602  1
  La  La2  1  0.26796518  0.36930602  0.23914717  1
  La  La3  1  0.76796518  0.23914717  0.86984115  1
  La  La4  1  0.26796518  0.86984115  0.63069398  1
  La  La5  1  0.26796518  0.76085283  0.13015885  1
  Be  Be6  1  0.99973901  -0.00000000  0.00000000  1
  Be  Be7  1  0.49973901  -0.00000000  0.00000000  1
  Al  Al8  1  0.84896423  0.66666700  0.33333300  1
  Al  Al9  1  0.34896423  0.33333300  0.66666700  1
  S  S10  1  0.47380954  0.66666700  0.33333300  1
  S  S11  1  0.97380954  0.33333300  0.66666700  1
  S  S12  1  0.99558056  0.89715343  0.41186363  1
  S  S13  1  0.99558056  0.51471019  0.10284657  1
  S  S14  1  0.49558056  0.10284657  0.58813637  1
  S  S15  1  0.99558056  0.58813637  0.48528981  1
  S  S16  1  0.49558056  0.48528981  0.89715343  1
  S  S17  1  0.49558056  0.41186363  0.51471019  1
  S  S18  1  0.75195001  0.86046106  0.07494497  1
  S  S19  1  0.75195001  0.21448391  0.13953894  1
  S  S20  1  0.25195001  0.13953894  0.92505503  1
  S  S21  1  0.75195001  0.92505503  0.78551609  1
  S  S22  1  0.25195001  0.78551609  0.86046106  1
  S  S23  1  0.25195001  0.07494497  0.21448391  1
