# generated using pymatgen
data_LaTl(WO4)2
_symmetry_space_group_name_H-M   'P 1'
_cell_length_a   8.18689998
_cell_length_b   8.18689998
_cell_length_c   7.74802820
_cell_angle_alpha   117.94409331
_cell_angle_beta   117.94409331
_cell_angle_gamma   91.65382463
_symmetry_Int_Tables_number   1
_chemical_formula_structural   LaTl(WO4)2
_chemical_formula_sum   'La2 Tl2 W4 O16'
_cell_volume   384.18770317
_cell_formula_units_Z   2
loop_
 _symmetry_equiv_pos_site_id
 _symmetry_equiv_pos_as_xyz
  1  'x, y, z'
loop_
 _atom_site_type_symbol
 _atom_site_label
 _atom_site_symmetry_multiplicity
 _atom_site_fract_x
 _atom_site_fract_y
 _atom_site_fract_z
 _atom_site_occupancy
  La  La0  1  0.73116441  0.73116441  0.55043849  1
  La  La1  1  0.26883559  0.26883559  0.44956151  1
  Tl  Tl2  1  0.71914474  0.28085526  0.00000000  1
  Tl  Tl3  1  0.28085526  0.71914474  0.00000000  1
  W  W4  1  0.23982033  0.23982033  0.99638618  1
  W  W5  1  0.76017967  0.76017967  0.00361382  1
  W  W6  1  0.84222238  0.15777762  0.50000000  1
  W  W7  1  0.15777762  0.84222238  0.50000000  1
  O  O8  1  0.32945156  0.09803063  0.77939281  1
  O  O9  1  0.67054844  0.90196937  0.22060719  1
  O  O10  1  0.90196937  0.67054844  0.22060719  1
  O  O11  1  0.09803063  0.32945156  0.77939281  1
  O  O12  1  0.68021544  0.18546284  0.59961516  1
  O  O13  1  0.31978456  0.81453716  0.40038484  1
  O  O14  1  0.81453716  0.31978456  0.40038484  1
  O  O15  1  0.18546284  0.68021544  0.59961516  1
  O  O16  1  0.67721342  0.89418467  0.85381319  1
  O  O17  1  0.32278658  0.10581533  0.14618681  1
  O  O18  1  0.10581533  0.32278658  0.14618681  1
  O  O19  1  0.89418467  0.67721342  0.85381319  1
  O  O20  1  0.97943671  0.97943671  0.66060922  1
  O  O21  1  0.02056329  0.02056329  0.33939078  1
  O  O22  1  0.54346045  0.54346045  0.80743762  1
  O  O23  1  0.45653955  0.45653955  0.19256238  1
