# generated using pymatgen
data_BH2S3N3F4
_symmetry_space_group_name_H-M   'P 1'
_cell_length_a   5.88106801
_cell_length_b   7.60059523
_cell_length_c   10.08575060
_cell_angle_alpha   90.73715345
_cell_angle_beta   86.23331411
_cell_angle_gamma   86.10951167
_symmetry_Int_Tables_number   1
_chemical_formula_structural   BH2S3N3F4
_chemical_formula_sum   'B2 H4 S6 N6 F8'
_cell_volume   448.75071139
_cell_formula_units_Z   2
loop_
 _symmetry_equiv_pos_site_id
 _symmetry_equiv_pos_as_xyz
  1  'x, y, z'
loop_
 _atom_site_type_symbol
 _atom_site_label
 _atom_site_symmetry_multiplicity
 _atom_site_fract_x
 _atom_site_fract_y
 _atom_site_fract_z
 _atom_site_occupancy
  B  B0  1  0.06844621  0.27095425  0.23555203  1
  B  B1  1  0.93155379  0.72904575  0.76444797  1
  H  H2  1  0.26796065  0.92136724  0.11574281  1
  H  H3  1  0.73203935  0.07863276  0.88425719  1
  H  H4  1  0.71766061  0.23613996  0.01779380  1
  H  H5  1  0.28233939  0.76386004  0.98220620  1
  S  S6  1  0.36675071  0.64610664  0.34758441  1
  S  S7  1  0.63324929  0.35389336  0.65241559  1
  S  S8  1  0.32282521  0.09871781  0.66510547  1
  S  S9  1  0.67717479  0.90128219  0.33489453  1
  S  S10  1  0.52458847  0.68141829  0.14066038  1
  S  S11  1  0.47541153  0.31858171  0.85933962  1
  N  N12  1  0.34019127  0.80641672  0.07060937  1
  N  N13  1  0.65980873  0.19358328  0.92939063  1
  N  N14  1  0.51818275  0.19208102  0.58470032  1
  N  N15  1  0.48181725  0.80791898  0.41529968  1
  N  N16  1  0.28224677  0.19472812  0.80765838  1
  N  N17  1  0.71775323  0.80527188  0.19234162  1
  F  F18  1  0.86171617  0.28469056  0.16868529  1
  F  F19  1  0.13828383  0.71530944  0.83131471  1
  F  F20  1  0.16689954  0.09308929  0.21824950  1
  F  F21  1  0.83310046  0.90691071  0.78175050  1
  F  F22  1  0.22429630  0.38686099  0.17725069  1
  F  F23  1  0.77570370  0.61313901  0.82274931  1
  F  F24  1  0.02390057  0.30916427  0.37080636  1
  F  F25  1  0.97609943  0.69083573  0.62919364  1
