# generated using pymatgen
data_Co4(MoO4)3
_symmetry_space_group_name_H-M   'P 1'
_cell_length_a   5.16543765
_cell_length_b   10.57219663
_cell_length_c   17.93876166
_cell_angle_alpha   90.00000000
_cell_angle_beta   90.00000000
_cell_angle_gamma   90.00000000
_symmetry_Int_Tables_number   1
_chemical_formula_structural   Co4(MoO4)3
_chemical_formula_sum   'Co16 Mo12 O48'
_cell_volume   979.63617816
_cell_formula_units_Z   4
loop_
 _symmetry_equiv_pos_site_id
 _symmetry_equiv_pos_as_xyz
  1  'x, y, z'
loop_
 _atom_site_type_symbol
 _atom_site_label
 _atom_site_symmetry_multiplicity
 _atom_site_fract_x
 _atom_site_fract_y
 _atom_site_fract_z
 _atom_site_occupancy
  Co  Co0  1  0.10152112  0.25000000  0.24970416  1
  Co  Co1  1  0.89847888  0.75000000  0.75029584  1
  Co  Co2  1  0.39847888  0.75000000  0.74970416  1
  Co  Co3  1  0.60152112  0.25000000  0.25029584  1
  Co  Co4  1  0.24548134  0.25000000  0.69743157  1
  Co  Co5  1  0.75451866  0.75000000  0.30256843  1
  Co  Co6  1  0.25451866  0.75000000  0.19743157  1
  Co  Co7  1  0.74548134  0.25000000  0.80256843  1
  Co  Co8  1  0.25415822  0.07439026  0.52544044  1
  Co  Co9  1  0.74584178  0.92560974  0.47455956  1
  Co  Co10  1  0.24584178  0.92560974  0.02544044  1
  Co  Co11  1  0.74584178  0.57439026  0.47455956  1
  Co  Co12  1  0.75415822  0.07439026  0.97455956  1
  Co  Co13  1  0.25415822  0.42560974  0.52544044  1
  Co  Co14  1  0.75415822  0.42560974  0.97455956  1
  Co  Co15  1  0.24584178  0.57439026  0.02544044  1
  Mo  Mo16  1  0.29495932  0.25000000  0.05783363  1
  Mo  Mo17  1  0.70504068  0.75000000  0.94216637  1
  Mo  Mo18  1  0.20504068  0.75000000  0.55783363  1
  Mo  Mo19  1  0.79495932  0.25000000  0.44216637  1
  Mo  Mo20  1  0.28191871  0.52955533  0.34392636  1
  Mo  Mo21  1  0.71808129  0.47044467  0.65607364  1
  Mo  Mo22  1  0.21808129  0.47044467  0.84392636  1
  Mo  Mo23  1  0.71808129  0.02955533  0.65607364  1
  Mo  Mo24  1  0.78191871  0.52955533  0.15607364  1
  Mo  Mo25  1  0.28191871  0.97044467  0.34392636  1
  Mo  Mo26  1  0.78191871  0.97044467  0.15607364  1
  Mo  Mo27  1  0.21808129  0.02955533  0.84392636  1
  O  O28  1  0.34997289  0.11580779  0.29522284  1
  O  O29  1  0.65002711  0.88419221  0.70477716  1
  O  O30  1  0.15002711  0.88419221  0.79522284  1
  O  O31  1  0.65002711  0.61580779  0.70477716  1
  O  O32  1  0.84997289  0.11580779  0.20477716  1
  O  O33  1  0.34997289  0.38419221  0.29522284  1
  O  O34  1  0.84997289  0.38419221  0.20477716  1
  O  O35  1  0.15002711  0.61580779  0.79522284  1
  O  O36  1  0.08047269  0.10815747  0.03730208  1
  O  O37  1  0.91952731  0.89184253  0.96269792  1
  O  O38  1  0.41952731  0.89184253  0.53730208  1
  O  O39  1  0.91952731  0.60815747  0.96269792  1
  O  O40  1  0.58047269  0.10815747  0.46269792  1
  O  O41  1  0.08047269  0.39184253  0.03730208  1
  O  O42  1  0.58047269  0.39184253  0.46269792  1
  O  O43  1  0.41952731  0.60815747  0.53730208  1
  O  O44  1  0.06554419  0.25000000  0.51319496  1
  O  O45  1  0.93445581  0.75000000  0.48680504  1
  O  O46  1  0.43445581  0.75000000  0.01319496  1
  O  O47  1  0.56554419  0.25000000  0.98680504  1
  O  O48  1  0.07377153  0.62866311  0.28345204  1
  O  O49  1  0.92622847  0.37133689  0.71654796  1
  O  O50  1  0.42622847  0.37133689  0.78345204  1
  O  O51  1  0.92622847  0.12866311  0.71654796  1
  O  O52  1  0.57377153  0.62866311  0.21654796  1
  O  O53  1  0.07377153  0.87133689  0.28345204  1
  O  O54  1  0.57377153  0.87133689  0.21654796  1
  O  O55  1  0.42622847  0.12866311  0.78345204  1
  O  O56  1  0.34912411  0.25000000  0.15881535  1
  O  O57  1  0.65087589  0.75000000  0.84118465  1
  O  O58  1  0.15087589  0.75000000  0.65881535  1
  O  O59  1  0.84912411  0.25000000  0.34118465  1
  O  O60  1  0.07793955  0.00882232  0.42514170  1
  O  O61  1  0.92206045  0.99117768  0.57485830  1
  O  O62  1  0.42206045  0.99117768  0.92514170  1
  O  O63  1  0.92206045  0.50882232  0.57485830  1
  O  O64  1  0.57793955  0.00882232  0.07485830  1
  O  O65  1  0.07793955  0.49117768  0.42514170  1
  O  O66  1  0.57793955  0.49117768  0.07485830  1
  O  O67  1  0.42206045  0.50882232  0.92514170  1
  O  O68  1  0.06750588  0.62183911  0.12723563  1
  O  O69  1  0.93249412  0.37816089  0.87276437  1
  O  O70  1  0.43249412  0.37816089  0.62723563  1
  O  O71  1  0.93249412  0.12183911  0.87276437  1
  O  O72  1  0.56750588  0.62183911  0.37276437  1
  O  O73  1  0.06750588  0.87816089  0.12723563  1
  O  O74  1  0.56750588  0.87816089  0.37276437  1
  O  O75  1  0.43249412  0.12183911  0.62723563  1
