# generated using pymatgen
data_Zn4FeS5
_symmetry_space_group_name_H-M   'P 1'
_cell_length_a   3.84177310
_cell_length_b   3.84177310
_cell_length_c   15.86413064
_cell_angle_alpha   96.95464612
_cell_angle_beta   83.04535388
_cell_angle_gamma   120.00000000
_symmetry_Int_Tables_number   1
_chemical_formula_structural   Zn4FeS5
_chemical_formula_sum   'Zn4 Fe1 S5'
_cell_volume   200.78137661
_cell_formula_units_Z   1
loop_
 _symmetry_equiv_pos_site_id
 _symmetry_equiv_pos_as_xyz
  1  'x, y, z'
loop_
 _atom_site_type_symbol
 _atom_site_label
 _atom_site_symmetry_multiplicity
 _atom_site_fract_x
 _atom_site_fract_y
 _atom_site_fract_z
 _atom_site_occupancy
  Zn  Zn0  1  0.99995859  0.00004141  0.00012424  1
  Zn  Zn1  1  0.59996961  0.40003039  0.20009116  1
  Zn  Zn2  1  0.19998016  0.80001984  0.40005951  1
  Zn  Zn3  1  0.79997350  0.20002650  0.60007950  1
  Fe  Fe4  1  0.39994274  0.60005726  0.80017179  1
  S  S5  1  0.95000921  0.04999079  0.14997236  1
  S  S6  1  0.55002047  0.44997953  0.34993859  1
  S  S7  1  0.15000333  0.84999667  0.54999002  1
  S  S8  1  0.74982852  0.25017148  0.75051444  1
  S  S9  1  0.35031387  0.64968613  0.94905838  1
