# generated using pymatgen
data_Zr2NbMoC4
_symmetry_space_group_name_H-M   'P 1'
_cell_length_a   3.24313972
_cell_length_b   3.24313972
_cell_length_c   10.67270430
_cell_angle_alpha   98.73914740
_cell_angle_beta   90.00000000
_cell_angle_gamma   120.00000000
_symmetry_Int_Tables_number   1
_chemical_formula_structural   Zr2NbMoC4
_chemical_formula_sum   'Zr2 Nb1 Mo1 C4'
_cell_volume   95.70788749
_cell_formula_units_Z   1
loop_
 _symmetry_equiv_pos_site_id
 _symmetry_equiv_pos_as_xyz
  1  'x, y, z'
loop_
 _atom_site_type_symbol
 _atom_site_label
 _atom_site_symmetry_multiplicity
 _atom_site_fract_x
 _atom_site_fract_y
 _atom_site_fract_z
 _atom_site_occupancy
  Zr  Zr0  1  0.87358117  0.74716234  0.62074351  1
  Zr  Zr1  1  0.62793284  0.25586569  0.88379853  1
  Nb  Nb2  1  0.12127603  0.24255207  0.36382810  1
  Mo  Mo3  1  0.37712266  0.75424532  0.13136797  1
  C  C4  1  0.25070720  0.50141439  0.75212159  1
  C  C5  1  0.49568749  0.99137499  0.48706248  1
  C  C6  1  0.00540982  0.01081964  0.01622946  1
  C  C7  1  0.74828278  0.49656556  0.24484835  1
