# generated using pymatgen
data_VPd3
_symmetry_space_group_name_H-M   'P 1'
_cell_length_a   2.77400662
_cell_length_b   2.77400662
_cell_length_c   9.08967083
_cell_angle_alpha   90.00000000
_cell_angle_beta   81.22288263
_cell_angle_gamma   120.00000000
_symmetry_Int_Tables_number   1
_chemical_formula_structural   VPd3
_chemical_formula_sum   'V1 Pd3'
_cell_volume   59.62734680
_cell_formula_units_Z   1
loop_
 _symmetry_equiv_pos_site_id
 _symmetry_equiv_pos_as_xyz
  1  'x, y, z'
loop_
 _atom_site_type_symbol
 _atom_site_label
 _atom_site_symmetry_multiplicity
 _atom_site_fract_x
 _atom_site_fract_y
 _atom_site_fract_z
 _atom_site_occupancy
  V  V0  1  0.00000000  0.00000000  0.00000000  1
  Pd  Pd1  1  0.50976158  0.25488079  0.23535763  1
  Pd  Pd2  1  0.00000000  0.50000000  0.50000000  1
  Pd  Pd3  1  0.49023842  0.74511921  0.76464237  1
