# generated using pymatgen
data_ZrMn3
_symmetry_space_group_name_H-M   'P 1'
_cell_length_a   4.87040874
_cell_length_b   4.87962976
_cell_length_c   7.98935037
_cell_angle_alpha   90.00000000
_cell_angle_beta   89.98084695
_cell_angle_gamma   59.93734508
_symmetry_Int_Tables_number   1
_chemical_formula_structural   ZrMn3
_chemical_formula_sum   'Zr3 Mn9'
_cell_volume   164.33111776
_cell_formula_units_Z   3
loop_
 _symmetry_equiv_pos_site_id
 _symmetry_equiv_pos_as_xyz
  1  'x, y, z'
loop_
 _atom_site_type_symbol
 _atom_site_label
 _atom_site_symmetry_multiplicity
 _atom_site_fract_x
 _atom_site_fract_y
 _atom_site_fract_z
 _atom_site_occupancy
  Zr  Zr0  1  0.66664611  0.66667695  0.44654720  1
  Zr  Zr1  1  0.66666167  0.66666916  0.06471947  1
  Zr  Zr2  1  0.33336115  0.33331942  0.92621730  1
  Mn  Mn3  1  0.99987606  0.00006197  0.49895768  1
  Mn  Mn4  1  0.00021148  -0.00010574  0.99670463  1
  Mn  Mn5  1  0.82934681  0.34107540  0.74199634  1
  Mn  Mn6  1  0.34091358  0.82954321  0.74205969  1
  Mn  Mn7  1  0.82934681  0.82957779  0.74199634  1
  Mn  Mn8  1  0.17201047  0.65628523  0.25703261  1
  Mn  Mn9  1  0.65615652  0.17192174  0.25701973  1
  Mn  Mn10  1  0.17201047  0.17170431  0.25703261  1
  Mn  Mn11  1  0.33345889  0.33327056  0.56971639  1
