# generated using pymatgen
data_ZrNbCN
_symmetry_space_group_name_H-M   'P 1'
_cell_length_a   3.22802259
_cell_length_b   3.22802259
_cell_length_c   5.62040199
_cell_angle_alpha   73.31139144
_cell_angle_beta   90.00000000
_cell_angle_gamma   120.00000000
_symmetry_Int_Tables_number   1
_chemical_formula_structural   ZrNbCN
_chemical_formula_sum   'Zr1 Nb1 C1 N1'
_cell_volume   47.84945445
_cell_formula_units_Z   1
loop_
 _symmetry_equiv_pos_site_id
 _symmetry_equiv_pos_as_xyz
  1  'x, y, z'
loop_
 _atom_site_type_symbol
 _atom_site_label
 _atom_site_symmetry_multiplicity
 _atom_site_fract_x
 _atom_site_fract_y
 _atom_site_fract_z
 _atom_site_occupancy
  Zr  Zr0  1  0.74764887  0.49529775  0.75705338  1
  Nb  Nb1  1  0.25322184  0.50644367  0.24033449  1
  C  C2  1  0.99672420  0.99344840  0.00982740  1
  N  N3  1  0.50240509  0.00481018  0.49278472  1
