# generated using pymatgen
data_ZrTiAu
_symmetry_space_group_name_H-M   'P 1'
_cell_length_a   5.47256632
_cell_length_b   5.47294455
_cell_length_c   8.76411191
_cell_angle_alpha   90.00000000
_cell_angle_beta   90.00000000
_cell_angle_gamma   61.51108840
_symmetry_Int_Tables_number   1
_chemical_formula_structural   ZrTiAu
_chemical_formula_sum   'Zr4 Ti4 Au4'
_cell_volume   230.70878150
_cell_formula_units_Z   4
loop_
 _symmetry_equiv_pos_site_id
 _symmetry_equiv_pos_as_xyz
  1  'x, y, z'
loop_
 _atom_site_type_symbol
 _atom_site_label
 _atom_site_symmetry_multiplicity
 _atom_site_fract_x
 _atom_site_fract_y
 _atom_site_fract_z
 _atom_site_occupancy
  Zr  Zr0  1  0.32297468  0.32297402  0.56230367  1
  Zr  Zr1  1  0.66252530  0.66254794  0.43303616  1
  Zr  Zr2  1  0.66252530  0.66254794  0.06696384  1
  Zr  Zr3  1  0.32297468  0.32297402  0.93769633  1
  Ti  Ti4  1  0.84093811  0.84089774  0.75000000  1
  Ti  Ti5  1  0.17305051  0.65352341  0.25000000  1
  Ti  Ti6  1  0.65352797  0.17306349  0.25000000  1
  Ti  Ti7  1  0.18030264  0.18030846  0.25000000  1
  Au  Au8  1  0.99383441  0.99383286  0.49300194  1
  Au  Au9  1  0.99383441  0.99383286  0.00699806  1
  Au  Au10  1  0.83920958  0.35428572  0.75000000  1
  Au  Au11  1  0.35430241  0.83921151  0.75000000  1
