# generated using pymatgen
data_Ta4WC5
_symmetry_space_group_name_H-M   'P 1'
_cell_length_a   3.15203173
_cell_length_b   3.15203173
_cell_length_c   13.03974762
_cell_angle_alpha   90.00000000
_cell_angle_beta   96.94187974
_cell_angle_gamma   120.00000000
_symmetry_Int_Tables_number   1
_chemical_formula_structural   Ta4WC5
_chemical_formula_sum   'Ta4 W1 C5'
_cell_volume   111.09893003
_cell_formula_units_Z   1
loop_
 _symmetry_equiv_pos_site_id
 _symmetry_equiv_pos_as_xyz
  1  'x, y, z'
loop_
 _atom_site_type_symbol
 _atom_site_label
 _atom_site_symmetry_multiplicity
 _atom_site_fract_x
 _atom_site_fract_y
 _atom_site_fract_z
 _atom_site_occupancy
  Ta  Ta0  1  0.19911191  0.09955596  0.29866787  1
  Ta  Ta1  1  0.99909614  0.49954807  0.49864422  1
  Ta  Ta2  1  0.80090386  0.90045193  0.70135578  1
  Ta  Ta3  1  0.60088809  0.30044404  0.90133213  1
  W  W4  1  0.40000000  0.70000000  0.10000000  1
  C  C5  1  0.20142829  0.60071415  0.80214244  1
  C  C6  1  0.40000000  0.20000000  0.60000000  1
  C  C7  1  0.59857171  0.79928585  0.39785756  1
  C  C8  1  0.00229478  0.00114739  0.00344217  1
  C  C9  1  0.79770522  0.39885261  0.19655783  1
