# generated using pymatgen
data_SrLa3Ti2(CoO6)2
_symmetry_space_group_name_H-M   'P 1'
_cell_length_a   5.56583917
_cell_length_b   5.56020820
_cell_length_c   7.87863561
_cell_angle_alpha   90.00000000
_cell_angle_beta   90.00000000
_cell_angle_gamma   90.00000000
_symmetry_Int_Tables_number   1
_chemical_formula_structural   SrLa3Ti2(CoO6)2
_chemical_formula_sum   'Sr1 La3 Ti2 Co2 O12'
_cell_volume   243.82190571
_cell_formula_units_Z   1
loop_
 _symmetry_equiv_pos_site_id
 _symmetry_equiv_pos_as_xyz
  1  'x, y, z'
loop_
 _atom_site_type_symbol
 _atom_site_label
 _atom_site_symmetry_multiplicity
 _atom_site_fract_x
 _atom_site_fract_y
 _atom_site_fract_z
 _atom_site_occupancy
  Sr  Sr0  1  0.50000000  0.50000000  0.25105022  1
  La  La1  1  -0.00000000  0.00000000  0.25100269  1
  La  La2  1  0.50000000  0.50000000  0.74882471  1
  La  La3  1  0.00000000  -0.00000000  0.74900934  1
  Ti  Ti4  1  -0.00000000  0.50000000  0.00255879  1
  Ti  Ti5  1  0.50000000  0.00000000  0.49838788  1
  Co  Co6  1  0.50000000  0.00000000  0.00023745  1
  Co  Co7  1  0.00000000  0.50000000  0.49992205  1
  O  O8  1  0.24450229  0.75251822  0.99400747  1
  O  O9  1  0.75549771  0.24748178  0.99400747  1
  O  O10  1  0.25140577  0.75878282  0.50587330  1
  O  O11  1  0.74859423  0.24121718  0.50587330  1
  O  O12  1  0.24450229  0.24748178  0.99400747  1
  O  O13  1  0.75549771  0.75251822  0.99400747  1
  O  O14  1  0.25140577  0.24121718  0.50587330  1
  O  O15  1  0.74859423  0.75878282  0.50587330  1
  O  O16  1  0.50000000  0.00000000  0.24862607  1
  O  O17  1  -0.00000000  0.50000000  0.24146230  1
  O  O18  1  0.50000000  0.00000000  0.75145256  1
  O  O19  1  0.00000000  0.50000000  0.75794286  1
