# generated using pymatgen
data_TaNbCN
_symmetry_space_group_name_H-M   'P 1'
_cell_length_a   3.16490496
_cell_length_b   3.16490497
_cell_length_c   5.50394646
_cell_angle_alpha   73.29092860
_cell_angle_beta   90.00000000
_cell_angle_gamma   119.99999993
_symmetry_Int_Tables_number   1
_chemical_formula_structural   TaNbCN
_chemical_formula_sum   'Ta1 Nb1 C1 N1'
_cell_volume   45.03685659
_cell_formula_units_Z   1
loop_
 _symmetry_equiv_pos_site_id
 _symmetry_equiv_pos_as_xyz
  1  'x, y, z'
loop_
 _atom_site_type_symbol
 _atom_site_label
 _atom_site_symmetry_multiplicity
 _atom_site_fract_x
 _atom_site_fract_y
 _atom_site_fract_z
 _atom_site_occupancy
  Ta  Ta0  1  0.74409838  0.48819677  0.76770485  1
  Nb  Nb1  1  0.25754916  0.51509832  0.22735252  1
  C  C2  1  0.00228303  0.00456605  0.99315092  1
  N  N3  1  0.49606943  0.99213886  0.51179171  1
