# generated using pymatgen
data_Sc3(Ga2Ni)2
_symmetry_space_group_name_H-M   'P 1'
_cell_length_a   4.21287880
_cell_length_b   4.21249589
_cell_length_c   19.90241339
_cell_angle_alpha   90.00000000
_cell_angle_beta   90.00354167
_cell_angle_gamma   60.00299928
_symmetry_Int_Tables_number   1
_chemical_formula_structural   Sc3(Ga2Ni)2
_chemical_formula_sum   'Sc6 Ga8 Ni4'
_cell_volume   305.89188348
_cell_formula_units_Z   2
loop_
 _symmetry_equiv_pos_site_id
 _symmetry_equiv_pos_as_xyz
  1  'x, y, z'
loop_
 _atom_site_type_symbol
 _atom_site_label
 _atom_site_symmetry_multiplicity
 _atom_site_fract_x
 _atom_site_fract_y
 _atom_site_fract_z
 _atom_site_occupancy
  Sc  Sc0  1  0.00004936  0.99997532  0.24153699  1
  Sc  Sc1  1  -0.00000104  0.00000052  0.57462865  1
  Sc  Sc2  1  0.00002334  0.99998833  0.90881886  1
  Sc  Sc3  1  0.99992791  0.00003604  0.09098399  1
  Sc  Sc4  1  0.99994835  0.00002583  0.42120709  1
  Sc  Sc5  1  0.99993221  0.00003389  0.75497134  1
  Ga  Ga6  1  0.66666484  0.66666758  0.49460283  1
  Ga  Ga7  1  0.66664752  0.66667624  0.82859193  1
  Ga  Ga8  1  0.66667143  0.66666428  0.01918071  1
  Ga  Ga9  1  0.66662180  0.66668910  0.34793377  1
  Ga  Ga10  1  0.66665145  0.66667428  0.68297856  1
  Ga  Ga11  1  0.33339291  0.33330355  0.31457842  1
  Ga  Ga12  1  0.33332200  0.33333900  0.64589710  1
  Ga  Ga13  1  0.33330694  0.33334653  0.98004882  1
  Ni  Ni14  1  0.33336450  0.33331775  0.18194862  1
  Ni  Ni15  1  0.33338763  0.33330618  0.51244400  1
  Ni  Ni16  1  0.33342465  0.33328767  0.84790548  1
  Ni  Ni17  1  0.66666419  0.66666790  0.15174283  1
