# generated using pymatgen
data_U2Al6Pd3Pt
_symmetry_space_group_name_H-M   'P 1'
_cell_length_a   4.23193960
_cell_length_b   5.37382907
_cell_length_c   9.28824454
_cell_angle_alpha   90.00324242
_cell_angle_beta   90.00000000
_cell_angle_gamma   90.00000000
_symmetry_Int_Tables_number   1
_chemical_formula_structural   U2Al6Pd3Pt
_chemical_formula_sum   'U2 Al6 Pd3 Pt1'
_cell_volume   211.23065674
_cell_formula_units_Z   1
loop_
 _symmetry_equiv_pos_site_id
 _symmetry_equiv_pos_as_xyz
  1  'x, y, z'
loop_
 _atom_site_type_symbol
 _atom_site_label
 _atom_site_symmetry_multiplicity
 _atom_site_fract_x
 _atom_site_fract_y
 _atom_site_fract_z
 _atom_site_occupancy
  U  U0  1  -0.00000000  0.99995215  0.00102212  1
  U  U1  1  -0.00000000  0.49998725  0.49897948  1
  Al  Al2  1  0.50000000  0.00000923  0.50031155  1
  Al  Al3  1  0.50000000  0.49999756  0.99963460  1
  Al  Al4  1  0.50000000  0.25011559  0.25010635  1
  Al  Al5  1  0.50000000  0.74984420  0.74989513  1
  Al  Al6  1  0.50000000  0.74986847  0.25009674  1
  Al  Al7  1  0.50000000  0.25014103  0.74988295  1
  Pd  Pd8  1  -0.00000000  0.49997952  0.83387764  1
  Pd  Pd9  1  -0.00000000  0.49996324  0.16494289  1
  Pd  Pd10  1  0.00000000  0.99996748  0.66773037  1
  Pt  Pt11  1  0.00000000  0.99997429  0.33352017  1
