# generated using pymatgen
data_ScV4Si3
_symmetry_space_group_name_H-M   'P 1'
_cell_length_a   4.94123120
_cell_length_b   7.23908581
_cell_length_c   7.44510702
_cell_angle_alpha   120.92910742
_cell_angle_beta   89.99463317
_cell_angle_gamma   90.00598301
_symmetry_Int_Tables_number   1
_chemical_formula_structural   ScV4Si3
_chemical_formula_sum   'Sc2 V8 Si6'
_cell_volume   228.44300293
_cell_formula_units_Z   2
loop_
 _symmetry_equiv_pos_site_id
 _symmetry_equiv_pos_as_xyz
  1  'x, y, z'
loop_
 _atom_site_type_symbol
 _atom_site_label
 _atom_site_symmetry_multiplicity
 _atom_site_fract_x
 _atom_site_fract_y
 _atom_site_fract_z
 _atom_site_occupancy
  Sc  Sc0  1  0.74993996  0.23113116  0.00126255  1
  Sc  Sc1  1  0.75009885  0.76881719  0.77024570  1
  V  V2  1  0.50093169  0.33670947  0.66811276  1
  V  V3  1  0.50104597  0.66330215  0.33137258  1
  V  V4  1  0.99905170  0.66326742  0.33139646  1
  V  V5  1  0.99899202  0.33666755  0.66803427  1
  V  V6  1  0.75012385  0.00007464  0.26003451  1
  V  V7  1  0.25006627  0.75858395  0.00399262  1
  V  V8  1  0.24979729  0.24136550  0.24546684  1
  V  V9  1  0.25000853  0.00007704  0.72808232  1
  Si  Si10  1  0.75000975  0.60496531  0.00685979  1
  Si  Si11  1  0.74981470  0.39495189  0.40204046  1
  Si  Si12  1  0.75000164  0.00008971  0.59157847  1
  Si  Si13  1  0.24999567  0.39667374  0.99814882  1
  Si  Si14  1  0.25004348  0.60323982  0.60150984  1
  Si  Si15  1  0.25007864  0.00008346  0.39186201  1
