# generated using pymatgen
data_CsYMg30O32
_symmetry_space_group_name_H-M   'P 1'
_cell_length_a   8.70480127
_cell_length_b   8.72205681
_cell_length_c   8.72205681
_cell_angle_alpha   90.00000000
_cell_angle_beta   90.00000000
_cell_angle_gamma   90.00000000
_symmetry_Int_Tables_number   1
_chemical_formula_structural   CsYMg30O32
_chemical_formula_sum   'Cs1 Y1 Mg30 O32'
_cell_volume   662.21144561
_cell_formula_units_Z   1
loop_
 _symmetry_equiv_pos_site_id
 _symmetry_equiv_pos_as_xyz
  1  'x, y, z'
loop_
 _atom_site_type_symbol
 _atom_site_label
 _atom_site_symmetry_multiplicity
 _atom_site_fract_x
 _atom_site_fract_y
 _atom_site_fract_z
 _atom_site_occupancy
  Cs  Cs0  1  0.00000000  0.50000000  0.50000000  1
  Y  Y1  1  0.00000000  0.00000000  -0.00000000  1
  Mg  Mg2  1  0.00000000  0.00000000  0.50000000  1
  Mg  Mg3  1  0.00000000  0.50000000  -0.00000000  1
  Mg  Mg4  1  0.50000000  0.00000000  -0.00000000  1
  Mg  Mg5  1  0.50000000  0.00000000  0.50000000  1
  Mg  Mg6  1  0.50000000  0.50000000  -0.00000000  1
  Mg  Mg7  1  0.50000000  0.50000000  0.50000000  1
  Mg  Mg8  1  0.00000000  0.25274964  0.25274964  1
  Mg  Mg9  1  0.00000000  0.25274964  0.74725036  1
  Mg  Mg10  1  -0.00000000  0.74725036  0.25274964  1
  Mg  Mg11  1  -0.00000000  0.74725036  0.74725036  1
  Mg  Mg12  1  0.50000000  0.25120734  0.25120734  1
  Mg  Mg13  1  0.50000000  0.25120734  0.74879266  1
  Mg  Mg14  1  0.50000000  0.74879266  0.25120734  1
  Mg  Mg15  1  0.50000000  0.74879266  0.74879266  1
  Mg  Mg16  1  0.25609939  0.00000000  0.25710889  1
  Mg  Mg17  1  0.25609939  0.00000000  0.74289111  1
  Mg  Mg18  1  0.25502354  0.50000000  0.24668743  1
  Mg  Mg19  1  0.25502354  0.50000000  0.75331257  1
  Mg  Mg20  1  0.74390061  0.00000000  0.25710889  1
  Mg  Mg21  1  0.74390061  0.00000000  0.74289111  1
  Mg  Mg22  1  0.74497646  0.50000000  0.24668743  1
  Mg  Mg23  1  0.74497646  0.50000000  0.75331257  1
  Mg  Mg24  1  0.25609939  0.25710889  -0.00000000  1
  Mg  Mg25  1  0.25502354  0.24668743  0.50000000  1
  Mg  Mg26  1  0.25609939  0.74289111  -0.00000000  1
  Mg  Mg27  1  0.25502354  0.75331257  0.50000000  1
  Mg  Mg28  1  0.74390061  0.25710889  -0.00000000  1
  Mg  Mg29  1  0.74497646  0.24668743  0.50000000  1
  Mg  Mg30  1  0.74390061  0.74289111  -0.00000000  1
  Mg  Mg31  1  0.74497646  0.75331257  0.50000000  1
  O  O32  1  0.25901115  0.00000000  -0.00000000  1
  O  O33  1  0.25829427  0.00000000  0.50000000  1
  O  O34  1  0.25829427  0.50000000  -0.00000000  1
  O  O35  1  0.28502507  0.50000000  0.50000000  1
  O  O36  1  0.74098885  0.00000000  -0.00000000  1
  O  O37  1  0.74170573  0.00000000  0.50000000  1
  O  O38  1  0.74170573  0.50000000  -0.00000000  1
  O  O39  1  0.71497493  0.50000000  0.50000000  1
  O  O40  1  0.24897672  0.24966520  0.24966520  1
  O  O41  1  0.24897672  0.24966520  0.75033480  1
  O  O42  1  0.24897672  0.75033480  0.24966520  1
  O  O43  1  0.24897672  0.75033480  0.75033480  1
  O  O44  1  0.75102328  0.24966520  0.24966520  1
  O  O45  1  0.75102328  0.24966520  0.75033480  1
  O  O46  1  0.75102328  0.75033480  0.24966520  1
  O  O47  1  0.75102328  0.75033480  0.75033480  1
  O  O48  1  0.00000000  0.00000000  0.25376759  1
  O  O49  1  -0.00000000  0.00000000  0.74623241  1
  O  O50  1  -0.00000000  0.50000000  0.21559075  1
  O  O51  1  -0.00000000  0.50000000  0.78440925  1
  O  O52  1  0.50000000  0.00000000  0.24900009  1
  O  O53  1  0.50000000  0.00000000  0.75099991  1
  O  O54  1  0.50000000  0.50000000  0.24267487  1
  O  O55  1  0.50000000  0.50000000  0.75732513  1
  O  O56  1  -0.00000000  0.25376759  -0.00000000  1
  O  O57  1  -0.00000000  0.21559075  0.50000000  1
  O  O58  1  0.00000000  0.74623241  -0.00000000  1
  O  O59  1  0.00000000  0.78440925  0.50000000  1
  O  O60  1  0.50000000  0.24900009  -0.00000000  1
  O  O61  1  0.50000000  0.24267487  0.50000000  1
  O  O62  1  0.50000000  0.75099991  -0.00000000  1
  O  O63  1  0.50000000  0.75732513  0.50000000  1
