# generated using pymatgen
data_SmZrNO2
_symmetry_space_group_name_H-M   'P 1'
_cell_length_a   5.69426037
_cell_length_b   5.84500558
_cell_length_c   8.33495292
_cell_angle_alpha   90.00000000
_cell_angle_beta   90.00000000
_cell_angle_gamma   90.00000000
_symmetry_Int_Tables_number   1
_chemical_formula_structural   SmZrNO2
_chemical_formula_sum   'Sm4 Zr4 N4 O8'
_cell_volume   277.41210165
_cell_formula_units_Z   4
loop_
 _symmetry_equiv_pos_site_id
 _symmetry_equiv_pos_as_xyz
  1  'x, y, z'
loop_
 _atom_site_type_symbol
 _atom_site_label
 _atom_site_symmetry_multiplicity
 _atom_site_fract_x
 _atom_site_fract_y
 _atom_site_fract_z
 _atom_site_occupancy
  Sm  Sm0  1  0.48665193  0.54649456  0.25000000  1
  Sm  Sm1  1  0.01334807  0.04649456  0.25000000  1
  Sm  Sm2  1  0.51334807  0.45350544  0.75000000  1
  Sm  Sm3  1  0.98665193  0.95350544  0.75000000  1
  Zr  Zr4  1  0.50000000  0.00000000  -0.00000000  1
  Zr  Zr5  1  -0.00000000  0.50000000  0.50000000  1
  Zr  Zr6  1  0.50000000  0.00000000  0.50000000  1
  Zr  Zr7  1  -0.00000000  0.50000000  0.00000000  1
  N  N8  1  0.40605556  0.95519622  0.25000000  1
  N  N9  1  0.09394444  0.45519622  0.25000000  1
  N  N10  1  0.59394444  0.04480378  0.75000000  1
  N  N11  1  0.90605556  0.54480378  0.75000000  1
  O  O12  1  0.82570256  0.82317640  0.04494145  1
  O  O13  1  0.67429744  0.32317640  0.45505855  1
  O  O14  1  0.17429744  0.17682360  0.54494145  1
  O  O15  1  0.32570256  0.67682360  0.95505855  1
  O  O16  1  0.17429744  0.17682360  0.95505855  1
  O  O17  1  0.32570256  0.67682360  0.54494145  1
  O  O18  1  0.82570256  0.82317640  0.45505855  1
  O  O19  1  0.67429744  0.32317640  0.04494145  1
