# generated using pymatgen
data_TbNiGe
_symmetry_space_group_name_H-M   'P 1'
_cell_length_a   4.17114680
_cell_length_b   5.55270927
_cell_length_c   5.58654957
_cell_angle_alpha   92.97131659
_cell_angle_beta   111.92055212
_cell_angle_gamma   67.93886265
_symmetry_Int_Tables_number   1
_chemical_formula_structural   TbNiGe
_chemical_formula_sum   'Tb2 Ni2 Ge2'
_cell_volume   110.65837699
_cell_formula_units_Z   2
loop_
 _symmetry_equiv_pos_site_id
 _symmetry_equiv_pos_as_xyz
  1  'x, y, z'
loop_
 _atom_site_type_symbol
 _atom_site_label
 _atom_site_symmetry_multiplicity
 _atom_site_fract_x
 _atom_site_fract_y
 _atom_site_fract_z
 _atom_site_occupancy
  Tb  Tb0  1  0.73983015  0.71141584  0.19107613  1
  Tb  Tb1  1  0.26016985  0.28858416  0.80892387  1
  Ni  Ni2  1  0.05282086  0.11796428  0.22360600  1
  Ni  Ni3  1  0.94717914  0.88203572  0.77639400  1
  Ge  Ge4  1  0.56572896  0.26346152  0.39491944  1
  Ge  Ge5  1  0.43427104  0.73653848  0.60508056  1
