# generated using pymatgen
data_TmAlCo4
_symmetry_space_group_name_H-M   'P 1'
_cell_length_a   3.89239530
_cell_length_b   5.01683137
_cell_length_c   5.02100801
_cell_angle_alpha   119.98622806
_cell_angle_beta   90.00000000
_cell_angle_gamma   90.00000000
_symmetry_Int_Tables_number   1
_chemical_formula_structural   TmAlCo4
_chemical_formula_sum   'Tm1 Al1 Co4'
_cell_volume   84.92356975
_cell_formula_units_Z   1
loop_
 _symmetry_equiv_pos_site_id
 _symmetry_equiv_pos_as_xyz
  1  'x, y, z'
loop_
 _atom_site_type_symbol
 _atom_site_label
 _atom_site_symmetry_multiplicity
 _atom_site_fract_x
 _atom_site_fract_y
 _atom_site_fract_z
 _atom_site_occupancy
  Tm  Tm0  1  -0.00000000  0.00002196  0.00004543  1
  Al  Al1  1  -0.00000000  0.33323267  0.66656522  1
  Co  Co2  1  -0.00000000  0.66664282  0.33331019  1
  Co  Co3  1  0.50000000  0.50303077  0.00607298  1
  Co  Co4  1  0.50000000  0.50301243  0.49701094  1
  Co  Co5  1  0.50000000  0.99395935  0.49699525  1
