# generated using pymatgen
data_NbMoSe3
_symmetry_space_group_name_H-M   'P 1'
_cell_length_a   3.40023921
_cell_length_b   6.65206081
_cell_length_c   9.22155822
_cell_angle_alpha   105.20375520
_cell_angle_beta   90.00000000
_cell_angle_gamma   90.00000000
_symmetry_Int_Tables_number   1
_chemical_formula_structural   NbMoSe3
_chemical_formula_sum   'Nb2 Mo2 Se6'
_cell_volume   201.27831876
_cell_formula_units_Z   2
loop_
 _symmetry_equiv_pos_site_id
 _symmetry_equiv_pos_as_xyz
  1  'x, y, z'
loop_
 _atom_site_type_symbol
 _atom_site_label
 _atom_site_symmetry_multiplicity
 _atom_site_fract_x
 _atom_site_fract_y
 _atom_site_fract_z
 _atom_site_occupancy
  Nb  Nb0  1  0.75000000  0.68251967  0.99965812  1
  Nb  Nb1  1  0.25000000  0.31748033  0.00034188  1
  Mo  Mo2  1  0.75000000  0.89149589  0.37676073  1
  Mo  Mo3  1  0.25000000  0.10850411  0.62323927  1
  Se  Se4  1  0.75000000  0.02590492  0.83512392  1
  Se  Se5  1  0.25000000  0.97409508  0.16487608  1
  Se  Se6  1  0.75000000  0.48794086  0.20723492  1
  Se  Se7  1  0.25000000  0.51205914  0.79276508  1
  Se  Se8  1  0.75000000  0.27134665  0.48693492  1
  Se  Se9  1  0.25000000  0.72865335  0.51306508  1
