# generated using pymatgen
data_Nb2FeS4
_symmetry_space_group_name_H-M   'P 1'
_cell_length_a   3.34496679
_cell_length_b   3.34496690
_cell_length_c   11.82861918
_cell_angle_alpha   90.00205368
_cell_angle_beta   89.99832808
_cell_angle_gamma   119.99727298
_symmetry_Int_Tables_number   1
_chemical_formula_structural   Nb2FeS4
_chemical_formula_sum   'Nb2 Fe1 S4'
_cell_volume   114.61995927
_cell_formula_units_Z   1
loop_
 _symmetry_equiv_pos_site_id
 _symmetry_equiv_pos_as_xyz
  1  'x, y, z'
loop_
 _atom_site_type_symbol
 _atom_site_label
 _atom_site_symmetry_multiplicity
 _atom_site_fract_x
 _atom_site_fract_y
 _atom_site_fract_z
 _atom_site_occupancy
  Nb  Nb0  1  0.99997698  0.00002501  0.74345398  1
  Nb  Nb1  1  0.00002302  0.99997499  0.25654602  1
  Fe  Fe2  1  0.00000000  -0.00000000  0.50000000  1
  S  S3  1  0.66668993  0.33330379  0.12387681  1
  S  S4  1  0.33331007  0.66669621  0.87612319  1
  S  S5  1  0.33332165  0.66667883  0.60448208  1
  S  S6  1  0.66667835  0.33332117  0.39551792  1
