# generated using pymatgen
data_NdTl2InTe4
_symmetry_space_group_name_H-M   'P 1'
_cell_length_a   7.17533587
_cell_length_b   7.17533587
_cell_length_c   7.17533587
_cell_angle_alpha   64.61371553
_cell_angle_beta   73.40285826
_cell_angle_gamma   106.59714174
_symmetry_Int_Tables_number   1
_chemical_formula_structural   NdTl2InTe4
_chemical_formula_sum   'Nd1 Tl2 In1 Te4'
_cell_volume   282.08722987
_cell_formula_units_Z   1
loop_
 _symmetry_equiv_pos_site_id
 _symmetry_equiv_pos_as_xyz
  1  'x, y, z'
loop_
 _atom_site_type_symbol
 _atom_site_label
 _atom_site_symmetry_multiplicity
 _atom_site_fract_x
 _atom_site_fract_y
 _atom_site_fract_z
 _atom_site_occupancy
  Nd  Nd0  1  0.50000000  0.25000000  0.25000000  1
  Tl  Tl1  1  0.00000000  0.25000000  0.75000000  1
  Tl  Tl2  1  0.00000000  0.75000000  0.25000000  1
  In  In3  1  0.50000000  0.75000000  0.75000000  1
  Te  Te4  1  0.50000000  0.33761787  0.78846086  1
  Te  Te5  1  0.50000000  0.71153914  0.16238213  1
  Te  Te6  1  0.12607874  0.78846086  0.71153914  1
  Te  Te7  1  0.87392126  0.16238213  0.33761787  1
