# generated using pymatgen
data_Na2PrO3
_symmetry_space_group_name_H-M   'P 1'
_cell_length_a   3.60109675
_cell_length_b   4.77495195
_cell_length_c   6.05214878
_cell_angle_alpha   66.76620249
_cell_angle_beta   72.69215270
_cell_angle_gamma   90.00000000
_symmetry_Int_Tables_number   1
_chemical_formula_structural   Na2PrO3
_chemical_formula_sum   'Na2 Pr1 O3'
_cell_volume   90.47690508
_cell_formula_units_Z   1
loop_
 _symmetry_equiv_pos_site_id
 _symmetry_equiv_pos_as_xyz
  1  'x, y, z'
loop_
 _atom_site_type_symbol
 _atom_site_label
 _atom_site_symmetry_multiplicity
 _atom_site_fract_x
 _atom_site_fract_y
 _atom_site_fract_z
 _atom_site_occupancy
  Na  Na0  1  0.32873303  0.32873303  0.34253293  1
  Na  Na1  1  0.67126697  0.67126697  0.65746707  1
  Pr  Pr2  1  0.00000000  -0.00000000  0.00000000  1
  O  O3  1  0.00000000  0.50000000  0.00000000  1
  O  O4  1  0.34967765  0.84967765  0.30064370  1
  O  O5  1  0.65032235  0.15032235  0.69935630  1
