# generated using pymatgen
data_Nb6BiSe8
_symmetry_space_group_name_H-M   'P 1'
_cell_length_a   3.46801098
_cell_length_b   10.16705411
_cell_length_c   10.16370196
_cell_angle_alpha   60.04183110
_cell_angle_beta   89.99654761
_cell_angle_gamma   89.99931262
_symmetry_Int_Tables_number   1
_chemical_formula_structural   Nb6BiSe8
_chemical_formula_sum   'Nb6 Bi1 Se8'
_cell_volume   310.48531166
_cell_formula_units_Z   1
loop_
 _symmetry_equiv_pos_site_id
 _symmetry_equiv_pos_as_xyz
  1  'x, y, z'
loop_
 _atom_site_type_symbol
 _atom_site_label
 _atom_site_symmetry_multiplicity
 _atom_site_fract_x
 _atom_site_fract_y
 _atom_site_fract_z
 _atom_site_occupancy
  Nb  Nb0  1  0.74916781  0.37961567  0.51240956  1
  Nb  Nb1  1  0.74920509  0.10818971  0.37916283  1
  Nb  Nb2  1  0.74918846  0.51280460  0.10799471  1
  Nb  Nb3  1  0.25083219  0.62038433  0.48759044  1
  Nb  Nb4  1  0.25079491  0.89181029  0.62083717  1
  Nb  Nb5  1  0.25081154  0.48719540  0.89200529  1
  Bi  Bi6  1  0.50000000  0.00000000  0.00000000  1
  Se  Se7  1  0.74988322  0.05877477  0.66264367  1
  Se  Se8  1  0.74988467  0.27870946  0.05878232  1
  Se  Se9  1  0.74983993  0.66249814  0.27855961  1
  Se  Se10  1  0.25011678  0.94122523  0.33735633  1
  Se  Se11  1  0.25011533  0.72129054  0.94121768  1
  Se  Se12  1  0.25016007  0.33750186  0.72144039  1
  Se  Se13  1  0.75005643  0.66665091  0.66678488  1
  Se  Se14  1  0.24994357  0.33334909  0.33321512  1
