# generated using pymatgen
data_Nb2(CrSi)3
_symmetry_space_group_name_H-M   'P 1'
_cell_length_a   4.86236614
_cell_length_b   7.26378425
_cell_length_c   7.13819547
_cell_angle_alpha   60.56996296
_cell_angle_beta   90.00449372
_cell_angle_gamma   90.00300795
_symmetry_Int_Tables_number   1
_chemical_formula_structural   Nb2(CrSi)3
_chemical_formula_sum   'Nb4 Cr6 Si6'
_cell_volume   219.58133103
_cell_formula_units_Z   2
loop_
 _symmetry_equiv_pos_site_id
 _symmetry_equiv_pos_as_xyz
  1  'x, y, z'
loop_
 _atom_site_type_symbol
 _atom_site_label
 _atom_site_symmetry_multiplicity
 _atom_site_fract_x
 _atom_site_fract_y
 _atom_site_fract_z
 _atom_site_occupancy
  Nb  Nb0  1  0.74989369  0.00000010  0.23321721  1
  Nb  Nb1  1  0.25005283  0.75773069  0.24084998  1
  Nb  Nb2  1  0.25011847  0.24232806  0.99842073  1
  Nb  Nb3  1  0.25011665  -0.00000237  0.77733312  1
  Cr  Cr4  1  0.50230494  0.32918418  0.33329444  1
  Cr  Cr5  1  0.50221033  0.67084796  0.66244236  1
  Cr  Cr6  1  0.99783084  0.67081793  0.66245251  1
  Cr  Cr7  1  0.99760997  0.32915731  0.33329415  1
  Cr  Cr8  1  0.75001099  0.25485982  0.74913024  1
  Cr  Cr9  1  0.74994111  0.74510245  0.00391242  1
  Si  Si10  1  0.75010552  0.58790841  0.40337664  1
  Si  Si11  1  0.75016873  0.41195212  0.99129335  1
  Si  Si12  1  0.75010734  0.00012277  0.60994049  1
  Si  Si13  1  0.24985151  0.40703026  0.59127205  1
  Si  Si14  1  0.24982780  0.59283204  0.99850312  1
  Si  Si15  1  0.24984927  0.00012827  0.41126722  1
