# generated using pymatgen
data_Mn5SnO8
_symmetry_space_group_name_H-M   'P 1'
_cell_length_a   6.12924115
_cell_length_b   6.12924115
_cell_length_c   6.35051691
_cell_angle_alpha   61.14608656
_cell_angle_beta   61.14608656
_cell_angle_gamma   90.00000000
_symmetry_Int_Tables_number   1
_chemical_formula_structural   Mn5SnO8
_chemical_formula_sum   'Mn5 Sn1 O8'
_cell_volume   174.37709008
_cell_formula_units_Z   1
loop_
 _symmetry_equiv_pos_site_id
 _symmetry_equiv_pos_as_xyz
  1  'x, y, z'
loop_
 _atom_site_type_symbol
 _atom_site_label
 _atom_site_symmetry_multiplicity
 _atom_site_fract_x
 _atom_site_fract_y
 _atom_site_fract_z
 _atom_site_occupancy
  Mn  Mn0  1  0.62080370  0.37757156  0.24485688  1
  Mn  Mn1  1  0.13433943  0.37757156  0.24485688  1
  Mn  Mn2  1  0.62242844  0.86566057  0.75514312  1
  Mn  Mn3  1  0.62242844  0.37919630  0.75514312  1
  Mn  Mn4  1  0.25000000  0.75000000  0.50000000  1
  Sn  Sn5  1  0.00000000  -0.00000000  -0.00000000  1
  O  O6  1  0.39472552  0.12816756  0.74366488  1
  O  O7  1  0.86160960  0.12816756  0.74366488  1
  O  O8  1  0.38776508  0.61886141  0.76227718  1
  O  O9  1  0.84995774  0.61886141  0.76227718  1
  O  O10  1  0.87183244  0.13839040  0.25633512  1
  O  O11  1  0.87183244  0.60527448  0.25633512  1
  O  O12  1  0.38113859  0.15004226  0.23772282  1
  O  O13  1  0.38113859  0.61223492  0.23772282  1
