# generated using pymatgen
data_MnIn2(SeS)2
_symmetry_space_group_name_H-M   'P 1'
_cell_length_a   4.05524314
_cell_length_b   4.05524315
_cell_length_c   13.79791468
_cell_angle_alpha   90.00000000
_cell_angle_beta   81.54970869
_cell_angle_gamma   120.00000018
_symmetry_Int_Tables_number   1
_chemical_formula_structural   MnIn2(SeS)2
_chemical_formula_sum   'Mn1 In2 Se2 S2'
_cell_volume   193.65726965
_cell_formula_units_Z   1
loop_
 _symmetry_equiv_pos_site_id
 _symmetry_equiv_pos_as_xyz
  1  'x, y, z'
loop_
 _atom_site_type_symbol
 _atom_site_label
 _atom_site_symmetry_multiplicity
 _atom_site_fract_x
 _atom_site_fract_y
 _atom_site_fract_z
 _atom_site_occupancy
  Mn  Mn0  1  0.54001705  0.77000852  0.68997443  1
  In  In1  1  0.00594512  0.00297256  0.99108232  1
  In  In2  1  0.46554265  0.23277132  0.30168603  1
  Se  Se3  1  0.59354718  0.29677359  0.10967922  1
  Se  Se4  1  0.40813668  0.70406834  0.88779497  1
  S  S5  1  0.74958609  0.87479304  0.37562087  1
  S  S6  1  0.22922522  0.11461261  0.65616217  1
