# generated using pymatgen
data_Na3Mg2Mn4Be6Si9(SnO13)3
_symmetry_space_group_name_H-M   'P 1'
_cell_length_a   6.91375078
_cell_length_b   13.43394400
_cell_length_c   18.01978400
_cell_angle_alpha   111.88565133
_cell_angle_beta   78.95558707
_cell_angle_gamma   90.00000000
_symmetry_Int_Tables_number   1
_chemical_formula_structural   Na3Mg2Mn4Be6Si9(SnO13)3
_chemical_formula_sum   'Na6 Mg4 Mn8 Be12 Si18 Sn6 O78'
_cell_volume   1519.58085722
_cell_formula_units_Z   2
loop_
 _symmetry_equiv_pos_site_id
 _symmetry_equiv_pos_as_xyz
  1  'x, y, z'
loop_
 _atom_site_type_symbol
 _atom_site_label
 _atom_site_symmetry_multiplicity
 _atom_site_fract_x
 _atom_site_fract_y
 _atom_site_fract_z
 _atom_site_occupancy
  Na  Na0  1  0.49919480  0.50043706  0.00139341  1
  Na  Na1  1  0.83377540  0.16730887  0.33372292  1
  Na  Na2  1  0.16690281  0.83371910  0.66709942  1
  Na  Na3  1  0.49955760  0.00025196  0.99961008  1
  Na  Na4  1  0.83413820  0.66571066  0.33193959  1
  Na  Na5  1  0.16643119  0.33328668  0.66623458  1
  Mg  Mg6  1  0.66666700  0.71268088  0.16666700  1
  Mg  Mg7  1  0.00030901  0.38032012  0.50008312  1
  Mg  Mg8  1  0.33302399  0.04690399  0.83324988  1
  Mg  Mg9  1  0.16666700  0.45392797  0.16666700  1
  Mn  Mn10  1  0.49999417  0.12170565  0.49994938  1
  Mn  Mn11  1  0.83333883  0.78842326  0.83338362  1
  Mn  Mn12  1  0.83384504  0.54584447  0.83367755  1
  Mn  Mn13  1  0.16666700  0.21477819  0.16666700  1
  Mn  Mn14  1  0.49948796  0.87883292  0.49965545  1
  Mn  Mn15  1  0.33402274  0.28627647  0.83406762  1
  Mn  Mn16  1  0.66666700  0.95250964  0.16666700  1
  Mn  Mn17  1  0.99931026  0.61887485  0.49926538  1
  Be  Be18  1  0.56965253  0.20451942  0.91279460  1
  Be  Be19  1  0.90467165  0.87065633  0.24546585  1
  Be  Be20  1  0.23567308  0.53800169  0.57933463  1
  Be  Be21  1  0.51497366  0.70774282  0.91326546  1
  Be  Be22  1  0.85142288  0.37624564  0.24610696  1
  Be  Be23  1  0.18160194  0.04107842  0.57994867  1
  Be  Be24  1  0.42866135  0.79185648  0.08786715  1
  Be  Be25  1  0.76368047  0.45839181  0.42053840  1
  Be  Be26  1  0.09766092  0.12533406  0.75399937  1
  Be  Be27  1  0.48191012  0.29680468  0.08722604  1
  Be  Be28  1  0.81835934  0.96114436  0.42006754  1
  Be  Be29  1  0.15173206  0.62779675  0.75338533  1
  Si  Si30  1  0.33297245  0.50153431  0.83379535  1
  Si  Si31  1  0.66666700  0.16833563  0.16666700  1
  Si  Si32  1  0.00036055  0.83440496  0.49953765  1
  Si  Si33  1  0.83382800  0.33133178  0.83361360  1
  Si  Si34  1  0.16666700  0.99812686  0.16666700  1
  Si  Si35  1  0.49950500  0.66438418  0.49971940  1
  Si  Si36  1  0.16666700  0.66687685  0.16666700  1
  Si  Si37  1  0.50000148  0.33608000  0.50001590  1
  Si  Si38  1  0.83333152  0.00273110  0.83331710  1
  Si  Si39  1  0.66666700  0.49990303  0.16666700  1
  Si  Si40  1  0.99994639  0.16738378  0.50002818  1
  Si  Si41  1  0.33338661  0.83402260  0.83330482  1
  Si  Si42  1  0.86510373  0.75033784  0.00078734  1
  Si  Si43  1  0.19845836  0.41699695  0.33316764  1
  Si  Si44  1  0.53148454  0.08324115  0.66733665  1
  Si  Si45  1  0.13487464  0.25049531  0.00016536  1
  Si  Si46  1  0.46822927  0.91621751  0.33254566  1
  Si  Si47  1  0.80184946  0.58257150  0.66599735  1
  Sn  Sn48  1  0.99921519  0.50066709  0.00169963  1
  Sn  Sn49  1  0.33156186  0.16723780  0.33382755  1
  Sn  Sn50  1  0.66535649  0.83349032  0.66711176  1
  Sn  Sn51  1  0.00177114  0.00007625  0.99950545  1
  Sn  Sn52  1  0.33411781  0.66563446  0.33163337  1
  Sn  Sn53  1  0.66797751  0.33304556  0.66622224  1
  O  O54  1  0.37209629  0.71832114  0.14339675  1
  O  O55  1  0.70626172  0.38590130  0.47692591  1
  O  O56  1  0.03960250  0.05240005  0.81007086  1
  O  O57  1  0.48484770  0.42511270  0.14340000  1
  O  O58  1  0.82203552  0.09014847  0.47513744  1
  O  O59  1  0.15527562  0.75685531  0.80852743  1
  O  O60  1  0.15434982  0.55220752  0.80793885  1
  O  O61  1  0.48675449  0.21898478  0.14130204  1
  O  O62  1  0.82053463  0.88599477  0.47507550  1
  O  O63  1  0.03818439  0.25523658  0.80819200  1
  O  O64  1  0.37067836  0.92191795  0.14149805  1
  O  O65  1  0.70454352  0.58858888  0.47463660  1
  O  O66  1  0.62878948  0.28061828  0.85869640  1
  O  O67  1  0.96265464  0.94708690  0.19183495  1
  O  O68  1  0.29514961  0.61371158  0.52514200  1
  O  O69  1  0.51279837  0.57758527  0.85825750  1
  O  O70  1  0.84657851  0.24434974  0.19203096  1
  O  O71  1  0.17898418  0.91093568  0.52539515  1
  O  O72  1  0.84848530  0.44837970  0.18993300  1
  O  O73  1  0.17805838  0.11499488  0.52480657  1
  O  O74  1  0.51129748  0.78167703  0.85819556  1
  O  O75  1  0.96123671  0.74159138  0.18993625  1
  O  O76  1  0.29373150  0.40899620  0.52326314  1
  O  O77  1  0.62707128  0.07564140  0.85640709  1
  O  O78  1  0.99116944  0.85107730  0.00021843  1
  O  O79  1  0.32582713  0.51812682  0.33505249  1
  O  O80  1  0.65760254  0.18411782  0.66684414  1
  O  O81  1  0.00857288  0.14990298  0.00122680  1
  O  O82  1  0.34146164  0.81647811  0.33468100  1
  O  O83  1  0.67355959  0.48306797  0.66822900  1
  O  O84  1  0.00750587  0.34974032  0.99828051  1
  O  O85  1  0.34216356  0.01752586  0.33311457  1
  O  O86  1  0.67573146  0.68394068  0.66648986  1
  O  O87  1  0.99187136  0.64846311  0.99865200  1
  O  O88  1  0.32476012  0.31534318  0.33210620  1
  O  O89  1  0.65977441  0.98150597  0.66510500  1
  O  O90  1  0.16821384  0.54553983  0.09166711  1
  O  O91  1  0.50253604  0.21463335  0.42431124  1
  O  O92  1  0.83604239  0.88115469  0.75765840  1
  O  O93  1  0.74009299  0.54613895  0.09163129  1
  O  O94  1  0.07456038  0.21319697  0.42519185  1
  O  O95  1  0.40811077  0.87970121  0.75838925  1
  O  O96  1  0.40777742  0.38050693  0.75830719  1
  O  O97  1  0.74110226  0.04754392  0.09130639  1
  O  O98  1  0.07558080  0.71476536  0.42389702  1
  O  O99  1  0.83461412  0.37529374  0.75758921  1
  O  O100  1  0.16772688  0.04257480  0.09096868  1
  O  O101  1  0.50048057  0.70895282  0.42417665  1
  O  O102  1  0.83285243  0.45144316  0.90915635  1
  O  O103  1  0.16560712  0.11827311  0.24236532  1
  O  O104  1  0.49871888  0.78437053  0.57574379  1
  O  O105  1  0.25775220  0.45753534  0.90943598  1
  O  O106  1  0.59223174  0.12290453  0.24202761  1
  O  O107  1  0.92555558  0.78886574  0.57502581  1
  O  O108  1  0.59324101  0.62117466  0.24170271  1
  O  O109  1  0.92522223  0.28797796  0.57494375  1
  O  O110  1  0.25877262  0.95467212  0.90814115  1
  O  O111  1  0.16512016  0.62053972  0.24166689  1
  O  O112  1  0.49729061  0.29016229  0.57567460  1
  O  O113  1  0.83079696  0.95698911  0.90902176  1
  O  O114  1  0.76397558  0.71075566  0.91806816  1
  O  O115  1  0.09866499  0.37943440  0.25092128  1
  O  O116  1  0.43092977  0.04356647  0.58446934  1
  O  O117  1  0.31679836  0.20635240  0.91706976  1
  O  O118  1  0.64999330  0.87286088  0.25000778  1
  O  O119  1  0.98313208  0.53862799  0.58390616  1
  O  O120  1  0.23466901  0.29518011  0.08241272  1
  O  O121  1  0.56935742  0.95935350  0.41526484  1
  O  O122  1  0.90240323  0.62576413  0.74886366  1
  O  O123  1  0.68334070  0.78952010  0.08332622  1
  O  O124  1  0.01653464  0.45594864  0.41626324  1
  O  O125  1  0.35020092  0.12138882  0.74942684  1
  O  O126  1  0.38642379  0.74886747  0.00039947  1
  O  O127  1  0.72087783  0.41578152  0.33339753  1
  O  O128  1  0.05258979  0.08239162  0.66696777  1
  O  O129  1  0.61245517  0.24904999  -0.00006453  1
  O  O130  1  0.94690921  0.91513500  0.33293353  1
  O  O131  1  0.28074421  0.58209086  0.66636623  1
