# generated using pymatgen
data_K2MgH8(SO6)2
_symmetry_space_group_name_H-M   'P 1'
_cell_length_a   8.06651877
_cell_length_b   8.06651877
_cell_length_c   9.80504208
_cell_angle_alpha   94.71452678
_cell_angle_beta   94.71452678
_cell_angle_gamma   85.47097623
_symmetry_Int_Tables_number   1
_chemical_formula_structural   K2MgH8(SO6)2
_chemical_formula_sum   'K4 Mg2 H16 S4 O24'
_cell_volume   632.01480420
_cell_formula_units_Z   2
loop_
 _symmetry_equiv_pos_site_id
 _symmetry_equiv_pos_as_xyz
  1  'x, y, z'
loop_
 _atom_site_type_symbol
 _atom_site_label
 _atom_site_symmetry_multiplicity
 _atom_site_fract_x
 _atom_site_fract_y
 _atom_site_fract_z
 _atom_site_occupancy
  K  K0  1  0.09948841  0.54023356  0.29577934  1
  K  K1  1  0.53340255  0.11686952  0.29432499  1
  K  K2  1  0.88313048  0.46659745  0.70567501  1
  K  K3  1  0.45976644  0.90051159  0.70422066  1
  Mg  Mg4  1  0.00354103  0.99645897  -0.00000000  1
  Mg  Mg5  1  0.50411237  0.49588763  -0.00000000  1
  H  H6  1  0.19076284  0.69397024  0.95116389  1
  H  H7  1  0.71736623  0.19275447  0.93364545  1
  H  H8  1  0.80724553  0.28263377  0.06635455  1
  H  H9  1  0.30602976  0.80923716  0.04883611  1
  H  H10  1  0.14195207  0.68792702  0.63226816  1
  H  H11  1  0.69658290  0.14166332  0.63060561  1
  H  H12  1  0.85833668  0.30341710  0.36939439  1
  H  H13  1  0.31207298  0.85804793  0.36773184  1
  H  H14  1  0.93960468  0.93115331  0.25600895  1
  H  H15  1  0.06884669  0.06039532  0.74399105  1
  H  H16  1  0.95307198  0.91158642  0.71903812  1
  H  H17  1  0.08841358  0.04692802  0.28096188  1
  H  H18  1  0.28377648  0.54185117  0.63062731  1
  H  H19  1  0.54325801  0.27308760  0.63046359  1
  H  H20  1  0.72691240  0.45674199  0.36953641  1
  H  H21  1  0.45814883  0.71622352  0.36937269  1
  S  S22  1  0.78716486  0.78979964  0.47626027  1
  S  S23  1  0.21020036  0.21283514  0.52373973  1
  S  S24  1  0.29608292  0.30229748  0.00787937  1
  S  S25  1  0.69770252  0.70391708  -0.00787937  1
  O  O26  1  0.24872041  0.64917534  0.67931052  1
  O  O27  1  0.64893041  0.24026803  0.68395600  1
  O  O28  1  0.75973197  0.35106959  0.31604400  1
  O  O29  1  0.35082466  0.75127959  0.32068948  1
  O  O30  1  0.82508567  0.82047338  -0.01277333  1
  O  O31  1  0.17952662  0.17491433  0.01277333  1
  O  O32  1  0.35272274  0.37837630  0.14870659  1
  O  O33  1  0.62162370  0.64727726  0.85129341  1
  O  O34  1  0.19518469  0.80481531  -0.00000000  1
  O  O35  1  0.81448554  0.18551446  -0.00000000  1
  O  O36  1  0.98816438  0.00026953  0.78971601  1
  O  O37  1  -0.00026953  0.01183562  0.21028399  1
  O  O38  1  0.23041546  0.44788236  0.92794389  1
  O  O39  1  0.45668800  0.23812496  0.94668540  1
  O  O40  1  0.76187504  0.54331200  0.05331460  1
  O  O41  1  0.55211764  0.76958454  0.07205611  1
  O  O42  1  0.34706679  0.32882584  0.52800621  1
  O  O43  1  0.67117416  0.65293321  0.47199379  1
  O  O44  1  0.86137179  0.78823427  0.34234113  1
  O  O45  1  0.21176573  0.13862821  0.65765887  1
  O  O46  1  0.92335778  0.76041609  0.58853781  1
  O  O47  1  0.69252697  0.95244808  0.50887849  1
  O  O48  1  0.04755192  0.30747303  0.49112151  1
  O  O49  1  0.23958391  0.07664222  0.41146219  1
