# generated using pymatgen
data_MgSc8Ga15Cu29
_symmetry_space_group_name_H-M   'P 1'
_cell_length_a   8.28318422
_cell_length_b   8.48903980
_cell_length_c   11.74910104
_cell_angle_alpha   69.50235235
_cell_angle_beta   90.00095292
_cell_angle_gamma   90.00244452
_symmetry_Int_Tables_number   1
_chemical_formula_structural   MgSc8Ga15Cu29
_chemical_formula_sum   'Mg1 Sc8 Ga15 Cu29'
_cell_volume   773.84649589
_cell_formula_units_Z   1
loop_
 _symmetry_equiv_pos_site_id
 _symmetry_equiv_pos_as_xyz
  1  'x, y, z'
loop_
 _atom_site_type_symbol
 _atom_site_label
 _atom_site_symmetry_multiplicity
 _atom_site_fract_x
 _atom_site_fract_y
 _atom_site_fract_z
 _atom_site_occupancy
  Mg  Mg0  1  0.99999925  0.82496849  0.51516504  1
  Sc  Sc1  1  0.27762207  0.19029381  0.62554620  1
  Sc  Sc2  1  0.29062039  0.81137363  0.36582969  1
  Sc  Sc3  1  0.70938684  0.81137382  0.36583285  1
  Sc  Sc4  1  0.72237301  0.19028178  0.62556831  1
  Sc  Sc5  1  0.49999646  0.30427768  0.99894330  1
  Sc  Sc6  1  0.50000610  0.69827472  0.00022625  1
  Sc  Sc7  1  0.00000330  0.38687565  0.22911076  1
  Sc  Sc8  1  0.99999759  0.60378266  0.78240520  1
  Ga  Ga9  1  0.49999062  0.36134624  0.73827744  1
  Ga  Ga10  1  0.50000986  0.63704371  0.25795723  1
  Ga  Ga11  1  0.50000857  0.11164032  0.25635360  1
  Ga  Ga12  1  0.49999793  0.89300317  0.74265613  1
  Ga  Ga13  1  0.34069093  0.40846458  0.18184430  1
  Ga  Ga14  1  0.34113938  0.58953773  0.82055145  1
  Ga  Ga15  1  0.65886685  0.58953013  0.82055373  1
  Ga  Ga16  1  0.65930666  0.40846364  0.18185187  1
  Ga  Ga17  1  0.49998281  0.93713932  0.12664023  1
  Ga  Ga18  1  0.49999923  0.06430021  0.87451719  1
  Ga  Ga19  1  0.50000039  0.49881986  0.49915966  1
  Ga  Ga20  1  0.49997926  0.99833984  0.49929232  1
  Ga  Ga21  1  0.50000117  0.29590481  0.40198370  1
  Ga  Ga22  1  0.49999457  0.70113790  0.59567747  1
  Ga  Ga23  1  0.99999572  0.49131180  0.49868490  1
  Cu  Cu24  1  0.22300599  0.29866286  0.84632146  1
  Cu  Cu25  1  0.22023588  0.69876557  0.15496547  1
  Cu  Cu26  1  0.77847683  0.14539201  0.15466028  1
  Cu  Cu27  1  0.78115025  0.85755534  0.84322067  1
  Cu  Cu28  1  0.77978622  0.69878275  0.15495816  1
  Cu  Cu29  1  0.77697311  0.29864929  0.84631435  1
  Cu  Cu30  1  0.21884330  0.85757602  0.84320205  1
  Cu  Cu31  1  0.22154317  0.14536821  0.15466162  1
  Cu  Cu32  1  0.23920908  0.46204976  0.37682433  1
  Cu  Cu33  1  0.23625581  0.53833140  0.62221660  1
  Cu  Cu34  1  0.74779562  0.85167317  0.62647183  1
  Cu  Cu35  1  0.75855095  0.13860844  0.38351379  1
  Cu  Cu36  1  0.76374871  0.53832446  0.62223060  1
  Cu  Cu37  1  0.76080159  0.46203137  0.37682174  1
  Cu  Cu38  1  0.24143866  0.13864340  0.38349574  1
  Cu  Cu39  1  0.25219714  0.85165748  0.62646754  1
  Cu  Cu40  1  0.99999808  0.05613595  0.87300089  1
  Cu  Cu41  1  0.00000068  0.94293689  0.12514206  1
  Cu  Cu42  1  0.25111704  0.99827311  0.00041166  1
  Cu  Cu43  1  0.74888376  0.99829816  0.00042059  1
  Cu  Cu44  1  0.00000173  0.31348087  0.70128324  1
  Cu  Cu45  1  0.00000646  0.69299655  0.30405759  1
  Cu  Cu46  1  0.99999086  0.02878919  0.30430445  1
  Cu  Cu47  1  0.00001307  0.97802012  0.68503384  1
  Cu  Cu48  1  0.99999567  0.24853180  0.99746353  1
  Cu  Cu49  1  0.00002002  0.75095791  0.00218272  1
  Cu  Cu50  1  0.16468249  0.49885323  0.00244193  1
  Cu  Cu51  1  0.83531716  0.49886748  0.00244887  1
  Cu  Cu52  1  0.99999167  0.20430172  0.48083358  1
