# generated using pymatgen
data_Hf3CoS6
_symmetry_space_group_name_H-M   'P 1'
_cell_length_a   6.17541934
_cell_length_b   6.17615665
_cell_length_c   6.77418891
_cell_angle_alpha   62.86669342
_cell_angle_beta   89.99857647
_cell_angle_gamma   120.00158752
_symmetry_Int_Tables_number   1
_chemical_formula_structural   Hf3CoS6
_chemical_formula_sum   'Hf3 Co1 S6'
_cell_volume   190.20871777
_cell_formula_units_Z   1
loop_
 _symmetry_equiv_pos_site_id
 _symmetry_equiv_pos_as_xyz
  1  'x, y, z'
loop_
 _atom_site_type_symbol
 _atom_site_label
 _atom_site_symmetry_multiplicity
 _atom_site_fract_x
 _atom_site_fract_y
 _atom_site_fract_z
 _atom_site_occupancy
  Hf  Hf0  1  0.33333300  0.66666700  -0.00000000  1
  Hf  Hf1  1  0.66213027  0.32423094  0.01358514  1
  Hf  Hf2  1  0.00453673  0.00910206  0.98641486  1
  Co  Co3  1  0.83333300  0.66666700  0.50000000  1
  S  S4  1  0.91577402  0.50006347  0.26335705  1
  S  S5  1  0.58428541  0.82076737  0.26337082  1
  S  S6  1  0.23651936  0.15228336  0.26344325  1
  S  S7  1  0.43014764  0.18104964  0.73655675  1
  S  S8  1  0.08238159  0.51256563  0.73662918  1
  S  S9  1  0.75089198  0.83327053  0.73664295  1
