# generated using pymatgen
data_CaMg30CO32
_symmetry_space_group_name_H-M   'P 1'
_cell_length_a   8.55435368
_cell_length_b   8.55435368
_cell_length_c   8.54482478
_cell_angle_alpha   90.00000000
_cell_angle_beta   90.00000000
_cell_angle_gamma   90.00000000
_symmetry_Int_Tables_number   1
_chemical_formula_structural   CaMg30CO32
_chemical_formula_sum   'Ca1 Mg30 C1 O32'
_cell_volume   625.28435994
_cell_formula_units_Z   1
loop_
 _symmetry_equiv_pos_site_id
 _symmetry_equiv_pos_as_xyz
  1  'x, y, z'
loop_
 _atom_site_type_symbol
 _atom_site_label
 _atom_site_symmetry_multiplicity
 _atom_site_fract_x
 _atom_site_fract_y
 _atom_site_fract_z
 _atom_site_occupancy
  Ca  Ca0  1  -0.00000000  -0.00000000  0.00000000  1
  Mg  Mg1  1  -0.00000000  0.50000000  0.00000000  1
  Mg  Mg2  1  -0.00000000  0.50000000  0.50000000  1
  Mg  Mg3  1  0.50000000  -0.00000000  0.00000000  1
  Mg  Mg4  1  0.50000000  -0.00000000  0.50000000  1
  Mg  Mg5  1  0.50000000  0.50000000  0.00000000  1
  Mg  Mg6  1  0.50000000  0.50000000  0.50000000  1
  Mg  Mg7  1  -0.00000000  0.25124448  0.25413831  1
  Mg  Mg8  1  -0.00000000  0.25124448  0.74586169  1
  Mg  Mg9  1  -0.00000000  0.74875552  0.25413831  1
  Mg  Mg10  1  -0.00000000  0.74875552  0.74586169  1
  Mg  Mg11  1  0.50000000  0.24983015  0.25009873  1
  Mg  Mg12  1  0.50000000  0.24983015  0.74990127  1
  Mg  Mg13  1  0.50000000  0.75016985  0.25009873  1
  Mg  Mg14  1  0.50000000  0.75016985  0.74990127  1
  Mg  Mg15  1  0.25124448  -0.00000000  0.25413831  1
  Mg  Mg16  1  0.25124448  0.00000000  0.74586169  1
  Mg  Mg17  1  0.24983015  0.50000000  0.25009873  1
  Mg  Mg18  1  0.24983015  0.50000000  0.74990127  1
  Mg  Mg19  1  0.74875552  -0.00000000  0.25413831  1
  Mg  Mg20  1  0.74875552  0.00000000  0.74586169  1
  Mg  Mg21  1  0.75016985  0.50000000  0.25009873  1
  Mg  Mg22  1  0.75016985  0.50000000  0.74990127  1
  Mg  Mg23  1  0.25248454  0.25248454  0.00000000  1
  Mg  Mg24  1  0.24820148  0.24820148  0.50000000  1
  Mg  Mg25  1  0.25248454  0.74751546  0.00000000  1
  Mg  Mg26  1  0.24820148  0.75179852  0.50000000  1
  Mg  Mg27  1  0.74751546  0.25248454  0.00000000  1
  Mg  Mg28  1  0.75179852  0.24820148  0.50000000  1
  Mg  Mg29  1  0.74751546  0.74751546  0.00000000  1
  Mg  Mg30  1  0.75179852  0.75179852  0.50000000  1
  C  C31  1  -0.00000000  -0.00000000  0.50000000  1
  O  O32  1  0.26176916  -0.00000000  0.00000000  1
  O  O33  1  0.25307341  0.00000000  0.50000000  1
  O  O34  1  0.25166538  0.50000000  0.00000000  1
  O  O35  1  0.24974355  0.50000000  0.50000000  1
  O  O36  1  0.73823084  -0.00000000  0.00000000  1
  O  O37  1  0.74692659  -0.00000000  0.50000000  1
  O  O38  1  0.74833462  0.50000000  0.00000000  1
  O  O39  1  0.75025645  0.50000000  0.50000000  1
  O  O40  1  0.24931354  0.24931354  0.24995516  1
  O  O41  1  0.24931354  0.24931354  0.75004484  1
  O  O42  1  0.24931354  0.75068646  0.24995516  1
  O  O43  1  0.24931354  0.75068646  0.75004484  1
  O  O44  1  0.75068646  0.24931354  0.24995516  1
  O  O45  1  0.75068646  0.24931354  0.75004484  1
  O  O46  1  0.75068646  0.75068646  0.24995516  1
  O  O47  1  0.75068646  0.75068646  0.75004484  1
  O  O48  1  -0.00000000  -0.00000000  0.26104657  1
  O  O49  1  -0.00000000  0.00000000  0.73895343  1
  O  O50  1  -0.00000000  0.50000000  0.25216147  1
  O  O51  1  -0.00000000  0.50000000  0.74783853  1
  O  O52  1  0.50000000  -0.00000000  0.25216147  1
  O  O53  1  0.50000000  0.00000000  0.74783853  1
  O  O54  1  0.50000000  0.50000000  0.25024187  1
  O  O55  1  0.50000000  0.50000000  0.74975813  1
  O  O56  1  -0.00000000  0.26176916  0.00000000  1
  O  O57  1  -0.00000000  0.25307341  0.50000000  1
  O  O58  1  -0.00000000  0.73823084  0.00000000  1
  O  O59  1  -0.00000000  0.74692659  0.50000000  1
  O  O60  1  0.50000000  0.25166538  0.00000000  1
  O  O61  1  0.50000000  0.24974355  0.50000000  1
  O  O62  1  0.50000000  0.74833462  0.00000000  1
  O  O63  1  0.50000000  0.75025645  0.50000000  1
