# generated using pymatgen
data_Li2Ti3(GaO4)3
_symmetry_space_group_name_H-M   'P 1'
_cell_length_a   5.99711127
_cell_length_b   8.36394160
_cell_length_c   10.41016438
_cell_angle_alpha   66.33624141
_cell_angle_beta   73.28859883
_cell_angle_gamma   90.06989856
_symmetry_Int_Tables_number   1
_chemical_formula_structural   Li2Ti3(GaO4)3
_chemical_formula_sum   'Li4 Ti6 Ga6 O24'
_cell_volume   453.99680353
_cell_formula_units_Z   2
loop_
 _symmetry_equiv_pos_site_id
 _symmetry_equiv_pos_as_xyz
  1  'x, y, z'
loop_
 _atom_site_type_symbol
 _atom_site_label
 _atom_site_symmetry_multiplicity
 _atom_site_fract_x
 _atom_site_fract_y
 _atom_site_fract_z
 _atom_site_occupancy
  Li  Li0  1  0.50000000  0.00000000  0.00000000  1
  Li  Li1  1  0.00000000  0.50000000  0.00000000  1
  Li  Li2  1  0.00000000  0.50000000  0.50000000  1
  Li  Li3  1  0.50000000  0.50000000  0.50000000  1
  Ti  Ti4  1  0.66509792  0.16509792  0.16980416  1
  Ti  Ti5  1  0.33490208  0.83490208  0.83019584  1
  Ti  Ti6  1  0.67111107  0.17664846  0.66335791  1
  Ti  Ti7  1  0.32888893  0.82335154  0.33664209  1
  Ti  Ti8  1  0.16553102  0.65999363  0.66335791  1
  Ti  Ti9  1  0.83446898  0.34000637  0.33664209  1
  Ga  Ga10  1  0.58720111  0.46409973  0.83298349  1
  Ga  Ga11  1  0.41279889  0.53590027  0.16701651  1
  Ga  Ga12  1  0.07981540  0.20291678  0.83298349  1
  Ga  Ga13  1  0.92018460  0.79708322  0.16701651  1
  Ga  Ga14  1  0.82630096  0.82630096  0.84739809  1
  Ga  Ga15  1  0.17369904  0.17369904  0.15260191  1
  O  O16  1  0.66215566  0.39509092  0.67860076  1
  O  O17  1  0.33784434  0.60490908  0.32139924  1
  O  O18  1  0.15924358  0.42630832  0.67860076  1
  O  O19  1  0.84075642  0.57369168  0.32139924  1
  O  O20  1  0.49937568  0.74526998  0.99120065  1
  O  O21  1  0.50062432  0.25473002  0.00879935  1
  O  O22  1  0.00942367  0.76352937  0.99120065  1
  O  O23  1  0.99057633  0.23647063  0.00879935  1
  O  O24  1  0.04555636  0.73627179  0.50000000  1
  O  O25  1  0.54872102  0.26128450  0.50000000  1
  O  O26  1  0.95444364  0.26372821  0.50000000  1
  O  O27  1  0.45127898  0.73871550  0.50000000  1
  O  O28  1  0.64457239  0.92332497  0.70405715  1
  O  O29  1  0.35542761  0.07667503  0.29594285  1
  O  O30  1  0.15137046  0.87261788  0.70405715  1
  O  O31  1  0.84862954  0.12738212  0.29594285  1
  O  O32  1  0.17282945  0.92418560  0.17228367  1
  O  O33  1  0.34133834  0.07846079  0.82444802  1
  O  O34  1  0.66578637  0.40290882  0.17555198  1
  O  O35  1  0.84511312  0.59646927  0.82771633  1
  O  O36  1  0.82717055  0.07581440  0.82771633  1
  O  O37  1  0.65866166  0.92153921  0.17555198  1
  O  O38  1  0.33421363  0.59709118  0.82444802  1
  O  O39  1  0.15488688  0.40353073  0.17228367  1
