# generated using pymatgen
data_LuBO3
_symmetry_space_group_name_H-M   'P 1'
_cell_length_a   3.87322624
_cell_length_b   3.87329674
_cell_length_c   8.44205359
_cell_angle_alpha   90.00007392
_cell_angle_beta   89.99983950
_cell_angle_gamma   63.83206283
_symmetry_Int_Tables_number   1
_chemical_formula_structural   LuBO3
_chemical_formula_sum   'Lu2 B2 O6'
_cell_volume   113.66814197
_cell_formula_units_Z   2
loop_
 _symmetry_equiv_pos_site_id
 _symmetry_equiv_pos_as_xyz
  1  'x, y, z'
loop_
 _atom_site_type_symbol
 _atom_site_label
 _atom_site_symmetry_multiplicity
 _atom_site_fract_x
 _atom_site_fract_y
 _atom_site_fract_z
 _atom_site_occupancy
  Lu  Lu0  1  0.93913221  0.06087298  0.50000376  1
  Lu  Lu1  1  0.93912674  0.06087850  0.00000245  1
  B  B2  1  0.23891490  0.50029519  0.74999999  1
  B  B3  1  0.49971402  0.76107698  0.24999938  1
  O  O4  1  0.32667989  0.32977404  0.60017755  1
  O  O5  1  0.67023033  0.67331568  0.39981987  1
  O  O6  1  0.67022348  0.67331778  0.10017777  1
  O  O7  1  0.32668371  0.32976679  0.89982244  1
  O  O8  1  0.02929167  0.89298743  0.74999824  1
  O  O9  1  0.10700304  0.97071463  0.24999853  1
