# generated using pymatgen
data_LuAlNi
_symmetry_space_group_name_H-M   'P 1'
_cell_length_a   5.26568293
_cell_length_b   5.31988344
_cell_length_c   8.39627277
_cell_angle_alpha   90.00000000
_cell_angle_beta   90.00000000
_cell_angle_gamma   120.33568409
_symmetry_Int_Tables_number   1
_chemical_formula_structural   LuAlNi
_chemical_formula_sum   'Lu4 Al4 Ni4'
_cell_volume   202.99951371
_cell_formula_units_Z   4
loop_
 _symmetry_equiv_pos_site_id
 _symmetry_equiv_pos_as_xyz
  1  'x, y, z'
loop_
 _atom_site_type_symbol
 _atom_site_label
 _atom_site_symmetry_multiplicity
 _atom_site_fract_x
 _atom_site_fract_y
 _atom_site_fract_z
 _atom_site_occupancy
  Lu  Lu0  1  0.66610169  0.33303111  0.54665779  1
  Lu  Lu1  1  0.33866475  0.66936026  0.42700487  1
  Lu  Lu2  1  0.33866475  0.66936026  0.07299513  1
  Lu  Lu3  1  0.66610169  0.33303111  0.95334221  1
  Al  Al4  1  0.99137580  0.99567766  0.48750652  1
  Al  Al5  1  0.99137580  0.99567766  0.01249348  1
  Al  Al6  1  0.17304155  0.34140909  0.75000000  1
  Al  Al7  1  0.17301272  0.83161331  0.75000000  1
  Ni  Ni8  1  0.66367230  0.83184888  0.75000000  1
  Ni  Ni9  1  0.83036358  0.66073430  0.25000000  1
  Ni  Ni10  1  0.83039674  0.16962135  0.25000000  1
  Ni  Ni11  1  0.33722861  0.16863500  0.25000000  1
