# generated using pymatgen
data_Ho4CrSe7
_symmetry_space_group_name_H-M   'P 1'
_cell_length_a   3.96593477
_cell_length_b   6.80707660
_cell_length_c   11.92557868
_cell_angle_alpha   104.90433554
_cell_angle_beta   90.00000000
_cell_angle_gamma   73.06362234
_symmetry_Int_Tables_number   1
_chemical_formula_structural   Ho4CrSe7
_chemical_formula_sum   'Ho4 Cr1 Se7'
_cell_volume   296.64386641
_cell_formula_units_Z   1
loop_
 _symmetry_equiv_pos_site_id
 _symmetry_equiv_pos_as_xyz
  1  'x, y, z'
loop_
 _atom_site_type_symbol
 _atom_site_label
 _atom_site_symmetry_multiplicity
 _atom_site_fract_x
 _atom_site_fract_y
 _atom_site_fract_z
 _atom_site_occupancy
  Ho  Ho0  1  0.69377638  0.61244724  0.20700555  1
  Ho  Ho1  1  0.30670198  0.38659603  0.80164180  1
  Ho  Ho2  1  0.99856096  0.00287808  0.00733268  1
  Ho  Ho3  1  0.11329794  0.77340411  0.56325043  1
  Cr  Cr4  1  0.88444455  0.23111089  0.42513986  1
  Se  Se5  1  0.74716077  0.50567846  0.63480690  1
  Se  Se6  1  0.27227196  0.45545609  0.35196039  1
  Se  Se7  1  0.33577919  0.32844162  0.05095736  1
  Se  Se8  1  0.65996749  0.68006502  0.94864346  1
  Se  Se9  1  0.03081642  0.93836717  0.23012729  1
  Se  Se10  1  0.96461063  0.07077874  0.78498362  1
  Se  Se11  1  0.49261172  0.01477656  0.49415066  1
