# generated using pymatgen
data_Gd2TiCuO6
_symmetry_space_group_name_H-M   'P 1'
_cell_length_a   5.40091427
_cell_length_b   5.76107541
_cell_length_c   7.55100662
_cell_angle_alpha   90.00000000
_cell_angle_beta   89.60411736
_cell_angle_gamma   90.00000000
_symmetry_Int_Tables_number   1
_chemical_formula_structural   Gd2TiCuO6
_chemical_formula_sum   'Gd4 Ti2 Cu2 O12'
_cell_volume   234.94452415
_cell_formula_units_Z   2
loop_
 _symmetry_equiv_pos_site_id
 _symmetry_equiv_pos_as_xyz
  1  'x, y, z'
loop_
 _atom_site_type_symbol
 _atom_site_label
 _atom_site_symmetry_multiplicity
 _atom_site_fract_x
 _atom_site_fract_y
 _atom_site_fract_z
 _atom_site_occupancy
  Gd  Gd0  1  0.48133458  0.07122135  0.24948822  1
  Gd  Gd1  1  0.01866542  0.57122135  0.25051178  1
  Gd  Gd2  1  0.51866542  0.92877865  0.75051178  1
  Gd  Gd3  1  0.98133458  0.42877865  0.74948822  1
  Ti  Ti4  1  0.50000000  0.50000000  0.50000000  1
  Ti  Ti5  1  0.00000000  0.00000000  -0.00000000  1
  Cu  Cu6  1  0.50000000  0.50000000  -0.00000000  1
  Cu  Cu7  1  0.00000000  0.00000000  0.50000000  1
  O  O8  1  0.61077630  0.45988586  0.25100988  1
  O  O9  1  0.88922370  0.95988586  0.24899012  1
  O  O10  1  0.38922370  0.54011414  0.74899012  1
  O  O11  1  0.11077630  0.04011414  0.75100988  1
  O  O12  1  0.29378463  0.82062882  0.05480530  1
  O  O13  1  0.20621537  0.32062882  0.44519470  1
  O  O14  1  0.68137755  0.20906061  0.55910669  1
  O  O15  1  0.81862245  0.70906061  0.94089331  1
  O  O16  1  0.70621537  0.17937118  0.94519470  1
  O  O17  1  0.79378463  0.67937118  0.55480530  1
  O  O18  1  0.31862245  0.79093939  0.44089331  1
  O  O19  1  0.18137755  0.29093939  0.05910669  1
