# generated using pymatgen
data_FeCu2SbO6
_symmetry_space_group_name_H-M   'P 1'
_cell_length_a   8.39704533
_cell_length_b   8.39704533
_cell_length_c   8.39704533
_cell_angle_alpha   70.25559042
_cell_angle_beta   70.62531863
_cell_angle_gamma   109.29492658
_symmetry_Int_Tables_number   1
_chemical_formula_structural   FeCu2SbO6
_chemical_formula_sum   'Fe4 Cu8 Sb4 O24'
_cell_volume   455.77445902
_cell_formula_units_Z   4
loop_
 _symmetry_equiv_pos_site_id
 _symmetry_equiv_pos_as_xyz
  1  'x, y, z'
loop_
 _atom_site_type_symbol
 _atom_site_label
 _atom_site_symmetry_multiplicity
 _atom_site_fract_x
 _atom_site_fract_y
 _atom_site_fract_z
 _atom_site_occupancy
  Fe  Fe0  1  0.46088749  0.25000000  0.28911251  1
  Fe  Fe1  1  0.03911251  0.75000000  0.21088749  1
  Fe  Fe2  1  0.53911251  0.75000000  0.71088749  1
  Fe  Fe3  1  0.96088749  0.25000000  0.78911251  1
  Cu  Cu4  1  0.77873214  0.52873214  0.75000000  1
  Cu  Cu5  1  0.72126786  0.97126786  0.25000000  1
  Cu  Cu6  1  0.75000000  0.22258116  0.52741884  1
  Cu  Cu7  1  0.25000000  0.27741884  0.97258116  1
  Cu  Cu8  1  0.22126786  0.47126786  0.25000000  1
  Cu  Cu9  1  0.27873214  0.02873214  0.75000000  1
  Cu  Cu10  1  0.25000000  0.77741884  0.47258116  1
  Cu  Cu11  1  0.75000000  0.72258116  0.02741884  1
  Sb  Sb12  1  0.50000000  0.00000000  -0.00000000  1
  Sb  Sb13  1  0.00000000  0.50000000  -0.00000000  1
  Sb  Sb14  1  0.50000000  0.50000000  0.50000000  1
  Sb  Sb15  1  0.00000000  0.00000000  0.50000000  1
  O  O16  1  0.72170118  0.95041143  0.01268547  1
  O  O17  1  0.03690310  0.54958857  0.72871025  1
  O  O18  1  0.46309690  0.73438665  0.48731453  1
  O  O19  1  0.77829882  0.76561335  0.77128975  1
  O  O20  1  0.22813727  0.30135559  0.72738962  1
  O  O21  1  0.52874521  0.95552688  0.77261038  1
  O  O22  1  0.27186273  0.54447312  0.92678167  1
  O  O23  1  0.97125479  0.19864441  0.57321833  1
  O  O24  1  0.06849269  0.77140186  0.95184315  1
  O  O25  1  0.43150731  0.47966416  0.29709083  1
  O  O26  1  0.27675500  0.72859814  0.20290917  1
  O  O27  1  0.22324500  0.02033584  0.54815685  1
  O  O28  1  0.27829882  0.04958857  0.98731453  1
  O  O29  1  0.96309690  0.45041143  0.27128975  1
  O  O30  1  0.53690310  0.26561335  0.51268547  1
  O  O31  1  0.22170118  0.23438665  0.22871025  1
  O  O32  1  0.77186273  0.69864441  0.27261038  1
  O  O33  1  0.47125479  0.04447312  0.22738962  1
  O  O34  1  0.72813727  0.45552688  0.07321833  1
  O  O35  1  0.02874521  0.80135559  0.42678167  1
  O  O36  1  0.93150731  0.22859814  0.04815685  1
  O  O37  1  0.56849269  0.52033584  0.70290917  1
  O  O38  1  0.72324500  0.27140186  0.79709083  1
  O  O39  1  0.77675500  0.97966416  0.45184315  1
