# generated using pymatgen
data_Li2SnO4
_symmetry_space_group_name_H-M   'P 1'
_cell_length_a   3.15172018
_cell_length_b   5.04061552
_cell_length_c   6.33671556
_cell_angle_alpha   115.39624360
_cell_angle_beta   117.87058875
_cell_angle_gamma   90.05056178
_symmetry_Int_Tables_number   1
_chemical_formula_structural   Li2SnO4
_chemical_formula_sum   'Li2 Sn1 O4'
_cell_volume   77.79415148
_cell_formula_units_Z   1
loop_
 _symmetry_equiv_pos_site_id
 _symmetry_equiv_pos_as_xyz
  1  'x, y, z'
loop_
 _atom_site_type_symbol
 _atom_site_label
 _atom_site_symmetry_multiplicity
 _atom_site_fract_x
 _atom_site_fract_y
 _atom_site_fract_z
 _atom_site_occupancy
  Li  Li0  1  0.82039632  0.71145152  0.33359500  1
  Li  Li1  1  0.17960368  0.28854848  0.66640500  1
  Sn  Sn2  1  0.00000000  -0.00000000  -0.00000000  1
  O  O3  1  0.24627809  0.92832660  0.72967867  1
  O  O4  1  0.75372191  0.07167340  0.27032133  1
  O  O5  1  0.12285056  0.48163629  0.12479009  1
  O  O6  1  0.87714944  0.51836371  0.87520991  1
