# generated using pymatgen
data_Cr6C3N
_symmetry_space_group_name_H-M   'P 1'
_cell_length_a   2.78370275
_cell_length_b   4.82393518
_cell_length_c   7.00034569
_cell_angle_alpha   90.00000000
_cell_angle_beta   90.00000000
_cell_angle_gamma   73.23001352
_symmetry_Int_Tables_number   1
_chemical_formula_structural   Cr6C3N
_chemical_formula_sum   'Cr6 C3 N1'
_cell_volume   90.00555913
_cell_formula_units_Z   1
loop_
 _symmetry_equiv_pos_site_id
 _symmetry_equiv_pos_as_xyz
  1  'x, y, z'
loop_
 _atom_site_type_symbol
 _atom_site_label
 _atom_site_symmetry_multiplicity
 _atom_site_fract_x
 _atom_site_fract_y
 _atom_site_fract_z
 _atom_site_occupancy
  Cr  Cr0  1  0.59692606  0.80614787  0.25000000  1
  Cr  Cr1  1  0.38966906  0.22066189  0.75000000  1
  Cr  Cr2  1  0.86312348  0.27375303  0.42016695  1
  Cr  Cr3  1  0.14738061  0.70523879  0.56640460  1
  Cr  Cr4  1  0.86312348  0.27375303  0.07983305  1
  Cr  Cr5  1  0.14738061  0.70523879  0.93359540  1
  C  C6  1  0.50143827  0.99712347  0.50615629  1
  C  C7  1  0.50143827  0.99712347  0.99384371  1
  C  C8  1  0.24595855  0.50808290  0.25000000  1
  N  N9  1  0.74356161  0.51287677  0.75000000  1
