# generated using pymatgen
data_Dy2Mn9(CrGe4)3
_symmetry_space_group_name_H-M   'P 1'
_cell_length_a   5.12817600
_cell_length_b   5.12973311
_cell_length_c   16.45203666
_cell_angle_alpha   89.99782577
_cell_angle_beta   90.01323001
_cell_angle_gamma   119.81566697
_symmetry_Int_Tables_number   1
_chemical_formula_structural   Dy2Mn9(CrGe4)3
_chemical_formula_sum   'Dy2 Mn9 Cr3 Ge12'
_cell_volume   375.50149588
_cell_formula_units_Z   1
loop_
 _symmetry_equiv_pos_site_id
 _symmetry_equiv_pos_as_xyz
  1  'x, y, z'
loop_
 _atom_site_type_symbol
 _atom_site_label
 _atom_site_symmetry_multiplicity
 _atom_site_fract_x
 _atom_site_fract_y
 _atom_site_fract_z
 _atom_site_occupancy
  Dy  Dy0  1  0.99997878  0.00003310  0.99942831  1
  Dy  Dy1  1  0.99991810  0.99996051  0.49999102  1
  Mn  Mn2  1  0.50001497  0.50001522  0.62541674  1
  Mn  Mn3  1  0.99995233  0.49991503  0.12552854  1
  Mn  Mn4  1  0.99993279  0.49999588  0.62549890  1
  Mn  Mn5  1  0.50002532  0.00006534  0.37466912  1
  Mn  Mn6  1  0.50009947  0.00007175  0.87479856  1
  Mn  Mn7  1  0.49985485  0.49993590  0.37554004  1
  Mn  Mn8  1  0.49991639  0.49999914  0.87420024  1
  Mn  Mn9  1  0.00005138  0.49991272  0.37425867  1
  Mn  Mn10  1  0.99993817  0.49991106  0.87499971  1
  Cr  Cr11  1  0.50005245  0.00010558  0.12527260  1
  Cr  Cr12  1  0.50006134  0.99995153  0.62488164  1
  Cr  Cr13  1  0.50006105  0.49993530  0.12516915  1
  Ge  Ge14  1  0.00000773  0.99999747  0.17320248  1
  Ge  Ge15  1  -0.00000482  0.99999151  0.67296544  1
  Ge  Ge16  1  0.00007466  0.00010785  0.32713591  1
  Ge  Ge17  1  0.00002581  0.00003660  0.82667245  1
  Ge  Ge18  1  0.33204500  0.66469878  0.25151673  1
  Ge  Ge19  1  0.33283428  0.66730556  0.75118938  1
  Ge  Ge20  1  0.66788244  0.33534385  0.25152928  1
  Ge  Ge21  1  0.66702102  0.33265944  0.75118231  1
  Ge  Ge22  1  0.33305926  0.66650223  0.49920062  1
  Ge  Ge23  1  0.33330334  0.66652659  0.99827920  1
  Ge  Ge24  1  0.66662410  0.33350061  0.99826831  1
  Ge  Ge25  1  0.66686979  0.33352145  0.49920467  1
