# generated using pymatgen
data_CrSbTeO6
_symmetry_space_group_name_H-M   'P 1'
_cell_length_a   4.80430843
_cell_length_b   4.80430843
_cell_length_c   9.67138572
_cell_angle_alpha   90.00000000
_cell_angle_beta   90.00000000
_cell_angle_gamma   90.00000000
_symmetry_Int_Tables_number   1
_chemical_formula_structural   CrSbTeO6
_chemical_formula_sum   'Cr2 Sb2 Te2 O12'
_cell_volume   223.22892400
_cell_formula_units_Z   2
loop_
 _symmetry_equiv_pos_site_id
 _symmetry_equiv_pos_as_xyz
  1  'x, y, z'
loop_
 _atom_site_type_symbol
 _atom_site_label
 _atom_site_symmetry_multiplicity
 _atom_site_fract_x
 _atom_site_fract_y
 _atom_site_fract_z
 _atom_site_occupancy
  Cr  Cr0  1  0.50000000  0.50000000  0.16750883  1
  Cr  Cr1  1  0.00000000  -0.00000000  0.66750883  1
  Sb  Sb2  1  0.50000000  0.50000000  0.83301759  1
  Sb  Sb3  1  0.00000000  -0.00000000  0.33301759  1
  Te  Te4  1  0.50000000  0.50000000  0.49911188  1
  Te  Te5  1  -0.00000000  -0.00000000  0.99911188  1
  O  O6  1  0.19802420  0.80197580  0.17664678  1
  O  O7  1  0.18221422  0.81778578  0.49875359  1
  O  O8  1  0.20046605  0.79953395  0.82478049  1
  O  O9  1  0.80197580  0.19802420  0.17664678  1
  O  O10  1  0.81778578  0.18221422  0.49875359  1
  O  O11  1  0.79953395  0.20046605  0.82478049  1
  O  O12  1  0.29953395  0.29953395  0.32478049  1
  O  O13  1  0.30197580  0.30197580  0.67664678  1
  O  O14  1  0.31778578  0.31778578  0.99875359  1
  O  O15  1  0.70046605  0.70046605  0.32478049  1
  O  O16  1  0.69802420  0.69802420  0.67664678  1
  O  O17  1  0.68221422  0.68221422  0.99875359  1
