# generated using pymatgen
data_Co3ReB4
_symmetry_space_group_name_H-M   'P 1'
_cell_length_a   3.03302219
_cell_length_b   4.11330053
_cell_length_c   5.42679279
_cell_angle_alpha   88.61008447
_cell_angle_beta   90.00000000
_cell_angle_gamma   90.00000000
_symmetry_Int_Tables_number   1
_chemical_formula_structural   Co3ReB4
_chemical_formula_sum   'Co3 Re1 B4'
_cell_volume   67.68329125
_cell_formula_units_Z   1
loop_
 _symmetry_equiv_pos_site_id
 _symmetry_equiv_pos_as_xyz
  1  'x, y, z'
loop_
 _atom_site_type_symbol
 _atom_site_label
 _atom_site_symmetry_multiplicity
 _atom_site_fract_x
 _atom_site_fract_y
 _atom_site_fract_z
 _atom_site_occupancy
  Co  Co0  1  0.25000000  0.12931412  0.17557944  1
  Co  Co1  1  0.75000000  0.62897929  0.31837807  1
  Co  Co2  1  0.75000000  0.87436459  0.82683178  1
  Re  Re3  1  0.25000000  0.37151372  0.67951128  1
  B  B4  1  0.25000000  0.87282180  0.52077128  1
  B  B5  1  0.25000000  0.63007337  0.04552149  1
  B  B6  1  0.75000000  0.10207390  0.44856567  1
  B  B7  1  0.75000000  0.39085920  0.98484100  1
