# generated using pymatgen
data_CaMg30CO32
_symmetry_space_group_name_H-M   'P 1'
_cell_length_a   8.55244823
_cell_length_b   8.54971818
_cell_length_c   8.54971818
_cell_angle_alpha   90.00000000
_cell_angle_beta   90.00000000
_cell_angle_gamma   90.00000000
_symmetry_Int_Tables_number   1
_chemical_formula_structural   CaMg30CO32
_chemical_formula_sum   'Ca1 Mg30 C1 O32'
_cell_volume   625.16413212
_cell_formula_units_Z   1
loop_
 _symmetry_equiv_pos_site_id
 _symmetry_equiv_pos_as_xyz
  1  'x, y, z'
loop_
 _atom_site_type_symbol
 _atom_site_label
 _atom_site_symmetry_multiplicity
 _atom_site_fract_x
 _atom_site_fract_y
 _atom_site_fract_z
 _atom_site_occupancy
  Ca  Ca0  1  -0.00000000  -0.00000000  0.00000000  1
  Mg  Mg1  1  -0.00000000  -0.00000000  0.50000000  1
  Mg  Mg2  1  -0.00000000  0.50000000  0.00000000  1
  Mg  Mg3  1  0.50000000  -0.00000000  0.00000000  1
  Mg  Mg4  1  0.50000000  -0.00000000  0.50000000  1
  Mg  Mg5  1  0.50000000  0.50000000  0.00000000  1
  Mg  Mg6  1  0.50000000  0.50000000  0.50000000  1
  Mg  Mg7  1  -0.00000000  0.25481718  0.25481718  1
  Mg  Mg8  1  -0.00000000  0.25481718  0.74518282  1
  Mg  Mg9  1  -0.00000000  0.74518282  0.25481718  1
  Mg  Mg10  1  -0.00000000  0.74518282  0.74518282  1
  Mg  Mg11  1  0.50000000  0.25054427  0.25054427  1
  Mg  Mg12  1  0.50000000  0.25054427  0.74945573  1
  Mg  Mg13  1  0.50000000  0.74945573  0.25054427  1
  Mg  Mg14  1  0.50000000  0.74945573  0.74945573  1
  Mg  Mg15  1  0.25263864  -0.00000000  0.25320781  1
  Mg  Mg16  1  0.25263864  -0.00000000  0.74679219  1
  Mg  Mg17  1  0.24855242  0.50000000  0.25199372  1
  Mg  Mg18  1  0.24855242  0.50000000  0.74800628  1
  Mg  Mg19  1  0.74736136  -0.00000000  0.25320781  1
  Mg  Mg20  1  0.74736136  -0.00000000  0.74679219  1
  Mg  Mg21  1  0.75144758  0.50000000  0.25199372  1
  Mg  Mg22  1  0.75144758  0.50000000  0.74800628  1
  Mg  Mg23  1  0.25263864  0.25320781  0.00000000  1
  Mg  Mg24  1  0.24855242  0.25199372  0.50000000  1
  Mg  Mg25  1  0.25263864  0.74679219  0.00000000  1
  Mg  Mg26  1  0.24855242  0.74800628  0.50000000  1
  Mg  Mg27  1  0.74736136  0.25320781  0.00000000  1
  Mg  Mg28  1  0.75144758  0.25199372  0.50000000  1
  Mg  Mg29  1  0.74736136  0.74679219  -0.00000000  1
  Mg  Mg30  1  0.75144758  0.74800628  0.50000000  1
  C  C31  1  -0.00000000  0.50000000  0.50000000  1
  O  O32  1  0.26227129  -0.00000000  -0.00000000  1
  O  O33  1  0.25166018  -0.00000000  0.50000000  1
  O  O34  1  0.25166018  0.50000000  -0.00000000  1
  O  O35  1  0.25202625  0.50000000  0.50000000  1
  O  O36  1  0.73772871  -0.00000000  0.00000000  1
  O  O37  1  0.74833982  -0.00000000  0.50000000  1
  O  O38  1  0.74833982  0.50000000  0.00000000  1
  O  O39  1  0.74797375  0.50000000  0.50000000  1
  O  O40  1  0.24935361  0.25038778  0.25038778  1
  O  O41  1  0.24935361  0.25038778  0.74961222  1
  O  O42  1  0.24935361  0.74961222  0.25038778  1
  O  O43  1  0.24935361  0.74961222  0.74961222  1
  O  O44  1  0.75064639  0.25038778  0.25038778  1
  O  O45  1  0.75064639  0.25038778  0.74961222  1
  O  O46  1  0.75064639  0.74961222  0.25038778  1
  O  O47  1  0.75064639  0.74961222  0.74961222  1
  O  O48  1  -0.00000000  -0.00000000  0.26272864  1
  O  O49  1  -0.00000000  -0.00000000  0.73727136  1
  O  O50  1  -0.00000000  0.50000000  0.25046761  1
  O  O51  1  -0.00000000  0.50000000  0.74953239  1
  O  O52  1  0.50000000  -0.00000000  0.25225993  1
  O  O53  1  0.50000000  -0.00000000  0.74774007  1
  O  O54  1  0.50000000  0.50000000  0.25104923  1
  O  O55  1  0.50000000  0.50000000  0.74895077  1
  O  O56  1  -0.00000000  0.26272864  -0.00000000  1
  O  O57  1  -0.00000000  0.25046761  0.50000000  1
  O  O58  1  -0.00000000  0.73727136  -0.00000000  1
  O  O59  1  -0.00000000  0.74953239  0.50000000  1
  O  O60  1  0.50000000  0.25225993  0.00000000  1
  O  O61  1  0.50000000  0.25104923  0.50000000  1
  O  O62  1  0.50000000  0.74774007  -0.00000000  1
  O  O63  1  0.50000000  0.74895077  0.50000000  1
