# generated using pymatgen
data_Cr5NiAs3
_symmetry_space_group_name_H-M   'P 1'
_cell_length_a   3.64821502
_cell_length_b   6.39354672
_cell_length_c   6.39354640
_cell_angle_alpha   58.84905017
_cell_angle_beta   90.00000000
_cell_angle_gamma   90.00000000
_symmetry_Int_Tables_number   1
_chemical_formula_structural   Cr5NiAs3
_chemical_formula_sum   'Cr5 Ni1 As3'
_cell_volume   127.62628869
_cell_formula_units_Z   1
loop_
 _symmetry_equiv_pos_site_id
 _symmetry_equiv_pos_as_xyz
  1  'x, y, z'
loop_
 _atom_site_type_symbol
 _atom_site_label
 _atom_site_symmetry_multiplicity
 _atom_site_fract_x
 _atom_site_fract_y
 _atom_site_fract_z
 _atom_site_occupancy
  Cr  Cr0  1  0.50000000  0.59829239  0.40170761  1
  Cr  Cr1  1  0.50000000  0.40535811  0.00848523  1
  Cr  Cr2  1  0.50000000  0.99151477  0.59464189  1
  Cr  Cr3  1  0.00000000  0.75035968  0.00263401  1
  Cr  Cr4  1  0.00000000  0.99736599  0.24964032  1
  Ni  Ni5  1  0.00000000  0.25479290  0.74520710  1
  As  As6  1  0.00000000  0.32874747  0.34013990  1
  As  As7  1  0.00000000  0.65986010  0.67125253  1
  As  As8  1  0.50000000  0.01360859  0.98639141  1
