# generated using pymatgen
data_Cr5(Te3Se)2
_symmetry_space_group_name_H-M   'P 1'
_cell_length_a   3.85072306
_cell_length_b   3.85072258
_cell_length_c   25.06266804
_cell_angle_alpha   90.00382873
_cell_angle_beta   90.00382872
_cell_angle_gamma   59.97615254
_symmetry_Int_Tables_number   1
_chemical_formula_structural   Cr5(Te3Se)2
_chemical_formula_sum   'Cr5 Te6 Se2'
_cell_volume   321.76443397
_cell_formula_units_Z   1
loop_
 _symmetry_equiv_pos_site_id
 _symmetry_equiv_pos_as_xyz
  1  'x, y, z'
loop_
 _atom_site_type_symbol
 _atom_site_label
 _atom_site_symmetry_multiplicity
 _atom_site_fract_x
 _atom_site_fract_y
 _atom_site_fract_z
 _atom_site_occupancy
  Cr  Cr0  1  0.99995153  0.99995153  0.98894668  1
  Cr  Cr1  1  0.00008362  0.00008362  0.25641570  1
  Cr  Cr2  1  0.00003248  0.00003248  0.50041885  1
  Cr  Cr3  1  0.99968809  0.99968809  0.74381512  1
  Cr  Cr4  1  0.99995983  0.99995983  0.12319916  1
  Te  Te5  1  0.66669557  0.66669557  0.05800122  1
  Te  Te6  1  0.66662977  0.66662977  0.31531320  1
  Te  Te7  1  0.66660506  0.66660506  0.56310844  1
  Te  Te8  1  0.66679352  0.66679352  0.80928223  1
  Te  Te9  1  0.33333439  0.33333439  0.18909440  1
  Te  Te10  1  0.33346067  0.33346067  0.43885474  1
  Se  Se11  1  0.33340067  0.33340067  0.69627317  1
  Se  Se12  1  0.33336481  0.33336481  0.94227708  1
