# generated using pymatgen
data_Al4Si
_symmetry_space_group_name_H-M   'P 1'
_cell_length_a   2.84527028
_cell_length_b   2.84527028
_cell_length_c   11.48018131
_cell_angle_alpha   82.88155291
_cell_angle_beta   90.00000000
_cell_angle_gamma   120.00000000
_symmetry_Int_Tables_number   1
_chemical_formula_structural   Al4Si
_chemical_formula_sum   'Al4 Si1'
_cell_volume   79.65887168
_cell_formula_units_Z   1
loop_
 _symmetry_equiv_pos_site_id
 _symmetry_equiv_pos_as_xyz
  1  'x, y, z'
loop_
 _atom_site_type_symbol
 _atom_site_label
 _atom_site_symmetry_multiplicity
 _atom_site_fract_x
 _atom_site_fract_y
 _atom_site_fract_z
 _atom_site_occupancy
  Al  Al0  1  0.60272254  0.20544508  0.19183239  1
  Al  Al1  1  0.20137024  0.40274048  0.39588929  1
  Al  Al2  1  0.79862976  0.59725952  0.60411071  1
  Al  Al3  1  0.39727746  0.79455492  0.80816761  1
  Si  Si4  1  -0.00000000  0.00000000  0.00000000  1
