# generated using pymatgen
data_Ce4UC10
_symmetry_space_group_name_H-M   'P 1'
_cell_length_a   3.73153372
_cell_length_b   6.23027455
_cell_length_c   9.95741225
_cell_angle_alpha   108.23083180
_cell_angle_beta   100.79961040
_cell_angle_gamma   90.00000000
_symmetry_Int_Tables_number   1
_chemical_formula_structural   Ce4UC10
_chemical_formula_sum   'Ce4 U1 C10'
_cell_volume   215.55352108
_cell_formula_units_Z   1
loop_
 _symmetry_equiv_pos_site_id
 _symmetry_equiv_pos_as_xyz
  1  'x, y, z'
loop_
 _atom_site_type_symbol
 _atom_site_label
 _atom_site_symmetry_multiplicity
 _atom_site_fract_x
 _atom_site_fract_y
 _atom_site_fract_z
 _atom_site_occupancy
  Ce  Ce0  1  0.59640079  0.59640079  0.19280157  1
  Ce  Ce1  1  0.19500083  0.19500083  0.39000167  1
  Ce  Ce2  1  0.80499917  0.80499917  0.60999833  1
  Ce  Ce3  1  0.40359921  0.40359921  0.80719843  1
  U  U4  1  0.00000000  -0.00000000  0.00000000  1
  C  C5  1  0.40583413  0.79819110  0.81166826  1
  C  C6  1  0.20063275  0.59637249  0.40126550  1
  C  C7  1  0.00000000  0.39111675  0.00000000  1
  C  C8  1  0.79936725  0.19510699  0.59873450  1
  C  C9  1  0.59416587  0.98652284  0.18833174  1
  C  C10  1  0.79936725  0.40362751  0.59873450  1
  C  C11  1  0.59416587  0.20180890  0.18833174  1
  C  C12  1  0.40583413  0.01347716  0.81166826  1
  C  C13  1  0.20063275  0.80489301  0.40126550  1
  C  C14  1  -0.00000000  0.60888325  -0.00000000  1
