# generated using pymatgen
data_CeIn3(CuSe2)4
_symmetry_space_group_name_H-M   'P 1'
_cell_length_a   5.92146097
_cell_length_b   5.92146097
_cell_length_c   11.97142118
_cell_angle_alpha   90.00000000
_cell_angle_beta   90.00000000
_cell_angle_gamma   90.00000000
_symmetry_Int_Tables_number   1
_chemical_formula_structural   CeIn3(CuSe2)4
_chemical_formula_sum   'Ce1 In3 Cu4 Se8'
_cell_volume   419.76232106
_cell_formula_units_Z   1
loop_
 _symmetry_equiv_pos_site_id
 _symmetry_equiv_pos_as_xyz
  1  'x, y, z'
loop_
 _atom_site_type_symbol
 _atom_site_label
 _atom_site_symmetry_multiplicity
 _atom_site_fract_x
 _atom_site_fract_y
 _atom_site_fract_z
 _atom_site_occupancy
  Ce  Ce0  1  -0.00000000  0.00000000  0.50000000  1
  In  In1  1  0.50000000  0.00000000  0.24344558  1
  In  In2  1  -0.00000000  0.50000000  0.75655442  1
  In  In3  1  0.50000000  0.50000000  -0.00000000  1
  Cu  Cu4  1  -0.00000000  0.50000000  0.24703042  1
  Cu  Cu5  1  0.50000000  0.00000000  0.75296958  1
  Cu  Cu6  1  -0.00000000  0.00000000  -0.00000000  1
  Cu  Cu7  1  0.50000000  0.50000000  0.50000000  1
  Se  Se8  1  0.73507371  0.29303184  0.36601069  1
  Se  Se9  1  0.24842615  0.78310500  0.87716111  1
  Se  Se10  1  0.26492629  0.70696816  0.36601069  1
  Se  Se11  1  0.75157385  0.21689500  0.87716111  1
  Se  Se12  1  0.21689500  0.24842615  0.12283889  1
  Se  Se13  1  0.70696816  0.73507371  0.63398931  1
  Se  Se14  1  0.78310500  0.75157385  0.12283889  1
  Se  Se15  1  0.29303184  0.26492629  0.63398931  1
