# generated using pymatgen
data_Li9Mn2Co5O16
_symmetry_space_group_name_H-M   'P 1'
_cell_length_a   5.18875203
_cell_length_b   11.34267977
_cell_length_c   5.19973108
_cell_angle_alpha   90.00000000
_cell_angle_beta   67.74004686
_cell_angle_gamma   90.00000000
_symmetry_Int_Tables_number   1
_chemical_formula_structural   Li9Mn2Co5O16
_chemical_formula_sum   'Li9 Mn2 Co5 O16'
_cell_volume   283.22007104
_cell_formula_units_Z   1
loop_
 _symmetry_equiv_pos_site_id
 _symmetry_equiv_pos_as_xyz
  1  'x, y, z'
loop_
 _atom_site_type_symbol
 _atom_site_label
 _atom_site_symmetry_multiplicity
 _atom_site_fract_x
 _atom_site_fract_y
 _atom_site_fract_z
 _atom_site_occupancy
  Li  Li0  1  0.50000000  0.12220579  0.00000000  1
  Li  Li1  1  0.50000000  0.24745578  0.50000000  1
  Li  Li2  1  0.50000000  0.37133996  0.00000000  1
  Li  Li3  1  0.50000000  0.50351957  0.50000000  1
  Li  Li4  1  0.50000000  0.63295103  0.00000000  1
  Li  Li5  1  0.50000000  0.75509840  0.50000000  1
  Li  Li6  1  0.50000000  0.87109902  0.00000000  1
  Li  Li7  1  0.50000000  0.99408651  0.50000000  1
  Li  Li8  1  -0.00000000  0.87277787  0.50000000  1
  Mn  Mn9  1  -0.00000000  0.99958834  0.00000000  1
  Mn  Mn10  1  -0.00000000  0.50087475  0.00000000  1
  Co  Co11  1  -0.00000000  0.12464379  0.50000000  1
  Co  Co12  1  -0.00000000  0.25002097  0.00000000  1
  Co  Co13  1  -0.00000000  0.37294231  0.50000000  1
  Co  Co14  1  -0.00000000  0.63090539  0.50000000  1
  Co  Co15  1  -0.00000000  0.75078095  0.00000000  1
  O  O16  1  0.23305467  0.12705772  0.77304054  1
  O  O17  1  0.22277605  0.25134193  0.27028056  1
  O  O18  1  0.23472511  0.37534422  0.77330727  1
  O  O19  1  0.20413656  0.49805026  0.25295536  1
  O  O20  1  0.23607224  0.62224095  0.77783952  1
  O  O21  1  0.22787892  0.74183942  0.26396960  1
  O  O22  1  0.23629342  0.87635479  0.78458049  1
  O  O23  1  0.21014368  0.00762549  0.24517252  1
  O  O24  1  0.76694533  0.12705772  0.22695946  1
  O  O25  1  0.77722395  0.25134193  0.72971944  1
  O  O26  1  0.76527489  0.37534422  0.22669273  1
  O  O27  1  0.79586344  0.49805026  0.74704464  1
  O  O28  1  0.76392776  0.62224095  0.22216048  1
  O  O29  1  0.77212108  0.74183942  0.73603040  1
  O  O30  1  0.76370658  0.87635479  0.21541951  1
  O  O31  1  0.78985632  0.00762549  0.75482748  1
