# generated using pymatgen
data_BiAsPd6
_symmetry_space_group_name_H-M   'P 1'
_cell_length_a   4.57174835
_cell_length_b   4.57174834
_cell_length_c   7.92835250
_cell_angle_alpha   73.24281600
_cell_angle_beta   90.00000000
_cell_angle_gamma   119.99999995
_symmetry_Int_Tables_number   1
_chemical_formula_structural   BiAsPd6
_chemical_formula_sum   'Bi1 As1 Pd6'
_cell_volume   135.32230208
_cell_formula_units_Z   1
loop_
 _symmetry_equiv_pos_site_id
 _symmetry_equiv_pos_as_xyz
  1  'x, y, z'
loop_
 _atom_site_type_symbol
 _atom_site_label
 _atom_site_symmetry_multiplicity
 _atom_site_fract_x
 _atom_site_fract_y
 _atom_site_fract_z
 _atom_site_occupancy
  Bi  Bi0  1  0.50000000  0.00000000  0.50000000  1
  As  As1  1  0.00000000  0.00000000  0.00000000  1
  Pd  Pd2  1  0.63292436  0.26584871  0.10122693  1
  Pd  Pd3  1  0.11449849  0.22899699  0.65650452  1
  Pd  Pd4  1  0.88550151  0.77100301  0.34349548  1
  Pd  Pd5  1  0.36707564  0.73415129  0.89877307  1
  Pd  Pd6  1  0.24556662  0.49113323  0.26330015  1
  Pd  Pd7  1  0.75443338  0.50886677  0.73669985  1
