# generated using pymatgen
data_Co3Cu(SnS4)2
_symmetry_space_group_name_H-M   'P 1'
_cell_length_a   7.08797247
_cell_length_b   7.05232346
_cell_length_c   7.16164549
_cell_angle_alpha   90.00000000
_cell_angle_beta   59.65556649
_cell_angle_gamma   119.83376429
_symmetry_Int_Tables_number   1
_chemical_formula_structural   Co3Cu(SnS4)2
_chemical_formula_sum   'Co3 Cu1 Sn2 S8'
_cell_volume   252.44656808
_cell_formula_units_Z   1
loop_
 _symmetry_equiv_pos_site_id
 _symmetry_equiv_pos_as_xyz
  1  'x, y, z'
loop_
 _atom_site_type_symbol
 _atom_site_label
 _atom_site_symmetry_multiplicity
 _atom_site_fract_x
 _atom_site_fract_y
 _atom_site_fract_z
 _atom_site_occupancy
  Co  Co0  1  0.74138868  0.87069434  0.87930566  1
  Co  Co1  1  0.49958039  0.00165402  0.50020980  1
  Co  Co2  1  0.49958039  0.49792638  0.50020980  1
  Cu  Cu3  1  0.26327862  0.13163931  0.11836069  1
  Sn  Sn4  1  0.99930705  0.49965353  0.00159272  1
  Sn  Sn5  1  0.99930705  0.49965353  0.49910023  1
  S  S6  1  0.95835039  0.73498079  0.27082481  1
  S  S7  1  0.95835039  0.22336960  0.27082481  1
  S  S8  1  0.49226919  0.24613460  0.71932887  1
  S  S9  1  0.49226919  0.24613460  0.28840194  1
  S  S10  1  0.03718837  0.25836125  0.73140581  1
  S  S11  1  0.03718837  0.77882712  0.73140581  1
  S  S12  1  0.51097095  0.75548548  0.27440752  1
  S  S13  1  0.51097095  0.75548548  0.71462153  1
