# generated using pymatgen
data_Cr8Fe3CuS16
_symmetry_space_group_name_H-M   'P 1'
_cell_length_a   6.91187944
_cell_length_b   9.74899451
_cell_length_c   6.91187944
_cell_angle_alpha   90.00000000
_cell_angle_beta   90.00000000
_cell_angle_gamma   90.00000000
_symmetry_Int_Tables_number   1
_chemical_formula_structural   Cr8Fe3CuS16
_chemical_formula_sum   'Cr8 Fe3 Cu1 S16'
_cell_volume   465.74921770
_cell_formula_units_Z   1
loop_
 _symmetry_equiv_pos_site_id
 _symmetry_equiv_pos_as_xyz
  1  'x, y, z'
loop_
 _atom_site_type_symbol
 _atom_site_label
 _atom_site_symmetry_multiplicity
 _atom_site_fract_x
 _atom_site_fract_y
 _atom_site_fract_z
 _atom_site_occupancy
  Cr  Cr0  1  0.25000000  0.75051529  0.24921910  1
  Cr  Cr1  1  0.75000000  0.24976292  0.74995529  1
  Cr  Cr2  1  0.75000000  0.24976292  0.25004471  1
  Cr  Cr3  1  0.25000000  0.75051529  0.75078090  1
  Cr  Cr4  1  0.49921910  0.49948471  0.00000000  1
  Cr  Cr5  1  -0.00004471  0.00023708  0.50000000  1
  Cr  Cr6  1  0.00078090  0.49948471  0.00000000  1
  Cr  Cr7  1  0.50004471  0.00023708  0.50000000  1
  Fe  Fe8  1  0.75000000  0.62500000  0.50000000  1
  Fe  Fe9  1  0.75000000  0.87551142  0.00000000  1
  Fe  Fe10  1  0.25000000  0.37448858  0.50000000  1
  Cu  Cu11  1  0.25000000  0.12500000  0.00000000  1
  S  S12  1  0.25000000  0.50170987  0.75843884  1
  S  S13  1  0.75000000  0.00402205  0.25585844  1
  S  S14  1  0.25000000  0.50170987  0.24156116  1
  S  S15  1  0.75000000  0.00402205  0.74414156  1
  S  S16  1  0.00843884  0.74829013  0.00000000  1
  S  S17  1  0.50585844  0.24597795  0.50000000  1
  S  S18  1  0.49156116  0.74829013  0.00000000  1
  S  S19  1  0.99414156  0.24597795  0.50000000  1
  S  S20  1  0.75000000  0.49430558  0.23515405  1
  S  S21  1  0.25000000  0.99128000  0.73213760  1
  S  S22  1  0.75000000  0.49430558  0.76484595  1
  S  S23  1  0.25000000  0.99128000  0.26786240  1
  S  S24  1  0.98213760  0.25872000  0.00000000  1
  S  S25  1  0.48515405  0.75569442  0.50000000  1
  S  S26  1  0.51786240  0.25872000  0.00000000  1
  S  S27  1  0.01484595  0.75569442  0.50000000  1
