# generated using pymatgen
data_Li12Al3Si4
_symmetry_space_group_name_H-M   'P 1'
_cell_length_a   9.11101022
_cell_length_b   9.11101022
_cell_length_c   9.11101022
_cell_angle_alpha   109.47122066
_cell_angle_beta   109.47122066
_cell_angle_gamma   109.47122063
_symmetry_Int_Tables_number   1
_chemical_formula_structural   Li12Al3Si4
_chemical_formula_sum   'Li24 Al6 Si8'
_cell_volume   582.20738543
_cell_formula_units_Z   2
loop_
 _symmetry_equiv_pos_site_id
 _symmetry_equiv_pos_as_xyz
  1  'x, y, z'
loop_
 _atom_site_type_symbol
 _atom_site_label
 _atom_site_symmetry_multiplicity
 _atom_site_fract_x
 _atom_site_fract_y
 _atom_site_fract_z
 _atom_site_occupancy
  Li  Li0  1  0.11484192  0.07850660  0.26878735  1
  Li  Li1  1  0.92149340  0.69028076  0.03633532  1
  Li  Li2  1  0.15394544  0.88515808  0.46366468  1
  Li  Li3  1  0.46366468  0.15394544  0.88515808  1
  Li  Li4  1  0.73121265  0.34605456  0.80971924  1
  Li  Li5  1  0.80971924  0.73121265  0.34605456  1
  Li  Li6  1  0.69028076  0.03633532  0.92149340  1
  Li  Li7  1  0.84605456  0.23121265  0.30971924  1
  Li  Li8  1  0.53633532  0.19028076  0.42149340  1
  Li  Li9  1  0.65394544  0.96366468  0.38515808  1
  Li  Li10  1  0.23121265  0.30971924  0.84605456  1
  Li  Li11  1  0.42149340  0.53633532  0.19028076  1
  Li  Li12  1  0.96366468  0.38515808  0.65394544  1
  Li  Li13  1  0.26878735  0.11484192  0.07850660  1
  Li  Li14  1  0.07850660  0.26878735  0.11484192  1
  Li  Li15  1  0.30971924  0.84605456  0.23121265  1
  Li  Li16  1  0.19028076  0.42149340  0.53633532  1
  Li  Li17  1  0.38515808  0.65394544  0.96366468  1
  Li  Li18  1  0.57850660  0.61484192  0.76878735  1
  Li  Li19  1  0.76878735  0.57850660  0.61484192  1
  Li  Li20  1  0.61484192  0.76878735  0.57850660  1
  Li  Li21  1  0.34605456  0.80971924  0.73121265  1
  Li  Li22  1  0.03633532  0.92149340  0.69028076  1
  Li  Li23  1  0.88515808  0.46366468  0.15394544  1
  Al  Al24  1  0.25000000  0.62500000  0.37500000  1
  Al  Al25  1  0.37500000  0.25000000  0.62500000  1
  Al  Al26  1  0.12500000  0.75000000  0.87500000  1
  Al  Al27  1  0.87500000  0.12500000  0.75000000  1
  Al  Al28  1  0.62500000  0.37500000  0.25000000  1
  Al  Al29  1  0.75000000  0.87500000  0.12500000  1
  Si  Si30  1  0.40840628  0.40840628  0.40840628  1
  Si  Si31  1  0.59159372  0.50000000  0.00000000  1
  Si  Si32  1  0.00000000  0.59159372  0.50000000  1
  Si  Si33  1  0.50000000  0.00000000  0.59159372  1
  Si  Si34  1  0.00000000  0.09159372  0.50000000  1
  Si  Si35  1  0.50000000  0.00000000  0.09159372  1
  Si  Si36  1  0.09159372  0.50000000  0.00000000  1
  Si  Si37  1  0.90840628  0.90840628  0.90840628  1
