# generated using pymatgen
data_Cr3Ga4
_symmetry_space_group_name_H-M   'P 1'
_cell_length_a   6.38115404
_cell_length_b   6.38115403
_cell_length_c   7.86638787
_cell_angle_alpha   78.38648584
_cell_angle_beta   78.38648587
_cell_angle_gamma   75.99385721
_symmetry_Int_Tables_number   1
_chemical_formula_structural   Cr3Ga4
_chemical_formula_sum   'Cr9 Ga12'
_cell_volume   300.47786437
_cell_formula_units_Z   3
loop_
 _symmetry_equiv_pos_site_id
 _symmetry_equiv_pos_as_xyz
  1  'x, y, z'
loop_
 _atom_site_type_symbol
 _atom_site_label
 _atom_site_symmetry_multiplicity
 _atom_site_fract_x
 _atom_site_fract_y
 _atom_site_fract_z
 _atom_site_occupancy
  Cr  Cr0  1  0.00000000  0.00000000  0.00000000  1
  Cr  Cr1  1  0.50581952  0.50581952  0.66222507  1
  Cr  Cr2  1  0.49418048  0.49418048  0.33777493  1
  Cr  Cr3  1  0.23004580  0.23004580  0.33914047  1
  Cr  Cr4  1  0.76995420  0.76995420  0.66085953  1
  Cr  Cr5  1  0.33166685  0.96060114  0.14258758  1
  Cr  Cr6  1  0.03939886  0.66833315  0.85741242  1
  Cr  Cr7  1  0.66833315  0.03939886  0.85741242  1
  Cr  Cr8  1  0.96060114  0.33166685  0.14258758  1
  Ga  Ga9  1  0.28701645  0.28701645  0.90205687  1
  Ga  Ga10  1  0.71298355  0.71298355  0.09794313  1
  Ga  Ga11  1  0.04771529  0.04771529  0.64842327  1
  Ga  Ga12  1  0.95228471  0.95228471  0.35157673  1
  Ga  Ga13  1  0.81094814  0.38822718  0.84478534  1
  Ga  Ga14  1  0.61177282  0.18905186  0.15521466  1
  Ga  Ga15  1  0.18905186  0.61177282  0.15521466  1
  Ga  Ga16  1  0.38822718  0.81094814  0.84478534  1
  Ga  Ga17  1  0.54437671  0.15192407  0.55911642  1
  Ga  Ga18  1  0.84807593  0.45562329  0.44088358  1
  Ga  Ga19  1  0.45562329  0.84807593  0.44088358  1
  Ga  Ga20  1  0.15192407  0.54437671  0.55911642  1
