# generated using pymatgen
data_K2CuPb(NO2)6
_symmetry_space_group_name_H-M   'P 1'
_cell_length_a   7.67846831
_cell_length_b   7.67846832
_cell_length_c   7.67846831
_cell_angle_alpha   59.99999999
_cell_angle_beta   59.99999997
_cell_angle_gamma   60.00000003
_symmetry_Int_Tables_number   1
_chemical_formula_structural   K2CuPb(NO2)6
_chemical_formula_sum   'K2 Cu1 Pb1 N6 O12'
_cell_volume   320.11703926
_cell_formula_units_Z   1
loop_
 _symmetry_equiv_pos_site_id
 _symmetry_equiv_pos_as_xyz
  1  'x, y, z'
loop_
 _atom_site_type_symbol
 _atom_site_label
 _atom_site_symmetry_multiplicity
 _atom_site_fract_x
 _atom_site_fract_y
 _atom_site_fract_z
 _atom_site_occupancy
  N  N0  1  0.80088724  0.19911276  0.80088724  1
  N  N1  1  0.19911276  0.80088724  0.80088724  1
  N  N2  1  0.80088724  0.80088724  0.19911276  1
  N  N3  1  0.19911276  0.19911276  0.80088724  1
  N  N4  1  0.80088724  0.19911276  0.19911276  1
  N  N5  1  0.19911276  0.80088724  0.19911276  1
  O  O6  1  0.35828610  0.64171390  0.84029764  1
  O  O7  1  0.15970236  0.64171390  0.35828610  1
  O  O8  1  0.84029764  0.35828610  0.64171390  1
  O  O9  1  0.64171390  0.15970236  0.84029764  1
  O  O10  1  0.35828610  0.84029764  0.15970236  1
  O  O11  1  0.15970236  0.35828610  0.84029764  1
  O  O12  1  0.84029764  0.15970236  0.35828610  1
  O  O13  1  0.64171390  0.35828610  0.15970236  1
  O  O14  1  0.84029764  0.64171390  0.15970236  1
  O  O15  1  0.64171390  0.84029764  0.35828610  1
  O  O16  1  0.15970236  0.84029764  0.64171390  1
  O  O17  1  0.35828610  0.15970236  0.64171390  1
  K  K18  1  0.25000000  0.25000000  0.25000000  1
  K  K19  1  0.75000000  0.75000000  0.75000000  1
  Cu  Cu20  1  0.00000000  0.00000000  0.00000000  1
  Pb  Pb21  1  0.50000000  0.50000000  0.50000000  1
