# generated using pymatgen
data_KSiO3
_symmetry_space_group_name_H-M   'P 1'
_cell_length_a   7.76175634
_cell_length_b   7.76175634
_cell_length_c   11.26160919
_cell_angle_alpha   90.00000000
_cell_angle_beta   90.00000000
_cell_angle_gamma   98.93433055
_symmetry_Int_Tables_number   1
_chemical_formula_structural   KSiO3
_chemical_formula_sum   'K8 Si8 O24'
_cell_volume   670.22239453
_cell_formula_units_Z   8
loop_
 _symmetry_equiv_pos_site_id
 _symmetry_equiv_pos_as_xyz
  1  'x, y, z'
loop_
 _atom_site_type_symbol
 _atom_site_label
 _atom_site_symmetry_multiplicity
 _atom_site_fract_x
 _atom_site_fract_y
 _atom_site_fract_z
 _atom_site_occupancy
  K  K0  1  0.48601821  0.98601821  0.25000000  1
  K  K1  1  0.01398179  0.51398179  0.75000000  1
  K  K2  1  0.51398179  0.01398179  0.75000000  1
  K  K3  1  0.98601821  0.48601821  0.25000000  1
  K  K4  1  0.32161161  0.32161161  0.46845687  1
  K  K5  1  0.67838839  0.67838839  0.53154313  1
  K  K6  1  0.17838839  0.17838839  0.96845687  1
  K  K7  1  0.82161161  0.82161161  0.03154313  1
  Si  Si8  1  0.99124170  0.99124170  0.31597077  1
  Si  Si9  1  0.00875830  0.00875830  0.68402923  1
  Si  Si10  1  0.50875830  0.50875830  0.81597077  1
  Si  Si11  1  0.49124170  0.49124170  0.18402923  1
  Si  Si12  1  0.80405400  0.19594600  0.50000000  1
  Si  Si13  1  0.30405400  0.69594600  -0.00000000  1
  Si  Si14  1  0.19594600  0.80405400  0.50000000  1
  Si  Si15  1  0.69594600  0.30405400  0.00000000  1
  O  O16  1  0.04456125  0.04456125  0.18035490  1
  O  O17  1  0.95543875  0.95543875  0.81964510  1
  O  O18  1  0.45543875  0.45543875  0.68035490  1
  O  O19  1  0.54456125  0.54456125  0.31964510  1
  O  O20  1  0.93710688  0.15859121  0.39067824  1
  O  O21  1  0.84140879  0.06289312  0.60932176  1
  O  O22  1  0.34140879  0.56289312  0.89067824  1
  O  O23  1  0.43710688  0.65859121  0.10932176  1
  O  O24  1  0.06289312  0.84140879  0.60932176  1
  O  O25  1  0.15859121  0.93710688  0.39067824  1
  O  O26  1  0.65859121  0.43710688  0.10932176  1
  O  O27  1  0.56289312  0.34140879  0.89067824  1
  O  O28  1  0.83322692  0.83322692  0.29041790  1
  O  O29  1  0.16677308  0.16677308  0.70958210  1
  O  O30  1  0.66677308  0.66677308  0.79041790  1
  O  O31  1  0.33322692  0.33322692  0.20958210  1
  O  O32  1  0.59964907  0.16027119  0.46561838  1
  O  O33  1  0.83972881  0.40035093  0.53438162  1
  O  O34  1  0.33972881  0.90035093  0.96561838  1
  O  O35  1  0.09964907  0.66027119  0.03438162  1
  O  O36  1  0.40035093  0.83972881  0.53438162  1
  O  O37  1  0.16027119  0.59964907  0.46561838  1
  O  O38  1  0.66027119  0.09964907  0.03438162  1
  O  O39  1  0.90035093  0.33972881  0.96561838  1
