# generated using pymatgen
data_H6S(NO2)2
_symmetry_space_group_name_H-M   'P 1'
_cell_length_a   5.71410789
_cell_length_b   8.37681446
_cell_length_c   9.15753593
_cell_angle_alpha   90.00000000
_cell_angle_beta   90.00000000
_cell_angle_gamma   90.00000000
_symmetry_Int_Tables_number   1
_chemical_formula_structural   H6S(NO2)2
_chemical_formula_sum   'H24 S4 N8 O16'
_cell_volume   438.33481262
_cell_formula_units_Z   4
loop_
 _symmetry_equiv_pos_site_id
 _symmetry_equiv_pos_as_xyz
  1  'x, y, z'
loop_
 _atom_site_type_symbol
 _atom_site_label
 _atom_site_symmetry_multiplicity
 _atom_site_fract_x
 _atom_site_fract_y
 _atom_site_fract_z
 _atom_site_occupancy
  H  H0  1  0.69674010  0.23918480  0.83198967  1
  H  H1  1  0.19674010  0.26081520  0.16801033  1
  H  H2  1  0.30325990  0.73918480  0.66801033  1
  H  H3  1  0.80325990  0.76081520  0.33198967  1
  H  H4  1  0.92982162  0.15634842  0.92403804  1
  H  H5  1  0.42982162  0.34365158  0.07596196  1
  H  H6  1  0.07017838  0.65634842  0.57596196  1
  H  H7  1  0.57017838  0.84365158  0.42403804  1
  H  H8  1  0.92901543  0.15841881  0.73611773  1
  H  H9  1  0.42901543  0.34158119  0.26388227  1
  H  H10  1  0.07098457  0.65841881  0.76388227  1
  H  H11  1  0.57098457  0.84158119  0.23611773  1
  H  H12  1  0.63575636  0.96286073  0.73470048  1
  H  H13  1  0.13575636  0.53713927  0.26529952  1
  H  H14  1  0.36424364  0.46286073  0.76529952  1
  H  H15  1  0.86424364  0.03713927  0.23470048  1
  H  H16  1  0.59875782  0.99021728  0.92310631  1
  H  H17  1  0.09875782  0.50978272  0.07689369  1
  H  H18  1  0.40124218  0.49021728  0.57689369  1
  H  H19  1  0.90124218  0.00978272  0.42310631  1
  H  H20  1  0.35907726  0.58729339  0.14382534  1
  H  H21  1  0.14092274  0.41270661  0.64382534  1
  H  H22  1  0.64092274  0.08729339  0.35617466  1
  H  H23  1  0.85907726  0.91270661  0.85617466  1
  N  N24  1  0.67486700  0.85104493  0.32870620  1
  N  N25  1  0.17486700  0.64895507  0.67129380  1
  N  N26  1  0.32513300  0.35104493  0.17129380  1
  N  N27  1  0.82513300  0.14895507  0.82870620  1
  N  N28  1  0.22179729  0.50805939  0.16650210  1
  N  N29  1  0.27820271  0.49194061  0.66650210  1
  N  N30  1  0.77820271  0.00805939  0.33349790  1
  N  N31  1  0.72179729  0.99194061  0.83349790  1
  O  O32  1  0.35140122  0.12806248  0.42547551  1
  O  O33  1  0.85140122  0.37193752  0.57452449  1
  O  O34  1  0.64859878  0.62806248  0.07452449  1
  O  O35  1  0.14859878  0.87193752  0.92547551  1
  O  O36  1  0.31898047  0.16443182  0.69138340  1
  O  O37  1  0.81898047  0.33556818  0.30861660  1
  O  O38  1  0.68101953  0.66443182  0.80861660  1
  O  O39  1  0.18101953  0.83556818  0.19138340  1
  O  O40  1  0.04756164  0.98864513  0.56592152  1
  O  O41  1  0.54756164  0.51135487  0.43407848  1
  O  O42  1  0.95243836  0.48864513  0.93407848  1
  O  O43  1  0.45243836  0.01135487  0.06592152  1
  O  O44  1  0.45787175  0.91134448  0.59063488  1
  O  O45  1  0.95787175  0.58865552  0.40936512  1
  O  O46  1  0.54212825  0.41134448  0.90936512  1
  O  O47  1  0.04212825  0.08865552  0.09063488  1
  S  S48  1  0.29272332  0.05373253  0.56751767  1
  S  S49  1  0.79272332  0.44626747  0.43248233  1
  S  S50  1  0.70727668  0.55373253  0.93248233  1
  S  S51  1  0.20727668  0.94626747  0.06751767  1
