# generated using pymatgen
data_FePO4F
_symmetry_space_group_name_H-M   'P 1'
_cell_length_a   5.36358119
_cell_length_b   5.35929564
_cell_length_c   7.42873993
_cell_angle_alpha   109.84295778
_cell_angle_beta   107.39789422
_cell_angle_gamma   96.17982454
_symmetry_Int_Tables_number   1
_chemical_formula_structural   FePO4F
_chemical_formula_sum   'Fe2 P2 O8 F2'
_cell_volume   186.39587980
_cell_formula_units_Z   2
loop_
 _symmetry_equiv_pos_site_id
 _symmetry_equiv_pos_as_xyz
  1  'x, y, z'
loop_
 _atom_site_type_symbol
 _atom_site_label
 _atom_site_symmetry_multiplicity
 _atom_site_fract_x
 _atom_site_fract_y
 _atom_site_fract_z
 _atom_site_occupancy
  O  O0  1  0.26569019  0.81045816  0.11002438  1
  O  O1  1  0.73536298  0.84767812  0.09809401  1
  O  O2  1  0.65683233  0.18782926  0.39553629  1
  O  O3  1  0.63209883  0.69272598  0.34703265  1
  O  O4  1  0.26463757  0.15232207  0.90190611  1
  O  O5  1  0.34316821  0.81217094  0.60446383  1
  O  O6  1  0.36790172  0.30727421  0.65296747  1
  O  O7  1  0.73430835  0.18954207  0.88997531  1
  F  F8  1  0.15873650  0.31913058  0.26410402  1
  F  F9  1  0.84126204  0.68086965  0.73589568  1
  P  P10  1  0.43103100  0.11023142  0.76189182  1
  P  P11  1  0.56896754  0.88976881  0.23810787  1
  Fe  Fe12  1  0.00000000  0.00000000  0.00000000  1
  Fe  Fe13  1  0.50000028  0.50000009  0.50000074  1
