# generated using pymatgen
data_Be3P2
_symmetry_space_group_name_H-M   'P 1'
_cell_length_a   10.23584974
_cell_length_b   10.23584973
_cell_length_c   12.49684399
_cell_angle_alpha   114.17577767
_cell_angle_beta   114.17577767
_cell_angle_gamma   89.99999997
_symmetry_Int_Tables_number   1
_chemical_formula_structural   Be3P2
_chemical_formula_sum   'Be48 P32'
_cell_volume   1067.36923161
_cell_formula_units_Z   16
loop_
 _symmetry_equiv_pos_site_id
 _symmetry_equiv_pos_as_xyz
  1  'x, y, z'
loop_
 _atom_site_type_symbol
 _atom_site_label
 _atom_site_symmetry_multiplicity
 _atom_site_fract_x
 _atom_site_fract_y
 _atom_site_fract_z
 _atom_site_occupancy
  Be  Be0  1  0.19322844  0.45338648  0.12352695  1
  Be  Be1  1  0.17014047  0.19322844  0.62352695  1
  Be  Be2  1  0.45338648  0.93029851  0.62352695  1
  Be  Be3  1  0.56970149  0.04661352  0.87647305  1
  Be  Be4  1  0.30677156  0.32985953  0.87647305  1
  Be  Be5  1  0.32985953  0.56970149  0.37647305  1
  Be  Be6  1  0.04661352  0.30677156  0.37647305  1
  Be  Be7  1  0.93029851  0.17014047  0.12352695  1
  Be  Be8  1  0.80677156  0.54661352  0.87647305  1
  Be  Be9  1  0.82985953  0.80677156  0.37647305  1
  Be  Be10  1  0.54661352  0.06970149  0.37647305  1
  Be  Be11  1  0.43029851  0.95338648  0.12352695  1
  Be  Be12  1  0.69322844  0.67014047  0.12352695  1
  Be  Be13  1  0.67014047  0.43029851  0.62352695  1
  Be  Be14  1  0.95338648  0.69322844  0.62352695  1
  Be  Be15  1  0.06970149  0.82985953  0.87647305  1
  Be  Be16  1  0.45195665  0.43510126  0.13456148  1
  Be  Be17  1  0.19946022  0.45195665  0.63456148  1
  Be  Be18  1  0.43510126  0.68260482  0.63456148  1
  Be  Be19  1  0.81739518  0.06489874  0.86543852  1
  Be  Be20  1  0.04804335  0.30053978  0.86543852  1
  Be  Be21  1  0.30053978  0.81739518  0.36543852  1
  Be  Be22  1  0.06489874  0.04804335  0.36543852  1
  Be  Be23  1  0.68260482  0.19946022  0.13456148  1
  Be  Be24  1  0.54804335  0.56489874  0.86543852  1
  Be  Be25  1  0.80053978  0.54804335  0.36543852  1
  Be  Be26  1  0.56489874  0.31739518  0.36543852  1
  Be  Be27  1  0.18260482  0.93510126  0.13456148  1
  Be  Be28  1  0.95195665  0.69946022  0.13456148  1
  Be  Be29  1  0.69946022  0.18260482  0.63456148  1
  Be  Be30  1  0.93510126  0.95195665  0.63456148  1
  Be  Be31  1  0.31739518  0.80053978  0.86543852  1
  Be  Be32  1  0.18900967  0.18023155  0.11118503  1
  Be  Be33  1  0.43095348  0.18900967  0.61118503  1
  Be  Be34  1  0.18023155  0.92217536  0.61118503  1
  Be  Be35  1  0.57782464  0.31976845  0.88881497  1
  Be  Be36  1  0.31099033  0.06904652  0.88881497  1
  Be  Be37  1  0.06904652  0.57782464  0.38881497  1
  Be  Be38  1  0.31976845  0.31099033  0.38881497  1
  Be  Be39  1  0.92217536  0.43095348  0.11118503  1
  Be  Be40  1  0.81099033  0.81976845  0.88881497  1
  Be  Be41  1  0.56904652  0.81099033  0.38881497  1
  Be  Be42  1  0.81976845  0.07782464  0.38881497  1
  Be  Be43  1  0.42217536  0.68023155  0.11118503  1
  Be  Be44  1  0.68900967  0.93095348  0.11118503  1
  Be  Be45  1  0.93095348  0.42217536  0.61118503  1
  Be  Be46  1  0.68023155  0.68900967  0.61118503  1
  Be  Be47  1  0.07782464  0.56904652  0.88881497  1
  P  P48  1  0.37500000  0.62500000  0.75000000  1
  P  P49  1  0.62500000  0.37500000  0.25000000  1
  P  P50  1  0.12500000  0.87500000  0.25000000  1
  P  P51  1  0.87500000  0.12500000  0.75000000  1
  P  P52  1  0.12500000  0.37500000  0.25000000  1
  P  P53  1  0.37500000  0.12500000  0.75000000  1
  P  P54  1  0.87500000  0.62500000  0.75000000  1
  P  P55  1  0.62500000  0.87500000  0.25000000  1
  P  P56  1  0.00000000  0.00000000  0.00000000  1
  P  P57  1  0.50000000  0.00000000  0.50000000  1
  P  P58  1  0.00000000  0.00000000  0.50000000  1
  P  P59  1  0.50000000  0.50000000  0.00000000  1
  P  P60  1  0.50000000  0.00000000  0.00000000  1
  P  P61  1  0.00000000  0.50000000  0.50000000  1
  P  P62  1  0.50000000  0.50000000  0.50000000  1
  P  P63  1  0.00000000  0.50000000  0.00000000  1
  P  P64  1  0.23604891  0.25000000  0.50000000  1
  P  P65  1  0.75000000  0.23604891  0.00000000  1
  P  P66  1  0.25000000  0.26395109  0.00000000  1
  P  P67  1  0.26395109  0.75000000  0.50000000  1
  P  P68  1  0.76395109  0.75000000  0.50000000  1
  P  P69  1  0.25000000  0.76395109  0.00000000  1
  P  P70  1  0.75000000  0.73604891  0.00000000  1
  P  P71  1  0.73604891  0.25000000  0.50000000  1
  P  P72  1  0.38208363  0.63208363  0.25000000  1
  P  P73  1  0.11791637  0.38208363  0.75000000  1
  P  P74  1  0.63208363  0.86791637  0.75000000  1
  P  P75  1  0.86791637  0.11791637  0.25000000  1
  P  P76  1  0.61791637  0.36791637  0.75000000  1
  P  P77  1  0.88208363  0.61791637  0.25000000  1
  P  P78  1  0.36791637  0.13208363  0.25000000  1
  P  P79  1  0.13208363  0.88208363  0.75000000  1
