# generated using pymatgen
data_K2CoPb(NO2)6
_symmetry_space_group_name_H-M   'P 1'
_cell_length_a   7.53079457
_cell_length_b   7.53079457
_cell_length_c   7.53079457
_cell_angle_alpha   60.00000004
_cell_angle_beta   60.00000004
_cell_angle_gamma   60.00000001
_symmetry_Int_Tables_number   1
_chemical_formula_structural   K2CoPb(NO2)6
_chemical_formula_sum   'K2 Co1 Pb1 N6 O12'
_cell_volume   302.00032115
_cell_formula_units_Z   1
loop_
 _symmetry_equiv_pos_site_id
 _symmetry_equiv_pos_as_xyz
  1  'x, y, z'
loop_
 _atom_site_type_symbol
 _atom_site_label
 _atom_site_symmetry_multiplicity
 _atom_site_fract_x
 _atom_site_fract_y
 _atom_site_fract_z
 _atom_site_occupancy
  N  N0  1  0.19241478  0.80758518  0.80758430  1
  N  N1  1  0.80758510  0.80758518  0.19241490  1
  N  N2  1  0.80758536  0.19241562  0.80758378  1
  N  N3  1  0.19241478  0.80758518  0.19241449  1
  N  N4  1  0.19241504  0.19241562  0.80758471  1
  N  N5  1  0.80758536  0.19241562  0.19241398  1
  O  O6  1  0.35505135  0.15261798  0.64494887  1
  O  O7  1  0.84738276  0.64494836  0.15261797  1
  O  O8  1  0.15261789  0.64494836  0.35505085  1
  O  O9  1  0.64494935  0.84738118  0.35505129  1
  O  O10  1  0.15261793  0.35505080  0.84738219  1
  O  O11  1  0.15261896  0.84738118  0.64494953  1
  O  O12  1  0.35505190  0.84738118  0.15261743  1
  O  O13  1  0.64494879  0.15261798  0.84738139  1
  O  O14  1  0.35505083  0.64494836  0.84738169  1
  O  O15  1  0.64494831  0.35505080  0.15261924  1
  O  O16  1  0.84738126  0.35505080  0.64494874  1
  O  O17  1  0.84738173  0.15261798  0.35505063  1
  K  K18  1  0.24999979  0.24999979  0.24999956  1
  K  K19  1  0.75000090  0.74999937  0.74999926  1
  Co  Co20  1  0.00000000  0.00000000  0.00000000  1
  Pb  Pb21  1  0.49999957  0.49999958  0.50000046  1
