# generated using pymatgen
data_V4Cu3S8
_symmetry_space_group_name_H-M   'P 1'
_cell_length_a   6.65381079
_cell_length_b   6.65972034
_cell_length_c   7.32693464
_cell_angle_alpha   63.00117958
_cell_angle_beta   62.99520202
_cell_angle_gamma   60.02934925
_symmetry_Int_Tables_number   1
_chemical_formula_structural   V4Cu3S8
_chemical_formula_sum   'V4 Cu3 S8'
_cell_volume   239.49648920
_cell_formula_units_Z   1
loop_
 _symmetry_equiv_pos_site_id
 _symmetry_equiv_pos_as_xyz
  1  'x, y, z'
loop_
 _atom_site_type_symbol
 _atom_site_label
 _atom_site_symmetry_multiplicity
 _atom_site_fract_x
 _atom_site_fract_y
 _atom_site_fract_z
 _atom_site_occupancy
  S  S0  1  0.23862250  0.24318429  0.78238203  1
  S  S1  1  0.73581118  0.24318429  0.78238203  1
  S  S2  1  0.24834001  0.75841962  0.23892795  1
  S  S3  1  0.75431243  0.75841962  0.23892795  1
  S  S4  1  0.23926244  0.74002164  0.78145347  1
  S  S5  1  0.27282055  0.27755083  0.17680808  1
  S  S6  1  0.75433770  0.75937163  0.73195298  1
  S  S7  1  0.75463454  0.25287429  0.23785662  1
  V  V8  1  0.00100358  0.00248029  0.99551255  1
  V  V9  1  0.52914207  0.94895036  0.99276551  1
  V  V10  1  0.52863941  0.53420409  0.99274806  1
  V  V11  1  0.94440845  0.53420409  0.99274806  1
  Cu  Cu12  1  0.33729517  0.89648223  0.42892743  1
  Cu  Cu13  1  0.89188439  0.34107637  0.42955364  1
  Cu  Cu14  1  0.33748559  0.34107637  0.42955364  1
