# generated using pymatgen
data_HfMg30BO31
_symmetry_space_group_name_H-M   'P 1'
_cell_length_a   8.52765440
_cell_length_b   8.63097372
_cell_length_c   8.63097372
_cell_angle_alpha   90.00000000
_cell_angle_beta   90.00000000
_cell_angle_gamma   90.00000000
_symmetry_Int_Tables_number   1
_chemical_formula_structural   HfMg30BO31
_chemical_formula_sum   'Hf1 Mg30 B1 O31'
_cell_volume   635.25659130
_cell_formula_units_Z   1
loop_
 _symmetry_equiv_pos_site_id
 _symmetry_equiv_pos_as_xyz
  1  'x, y, z'
loop_
 _atom_site_type_symbol
 _atom_site_label
 _atom_site_symmetry_multiplicity
 _atom_site_fract_x
 _atom_site_fract_y
 _atom_site_fract_z
 _atom_site_occupancy
  Hf  Hf0  1  0.99598701  0.50000000  0.50000000  1
  Mg  Mg1  1  0.99199425  0.00000000  0.50000000  1
  Mg  Mg2  1  0.99199425  0.50000000  0.00000000  1
  Mg  Mg3  1  0.49279879  0.00000000  0.00000000  1
  Mg  Mg4  1  0.49989181  0.00000000  0.50000000  1
  Mg  Mg5  1  0.49989181  0.50000000  0.00000000  1
  Mg  Mg6  1  0.49881128  0.50000000  0.50000000  1
  Mg  Mg7  1  0.99832396  0.23288818  0.23288818  1
  Mg  Mg8  1  0.99832396  0.23288818  0.76711182  1
  Mg  Mg9  1  0.99832396  0.76711182  0.23288818  1
  Mg  Mg10  1  0.99832396  0.76711182  0.76711182  1
  Mg  Mg11  1  0.49699629  0.24755464  0.24755464  1
  Mg  Mg12  1  0.49699629  0.24755464  0.75244536  1
  Mg  Mg13  1  0.49699629  0.75244536  0.24755464  1
  Mg  Mg14  1  0.49699629  0.75244536  0.75244536  1
  Mg  Mg15  1  0.24415302  0.00000000  0.26035591  1
  Mg  Mg16  1  0.24415302  0.00000000  0.73964409  1
  Mg  Mg17  1  0.25202473  0.50000000  0.24559136  1
  Mg  Mg18  1  0.25202473  0.50000000  0.75440864  1
  Mg  Mg19  1  0.75006534  0.00000000  0.24174797  1
  Mg  Mg20  1  0.75006534  0.00000000  0.75825203  1
  Mg  Mg21  1  0.74302551  0.50000000  0.24079696  1
  Mg  Mg22  1  0.74302551  0.50000000  0.75920304  1
  Mg  Mg23  1  0.24415302  0.26035591  0.00000000  1
  Mg  Mg24  1  0.25202473  0.24559136  0.50000000  1
  Mg  Mg25  1  0.24415302  0.73964409  0.00000000  1
  Mg  Mg26  1  0.25202473  0.75440864  0.50000000  1
  Mg  Mg27  1  0.75006534  0.24174797  0.00000000  1
  Mg  Mg28  1  0.74302551  0.24079696  0.50000000  1
  Mg  Mg29  1  0.75006534  0.75825203  0.00000000  1
  Mg  Mg30  1  0.74302551  0.75920304  0.50000000  1
  B  B31  1  0.21351518  0.00000000  0.00000000  1
  O  O32  1  0.24924345  0.00000000  0.50000000  1
  O  O33  1  0.24924345  0.50000000  0.00000000  1
  O  O34  1  0.24303427  0.50000000  0.50000000  1
  O  O35  1  0.72832165  0.00000000  0.00000000  1
  O  O36  1  0.74373735  0.00000000  0.50000000  1
  O  O37  1  0.74373735  0.50000000  0.00000000  1
  O  O38  1  0.75121915  0.50000000  0.50000000  1
  O  O39  1  0.24662136  0.25585425  0.25585425  1
  O  O40  1  0.24662136  0.25585425  0.74414575  1
  O  O41  1  0.24662136  0.74414575  0.25585425  1
  O  O42  1  0.24662136  0.74414575  0.74414575  1
  O  O43  1  0.74767767  0.25064471  0.25064471  1
  O  O44  1  0.74767767  0.25064471  0.74935529  1
  O  O45  1  0.74767767  0.74935529  0.25064471  1
  O  O46  1  0.74767767  0.74935529  0.74935529  1
  O  O47  1  0.99447597  0.00000000  0.27232140  1
  O  O48  1  0.99447597  0.00000000  0.72767860  1
  O  O49  1  0.99640103  0.50000000  0.25804916  1
  O  O50  1  0.99640103  0.50000000  0.74195084  1
  O  O51  1  0.49640904  0.00000000  0.25528184  1
  O  O52  1  0.49640904  0.00000000  0.74471816  1
  O  O53  1  0.49797081  0.50000000  0.25302515  1
  O  O54  1  0.49797081  0.50000000  0.74697485  1
  O  O55  1  0.99447597  0.27232140  0.00000000  1
  O  O56  1  0.99640103  0.25804916  0.50000000  1
  O  O57  1  0.99447597  0.72767860  0.00000000  1
  O  O58  1  0.99640103  0.74195084  0.50000000  1
  O  O59  1  0.49640904  0.25528184  0.00000000  1
  O  O60  1  0.49797081  0.25302515  0.50000000  1
  O  O61  1  0.49640904  0.74471816  0.00000000  1
  O  O62  1  0.49797081  0.74697485  0.50000000  1
