# generated using pymatgen
data_H2O2
_symmetry_space_group_name_H-M   'P 1'
_cell_length_a   4.14483891
_cell_length_b   4.14483891
_cell_length_c   7.70503810
_cell_angle_alpha   90.00000000
_cell_angle_beta   90.00000000
_cell_angle_gamma   90.00000000
_symmetry_Int_Tables_number   1
_chemical_formula_structural   H2O2
_chemical_formula_sum   'H8 O8'
_cell_volume   132.37016284
_cell_formula_units_Z   4
loop_
 _symmetry_equiv_pos_site_id
 _symmetry_equiv_pos_as_xyz
  1  'x, y, z'
loop_
 _atom_site_type_symbol
 _atom_site_label
 _atom_site_symmetry_multiplicity
 _atom_site_fract_x
 _atom_site_fract_y
 _atom_site_fract_z
 _atom_site_occupancy
  H  H0  1  0.69649316  0.07380032  0.37485271  1
  H  H1  1  0.30350684  0.92619968  0.87485271  1
  H  H2  1  0.07380032  0.69649316  0.62514729  1
  H  H3  1  0.57380032  0.80350684  0.12485271  1
  H  H4  1  0.42619968  0.19649316  0.62485271  1
  H  H5  1  0.80350684  0.57380032  0.87514729  1
  H  H6  1  0.19649316  0.42619968  0.37514729  1
  H  H7  1  0.92619968  0.30350684  0.12514729  1
  O  O8  1  0.81427918  0.94960053  0.28132501  1
  O  O9  1  0.18572082  0.05039947  0.78132501  1
  O  O10  1  0.94960053  0.81427918  0.71867499  1
  O  O11  1  0.44960053  0.68572082  0.03132501  1
  O  O12  1  0.55039947  0.31427918  0.53132501  1
  O  O13  1  0.68572082  0.44960053  0.96867499  1
  O  O14  1  0.31427918  0.55039947  0.46867499  1
  O  O15  1  0.05039947  0.18572082  0.21867499  1
