# generated using pymatgen
data_LiMn2(PO4)3
_symmetry_space_group_name_H-M   'P 1'
_cell_length_a   8.59890589
_cell_length_b   8.59890589
_cell_length_c   6.23522508
_cell_angle_alpha   74.30797098
_cell_angle_beta   105.69202894
_cell_angle_gamma   87.52105510
_symmetry_Int_Tables_number   1
_chemical_formula_structural   LiMn2(PO4)3
_chemical_formula_sum   'Li2 Mn4 P6 O24'
_cell_volume   423.93039796
_cell_formula_units_Z   2
loop_
 _symmetry_equiv_pos_site_id
 _symmetry_equiv_pos_as_xyz
  1  'x, y, z'
loop_
 _atom_site_type_symbol
 _atom_site_label
 _atom_site_symmetry_multiplicity
 _atom_site_fract_x
 _atom_site_fract_y
 _atom_site_fract_z
 _atom_site_occupancy
  Li  Li0  1  0.49999944  0.50000040  0.49999916  1
  Li  Li1  1  0.50000013  0.49999988  0.00000009  1
  O  O2  1  0.18250690  0.83357781  0.10939867  1
  O  O3  1  0.93865480  0.40789712  0.66966623  1
  O  O4  1  0.84798556  0.74234615  0.47384625  1
  O  O5  1  0.74234573  0.84798512  0.02615327  1
  O  O6  1  0.03227142  0.64325497  0.91567100  1
  O  O7  1  0.06134549  0.59210249  0.33033466  1
  O  O8  1  0.15201454  0.25765469  0.52615412  1
  O  O9  1  0.25765454  0.15201450  0.97384599  1
  O  O10  1  0.16642209  0.81749414  0.60939777  1
  O  O11  1  0.25404326  0.45063736  0.77619621  1
  O  O12  1  0.96772886  0.35674464  0.08432988  1
  O  O13  1  0.31840957  0.54520937  0.21242076  1
  O  O14  1  0.40789774  0.93865540  0.83033393  1
  O  O15  1  0.45063822  0.25404341  0.72380420  1
  O  O16  1  0.35674427  0.96772850  0.41567124  1
  O  O17  1  0.45479009  0.68158990  0.71242026  1
  O  O18  1  0.83357801  0.18250671  0.39060098  1
  O  O19  1  0.64325480  0.03227107  0.58432922  1
  O  O20  1  0.54936207  0.74595620  0.27619669  1
  O  O21  1  0.59210236  0.06134545  0.16966482  1
  O  O22  1  0.68159071  0.45479024  0.78758013  1
  O  O23  1  0.81749338  0.16642181  0.89060059  1
  O  O24  1  0.74595581  0.54936221  0.22380425  1
  O  O25  1  0.54520898  0.31840967  0.28758020  1
  P  P26  1  0.72494422  0.72494471  0.25000038  1
  P  P27  1  0.84010074  0.34968944  0.85722602  1
  P  P28  1  0.65030961  0.15989928  0.35722616  1
  P  P29  1  0.34969067  0.84010034  0.64277472  1
  P  P30  1  0.27505589  0.27505613  0.74999999  1
  P  P31  1  0.15989955  0.65031017  0.14277486  1
  Mn  Mn32  1  0.06137018  0.62083201  0.63649676  1
  Mn  Mn33  1  0.37916777  0.93862975  0.13649719  1
  Mn  Mn34  1  0.62083251  0.06136987  0.86350369  1
  Mn  Mn35  1  0.93863011  0.37916760  0.36350413  1
