# generated using pymatgen
data_Mo15S19
_symmetry_space_group_name_H-M   'P 1'
_cell_length_a   9.29490586
_cell_length_b   9.29490586
_cell_length_c   19.20446060
_cell_angle_alpha   90.00000000
_cell_angle_beta   90.00000000
_cell_angle_gamma   120.00000005
_symmetry_Int_Tables_number   1
_chemical_formula_structural   Mo15S19
_chemical_formula_sum   'Mo30 S38'
_cell_volume   1436.88739935
_cell_formula_units_Z   2
loop_
 _symmetry_equiv_pos_site_id
 _symmetry_equiv_pos_as_xyz
  1  'x, y, z'
loop_
 _atom_site_type_symbol
 _atom_site_label
 _atom_site_symmetry_multiplicity
 _atom_site_fract_x
 _atom_site_fract_y
 _atom_site_fract_z
 _atom_site_occupancy
  S  S0  1  0.66666667  0.33333333  0.46579595  1
  S  S1  1  0.33333333  0.66666667  0.96579595  1
  S  S2  1  0.33333333  0.66666667  0.53420405  1
  S  S3  1  0.66666667  0.33333333  0.03420405  1
  S  S4  1  0.00000000  0.00000000  0.65876663  1
  S  S5  1  0.00000000  0.00000000  0.15876663  1
  S  S6  1  0.00000000  0.00000000  0.34123337  1
  S  S7  1  0.00000000  0.00000000  0.84123337  1
  S  S8  1  0.69397677  0.04285235  0.25000000  1
  S  S9  1  0.65112443  0.69397677  0.75000000  1
  S  S10  1  0.04285235  0.34887557  0.75000000  1
  S  S11  1  0.95714765  0.65112443  0.25000000  1
  S  S12  1  0.34887557  0.30602323  0.25000000  1
  S  S13  1  0.30602323  0.95714765  0.75000000  1
  S  S14  1  0.01585219  0.63368240  0.64272714  1
  S  S15  1  0.38216980  0.01585219  0.14272714  1
  S  S16  1  0.71394878  0.68509157  0.54764949  1
  S  S17  1  0.63368240  0.61783020  0.14272714  1
  S  S18  1  0.61783020  0.98414781  0.64272714  1
  S  S19  1  0.98414781  0.36631760  0.14272714  1
  S  S20  1  0.98414781  0.36631760  0.35727286  1
  S  S21  1  0.61783020  0.98414781  0.85727286  1
  S  S22  1  0.36631760  0.38216980  0.85727286  1
  S  S23  1  0.63368240  0.61783020  0.35727286  1
  S  S24  1  0.38216980  0.01585219  0.35727286  1
  S  S25  1  0.01585219  0.63368240  0.85727286  1
  S  S26  1  0.31490843  0.02885721  0.54764949  1
  S  S27  1  0.28605122  0.31490843  0.04764949  1
  S  S28  1  0.02885721  0.71394878  0.04764949  1
  S  S29  1  0.97114279  0.28605122  0.54764949  1
  S  S30  1  0.31490843  0.02885721  0.95235051  1
  S  S31  1  0.28605122  0.31490843  0.45235051  1
  S  S32  1  0.02885721  0.71394878  0.45235051  1
  S  S33  1  0.97114279  0.28605122  0.95235051  1
  S  S34  1  0.71394878  0.68509157  0.95235051  1
  S  S35  1  0.68509157  0.97114279  0.45235051  1
  S  S36  1  0.68509157  0.97114279  0.04764949  1
  S  S37  1  0.36631760  0.38216980  0.64272714  1
  Mo  Mo38  1  0.84169912  0.34660111  0.25000000  1
  Mo  Mo39  1  0.49509800  0.84169912  0.75000000  1
  Mo  Mo40  1  0.34660111  0.50490200  0.75000000  1
  Mo  Mo41  1  0.65339889  0.49509800  0.25000000  1
  Mo  Mo42  1  0.50490200  0.15830088  0.25000000  1
  Mo  Mo43  1  0.15830088  0.65339889  0.75000000  1
  Mo  Mo44  1  0.31615539  0.82743279  0.62984715  1
  Mo  Mo45  1  0.48872260  0.31615539  0.12984715  1
  Mo  Mo46  1  0.82743279  0.51127740  0.12984715  1
  Mo  Mo47  1  0.17256721  0.48872260  0.62984715  1
  Mo  Mo48  1  0.51127740  0.68384461  0.62984715  1
  Mo  Mo49  1  0.68384461  0.17256721  0.12984715  1
  Mo  Mo50  1  0.68384461  0.17256721  0.37015285  1
  Mo  Mo51  1  0.51127740  0.68384461  0.87015285  1
  Mo  Mo52  1  0.17256721  0.48872260  0.87015285  1
  Mo  Mo53  1  0.82743279  0.51127740  0.37015285  1
  Mo  Mo54  1  0.48872260  0.31615539  0.37015285  1
  Mo  Mo55  1  0.31615539  0.82743279  0.87015285  1
  Mo  Mo56  1  0.17673258  0.01711243  0.43704881  1
  Mo  Mo57  1  0.15962014  0.17673258  0.93704881  1
  Mo  Mo58  1  0.01711243  0.84037986  0.93704881  1
  Mo  Mo59  1  0.98288757  0.15962014  0.43704881  1
  Mo  Mo60  1  0.84037986  0.82326742  0.43704881  1
  Mo  Mo61  1  0.82326742  0.98288757  0.93704881  1
  Mo  Mo62  1  0.82326742  0.98288757  0.56295119  1
  Mo  Mo63  1  0.84037986  0.82326742  0.06295119  1
  Mo  Mo64  1  0.98288757  0.15962014  0.06295119  1
  Mo  Mo65  1  0.01711243  0.84037986  0.56295119  1
  Mo  Mo66  1  0.15962014  0.17673258  0.56295119  1
  Mo  Mo67  1  0.17673258  0.01711243  0.06295119  1
