# generated using pymatgen
data_Tm2Se3
_symmetry_space_group_name_H-M   'P 1'
_cell_length_a   22.37296838
_cell_length_b   8.60927275
_cell_length_c   8.60927347
_cell_angle_alpha   90.00000389
_cell_angle_beta   54.74542891
_cell_angle_gamma   54.74542555
_symmetry_Int_Tables_number   1
_chemical_formula_structural   Tm2Se3
_chemical_formula_sum   'Tm16 Se24'
_cell_volume   957.86934236
_cell_formula_units_Z   8
loop_
 _symmetry_equiv_pos_site_id
 _symmetry_equiv_pos_as_xyz
  1  'x, y, z'
loop_
 _atom_site_type_symbol
 _atom_site_label
 _atom_site_symmetry_multiplicity
 _atom_site_fract_x
 _atom_site_fract_y
 _atom_site_fract_z
 _atom_site_occupancy
  Se  Se0  1  0.04711207  0.99789548  0.36683195  1
  Se  Se1  1  0.12904411  0.48804444  0.99030412  1
  Se  Se2  1  0.04711207  0.36076732  0.49183085  1
  Se  Se3  1  0.28622093  0.13923268  0.13316805  1
  Se  Se4  1  0.28622093  0.50210452  0.00816915  1
  Se  Se5  1  0.20428889  0.01195556  0.87743746  1
  Se  Se6  1  0.12904411  0.62482223  0.62256254  1
  Se  Se7  1  0.38152658  -0.00112077  0.34876033  1
  Se  Se8  1  0.20428889  0.87517777  0.50969588  1
  Se  Se9  1  0.45180742  0.49333906  1.00112077  1
  Se  Se10  1  0.38152658  0.35654205  0.50666094  1
  Se  Se11  1  0.62904411  0.12256254  0.12482223  1
  Se  Se12  1  0.62904411  0.49030412  0.98804444  1
  Se  Se13  1  0.54711207  0.99183085  0.86076732  1
  Se  Se14  1  0.45180742  0.65123967  0.64345795  1
  Se  Se15  1  0.70428889  0.00969588  0.37517777  1
  Se  Se16  1  0.54711207  0.86683195  0.49789548  1
  Se  Se17  1  0.78622093  0.50816915  0.00210452  1
  Se  Se18  1  0.70428889  0.37743746  0.51195556  1
  Se  Se19  1  0.95180742  0.14345795  0.15123967  1
  Se  Se20  1  0.95180742  0.50112077  0.99333906  1
  Se  Se21  1  0.78622093  0.63316805  0.63923268  1
  Se  Se22  1  0.88152658  0.00666094  0.85654205  1
  Se  Se23  1  0.88152658  0.84876033  0.49887923  1
  Tm  Tm24  1  0.99394093  0.39374137  0.24797667  1
  Tm  Tm25  1  0.99394093  0.12443584  0.77020053  1
  Tm  Tm26  1  0.08606424  0.62090314  0.37090314  1
  Tm  Tm27  1  0.16666700  0.25000000  0.63581244  1
  Tm  Tm28  1  0.33939207  0.37556416  0.25202333  1
  Tm  Tm29  1  0.24726876  0.87909686  0.12909686  1
  Tm  Tm30  1  0.16666700  0.75000000  0.86418756  1
  Tm  Tm31  1  0.33939207  0.10625863  0.72979947  1
  Tm  Tm32  1  0.49394093  0.27020053  0.62443584  1
  Tm  Tm33  1  0.66666700  0.36418756  0.25000000  1
  Tm  Tm34  1  0.58606424  0.87090314  0.12090314  1
  Tm  Tm35  1  0.66666700  0.13581244  0.75000000  1
  Tm  Tm36  1  0.49394093  0.74797667  0.89374137  1
  Tm  Tm37  1  0.74726876  0.62909686  0.37909686  1
  Tm  Tm38  1  0.83939207  0.22979947  0.60625863  1
  Tm  Tm39  1  0.83939207  0.75202333  0.87556416  1
