# generated using pymatgen
data_KCO3
_symmetry_space_group_name_H-M   'P 1'
_cell_length_a   7.30505779
_cell_length_b   8.54106090
_cell_length_c   11.09566634
_cell_angle_alpha   90.00000000
_cell_angle_beta   90.00000000
_cell_angle_gamma   111.34591096
_symmetry_Int_Tables_number   1
_chemical_formula_structural   KCO3
_chemical_formula_sum   'K8 C8 O24'
_cell_volume   644.80000080
_cell_formula_units_Z   8
loop_
 _symmetry_equiv_pos_site_id
 _symmetry_equiv_pos_as_xyz
  1  'x, y, z'
loop_
 _atom_site_type_symbol
 _atom_site_label
 _atom_site_symmetry_multiplicity
 _atom_site_fract_x
 _atom_site_fract_y
 _atom_site_fract_z
 _atom_site_occupancy
  C  C0  1  0.72520653  0.55455580  0.87055461  1
  C  C1  1  0.32782585  0.96185734  0.62449821  1
  C  C2  1  0.17217415  0.03814266  0.12449821  1
  C  C3  1  0.67217415  0.03814266  0.37550179  1
  C  C4  1  0.82782585  0.96185734  0.87550179  1
  C  C5  1  0.22520653  0.55455580  0.62944539  1
  C  C6  1  0.27479347  0.44544420  0.12944539  1
  C  C7  1  0.77479347  0.44544420  0.37055461  1
  O  O8  1  0.92735474  0.85065730  0.84267627  1
  O  O9  1  0.57264526  0.14934270  0.34267627  1
  O  O10  1  0.07264526  0.14934270  0.15732373  1
  O  O11  1  0.42735474  0.85065730  0.65732373  1
  O  O12  1  0.87216471  0.69918584  0.92250230  1
  O  O13  1  0.62783529  0.30081416  0.42250230  1
  O  O14  1  0.12783529  0.30081416  0.07749770  1
  O  O15  1  0.37216471  0.69918584  0.57749770  1
  O  O16  1  0.18140375  0.43683090  0.55418381  1
  O  O17  1  0.70641060  0.92235200  0.95970379  1
  O  O18  1  0.79358940  0.07764800  0.45970379  1
  O  O19  1  0.29358940  0.07764800  0.04029621  1
  O  O20  1  0.66283727  0.56081091  0.76664716  1
  O  O21  1  0.83716273  0.43918909  0.26664716  1
  O  O22  1  0.33716273  0.43918909  0.23335284  1
  O  O23  1  0.16283727  0.56081091  0.73335284  1
  O  O24  1  0.20641060  0.92235200  0.54029621  1
  O  O25  1  0.68140375  0.43683090  0.94581619  1
  O  O26  1  0.81859625  0.56316910  0.44581619  1
  O  O27  1  0.31859625  0.56316910  0.05418381  1
  O  O28  1  0.88769957  0.08736347  0.80700858  1
  O  O29  1  0.61230043  0.91263653  0.30700858  1
  O  O30  1  0.11230043  0.91263653  0.19299142  1
  O  O31  1  0.38769957  0.08736347  0.69299142  1
  K  K32  1  0.28329424  0.29966846  0.84101956  1
  K  K33  1  0.21670576  0.70033154  0.34101956  1
  K  K34  1  0.71670576  0.70033154  0.15898044  1
  K  K35  1  0.78329424  0.29966846  0.65898044  1
  K  K36  1  0.69909999  0.19742467  0.09152026  1
  K  K37  1  0.80090001  0.80257533  0.59152026  1
  K  K38  1  0.30090001  0.80257533  0.90847974  1
  K  K39  1  0.19909999  0.19742467  0.40847974  1
