# generated using pymatgen
data_Fe3(PO4)4
_symmetry_space_group_name_H-M   'P 1'
_cell_length_a   14.75085703
_cell_length_b   5.17520108
_cell_length_c   8.38578211
_cell_angle_alpha   90.00000000
_cell_angle_beta   98.16445149
_cell_angle_gamma   90.00000000
_symmetry_Int_Tables_number   1
_chemical_formula_structural   Fe3(PO4)4
_chemical_formula_sum   'Fe6 P8 O32'
_cell_volume   633.67098208
_cell_formula_units_Z   2
loop_
 _symmetry_equiv_pos_site_id
 _symmetry_equiv_pos_as_xyz
  1  'x, y, z'
loop_
 _atom_site_type_symbol
 _atom_site_label
 _atom_site_symmetry_multiplicity
 _atom_site_fract_x
 _atom_site_fract_y
 _atom_site_fract_z
 _atom_site_occupancy
  O  O0  1  0.60136356  0.85953931  0.57633108  1
  O  O1  1  0.96085984  0.61462451  0.70668975  1
  O  O2  1  0.92997631  0.78981275  0.38913006  1
  O  O3  1  0.89042647  0.25796366  0.44784544  1
  O  O4  1  0.89863668  0.35953863  0.92366858  1
  O  O5  1  0.81912459  0.01713562  0.19508339  1
  O  O6  1  0.03914078  0.38537685  0.29331135  1
  O  O7  1  0.07002362  0.21018662  0.61086966  1
  O  O8  1  0.10957415  0.74203571  0.55215445  1
  O  O9  1  0.10136325  0.64046075  0.07633114  1
  O  O10  1  0.18087533  0.98286375  0.80491633  1
  O  O11  1  0.12161846  0.16520464  0.08805954  1
  O  O12  1  0.20961761  0.46092198  0.30315605  1
  O  O13  1  0.27458649  0.58125647  0.96721636  1
  O  O14  1  0.22541329  0.08125579  0.53278387  1
  O  O15  1  0.31912446  0.48286443  0.69508267  1
  O  O16  1  0.29038270  0.96092266  0.19684389  1
  O  O17  1  0.39042634  0.24203701  0.94784472  1
  O  O18  1  0.37838186  0.66520531  0.41194041  1
  O  O19  1  0.79038231  0.53907740  0.69684367  1
  O  O20  1  0.39863636  0.14046205  0.42366864  1
  O  O21  1  0.46085954  0.88537555  0.20668859  1
  O  O22  1  0.53914039  0.11462383  0.79331113  1
  O  O23  1  0.87838147  0.83479474  0.91194019  1
  O  O24  1  0.57002376  0.28981207  0.11086916  1
  O  O25  1  0.62161807  0.33479604  0.58805932  1
  O  O26  1  0.60957358  0.75796434  0.05215500  1
  O  O27  1  0.70961722  0.03907672  0.80315583  1
  O  O28  1  0.68087546  0.51713495  0.30491705  1
  O  O29  1  0.77458664  0.91874358  0.46721586  1
  O  O30  1  0.72541343  0.41874290  0.03278336  1
  O  O31  1  0.42997616  0.71018730  0.88913056  1
  P  P32  1  0.11837674  0.40691476  0.19356235  1
  P  P33  1  0.35442714  0.50263864  0.87694753  1
  P  P34  1  0.38162287  0.90691544  0.30643743  1
  P  P35  1  0.61837706  0.09308394  0.69356229  1
  P  P36  1  0.64557348  0.49736073  0.12305357  1
  P  P37  1  0.88162318  0.59308462  0.80643738  1
  P  P38  1  0.14557335  0.00263797  0.62305286  1
  P  P39  1  0.85442658  0.99736141  0.37694687  1
  Fe  Fe40  1  0.80422048  0.12796498  0.97443029  1
  Fe  Fe41  1  0.69577975  0.62796566  0.52556937  1
  Fe  Fe42  1  0.49999987  0.00000000  0.00000025  1
  Fe  Fe43  1  0.30422017  0.37203372  0.47443035  1
  Fe  Fe44  1  0.19578014  0.87203439  0.02556959  1
  Fe  Fe45  1  0.99999974  0.50000068  0.49999953  1
