# generated using pymatgen
data_K6LiFe24S26Cl
_symmetry_space_group_name_H-M   'P 1'
_cell_length_a   9.96123234
_cell_length_b   9.96123234
_cell_length_c   9.96123234
_cell_angle_alpha   90.00000000
_cell_angle_beta   90.00000000
_cell_angle_gamma   90.00000000
_symmetry_Int_Tables_number   1
_chemical_formula_structural   K6LiFe24S26Cl
_chemical_formula_sum   'K6 Li1 Fe24 S26 Cl1'
_cell_volume   988.41473168
_cell_formula_units_Z   1
loop_
 _symmetry_equiv_pos_site_id
 _symmetry_equiv_pos_as_xyz
  1  'x, y, z'
loop_
 _atom_site_type_symbol
 _atom_site_label
 _atom_site_symmetry_multiplicity
 _atom_site_fract_x
 _atom_site_fract_y
 _atom_site_fract_z
 _atom_site_occupancy
  K  K0  1  0.70049980  0.00000000  -0.00000000  1
  K  K1  1  -0.00000000  0.00000000  0.70049980  1
  K  K2  1  -0.00000000  0.70049980  -0.00000000  1
  K  K3  1  -0.00000000  0.29950020  -0.00000000  1
  K  K4  1  -0.00000000  0.00000000  0.29950020  1
  K  K5  1  0.29950020  0.00000000  -0.00000000  1
  Li  Li6  1  0.50000000  0.50000000  0.50000000  1
  Fe  Fe7  1  0.13227685  0.36820755  0.36820755  1
  Fe  Fe8  1  0.13227685  0.36820755  0.63179245  1
  Fe  Fe9  1  0.13227685  0.63179245  0.36820755  1
  Fe  Fe10  1  0.13227685  0.63179245  0.63179245  1
  Fe  Fe11  1  0.36820755  0.13227685  0.63179245  1
  Fe  Fe12  1  0.36820755  0.63179245  0.13227685  1
  Fe  Fe13  1  0.36820755  0.63179245  0.86772315  1
  Fe  Fe14  1  0.36820755  0.86772315  0.63179245  1
  Fe  Fe15  1  0.36820755  0.13227685  0.36820755  1
  Fe  Fe16  1  0.36820755  0.36820755  0.13227685  1
  Fe  Fe17  1  0.36820755  0.36820755  0.86772315  1
  Fe  Fe18  1  0.36820755  0.86772315  0.36820755  1
  Fe  Fe19  1  0.63179245  0.13227685  0.36820755  1
  Fe  Fe20  1  0.63179245  0.13227685  0.63179245  1
  Fe  Fe21  1  0.63179245  0.36820755  0.13227685  1
  Fe  Fe22  1  0.63179245  0.63179245  0.13227685  1
  Fe  Fe23  1  0.63179245  0.63179245  0.86772315  1
  Fe  Fe24  1  0.63179245  0.86772315  0.63179245  1
  Fe  Fe25  1  0.63179245  0.36820755  0.86772315  1
  Fe  Fe26  1  0.63179245  0.86772315  0.36820755  1
  Fe  Fe27  1  0.86772315  0.36820755  0.63179245  1
  Fe  Fe28  1  0.86772315  0.36820755  0.36820755  1
  Fe  Fe29  1  0.86772315  0.63179245  0.36820755  1
  Fe  Fe30  1  0.86772315  0.63179245  0.63179245  1
  S  S31  1  0.50000000  0.00000000  0.74787363  1
  S  S32  1  0.50000000  0.25212637  -0.00000000  1
  S  S33  1  0.50000000  0.24579383  0.50000000  1
  S  S34  1  0.50000000  0.50000000  0.24579383  1
  S  S35  1  0.75420617  0.50000000  0.50000000  1
  S  S36  1  0.74787363  0.00000000  0.50000000  1
  S  S37  1  0.74787363  0.50000000  -0.00000000  1
  S  S38  1  0.76852927  0.23147073  0.23147073  1
  S  S39  1  0.76852927  0.76852927  0.23147073  1
  S  S40  1  0.76852927  0.23147073  0.76852927  1
  S  S41  1  0.76852927  0.76852927  0.76852927  1
  S  S42  1  -0.00000000  0.74787363  0.50000000  1
  S  S43  1  -0.00000000  0.50000000  0.74787363  1
  S  S44  1  -0.00000000  0.25212637  0.50000000  1
  S  S45  1  -0.00000000  0.50000000  0.25212637  1
  S  S46  1  0.23147073  0.23147073  0.23147073  1
  S  S47  1  0.23147073  0.76852927  0.23147073  1
  S  S48  1  0.23147073  0.23147073  0.76852927  1
  S  S49  1  0.23147073  0.76852927  0.76852927  1
  S  S50  1  0.25212637  0.00000000  0.50000000  1
  S  S51  1  0.25212637  0.50000000  -0.00000000  1
  S  S52  1  0.24579383  0.50000000  0.50000000  1
  S  S53  1  0.50000000  0.75420617  0.50000000  1
  S  S54  1  0.50000000  0.50000000  0.75420617  1
  S  S55  1  0.50000000  0.74787363  -0.00000000  1
  S  S56  1  0.50000000  0.00000000  0.25212637  1
  Cl  Cl57  1  -0.00000000  0.00000000  -0.00000000  1
