# generated using pymatgen
data_HfMg30BO31
_symmetry_space_group_name_H-M   'P 1'
_cell_length_a   8.51680797
_cell_length_b   8.60505297
_cell_length_c   8.66475319
_cell_angle_alpha   90.00000000
_cell_angle_beta   90.00000000
_cell_angle_gamma   90.00000000
_symmetry_Int_Tables_number   1
_chemical_formula_structural   HfMg30BO31
_chemical_formula_sum   'Hf1 Mg30 B1 O31'
_cell_volume   635.01882480
_cell_formula_units_Z   1
loop_
 _symmetry_equiv_pos_site_id
 _symmetry_equiv_pos_as_xyz
  1  'x, y, z'
loop_
 _atom_site_type_symbol
 _atom_site_label
 _atom_site_symmetry_multiplicity
 _atom_site_fract_x
 _atom_site_fract_y
 _atom_site_fract_z
 _atom_site_occupancy
  Hf  Hf0  1  0.99143243  -0.00000000  0.50000000  1
  Mg  Mg1  1  0.99213244  0.50000000  0.00000000  1
  Mg  Mg2  1  0.99704164  0.50000000  0.50000000  1
  Mg  Mg3  1  0.49195925  -0.00000000  0.00000000  1
  Mg  Mg4  1  0.50108675  -0.00000000  0.50000000  1
  Mg  Mg5  1  0.49941764  0.50000000  0.00000000  1
  Mg  Mg6  1  0.49886472  0.50000000  0.50000000  1
  Mg  Mg7  1  0.99794148  0.24811427  0.23390133  1
  Mg  Mg8  1  0.99794148  0.24811427  0.76609867  1
  Mg  Mg9  1  0.99794148  0.75188573  0.23390133  1
  Mg  Mg10  1  0.99794148  0.75188573  0.76609867  1
  Mg  Mg11  1  0.49701346  0.25015281  0.24723173  1
  Mg  Mg12  1  0.49701346  0.25015281  0.75276827  1
  Mg  Mg13  1  0.49701346  0.74984719  0.24723173  1
  Mg  Mg14  1  0.49701346  0.74984719  0.75276827  1
  Mg  Mg15  1  0.25045011  -0.00000000  0.25546712  1
  Mg  Mg16  1  0.25045011  -0.00000000  0.74453288  1
  Mg  Mg17  1  0.24662771  0.50000000  0.25121857  1
  Mg  Mg18  1  0.24662771  0.50000000  0.74878143  1
  Mg  Mg19  1  0.74601835  -0.00000000  0.23403708  1
  Mg  Mg20  1  0.74601835  -0.00000000  0.76596292  1
  Mg  Mg21  1  0.74834509  0.50000000  0.24667692  1
  Mg  Mg22  1  0.74834509  0.50000000  0.75332308  1
  Mg  Mg23  1  0.24335246  0.26159881  0.00000000  1
  Mg  Mg24  1  0.25210213  0.25862584  0.50000000  1
  Mg  Mg25  1  0.24335246  0.73840119  0.00000000  1
  Mg  Mg26  1  0.25210213  0.74137416  0.50000000  1
  Mg  Mg27  1  0.74989598  0.24495060  0.00000000  1
  Mg  Mg28  1  0.74219797  0.25667515  0.50000000  1
  Mg  Mg29  1  0.74989598  0.75504940  0.00000000  1
  Mg  Mg30  1  0.74219797  0.74332485  0.50000000  1
  B  B31  1  0.21578764  -0.00000000  0.00000000  1
  O  O32  1  0.24320791  -0.00000000  0.50000000  1
  O  O33  1  0.25004820  0.50000000  0.00000000  1
  O  O34  1  0.24750159  0.50000000  0.50000000  1
  O  O35  1  0.72724534  -0.00000000  0.00000000  1
  O  O36  1  0.74860277  -0.00000000  0.50000000  1
  O  O37  1  0.74279654  0.50000000  0.00000000  1
  O  O38  1  0.74815622  0.50000000  0.50000000  1
  O  O39  1  0.24654671  0.25313744  0.25642554  1
  O  O40  1  0.24654671  0.25313744  0.74357446  1
  O  O41  1  0.24654671  0.74686256  0.25642554  1
  O  O42  1  0.24654671  0.74686256  0.74357446  1
  O  O43  1  0.74769888  0.24837888  0.25109956  1
  O  O44  1  0.74769888  0.24837888  0.74890044  1
  O  O45  1  0.74769888  0.75162112  0.25109956  1
  O  O46  1  0.74769888  0.75162112  0.74890044  1
  O  O47  1  0.99369496  -0.00000000  0.26617869  1
  O  O48  1  0.99369496  -0.00000000  0.73382131  1
  O  O49  1  0.99684162  0.50000000  0.25592574  1
  O  O50  1  0.99684162  0.50000000  0.74407426  1
  O  O51  1  0.49713668  -0.00000000  0.25733205  1
  O  O52  1  0.49713668  -0.00000000  0.74266795  1
  O  O53  1  0.49799316  0.50000000  0.25252917  1
  O  O54  1  0.49799316  0.50000000  0.74747083  1
  O  O55  1  0.99396983  0.27067685  0.00000000  1
  O  O56  1  0.99630212  0.24479693  0.50000000  1
  O  O57  1  0.99396983  0.72932315  0.00000000  1
  O  O58  1  0.99630212  0.75520307  0.50000000  1
  O  O59  1  0.49614207  0.25409503  0.00000000  1
  O  O60  1  0.49788815  0.24952176  0.50000000  1
  O  O61  1  0.49614207  0.74590497  0.00000000  1
  O  O62  1  0.49788815  0.75047824  0.50000000  1
