# generated using pymatgen
data_Co2CuO4
_symmetry_space_group_name_H-M   'P 1'
_cell_length_a   5.86281760
_cell_length_b   5.86631541
_cell_length_c   5.86390407
_cell_angle_alpha   59.99009708
_cell_angle_beta   60.04774693
_cell_angle_gamma   60.00643752
_symmetry_Int_Tables_number   1
_chemical_formula_structural   Co2CuO4
_chemical_formula_sum   'Co4 Cu2 O8'
_cell_volume   142.65556569
_cell_formula_units_Z   2
loop_
 _symmetry_equiv_pos_site_id
 _symmetry_equiv_pos_as_xyz
  1  'x, y, z'
loop_
 _atom_site_type_symbol
 _atom_site_label
 _atom_site_symmetry_multiplicity
 _atom_site_fract_x
 _atom_site_fract_y
 _atom_site_fract_z
 _atom_site_occupancy
  Co  Co0  1  0.12500105  0.62499965  0.62499970  1
  Co  Co1  1  0.62499985  0.12500140  0.62499962  1
  Co  Co2  1  0.62499979  0.62499963  0.12500115  1
  Co  Co3  1  0.62499931  0.62499943  0.62499926  1
  Cu  Cu4  1  0.00002589  0.00002124  0.00001225  1
  Cu  Cu5  1  0.24997297  0.24997863  0.24998830  1
  O  O6  1  0.38622750  0.38601642  0.38609011  1
  O  O7  1  0.38612330  0.38623186  0.84142633  1
  O  O8  1  0.38632166  0.84134681  0.38639777  1
  O  O9  1  0.84157641  0.38617807  0.38600602  1
  O  O10  1  0.40842433  0.86382153  0.86399295  1
  O  O11  1  0.86367808  0.40865282  0.86360279  1
  O  O12  1  0.86387716  0.86376817  0.40857334  1
  O  O13  1  0.86377270  0.86398435  0.86391042  1
