# generated using pymatgen
data_EuTiAgO4
_symmetry_space_group_name_H-M   'P 1'
_cell_length_a   5.24580697
_cell_length_b   5.22888595
_cell_length_c   13.56216757
_cell_angle_alpha   90.00000000
_cell_angle_beta   90.00000000
_cell_angle_gamma   90.00000000
_symmetry_Int_Tables_number   1
_chemical_formula_structural   EuTiAgO4
_chemical_formula_sum   'Eu4 Ti4 Ag4 O16'
_cell_volume   372.00654532
_cell_formula_units_Z   4
loop_
 _symmetry_equiv_pos_site_id
 _symmetry_equiv_pos_as_xyz
  1  'x, y, z'
loop_
 _atom_site_type_symbol
 _atom_site_label
 _atom_site_symmetry_multiplicity
 _atom_site_fract_x
 _atom_site_fract_y
 _atom_site_fract_z
 _atom_site_occupancy
  Ag  Ag0  1  0.00913863  0.25000000  0.57351759  1
  Ag  Ag1  1  0.50913863  0.25000000  0.42648241  1
  Ag  Ag2  1  0.99086137  0.75000000  0.42648241  1
  Ag  Ag3  1  0.49086137  0.75000000  0.57351759  1
  Eu  Eu4  1  0.99262549  0.25000000  0.89680828  1
  Eu  Eu5  1  0.49262549  0.25000000  0.10319172  1
  Eu  Eu6  1  0.00737451  0.75000000  0.10319172  1
  Eu  Eu7  1  0.50737451  0.75000000  0.89680828  1
  Ti  Ti8  1  0.99765959  0.25000000  0.26624734  1
  Ti  Ti9  1  0.49765959  0.25000000  0.73375266  1
  Ti  Ti10  1  0.00234041  0.75000000  0.73375266  1
  Ti  Ti11  1  0.50234041  0.75000000  0.26624734  1
  O  O12  1  0.25000000  0.00000000  0.22901608  1
  O  O13  1  0.75000000  0.50000000  0.77098392  1
  O  O14  1  0.75000000  0.00000000  0.77098392  1
  O  O15  1  0.25000000  0.50000000  0.22901608  1
  O  O16  1  0.25000000  0.00000000  0.77714109  1
  O  O17  1  0.75000000  0.50000000  0.22285891  1
  O  O18  1  0.75000000  0.00000000  0.22285891  1
  O  O19  1  0.25000000  0.50000000  0.77714109  1
  O  O20  1  0.02018214  0.25000000  0.06548427  1
  O  O21  1  0.52018214  0.25000000  0.93451573  1
  O  O22  1  0.97981786  0.75000000  0.93451573  1
  O  O23  1  0.47981786  0.75000000  0.06548427  1
  O  O24  1  -0.00882746  0.25000000  0.39902551  1
  O  O25  1  0.49117254  0.25000000  0.60097449  1
  O  O26  1  1.00882746  0.75000000  0.60097449  1
  O  O27  1  0.50882746  0.75000000  0.39902551  1
