# generated using pymatgen
data_CaGa2Cu3(SbO6)2
_symmetry_space_group_name_H-M   'P 1'
_cell_length_a   7.55871892
_cell_length_b   7.55871892
_cell_length_c   7.55871892
_cell_angle_alpha   90.00000000
_cell_angle_beta   90.00000000
_cell_angle_gamma   90.00000000
_symmetry_Int_Tables_number   1
_chemical_formula_structural   CaGa2Cu3(SbO6)2
_chemical_formula_sum   'Ca2 Ga4 Cu6 Sb4 O24'
_cell_volume   431.86159822
_cell_formula_units_Z   2
loop_
 _symmetry_equiv_pos_site_id
 _symmetry_equiv_pos_as_xyz
  1  'x, y, z'
loop_
 _atom_site_type_symbol
 _atom_site_label
 _atom_site_symmetry_multiplicity
 _atom_site_fract_x
 _atom_site_fract_y
 _atom_site_fract_z
 _atom_site_occupancy
  Ca  Ca0  1  0.75000000  0.75000000  0.75000000  1
  Ca  Ca1  1  0.25000000  0.25000000  0.25000000  1
  Cu  Cu2  1  0.25000000  0.25000000  0.75000000  1
  Cu  Cu3  1  0.25000000  0.75000000  0.25000000  1
  Cu  Cu4  1  0.75000000  0.25000000  0.25000000  1
  Cu  Cu5  1  0.25000000  0.75000000  0.75000000  1
  Cu  Cu6  1  0.75000000  0.25000000  0.75000000  1
  Cu  Cu7  1  0.75000000  0.75000000  0.25000000  1
  Ga  Ga8  1  0.00000000  0.00000000  0.00000000  1
  Ga  Ga9  1  0.00000000  0.50000000  0.50000000  1
  Ga  Ga10  1  0.50000000  0.00000000  0.50000000  1
  Ga  Ga11  1  0.50000000  0.50000000  0.00000000  1
  O  O12  1  0.44589740  0.75017082  0.57409300  1
  O  O13  1  0.44589740  0.74982918  0.92590700  1
  O  O14  1  0.57409300  0.44589740  0.75017082  1
  O  O15  1  0.57409300  0.05410260  0.74982918  1
  O  O16  1  0.75017082  0.57409300  0.44589740  1
  O  O17  1  0.75017082  0.92590700  0.05410260  1
  O  O18  1  0.74982918  0.57409300  0.05410260  1
  O  O19  1  0.74982918  0.92590700  0.44589740  1
  O  O20  1  0.92590700  0.44589740  0.74982918  1
  O  O21  1  0.92590700  0.05410260  0.75017082  1
  O  O22  1  0.94589740  0.24982918  0.07409300  1
  O  O23  1  0.94589740  0.25017082  0.42590700  1
  O  O24  1  0.05410260  0.74982918  0.57409300  1
  O  O25  1  0.05410260  0.75017082  0.92590700  1
  O  O26  1  0.07409300  0.94589740  0.24982918  1
  O  O27  1  0.07409300  0.55410260  0.25017082  1
  O  O28  1  0.25017082  0.07409300  0.55410260  1
  O  O29  1  0.25017082  0.42590700  0.94589740  1
  O  O30  1  0.24982918  0.07409300  0.94589740  1
  O  O31  1  0.24982918  0.42590700  0.55410260  1
  O  O32  1  0.42590700  0.94589740  0.25017082  1
  O  O33  1  0.42590700  0.55410260  0.24982918  1
  O  O34  1  0.55410260  0.25017082  0.07409300  1
  O  O35  1  0.55410260  0.24982918  0.42590700  1
  Sb  Sb36  1  0.00000000  0.00000000  0.50000000  1
  Sb  Sb37  1  0.00000000  0.50000000  0.00000000  1
  Sb  Sb38  1  0.50000000  0.00000000  0.00000000  1
  Sb  Sb39  1  0.50000000  0.50000000  0.50000000  1
