# generated using pymatgen
data_SiO2
_symmetry_space_group_name_H-M   'P 1'
_cell_length_a   5.43467016
_cell_length_b   5.43467029
_cell_length_c   6.82387053
_cell_angle_alpha   106.83354070
_cell_angle_beta   106.83354101
_cell_angle_gamma   99.16599397
_symmetry_Int_Tables_number   1
_chemical_formula_structural   SiO2
_chemical_formula_sum   'Si4 O8'
_cell_volume   178.02232620
_cell_formula_units_Z   4
loop_
 _symmetry_equiv_pos_site_id
 _symmetry_equiv_pos_as_xyz
  1  'x, y, z'
loop_
 _atom_site_type_symbol
 _atom_site_label
 _atom_site_symmetry_multiplicity
 _atom_site_fract_x
 _atom_site_fract_y
 _atom_site_fract_z
 _atom_site_occupancy
  Si  Si0  1  0.79390954  0.79669978  0.77956067  1
  Si  Si1  1  0.57471396  0.20994016  0.62906180  1
  Si  Si2  1  0.79005984  0.42528604  0.37093820  1
  Si  Si3  1  0.20330022  0.20609046  0.22043933  1
  O  O4  1  0.99720769  0.39513276  0.24092139  1
  O  O5  1  0.27962805  0.12017143  0.43767885  1
  O  O6  1  0.87982857  0.72037195  0.56232115  1
  O  O7  1  0.05685271  0.94314729  0.00000000  1
  O  O8  1  0.63297782  0.52129885  0.79220125  1
  O  O9  1  0.47870115  0.36702218  0.20779875  1
  O  O10  1  0.78820321  0.21179679  0.50000000  1
  O  O11  1  0.60486724  0.00279231  0.75907861  1
