# generated using pymatgen
data_Li3V6O13
_symmetry_space_group_name_H-M   'P 1'
_cell_length_a   4.02912798
_cell_length_b   6.33893743
_cell_length_c   10.30970731
_cell_angle_alpha   100.10032972
_cell_angle_beta   90.02017774
_cell_angle_gamma   108.50992165
_symmetry_Int_Tables_number   1
_chemical_formula_structural   Li3V6O13
_chemical_formula_sum   'Li3 V6 O13'
_cell_volume   245.37959641
_cell_formula_units_Z   1
loop_
 _symmetry_equiv_pos_site_id
 _symmetry_equiv_pos_as_xyz
  1  'x, y, z'
loop_
 _atom_site_type_symbol
 _atom_site_label
 _atom_site_symmetry_multiplicity
 _atom_site_fract_x
 _atom_site_fract_y
 _atom_site_fract_z
 _atom_site_occupancy
  Li  Li0  1  0.06971235  0.13916776  0.41297576  1
  Li  Li1  1  0.93042820  0.86127617  0.58701583  1
  Li  Li2  1  0.00114859  0.00129934  0.00059318  1
  V  V3  1  0.33842087  0.67639534  0.00204307  1
  V  V4  1  0.65904806  0.31472144  0.99744814  1
  V  V5  1  0.40211085  0.80474590  0.36607998  1
  V  V6  1  0.59809257  0.19621067  0.63318440  1
  V  V7  1  0.72012530  0.44022897  0.36441316  1
  V  V8  1  0.28034692  0.56142498  0.63631702  1
  O  O9  1  0.17442529  0.34730954  0.00000486  1
  O  O10  1  0.81651466  0.63277330  0.99981872  1
  O  O11  1  0.88870940  0.77836764  0.39103604  1
  O  O12  1  0.11171915  0.22316936  0.60885540  1
  O  O13  1  0.24134848  0.48277505  0.40357806  1
  O  O14  1  0.75907255  0.51870816  0.59646262  1
  O  O15  1  0.50575951  0.01008097  0.99975153  1
  O  O16  1  0.38070809  0.76541269  0.19778197  1
  O  O17  1  0.62081687  0.24010864  0.80085827  1
  O  O18  1  0.68335942  0.36583847  0.19891973  1
  O  O19  1  0.31786607  0.63923936  0.80249774  1
  O  O20  1  0.56963015  0.13905304  0.41882553  1
  O  O21  1  0.43063666  0.86169523  0.58153800  1
