# generated using pymatgen
data_BaCo2(AsO4)2
_symmetry_space_group_name_H-M   'P 1'
_cell_length_a   8.75542074
_cell_length_b   8.68437692
_cell_length_c   8.71713127
_cell_angle_alpha   32.74837784
_cell_angle_beta   33.54957398
_cell_angle_gamma   33.59184257
_symmetry_Int_Tables_number   1
_chemical_formula_structural   BaCo2(AsO4)2
_chemical_formula_sum   'Ba1 Co2 As2 O8'
_cell_volume   177.77422012
_cell_formula_units_Z   1
loop_
 _symmetry_equiv_pos_site_id
 _symmetry_equiv_pos_as_xyz
  1  'x, y, z'
loop_
 _atom_site_type_symbol
 _atom_site_label
 _atom_site_symmetry_multiplicity
 _atom_site_fract_x
 _atom_site_fract_y
 _atom_site_fract_z
 _atom_site_occupancy
  Ba  Ba0  1  0.00002502  0.99995991  0.99996173  1
  Co  Co1  1  0.85245815  0.82173643  0.82085281  1
  Co  Co2  1  0.14757647  0.17827333  0.17910171  1
  As  As3  1  0.42999883  0.42170897  0.42978759  1
  As  As4  1  0.56997884  0.57829728  0.57023550  1
  O  O5  1  0.87608444  0.57130519  0.21141629  1
  O  O6  1  0.12385762  0.42882504  0.78854276  1
  O  O7  1  0.44894772  0.77900877  0.13248847  1
  O  O8  1  0.64164069  0.63724266  0.64579964  1
  O  O9  1  0.35845979  0.36259176  0.35426668  1
  O  O10  1  0.55104340  0.22102061  0.86746552  1
  O  O11  1  0.21654544  0.88870371  0.55471832  1
  O  O12  1  0.78338358  0.11132634  0.44536399  1
