# generated using pymatgen
data_CrPO4
_symmetry_space_group_name_H-M   'P 1'
_cell_length_a   6.28766090
_cell_length_b   8.96910799
_cell_length_c   6.34895356
_cell_angle_alpha   97.48269455
_cell_angle_beta   97.57996630
_cell_angle_gamma   69.38110374
_symmetry_Int_Tables_number   1
_chemical_formula_structural   CrPO4
_chemical_formula_sum   'Cr4 P4 O16'
_cell_volume   330.82678973
_cell_formula_units_Z   4
loop_
 _symmetry_equiv_pos_site_id
 _symmetry_equiv_pos_as_xyz
  1  'x, y, z'
loop_
 _atom_site_type_symbol
 _atom_site_label
 _atom_site_symmetry_multiplicity
 _atom_site_fract_x
 _atom_site_fract_y
 _atom_site_fract_z
 _atom_site_occupancy
  O  O0  1  0.46157716  0.74820303  0.82236599  1
  O  O1  1  0.73698901  0.98508708  0.48239885  1
  O  O2  1  0.89043596  0.64001557  0.73376420  1
  O  O3  1  0.96866005  0.07827359  0.19583053  1
  O  O4  1  0.18191786  0.23533791  0.91288285  1
  O  O5  1  0.26301099  0.01491292  0.51760015  1
  O  O6  1  0.10956404  0.35998443  0.26623680  1
  O  O7  1  0.03134095  0.92172641  0.80416947  1
  O  O8  1  0.61996985  0.00727089  0.85458426  1
  O  O9  1  0.38003015  0.99272911  0.14541474  1
  O  O10  1  0.22471133  0.79087157  0.23556063  1
  O  O11  1  0.53842284  0.25179597  0.17763301  1
  O  O12  1  0.81808114  0.76466209  0.08711815  1
  O  O13  1  0.77528867  0.20912843  0.76443937  1
  O  O14  1  0.72509818  0.50639883  0.97902999  1
  O  O15  1  0.27490182  0.49360117  0.02097001  1
  P  P16  1  0.28197550  0.34020449  0.10333464  1
  P  P17  1  0.21182843  0.96378680  0.28664800  1
  P  P18  1  0.78817157  0.03621320  0.71335100  1
  P  P19  1  0.71802350  0.65979651  0.89666536  1
  Cr  Cr20  1  0.88744892  0.29061924  0.05017801  1
  Cr  Cr21  1  0.31387859  0.98659410  0.82050874  1
  Cr  Cr22  1  0.68612141  0.01340590  0.17949126  1
  Cr  Cr23  1  0.11255108  0.70938076  0.94982399  1
