# generated using pymatgen
data_Tl2CS3
_symmetry_space_group_name_H-M   'P 1'
_cell_length_a   6.79020349
_cell_length_b   6.57618573
_cell_length_c   9.21462287
_cell_angle_alpha   72.00893000
_cell_angle_beta   68.38011391
_cell_angle_gamma   58.91746703
_symmetry_Int_Tables_number   1
_chemical_formula_structural   Tl2CS3
_chemical_formula_sum   'Tl4 C2 S6'
_cell_volume   323.94069876
_cell_formula_units_Z   2
loop_
 _symmetry_equiv_pos_site_id
 _symmetry_equiv_pos_as_xyz
  1  'x, y, z'
loop_
 _atom_site_type_symbol
 _atom_site_label
 _atom_site_symmetry_multiplicity
 _atom_site_fract_x
 _atom_site_fract_y
 _atom_site_fract_z
 _atom_site_occupancy
  Tl  Tl0  1  0.54722359  0.68278766  0.62023973  1
  Tl  Tl1  1  0.45277641  0.31721234  0.37976027  1
  Tl  Tl2  1  0.14974902  0.18278766  0.12023973  1
  Tl  Tl3  1  0.85025098  0.81721234  0.87976027  1
  C  C4  1  0.93967627  0.75000000  0.25000000  1
  C  C5  1  0.06032373  0.25000000  0.75000000  1
  S  S6  1  0.18381075  0.67829958  0.09047164  1
  S  S7  1  0.68575919  0.75000000  0.25000000  1
  S  S8  1  0.81618925  0.32170042  0.90952836  1
  S  S9  1  0.95258197  0.82170042  0.40952836  1
  S  S10  1  0.04741803  0.17829958  0.59047164  1
  S  S11  1  0.31424081  0.25000000  0.75000000  1
