# generated using pymatgen
data_PH8C2NO4
_symmetry_space_group_name_H-M   'P 1'
_cell_length_a   7.85770711
_cell_length_b   8.95624762
_cell_length_c   9.09561506
_cell_angle_alpha   103.12239266
_cell_angle_beta   90.00000000
_cell_angle_gamma   90.00000000
_symmetry_Int_Tables_number   1
_chemical_formula_structural   PH8C2NO4
_chemical_formula_sum   'P4 H32 C8 N4 O16'
_cell_volume   623.39413073
_cell_formula_units_Z   4
loop_
 _symmetry_equiv_pos_site_id
 _symmetry_equiv_pos_as_xyz
  1  'x, y, z'
loop_
 _atom_site_type_symbol
 _atom_site_label
 _atom_site_symmetry_multiplicity
 _atom_site_fract_x
 _atom_site_fract_y
 _atom_site_fract_z
 _atom_site_occupancy
  P  P0  1  0.47637675  0.61229174  0.23512394  1
  P  P1  1  0.52362325  0.38770826  0.76487606  1
  P  P2  1  0.02362325  0.11229174  0.23512394  1
  P  P3  1  0.97637675  0.88770826  0.76487606  1
  H  H4  1  0.98479586  0.76411879  0.44881255  1
  H  H5  1  0.51520414  0.26411879  0.44881255  1
  H  H6  1  0.13752130  0.65200615  0.09829485  1
  H  H7  1  0.38276077  0.97607235  0.82083668  1
  H  H8  1  0.44286920  0.68869310  0.71919871  1
  H  H9  1  0.79015448  0.72319054  0.36511988  1
  H  H10  1  1.00173990  0.14089399  -0.00146178  1
  H  H11  1  0.94286920  0.81130690  0.28080129  1
  H  H12  1  0.01520414  0.23588121  0.55118745  1
  H  H13  1  0.99080891  0.50012684  0.34261526  1
  H  H14  1  0.36247870  0.15200615  0.09829485  1
  H  H15  1  0.49826010  0.64089399  -0.00146178  1
  H  H16  1  0.20984552  0.27680946  0.63488012  1
  H  H17  1  0.48479586  0.73588121  0.55118745  1
  H  H18  1  0.70984552  0.22319054  0.36511988  1
  H  H19  1  0.50919109  1.00012684  0.34261526  1
  H  H20  1  0.63752130  0.84799385  0.90170515  1
  H  H21  1  0.00919109  0.49987316  0.65738474  1
  H  H22  1  0.05713080  0.18869310  0.71919871  1
  H  H23  1  0.55713080  0.31130690  0.28080129  1
  H  H24  1  0.82191817  0.53957299  0.88093606  1
  H  H25  1  0.88276077  0.52392765  0.17916332  1
  H  H26  1  0.29015448  0.77680946  0.63488012  1
  H  H27  1  0.67808183  0.03957299  0.88093606  1
  H  H28  1  0.86247870  0.34799385  0.90170515  1
  H  H29  1  0.49080891  -0.00012684  0.65738474  1
  H  H30  1  -0.00173990  0.85910601  1.00146178  1
  H  H31  1  0.50173990  0.35910601  1.00146178  1
  H  H32  1  0.11723923  0.47607235  0.82083668  1
  H  H33  1  0.17808183  0.46042701  0.11906394  1
  H  H34  1  0.61723923  0.02392765  0.17916332  1
  H  H35  1  0.32191817  0.96042701  0.11906394  1
  C  C36  1  0.51935295  0.07402243  0.26188603  1
  C  C37  1  0.48064705  0.92597757  0.73811397  1
  C  C38  1  0.14735508  0.57817810  0.17974600  1
  C  C39  1  0.01935295  0.42597757  0.73811397  1
  C  C40  1  0.98064705  0.57402243  0.26188603  1
  C  C41  1  0.64735508  0.92182190  0.82025400  1
  C  C42  1  0.35264492  0.07817810  0.17974600  1
  C  C43  1  0.85264492  0.42182190  0.82025400  1
  N  N44  1  0.92180806  0.72869311  0.34446886  1
  N  N45  1  0.07819194  0.27130689  0.65553114  1
  N  N46  1  0.42180806  0.77130689  0.65553114  1
  N  N47  1  0.57819194  0.22869311  0.34446886  1
  O  O48  1  0.92389829  0.18712016  0.37441971  1
  O  O49  1  0.42389829  0.31287984  0.62558029  1
  O  O50  1  0.07610171  0.81287984  0.62558029  1
  O  O51  1  0.77948732  0.86305030  0.71225654  1
  O  O52  1  0.50332433  0.70538258  0.10775201  1
  O  O53  1  0.22051268  0.13694970  0.28774346  1
  O  O54  1  0.00923107  0.05780949  0.83128929  1
  O  O55  1  0.99667567  0.20538258  0.10775201  1
  O  O56  1  0.00332433  0.79461742  0.89224799  1
  O  O57  1  0.50923107  0.44219051  0.16871071  1
  O  O58  1  0.49667567  0.29461742  0.89224799  1
  O  O59  1  0.99076893  0.94219051  0.16871071  1
  O  O60  1  0.27948732  0.63694970  0.28774346  1
  O  O61  1  0.72051268  0.36305030  0.71225654  1
  O  O62  1  0.49076893  0.55780949  0.83128929  1
  O  O63  1  0.57610171  0.68712016  0.37441971  1
