# generated using pymatgen
data_TeAs(IF2)3
_symmetry_space_group_name_H-M   'P 1'
_cell_length_a   8.46292338
_cell_length_b   11.01216535
_cell_length_c   13.04672567
_cell_angle_alpha   90.00000000
_cell_angle_beta   101.01137323
_cell_angle_gamma   90.00000000
_symmetry_Int_Tables_number   1
_chemical_formula_structural   TeAs(IF2)3
_chemical_formula_sum   'Te4 As4 I12 F24'
_cell_volume   1193.50563485
_cell_formula_units_Z   4
loop_
 _symmetry_equiv_pos_site_id
 _symmetry_equiv_pos_as_xyz
  1  'x, y, z'
loop_
 _atom_site_type_symbol
 _atom_site_label
 _atom_site_symmetry_multiplicity
 _atom_site_fract_x
 _atom_site_fract_y
 _atom_site_fract_z
 _atom_site_occupancy
  Te  Te0  1  0.81309786  0.66604832  0.31003192  1
  Te  Te1  1  0.81309786  0.83395168  0.81003192  1
  Te  Te2  1  0.18690214  0.16604832  0.18996808  1
  Te  Te3  1  0.18690214  0.33395168  0.68996808  1
  As  As4  1  0.82662982  0.27503160  0.41893319  1
  As  As5  1  0.17337018  0.77503160  0.08106681  1
  As  As6  1  0.82662982  0.22496840  0.91893319  1
  As  As7  1  0.17337018  0.72496840  0.58106681  1
  I  I8  1  0.55476355  0.85120452  0.90414678  1
  I  I9  1  0.77478779  0.90180808  0.25372542  1
  I  I10  1  0.77478779  0.59819192  0.75372542  1
  I  I11  1  0.29151076  0.04590399  0.37063509  1
  I  I12  1  0.55476355  0.64879548  0.40414678  1
  I  I13  1  0.70848924  0.54590399  0.12936491  1
  I  I14  1  0.44523645  0.14879548  0.09585322  1
  I  I15  1  0.29151076  0.45409601  0.87063509  1
  I  I16  1  0.22521221  0.09819192  0.74627458  1
  I  I17  1  0.22521221  0.40180808  0.24627458  1
  I  I18  1  0.44523645  0.35120452  0.59585322  1
  I  I19  1  0.70848924  0.95409601  0.62936491  1
  F  F20  1  0.12311975  0.78189433  0.69844284  1
  F  F21  1  0.75842614  0.12915629  0.44737815  1
  F  F22  1  0.89788672  0.42220479  0.39114405  1
  F  F23  1  0.87688025  0.28189433  0.80155716  1
  F  F24  1  0.63156676  0.31413145  0.35290954  1
  F  F25  1  0.87688025  0.21810567  0.30155716  1
  F  F26  1  0.97449183  0.76119614  0.51319958  1
  F  F27  1  0.24157386  0.87084371  0.55262185  1
  F  F28  1  0.10211328  0.92220479  0.10885595  1
  F  F29  1  0.21663393  0.66776198  0.46159787  1
  F  F30  1  0.78336607  0.33223802  0.53840213  1
  F  F31  1  0.36843324  0.81413145  0.14709046  1
  F  F32  1  0.78336607  0.16776198  0.03840213  1
  F  F33  1  0.21663393  0.83223802  0.96159787  1
  F  F34  1  0.97449183  0.73880386  0.01319958  1
  F  F35  1  0.02550817  0.26119614  0.98680042  1
  F  F36  1  0.10211328  0.57779521  0.60885595  1
  F  F37  1  0.89788672  0.07779521  0.89114405  1
  F  F38  1  0.75842614  0.37084371  0.94737815  1
  F  F39  1  0.02550817  0.23880386  0.48680042  1
  F  F40  1  0.24157386  0.62915629  0.05262185  1
  F  F41  1  0.63156676  0.18586855  0.85290954  1
  F  F42  1  0.36843324  0.68586855  0.64709046  1
  F  F43  1  0.12311975  0.71810567  0.19844284  1
