# generated using pymatgen
data_AgBTe4C(OF4)5
_symmetry_space_group_name_H-M   'P 1'
_cell_length_a   10.24001435
_cell_length_b   12.61395955
_cell_length_c   16.62941609
_cell_angle_alpha   90.00000000
_cell_angle_beta   90.00000000
_cell_angle_gamma   100.08861660
_symmetry_Int_Tables_number   1
_chemical_formula_structural   AgBTe4C(OF4)5
_chemical_formula_sum   'Ag4 B4 Te16 C4 O20 F80'
_cell_volume   2114.76192846
_cell_formula_units_Z   4
loop_
 _symmetry_equiv_pos_site_id
 _symmetry_equiv_pos_as_xyz
  1  'x, y, z'
loop_
 _atom_site_type_symbol
 _atom_site_label
 _atom_site_symmetry_multiplicity
 _atom_site_fract_x
 _atom_site_fract_y
 _atom_site_fract_z
 _atom_site_occupancy
  Ag  Ag0  1  0.64669936  0.95133259  0.32452759  1
  Ag  Ag1  1  0.35330064  0.04866741  0.67547241  1
  Ag  Ag2  1  0.14669936  0.45133259  0.17547241  1
  Ag  Ag3  1  0.85330064  0.54866741  0.82452759  1
  B  B4  1  0.64056233  0.05110122  0.73834384  1
  B  B5  1  0.14056233  0.55110122  0.76165616  1
  B  B6  1  0.85943767  0.44889878  0.23834384  1
  B  B7  1  0.35943767  0.94889878  0.26165616  1
  Te  Te8  1  0.23583586  0.75571789  0.36204282  1
  Te  Te9  1  0.26416414  0.74428211  0.86204282  1
  Te  Te10  1  0.76416414  0.24428211  0.63795718  1
  Te  Te11  1  0.33752171  0.46143877  0.64792603  1
  Te  Te12  1  0.39588923  0.12851675  0.39413873  1
  Te  Te13  1  0.50837402  0.83108582  0.13331257  1
  Te  Te14  1  0.89588923  0.62851675  0.10586127  1
  Te  Te15  1  0.10411077  0.37148325  0.89413873  1
  Te  Te16  1  0.83752171  0.96143877  0.85207397  1
  Te  Te17  1  0.00837402  0.33108582  0.36668743  1
  Te  Te18  1  0.73583586  0.25571789  0.13795718  1
  Te  Te19  1  0.99162598  0.66891418  0.63331257  1
  Te  Te20  1  0.66247829  0.53856123  0.35207397  1
  Te  Te21  1  0.49162598  0.16891418  0.86668743  1
  Te  Te22  1  0.60411077  0.87148325  0.60586127  1
  Te  Te23  1  0.16247829  0.03856123  0.14792603  1
  C  C24  1  0.82690665  0.94841342  0.37537279  1
  C  C25  1  0.17309335  0.05158658  0.62462721  1
  C  C26  1  0.32690665  0.44841342  0.12462721  1
  C  C27  1  0.67309335  0.55158658  0.87537279  1
  O  O28  1  0.75215860  0.13457014  0.71627924  1
  O  O29  1  0.92412299  0.94468112  0.40765526  1
  O  O30  1  0.52051494  0.09617719  0.76912953  1
  O  O31  1  0.31863155  0.02248571  0.20394110  1
  O  O32  1  0.02051494  0.59617719  0.73087047  1
  O  O33  1  0.68136845  0.97751429  0.79605890  1
  O  O34  1  0.25215860  0.63457014  0.78372076  1
  O  O35  1  0.42991276  0.00815152  0.33357709  1
  O  O36  1  0.57587701  0.55531888  0.90765526  1
  O  O37  1  0.47948506  0.90382281  0.23087047  1
  O  O38  1  0.74784140  0.36542986  0.21627924  1
  O  O39  1  0.07008724  0.49184848  0.83357709  1
  O  O40  1  0.18136845  0.47751429  0.70394110  1
  O  O41  1  0.97948506  0.40382281  0.26912953  1
  O  O42  1  0.42412299  0.44468112  0.09234474  1
  O  O43  1  0.57008724  0.99184848  0.66642291  1
  O  O44  1  0.81863155  0.52248571  0.29605890  1
  O  O45  1  0.92991276  0.50815152  0.16642291  1
  O  O46  1  0.24784140  0.86542986  0.28372076  1
  O  O47  1  0.07587701  0.05531888  0.59234474  1
  F  F48  1  0.21985555  0.64493224  0.43789774  1
  F  F49  1  0.48878648  0.04469053  0.92774133  1
  F  F50  1  0.24841066  0.84930879  0.78323445  1
  F  F51  1  0.61939692  0.39441405  0.38388745  1
  F  F52  1  0.21493755  0.85014535  0.44645947  1
  F  F53  1  0.38060308  0.60558595  0.61611255  1
  F  F54  1  0.28812154  0.40630186  0.87888157  1
  F  F55  1  0.25158934  0.65069121  0.28323445  1
  F  F56  1  0.44814259  0.77359141  0.84824428  1
  F  F57  1  0.28014445  0.85506776  0.93789774  1
  F  F58  1  0.63062875  0.75536669  0.54173167  1
  F  F59  1  0.92165705  0.33736595  0.91440225  1
  F  F60  1  0.04655015  0.25939214  0.45989835  1
  F  F61  1  0.87774476  0.54648904  0.01049767  1
  F  F62  1  0.80877514  0.63107662  0.65307840  1
  F  F63  1  0.78014445  0.35506776  0.56210226  1
  F  F64  1  0.98668663  0.93602354  0.90919956  1
  F  F65  1  0.55112081  0.50793129  0.26205330  1
  F  F66  1  0.74841066  0.34930879  0.71676555  1
  F  F67  1  0.26238825  0.07148311  0.05435559  1
  F  F68  1  0.55185741  0.22640859  0.15175572  1
  F  F69  1  0.17247904  0.71274377  0.61275902  1
  F  F70  1  0.05112081  0.00793129  0.23794670  1
  F  F71  1  0.71493755  0.35014535  0.05354053  1
  F  F72  1  0.94887919  0.99206871  0.76205330  1
  F  F73  1  0.71985555  0.14493224  0.06210226  1
  F  F74  1  0.54655015  0.75939214  0.04010165  1
  F  F75  1  0.76238825  0.57148311  0.44564441  1
  F  F76  1  0.13062875  0.25536669  0.95826833  1
  F  F77  1  0.51121352  0.95530947  0.07225867  1
  F  F78  1  0.49281595  0.29774555  0.81036273  1
  F  F79  1  0.95344985  0.74060786  0.54010165  1
  F  F80  1  0.23761175  0.42851689  0.55435559  1
  F  F81  1  0.58743043  0.77867777  0.69430353  1
  F  F82  1  0.45344985  0.24060786  0.95989835  1
  F  F83  1  0.21187846  0.09369814  0.37888157  1
  F  F84  1  0.01121352  0.45530947  0.42774133  1
  F  F85  1  0.94814259  0.27359141  0.65175572  1
  F  F86  1  0.00718405  0.20225445  0.31036273  1
  F  F87  1  0.73761175  0.92851689  0.94564441  1
  F  F88  1  0.57912804  0.22234371  0.61938143  1
  F  F89  1  0.78812154  0.90630186  0.62111843  1
  F  F90  1  0.07912804  0.72234371  0.88061857  1
  F  F91  1  0.42087196  0.77765629  0.38061857  1
  F  F92  1  0.28506245  0.64985465  0.94645947  1
  F  F93  1  0.08743043  0.27867777  0.80569647  1
  F  F94  1  0.30877514  0.13107662  0.84692160  1
  F  F95  1  0.41256957  0.22132223  0.30569647  1
  F  F96  1  0.80570660  0.81416756  0.82549886  1
  F  F97  1  0.98878648  0.54469053  0.57225867  1
  F  F98  1  0.62225524  0.95351096  0.51049767  1
  F  F99  1  0.42165705  0.83736595  0.58559775  1
  F  F100  1  0.12225524  0.45351096  0.98950233  1
  F  F101  1  0.86937125  0.74463331  0.04173167  1
  F  F102  1  0.30570660  0.31416756  0.67450114  1
  F  F103  1  0.78506245  0.14985465  0.55354053  1
  F  F104  1  0.67247904  0.21274377  0.88724098  1
  F  F105  1  0.92087196  0.27765629  0.11938143  1
  F  F106  1  0.69122486  0.86892338  0.15307840  1
  F  F107  1  0.01331337  0.06397646  0.09080044  1
  F  F108  1  0.69429340  0.68583244  0.32549886  1
  F  F109  1  0.11939692  0.89441405  0.11611255  1
  F  F110  1  0.37774476  0.04648904  0.48950233  1
  F  F111  1  0.36937125  0.24463331  0.45826833  1
  F  F112  1  0.82752096  0.28725623  0.38724098  1
  F  F113  1  0.44887919  0.49206871  0.73794670  1
  F  F114  1  0.19122486  0.36892338  0.34692160  1
  F  F115  1  0.88060308  0.10558595  0.88388745  1
  F  F116  1  0.51331337  0.56397646  0.40919956  1
  F  F117  1  0.07834295  0.66263405  0.08559775  1
  F  F118  1  0.75158934  0.15069121  0.21676555  1
  F  F119  1  0.48668663  0.43602354  0.59080044  1
  F  F120  1  0.32752096  0.78725623  0.11275902  1
  F  F121  1  0.99281595  0.79774555  0.68963727  1
  F  F122  1  0.71187846  0.59369814  0.12111843  1
  F  F123  1  0.19429340  0.18583244  0.17450114  1
  F  F124  1  0.91256957  0.72132223  0.19430353  1
  F  F125  1  0.05185741  0.72640859  0.34824428  1
  F  F126  1  0.57834295  0.16263405  0.41440225  1
  F  F127  1  0.50718405  0.70225445  0.18963727  1
