# generated using pymatgen
data_AsSe2S(NF3)2
_symmetry_space_group_name_H-M   'P 1'
_cell_length_a   10.12706031
_cell_length_b   10.58257583
_cell_length_c   16.59412882
_cell_angle_alpha   90.00000000
_cell_angle_beta   90.00000000
_cell_angle_gamma   98.16236574
_symmetry_Int_Tables_number   1
_chemical_formula_structural   AsSe2S(NF3)2
_chemical_formula_sum   'As8 Se16 S8 N16 F48'
_cell_volume   1760.38343891
_cell_formula_units_Z   8
loop_
 _symmetry_equiv_pos_site_id
 _symmetry_equiv_pos_as_xyz
  1  'x, y, z'
loop_
 _atom_site_type_symbol
 _atom_site_label
 _atom_site_symmetry_multiplicity
 _atom_site_fract_x
 _atom_site_fract_y
 _atom_site_fract_z
 _atom_site_occupancy
  As  As0  1  0.74764486  0.63521989  0.84540973  1
  As  As1  1  0.24764486  0.13521989  0.65459027  1
  As  As2  1  0.26703797  0.69623747  0.43881604  1
  As  As3  1  0.73296203  0.30376253  0.56118396  1
  As  As4  1  0.23296203  0.80376253  0.93881604  1
  As  As5  1  0.76703797  0.19623747  0.06118396  1
  As  As6  1  0.75235514  0.86478011  0.34540973  1
  As  As7  1  0.25235514  0.36478011  0.15459027  1
  Se  Se8  1  0.37702479  0.03961306  0.19369762  1
  Se  Se9  1  0.86264201  0.03136247  0.79589247  1
  Se  Se10  1  0.13735799  0.96863753  0.20410753  1
  Se  Se11  1  0.11763965  0.39629636  0.88112034  1
  Se  Se12  1  0.36264201  0.53136247  0.70410753  1
  Se  Se13  1  0.63735799  0.46863753  0.29589247  1
  Se  Se14  1  0.87702479  0.53961306  0.30630238  1
  Se  Se15  1  0.88236035  0.60370364  0.11887966  1
  Se  Se16  1  0.64455187  0.52806760  0.11175977  1
  Se  Se17  1  0.61763965  0.89629636  0.61887966  1
  Se  Se18  1  0.85544813  0.97193240  0.61175977  1
  Se  Se19  1  0.14455187  0.02806760  0.38824023  1
  Se  Se20  1  0.12297521  0.46038694  0.69369762  1
  Se  Se21  1  0.62297521  0.96038694  0.80630238  1
  Se  Se22  1  0.35544813  0.47193240  0.88824023  1
  Se  Se23  1  0.38236035  0.10370364  0.38112034  1
  S  S24  1  0.28506371  0.19483687  0.89792608  1
  S  S25  1  0.30045866  0.76313497  0.18764662  1
  S  S26  1  0.71493629  0.80516313  0.10207392  1
  S  S27  1  0.19954134  0.73686503  0.68764662  1
  S  S28  1  0.21493629  0.30516313  0.39792608  1
  S  S29  1  0.69954134  0.23686503  0.81235338  1
  S  S30  1  0.78506371  0.69483687  0.60207392  1
  S  S31  1  0.80045866  0.26313497  0.31235338  1
  N  N32  1  0.10368166  0.18628425  0.39884933  1
  N  N33  1  0.65797062  0.30362212  0.30438592  1
  N  N34  1  0.64131837  0.73241111  0.60989098  1
  N  N35  1  0.89631834  0.81371575  0.60115067  1
  N  N36  1  0.60368166  0.68628425  0.10115067  1
  N  N37  1  0.08621181  0.61995646  0.68468688  1
  N  N38  1  0.85868163  0.76758889  0.10989098  1
  N  N39  1  0.15797062  0.80362212  0.19561408  1
  N  N40  1  0.58621181  0.11995646  0.81531312  1
  N  N41  1  0.35868163  0.26758889  0.39010902  1
  N  N42  1  0.14131837  0.23241111  0.89010902  1
  N  N43  1  0.39631834  0.31371575  0.89884933  1
  N  N44  1  0.34202938  0.69637788  0.69561408  1
  N  N45  1  0.84202938  0.19637788  0.80438592  1
  N  N46  1  0.91378819  0.38004354  0.31531312  1
  N  N47  1  0.41378819  0.88004354  0.18468688  1
  F  F48  1  0.63191896  0.25916104  0.01627574  1
  F  F49  1  0.22906540  0.26026154  0.07133607  1
  F  F50  1  0.21505806  0.66893806  0.86893083  1
  F  F51  1  0.36808104  0.74083896  0.98372426  1
  F  F52  1  0.72906540  0.76026154  0.42866393  1
  F  F53  1  0.78494194  0.33106194  0.13106917  1
  F  F54  1  0.37840879  0.78849789  0.50531406  1
  F  F55  1  0.59618984  0.91514990  0.36148897  1
  F  F56  1  0.28494194  0.83106194  0.36893083  1
  F  F57  1  0.09953387  0.86255166  0.89041898  1
  F  F58  1  0.40046613  0.63744834  0.39041898  1
  F  F59  1  0.34573579  0.89009991  0.86965071  1
  F  F60  1  0.27808324  0.46456081  0.24023926  1
  F  F61  1  0.58962919  0.68728334  0.82603782  1
  F  F62  1  0.12159121  0.71150211  0.00531406  1
  F  F63  1  0.67778675  0.73535682  0.28185874  1
  F  F64  1  0.90046613  0.13744834  0.10958102  1
  F  F65  1  0.86808104  0.24083896  0.51627574  1
  F  F66  1  0.08962919  0.18728334  0.67396218  1
  F  F67  1  0.13191896  0.75916104  0.48372426  1
  F  F68  1  0.25267430  0.93369177  0.00715108  1
  F  F69  1  0.82221325  0.76464318  0.78185874  1
  F  F70  1  0.59953387  0.36255166  0.60958102  1
  F  F71  1  0.24732570  0.56630823  0.50715108  1
  F  F72  1  0.22191676  0.03543919  0.74023926  1
  F  F73  1  0.09618984  0.41514990  0.13851103  1
  F  F74  1  0.90381016  0.58485010  0.86148897  1
  F  F75  1  0.87840879  0.28849789  0.99468594  1
  F  F76  1  0.16666898  0.01152988  0.59258259  1
  F  F77  1  0.33333102  0.48847012  0.09258259  1
  F  F78  1  0.17778675  0.23535682  0.21814126  1
  F  F79  1  0.66666898  0.51152988  0.90741741  1
  F  F80  1  0.41037081  0.31271666  0.17396218  1
  F  F81  1  0.65426421  0.10990009  0.13034929  1
  F  F82  1  0.32221325  0.26464318  0.71814126  1
  F  F83  1  0.77093460  0.73973846  0.92866393  1
  F  F84  1  0.74732570  0.06630823  0.99284892  1
  F  F85  1  0.91037081  0.81271666  0.32603782  1
  F  F86  1  0.27093460  0.23973846  0.57133607  1
  F  F87  1  0.84573579  0.39009991  0.63034929  1
  F  F88  1  0.40381016  0.08485010  0.63851103  1
  F  F89  1  0.77808324  0.96456081  0.25976074  1
  F  F90  1  0.15426421  0.60990009  0.36965071  1
  F  F91  1  0.62159121  0.21150211  0.49468594  1
  F  F92  1  0.83333102  0.98847012  0.40741741  1
  F  F93  1  0.71505806  0.16893806  0.63106917  1
  F  F94  1  0.72191676  0.53543919  0.75976074  1
  F  F95  1  0.75267430  0.43369177  0.49284892  1
