# generated using pymatgen
data_VBi2O5
_symmetry_space_group_name_H-M   'P 1'
_cell_length_a   5.46995546
_cell_length_b   15.32659284
_cell_length_c   16.52637257
_cell_angle_alpha   90.00000000
_cell_angle_beta   90.00000000
_cell_angle_gamma   90.00000000
_symmetry_Int_Tables_number   1
_chemical_formula_structural   VBi2O5
_chemical_formula_sum   'V12 Bi24 O60'
_cell_volume   1385.50133809
_cell_formula_units_Z   12
loop_
 _symmetry_equiv_pos_site_id
 _symmetry_equiv_pos_as_xyz
  1  'x, y, z'
loop_
 _atom_site_type_symbol
 _atom_site_label
 _atom_site_symmetry_multiplicity
 _atom_site_fract_x
 _atom_site_fract_y
 _atom_site_fract_z
 _atom_site_occupancy
  V  V0  1  0.75019940  0.49982387  0.91710020  1
  V  V1  1  0.25019940  0.00017613  0.58289980  1
  V  V2  1  0.74980060  0.99982387  0.08289980  1
  V  V3  1  0.24980060  0.50017613  0.41710020  1
  V  V4  1  0.24980060  0.50017613  0.08289980  1
  V  V5  1  0.74980060  0.99982387  0.41710020  1
  V  V6  1  0.25019940  0.00017613  0.91710020  1
  V  V7  1  0.75019940  0.49982387  0.58289980  1
  V  V8  1  0.74848159  0.48374732  0.25000000  1
  V  V9  1  0.24848159  0.01625268  0.25000000  1
  V  V10  1  0.75151841  0.98374732  0.75000000  1
  V  V11  1  0.25151841  0.51625268  0.75000000  1
  Bi  Bi12  1  0.24883646  0.66327672  0.91247886  1
  Bi  Bi13  1  0.74883646  0.83672328  0.58752114  1
  Bi  Bi14  1  0.25116354  0.16327672  0.08752114  1
  Bi  Bi15  1  0.75116354  0.33672328  0.41247886  1
  Bi  Bi16  1  0.75116354  0.33672328  0.08752114  1
  Bi  Bi17  1  0.25116354  0.16327672  0.41247886  1
  Bi  Bi18  1  0.74883646  0.83672328  0.91247886  1
  Bi  Bi19  1  0.24883646  0.66327672  0.58752114  1
  Bi  Bi20  1  0.25317721  0.32794467  0.91305063  1
  Bi  Bi21  1  0.75317721  0.17205533  0.58694937  1
  Bi  Bi22  1  0.24682279  0.82794467  0.08694937  1
  Bi  Bi23  1  0.74682279  0.67205533  0.41305063  1
  Bi  Bi24  1  0.74682279  0.67205533  0.08694937  1
  Bi  Bi25  1  0.24682279  0.82794467  0.41305063  1
  Bi  Bi26  1  0.75317721  0.17205533  0.91305063  1
  Bi  Bi27  1  0.25317721  0.32794467  0.58694937  1
  Bi  Bi28  1  0.24619842  0.66431534  0.25000000  1
  Bi  Bi29  1  0.74619842  0.83568466  0.25000000  1
  Bi  Bi30  1  0.25380158  0.16431534  0.75000000  1
  Bi  Bi31  1  0.75380158  0.33568466  0.75000000  1
  Bi  Bi32  1  0.24923095  0.34797638  0.25000000  1
  Bi  Bi33  1  0.74923095  0.15202362  0.25000000  1
  Bi  Bi34  1  0.25076905  0.84797638  0.75000000  1
  Bi  Bi35  1  0.75076905  0.65202362  0.75000000  1
  O  O36  1  0.50334034  0.24996821  0.82930688  1
  O  O37  1  0.00334034  0.25003179  0.67069312  1
  O  O38  1  0.99665966  0.74996821  0.17069312  1
  O  O39  1  0.49665966  0.75003179  0.32930688  1
  O  O40  1  0.49665966  0.75003179  0.17069312  1
  O  O41  1  0.99665966  0.74996821  0.32930688  1
  O  O42  1  0.00334034  0.25003179  0.82930688  1
  O  O43  1  0.50334034  0.24996821  0.67069312  1
  O  O44  1  0.49696340  0.75073133  0.84049076  1
  O  O45  1  0.99696340  0.74926867  0.65950924  1
  O  O46  1  0.00303660  0.25073133  0.15950924  1
  O  O47  1  0.50303660  0.24926867  0.34049076  1
  O  O48  1  0.50303660  0.24926867  0.15950924  1
  O  O49  1  0.00303660  0.25073133  0.34049076  1
  O  O50  1  0.99696340  0.74926867  0.84049076  1
  O  O51  1  0.49696340  0.75073133  0.65950924  1
  O  O52  1  0.50105029  0.24943196  0.99187693  1
  O  O53  1  0.00105029  0.25056804  0.50812307  1
  O  O54  1  0.99894971  0.74943196  0.00812307  1
  O  O55  1  0.49894971  0.75056804  0.49187693  1
  O  O56  1  0.49894971  0.75056804  0.00812307  1
  O  O57  1  0.99894971  0.74943196  0.49187693  1
  O  O58  1  0.00105029  0.25056804  0.99187693  1
  O  O59  1  0.50019504  0.44442995  0.16661950  1
  O  O60  1  0.50105029  0.24943196  0.50812307  1
  O  O61  1  0.50000000  0.00000000  0.50000000  1
  O  O62  1  0.50000000  0.00000000  0.00000000  1
  O  O63  1  0.00000000  0.50000000  0.50000000  1
  O  O64  1  0.50000000  0.50000000  0.00000000  1
  O  O65  1  0.00000000  0.00000000  0.50000000  1
  O  O66  1  0.00000000  0.00000000  0.00000000  1
  O  O67  1  0.50000000  0.50000000  0.50000000  1
  O  O68  1  0.49980496  0.55557005  0.83338050  1
  O  O69  1  -0.00019504  0.94442995  0.66661950  1
  O  O70  1  1.00019504  0.05557005  0.16661950  1
  O  O71  1  0.50019504  0.44442995  0.33338050  1
  O  O72  1  0.25059873  0.40467043  0.75000000  1
  O  O73  1  0.75059873  0.09532957  0.75000000  1
  O  O74  1  0.24940127  0.90467043  0.25000000  1
  O  O75  1  0.74940127  0.59532957  0.25000000  1
  O  O76  1  0.75030401  0.39377181  0.61242395  1
  O  O77  1  0.25030401  0.10622819  0.88757605  1
  O  O78  1  0.74969599  0.89377181  0.38757605  1
  O  O79  1  0.24969599  0.60622819  0.11242395  1
  O  O80  1  0.24969599  0.60622819  0.38757605  1
  O  O81  1  0.74969599  0.89377181  0.11242395  1
  O  O82  1  0.25030401  0.10622819  0.61242395  1
  O  O83  1  0.75030401  0.39377181  0.88757605  1
  O  O84  1  0.00256924  0.55594928  0.66691189  1
  O  O85  1  0.50256924  0.94405072  0.83308811  1
  O  O86  1  0.49743076  0.05594928  0.33308811  1
  O  O87  1  0.99743076  0.44405072  0.16691189  1
  O  O88  1  0.99743076  0.44405072  0.33308811  1
  O  O89  1  0.49743076  0.05594928  0.16691189  1
  O  O90  1  0.50256924  0.94405072  0.66691189  1
  O  O91  1  0.00256924  0.55594928  0.83308811  1
  O  O92  1  0.49980496  0.55557005  0.66661950  1
  O  O93  1  -0.00019504  0.94442995  0.83338050  1
  O  O94  1  1.00019504  0.05557005  0.33338050  1
  O  O95  1  0.00000000  0.50000000  0.00000000  1
