# generated using pymatgen
data_H32WC8N4Cl7
_symmetry_space_group_name_H-M   'P 1'
_cell_length_a   8.81591064
_cell_length_b   10.30205291
_cell_length_c   13.19379766
_cell_angle_alpha   90.00000000
_cell_angle_beta   90.00000000
_cell_angle_gamma   90.00000000
_symmetry_Int_Tables_number   1
_chemical_formula_structural   H32WC8N4Cl7
_chemical_formula_sum   'H64 W2 C16 N8 Cl14'
_cell_volume   1198.28679901
_cell_formula_units_Z   2
loop_
 _symmetry_equiv_pos_site_id
 _symmetry_equiv_pos_as_xyz
  1  'x, y, z'
loop_
 _atom_site_type_symbol
 _atom_site_label
 _atom_site_symmetry_multiplicity
 _atom_site_fract_x
 _atom_site_fract_y
 _atom_site_fract_z
 _atom_site_occupancy
  H  H0  1  0.04583499  0.66252800  0.25478734  1
  H  H1  1  0.19526525  0.23432813  0.08480649  1
  H  H2  1  0.28466493  0.60805504  0.17448616  1
  H  H3  1  0.47875981  0.12364544  0.23999173  1
  H  H4  1  0.52124019  0.37635456  0.73999173  1
  H  H5  1  0.10018212  0.15653865  0.98188222  1
  H  H6  1  0.04875490  0.82478277  0.44239606  1
  H  H7  1  0.80473475  0.73432813  0.41519351  1
  H  H8  1  0.28466493  0.39194496  0.82551384  1
  H  H9  1  0.19526525  0.76567187  0.91519351  1
  H  H10  1  0.11230666  0.07689723  0.10224885  1
  H  H11  1  0.04583499  0.33747200  0.74521266  1
  H  H12  1  0.33223010  0.10786477  0.44315441  1
  H  H13  1  0.16421194  0.19891347  0.72298866  1
  H  H14  1  0.80473475  0.26567187  0.58480649  1
  H  H15  1  0.16421194  0.80108653  0.27701134  1
  H  H16  1  0.76179934  0.35967365  0.82649006  1
  H  H17  1  0.03792444  0.32026275  0.22937847  1
  H  H18  1  0.95416501  0.83747200  0.75478734  1
  H  H19  1  0.89981788  0.65653865  0.51811778  1
  H  H20  1  0.86491725  0.82173415  0.92917287  1
  H  H21  1  0.61717560  0.91010921  0.55685224  1
  H  H22  1  0.60457015  0.96516767  0.34738556  1
  H  H23  1  0.83578806  0.69891347  0.77701134  1
  H  H24  1  0.11230666  0.92310277  0.89775115  1
  H  H25  1  0.96207556  0.82026275  0.27062153  1
  H  H26  1  0.95124510  0.67521723  0.94239606  1
  H  H27  1  0.88769334  0.57689723  0.39775115  1
  H  H28  1  0.67688259  0.48368772  0.15285625  1
  H  H29  1  0.13508275  0.67826585  0.42917287  1
  H  H30  1  0.95124510  0.32478277  0.05760394  1
  H  H31  1  0.49017094  0.23497933  0.33171889  1
  H  H32  1  0.04875490  0.17521723  0.55760394  1
  H  H33  1  0.39542985  0.53483233  0.84738556  1
  H  H34  1  0.23820066  0.85967365  0.67350994  1
  H  H35  1  0.03792444  0.67973725  0.77062153  1
  H  H36  1  0.76179934  0.64032635  0.17350994  1
  H  H37  1  0.23820066  0.14032635  0.32649006  1
  H  H38  1  0.60457015  0.03483233  0.65261444  1
  H  H39  1  0.86491725  0.17826585  0.07082713  1
  H  H40  1  0.32311741  0.01631228  0.65285625  1
  H  H41  1  0.96207556  0.17973725  0.72937847  1
  H  H42  1  0.88769334  0.42310277  0.60224885  1
  H  H43  1  0.66776990  0.60786477  0.05684559  1
  H  H44  1  0.95416501  0.16252800  0.24521266  1
  H  H45  1  0.10018212  0.84346135  0.01811778  1
  H  H46  1  0.32311741  0.98368772  0.34714375  1
  H  H47  1  0.33223010  0.89213523  0.55684559  1
  H  H48  1  0.52124019  0.62364544  0.26000827  1
  H  H49  1  0.47875981  0.87635456  0.76000827  1
  H  H50  1  0.83578806  0.30108653  0.22298866  1
  H  H51  1  0.50982906  0.26502067  0.83171889  1
  H  H52  1  0.71533507  0.89194496  0.67448616  1
  H  H53  1  0.71533507  0.10805504  0.32551384  1
  H  H54  1  0.49017094  0.76502067  0.66828111  1
  H  H55  1  0.66776990  0.39213523  0.94315441  1
  H  H56  1  0.50982906  0.73497933  0.16828111  1
  H  H57  1  0.89981788  0.34346135  0.48188222  1
  H  H58  1  0.61717560  0.08989079  0.44314776  1
  H  H59  1  0.38282440  0.41010921  0.94314776  1
  H  H60  1  0.13508275  0.32173415  0.57082713  1
  H  H61  1  0.38282440  0.58989079  0.05685224  1
  H  H62  1  0.67688259  0.51631228  0.84714375  1
  H  H63  1  0.39542985  0.46516767  0.15261444  1
  W  W64  1  0.57765324  0.00000000  0.00000000  1
  W  W65  1  0.42234676  0.50000000  0.50000000  1
  C  C66  1  0.89918727  0.32939907  0.56400261  1
  C  C67  1  0.05468853  0.24406606  0.70587876  1
  C  C68  1  0.33220312  0.91208242  0.63826726  1
  C  C69  1  0.05468853  0.75593394  0.29412124  1
  C  C70  1  0.66779688  0.41208242  0.86173274  1
  C  C71  1  0.94531147  0.74406606  0.79412124  1
  C  C72  1  0.94531147  0.25593394  0.20587876  1
  C  C73  1  0.61351608  0.06952174  0.36182881  1
  C  C74  1  0.89918727  0.67060093  0.43599739  1
  C  C75  1  0.33220312  0.08791758  0.36173274  1
  C  C76  1  0.38648392  0.43047826  0.86182881  1
  C  C77  1  0.66779688  0.58791758  0.13826726  1
  C  C78  1  0.38648392  0.56952174  0.13817119  1
  C  C79  1  0.10081273  0.82939907  0.93599739  1
  C  C80  1  0.61351608  0.93047826  0.63817119  1
  C  C81  1  0.10081273  0.17060093  0.06400261  1
  N  N82  1  0.52204946  0.63549337  0.18164325  1
  N  N83  1  0.95627127  0.23351125  0.09490850  1
  N  N84  1  0.95627127  0.76648875  0.90509150  1
  N  N85  1  0.47795054  0.13549337  0.31835675  1
  N  N86  1  0.52204946  0.36450663  0.81835675  1
  N  N87  1  0.04372873  0.26648875  0.59490850  1
  N  N88  1  0.47795054  0.86450663  0.68164325  1
  N  N89  1  0.04372873  0.73351125  0.40509150  1
  Cl  Cl90  1  0.56934905  0.78661037  0.91429586  1
  Cl  Cl91  1  0.99339471  0.00000000  0.50000000  1
  Cl  Cl92  1  0.43065095  0.71338963  0.41429586  1
  Cl  Cl93  1  0.00660529  0.50000000  0.00000000  1
  Cl  Cl94  1  0.61165540  0.57854333  0.62450985  1
  Cl  Cl95  1  0.22150430  0.57341581  0.61626724  1
  Cl  Cl96  1  0.77849570  0.92658419  0.11626724  1
  Cl  Cl97  1  0.38834460  0.07854333  0.87549015  1
  Cl  Cl98  1  0.38834460  0.92145667  0.12450985  1
  Cl  Cl99  1  0.61165540  0.42145667  0.37549015  1
  Cl  Cl100  1  0.77849570  0.07341581  0.88373276  1
  Cl  Cl101  1  0.56934905  0.21338963  0.08570414  1
  Cl  Cl102  1  0.43065095  0.28661037  0.58570414  1
  Cl  Cl103  1  0.22150430  0.42658419  0.38373276  1
