# generated using pymatgen
data_TaSi2PH18C6(NCl3)2
_symmetry_space_group_name_H-M   'P 1'
_cell_length_a   9.58095920
_cell_length_b   12.87933409
_cell_length_c   17.93492678
_cell_angle_alpha   90.00000000
_cell_angle_beta   102.81322854
_cell_angle_gamma   90.00000000
_symmetry_Int_Tables_number   1
_chemical_formula_structural   TaSi2PH18C6(NCl3)2
_chemical_formula_sum   'Ta4 Si8 P4 H72 C24 N8 Cl24'
_cell_volume   2157.99459358
_cell_formula_units_Z   4
loop_
 _symmetry_equiv_pos_site_id
 _symmetry_equiv_pos_as_xyz
  1  'x, y, z'
loop_
 _atom_site_type_symbol
 _atom_site_label
 _atom_site_symmetry_multiplicity
 _atom_site_fract_x
 _atom_site_fract_y
 _atom_site_fract_z
 _atom_site_occupancy
  Ta  Ta0  1  0.50811322  0.57326152  0.89731997  1
  Ta  Ta1  1  0.49188678  0.42673848  0.10268003  1
  Ta  Ta2  1  0.49188678  0.07326152  0.60268003  1
  Ta  Ta3  1  0.50811322  0.92673848  0.39731997  1
  Si  Si4  1  0.28517141  0.91134042  0.13211986  1
  Si  Si5  1  0.28517141  0.58865958  0.63211986  1
  Si  Si6  1  0.02137067  0.75605358  0.12919579  1
  Si  Si7  1  0.97862933  0.24394642  0.87080421  1
  Si  Si8  1  0.97862933  0.25605358  0.37080421  1
  Si  Si9  1  0.02137067  0.74394642  0.62919579  1
  Si  Si10  1  0.71482859  0.08865958  0.86788014  1
  Si  Si11  1  0.71482859  0.41134042  0.36788014  1
  P  P12  1  0.75947774  0.19253891  0.72630221  1
  P  P13  1  0.75947774  0.30746109  0.22630221  1
  P  P14  1  0.24052226  0.80746109  0.27369779  1
  P  P15  1  0.24052226  0.69253891  0.77369779  1
  H  H16  1  0.20945300  0.16761327  0.93443546  1
  H  H17  1  0.99816235  0.39641764  0.78530934  1
  H  H18  1  0.72801452  0.18965123  0.98836350  1
  H  H19  1  0.53361583  0.56600953  0.71272866  1
  H  H20  1  0.88365847  0.11003003  0.99867643  1
  H  H21  1  0.71915874  0.60261243  0.37761344  1
  H  H22  1  0.84009191  0.63875167  0.15092144  1
  H  H23  1  0.12160244  0.08611469  0.85831163  1
  H  H24  1  0.06264667  0.71264378  0.99834523  1
  H  H25  1  0.20945300  0.33238673  0.43443546  1
  H  H26  1  0.11634153  0.88996997  0.00132357  1
  H  H27  1  0.87839756  0.58611469  0.64168837  1
  H  H28  1  0.87839756  0.91388531  0.14168837  1
  H  H29  1  0.06965212  0.08393372  0.94757273  1
  H  H30  1  0.12160244  0.41388531  0.35831163  1
  H  H31  1  0.51665750  0.68733557  0.66376693  1
  H  H32  1  0.28418041  0.94615666  0.99978844  1
  H  H33  1  0.71581959  0.05384334  0.00021156  1
  H  H34  1  0.73145668  0.56364867  0.28454147  1
  H  H35  1  0.11634153  0.61003003  0.50132357  1
  H  H36  1  0.53361583  0.93399047  0.21272866  1
  H  H37  1  0.88512458  0.94315403  0.86135095  1
  H  H38  1  0.89843677  0.79008680  0.73662967  1
  H  H39  1  0.00183765  0.60358236  0.21469066  1
  H  H40  1  0.15951808  0.87199716  0.56970710  1
  H  H41  1  0.84048192  0.12800284  0.43029290  1
  H  H42  1  0.48334250  0.31266443  0.33623307  1
  H  H43  1  0.11487542  0.05684597  0.13864905  1
  H  H44  1  0.52754955  0.92918334  0.11296708  1
  H  H45  1  0.72801452  0.31034877  0.48836350  1
  H  H46  1  0.15951808  0.62800284  0.06970710  1
  H  H47  1  0.73145668  0.93635133  0.78454147  1
  H  H48  1  0.46638417  0.06600953  0.78727134  1
  H  H49  1  0.71581959  0.44615666  0.50021156  1
  H  H50  1  0.93034788  0.58393372  0.55242727  1
  H  H51  1  0.47245045  0.07081666  0.88703292  1
  H  H52  1  0.93735333  0.21264378  0.50165477  1
  H  H53  1  0.46638417  0.43399047  0.28727134  1
  H  H54  1  0.28084126  0.10261243  0.12238656  1
  H  H55  1  0.88365847  0.38996997  0.49867643  1
  H  H56  1  0.15990809  0.13875167  0.34907856  1
  H  H57  1  0.10156323  0.29008680  0.76337033  1
  H  H58  1  0.28084126  0.39738757  0.62238656  1
  H  H59  1  0.06965212  0.41606628  0.44757273  1
  H  H60  1  0.48334250  0.18733557  0.83623307  1
  H  H61  1  0.27198548  0.81034877  0.01163650  1
  H  H62  1  0.93735333  0.28735622  0.00165477  1
  H  H63  1  0.97159218  0.61402307  0.03739010  1
  H  H64  1  0.26854332  0.43635133  0.71545853  1
  H  H65  1  0.47245045  0.42918334  0.38703292  1
  H  H66  1  0.93034788  0.91606628  0.05242727  1
  H  H67  1  0.84009191  0.86124833  0.65092144  1
  H  H68  1  0.02840782  0.38597693  0.96260990  1
  H  H69  1  0.51665750  0.81266443  0.16376693  1
  H  H70  1  0.28418041  0.55384334  0.49978844  1
  H  H71  1  0.84048192  0.37199716  0.93029290  1
  H  H72  1  0.88512458  0.55684597  0.36135095  1
  H  H73  1  0.11487542  0.44315403  0.63864905  1
  H  H74  1  0.89843677  0.70991320  0.23662967  1
  H  H75  1  0.10156323  0.20991320  0.26337033  1
  H  H76  1  0.06264667  0.78735622  0.49834523  1
  H  H77  1  0.79054700  0.83238673  0.06556454  1
  H  H78  1  0.00183765  0.89641764  0.71469066  1
  H  H79  1  0.02840782  0.11402307  0.46260990  1
  H  H80  1  0.26854332  0.06364867  0.21545853  1
  H  H81  1  0.52754955  0.57081666  0.61296708  1
  H  H82  1  0.15990809  0.36124833  0.84907856  1
  H  H83  1  0.27198548  0.68965123  0.51163650  1
  H  H84  1  0.71915874  0.89738757  0.87761344  1
  H  H85  1  0.97159218  0.88597693  0.53739010  1
  H  H86  1  0.99816235  0.10358236  0.28530934  1
  H  H87  1  0.79054700  0.66761327  0.56556454  1
  C  C88  1  0.48415068  0.89456801  0.15928502  1
  C  C89  1  0.76854571  0.95442163  0.84561548  1
  C  C90  1  0.05893402  0.67121299  0.05120282  1
  C  C91  1  0.06457152  0.17009549  0.30935113  1
  C  C92  1  0.48415068  0.60543199  0.65928502  1
  C  C93  1  0.93542848  0.82990451  0.69064887  1
  C  C94  1  0.06457152  0.32990451  0.80935113  1
  C  C95  1  0.23124754  0.61469556  0.52676800  1
  C  C96  1  0.10520761  0.13447590  0.90618286  1
  C  C97  1  0.51584932  0.39456801  0.34071498  1
  C  C98  1  0.10520761  0.36552410  0.40618286  1
  C  C99  1  0.76875246  0.38530444  0.47323200  1
  C  C100  1  0.76875246  0.11469556  0.97323200  1
  C  C101  1  0.05893402  0.82878701  0.55120282  1
  C  C102  1  0.51584932  0.10543199  0.84071498  1
  C  C103  1  0.93542848  0.67009549  0.19064887  1
  C  C104  1  0.89479239  0.63447590  0.59381714  1
  C  C105  1  0.23145429  0.04557837  0.15438452  1
  C  C106  1  0.23145429  0.45442163  0.65438452  1
  C  C107  1  0.94106598  0.32878701  0.94879718  1
  C  C108  1  0.76854571  0.54557837  0.34561548  1
  C  C109  1  0.94106598  0.17121299  0.44879718  1
  C  C110  1  0.89479239  0.86552410  0.09381714  1
  C  C111  1  0.23124754  0.88530444  0.02676800  1
  N  N112  1  0.81011881  0.31784340  0.31812605  1
  N  N113  1  0.62497886  0.37309783  0.18539650  1
  N  N114  1  0.37502114  0.62690217  0.81460350  1
  N  N115  1  0.18988119  0.81784340  0.18187395  1
  N  N116  1  0.62497886  0.12690217  0.68539650  1
  N  N117  1  0.18988119  0.68215660  0.68187395  1
  N  N118  1  0.37502114  0.87309783  0.31460350  1
  N  N119  1  0.81011881  0.18215660  0.81812605  1
  Cl  Cl120  1  0.27346329  0.10563648  0.63634757  1
  Cl  Cl121  1  0.67131353  0.48513854  0.03133400  1
  Cl  Cl122  1  0.32868647  0.98513854  0.46866600  1
  Cl  Cl123  1  0.07716973  0.84611637  0.32385586  1
  Cl  Cl124  1  0.67131353  0.01486146  0.53133400  1
  Cl  Cl125  1  0.46198885  0.22543723  0.52768366  1
  Cl  Cl126  1  0.92283027  0.15388363  0.67614414  1
  Cl  Cl127  1  0.48941463  0.90201506  0.64851090  1
  Cl  Cl128  1  0.46198885  0.27456277  0.02768366  1
  Cl  Cl129  1  0.27632329  0.65619306  0.30287045  1
  Cl  Cl130  1  0.27632329  0.84380694  0.80287045  1
  Cl  Cl131  1  0.72653671  0.60563648  0.86365243  1
  Cl  Cl132  1  0.92283027  0.34611637  0.17614414  1
  Cl  Cl133  1  0.53801115  0.77456277  0.47231634  1
  Cl  Cl134  1  0.72367671  0.15619306  0.19712955  1
  Cl  Cl135  1  0.32868647  0.51486146  0.96866600  1
  Cl  Cl136  1  0.53801115  0.72543723  0.97231634  1
  Cl  Cl137  1  0.51058537  0.40201506  0.85148910  1
  Cl  Cl138  1  0.07716973  0.65388363  0.82385586  1
  Cl  Cl139  1  0.48941463  0.59798494  0.14851090  1
  Cl  Cl140  1  0.72367671  0.34380694  0.69712955  1
  Cl  Cl141  1  0.72653671  0.89436352  0.36365243  1
  Cl  Cl142  1  0.27346329  0.39436352  0.13634757  1
  Cl  Cl143  1  0.51058537  0.09798494  0.35148910  1
