# generated using pymatgen
data_HfMg30NbO32
_symmetry_space_group_name_H-M   'P 1'
_cell_length_a   8.64726380
_cell_length_b   8.62866041
_cell_length_c   8.62866041
_cell_angle_alpha   90.00000000
_cell_angle_beta   90.00000000
_cell_angle_gamma   90.00000000
_symmetry_Int_Tables_number   1
_chemical_formula_structural   HfMg30NbO32
_chemical_formula_sum   'Hf1 Mg30 Nb1 O32'
_cell_volume   643.82148064
_cell_formula_units_Z   1
loop_
 _symmetry_equiv_pos_site_id
 _symmetry_equiv_pos_as_xyz
  1  'x, y, z'
loop_
 _atom_site_type_symbol
 _atom_site_label
 _atom_site_symmetry_multiplicity
 _atom_site_fract_x
 _atom_site_fract_y
 _atom_site_fract_z
 _atom_site_occupancy
  Hf  Hf0  1  0.00000000  0.50000000  0.50000000  1
  Mg  Mg1  1  0.00000000  -0.00000000  0.50000000  1
  Mg  Mg2  1  0.00000000  0.50000000  0.00000000  1
  Mg  Mg3  1  0.50000000  -0.00000000  0.00000000  1
  Mg  Mg4  1  0.50000000  -0.00000000  0.50000000  1
  Mg  Mg5  1  0.50000000  0.50000000  0.00000000  1
  Mg  Mg6  1  0.50000000  0.50000000  0.50000000  1
  Mg  Mg7  1  0.00000000  0.24613713  0.24613713  1
  Mg  Mg8  1  0.00000000  0.24613713  0.75386287  1
  Mg  Mg9  1  0.00000000  0.75386287  0.24613713  1
  Mg  Mg10  1  0.00000000  0.75386287  0.75386287  1
  Mg  Mg11  1  0.50000000  0.24943567  0.24943567  1
  Mg  Mg12  1  0.50000000  0.24943567  0.75056433  1
  Mg  Mg13  1  0.50000000  0.75056433  0.24943567  1
  Mg  Mg14  1  0.50000000  0.75056433  0.75056433  1
  Mg  Mg15  1  0.25261463  -0.00000000  0.25098182  1
  Mg  Mg16  1  0.25261463  -0.00000000  0.74901818  1
  Mg  Mg17  1  0.25495365  0.50000000  0.24627485  1
  Mg  Mg18  1  0.25495365  0.50000000  0.75372515  1
  Mg  Mg19  1  0.74738537  -0.00000000  0.25098182  1
  Mg  Mg20  1  0.74738537  -0.00000000  0.74901818  1
  Mg  Mg21  1  0.74504635  0.50000000  0.24627485  1
  Mg  Mg22  1  0.74504635  0.50000000  0.75372515  1
  Mg  Mg23  1  0.25261463  0.25098182  -0.00000000  1
  Mg  Mg24  1  0.25495365  0.24627485  0.50000000  1
  Mg  Mg25  1  0.25261463  0.74901818  0.00000000  1
  Mg  Mg26  1  0.25495365  0.75372515  0.50000000  1
  Mg  Mg27  1  0.74738537  0.25098182  0.00000000  1
  Mg  Mg28  1  0.74504635  0.24627485  0.50000000  1
  Mg  Mg29  1  0.74738537  0.74901818  0.00000000  1
  Mg  Mg30  1  0.74504635  0.75372515  0.50000000  1
  Nb  Nb31  1  0.00000000  -0.00000000  0.00000000  1
  O  O32  1  0.26211549  -0.00000000  0.00000000  1
  O  O33  1  0.25068293  -0.00000000  0.50000000  1
  O  O34  1  0.25068293  0.50000000  0.00000000  1
  O  O35  1  0.25552485  0.50000000  0.50000000  1
  O  O36  1  0.73788451  -0.00000000  -0.00000000  1
  O  O37  1  0.74931707  -0.00000000  0.50000000  1
  O  O38  1  0.74931707  0.50000000  -0.00000000  1
  O  O39  1  0.74447515  0.50000000  0.50000000  1
  O  O40  1  0.24892813  0.25040094  0.25040094  1
  O  O41  1  0.24892813  0.25040094  0.74959906  1
  O  O42  1  0.24892813  0.74959906  0.25040094  1
  O  O43  1  0.24892813  0.74959906  0.74959906  1
  O  O44  1  0.75107187  0.25040094  0.25040094  1
  O  O45  1  0.75107187  0.25040094  0.74959906  1
  O  O46  1  0.75107187  0.74959906  0.25040094  1
  O  O47  1  0.75107187  0.74959906  0.74959906  1
  O  O48  1  0.00000000  -0.00000000  0.26267930  1
  O  O49  1  0.00000000  -0.00000000  0.73732070  1
  O  O50  1  0.00000000  0.50000000  0.25001930  1
  O  O51  1  0.00000000  0.50000000  0.74998070  1
  O  O52  1  0.50000000  -0.00000000  0.25145501  1
  O  O53  1  0.50000000  -0.00000000  0.74854499  1
  O  O54  1  0.50000000  0.50000000  0.24968935  1
  O  O55  1  0.50000000  0.50000000  0.75031065  1
  O  O56  1  0.00000000  0.26267930  -0.00000000  1
  O  O57  1  0.00000000  0.25001930  0.50000000  1
  O  O58  1  0.00000000  0.73732070  0.00000000  1
  O  O59  1  0.00000000  0.74998070  0.50000000  1
  O  O60  1  0.50000000  0.25145501  0.00000000  1
  O  O61  1  0.50000000  0.24968935  0.50000000  1
  O  O62  1  0.50000000  0.74854499  -0.00000000  1
  O  O63  1  0.50000000  0.75031065  0.50000000  1
