# generated using pymatgen
data_K2NaCo(CN)6
_symmetry_space_group_name_H-M   'P 1'
_cell_length_a   7.10452151
_cell_length_b   7.60428279
_cell_length_c   10.40609414
_cell_angle_alpha   90.00000000
_cell_angle_beta   90.72521543
_cell_angle_gamma   90.00000000
_symmetry_Int_Tables_number   1
_chemical_formula_structural   K2NaCo(CN)6
_chemical_formula_sum   'K4 Na2 Co2 C12 N12'
_cell_volume   562.14202415
_cell_formula_units_Z   2
loop_
 _symmetry_equiv_pos_site_id
 _symmetry_equiv_pos_as_xyz
  1  'x, y, z'
loop_
 _atom_site_type_symbol
 _atom_site_label
 _atom_site_symmetry_multiplicity
 _atom_site_fract_x
 _atom_site_fract_y
 _atom_site_fract_z
 _atom_site_occupancy
  K  K0  1  0.52554464  0.42263434  0.74786871  1
  K  K1  1  0.47445536  0.57736566  0.25213129  1
  K  K2  1  0.97445536  0.92263434  0.75213129  1
  K  K3  1  0.02554464  0.07736566  0.24786871  1
  Na  Na4  1  0.50000000  0.00000000  0.50000000  1
  Na  Na5  1  0.00000000  0.50000000  0.00000000  1
  Co  Co6  1  0.50000000  0.00000000  0.00000000  1
  Co  Co7  1  0.00000000  0.50000000  0.50000000  1
  C  C8  1  0.41571469  0.02734751  0.82980103  1
  C  C9  1  0.78275096  0.62945396  0.53733057  1
  C  C10  1  0.12513227  0.70723638  0.45294158  1
  C  C11  1  0.87486773  0.29276362  0.54705842  1
  C  C12  1  0.62513227  0.79276362  0.95294158  1
  C  C13  1  0.28275096  0.87054604  0.03733057  1
  C  C14  1  0.08428531  0.52734751  0.67019897  1
  C  C15  1  0.58428531  0.97265249  0.17019897  1
  C  C16  1  0.37486773  0.20723638  0.04705842  1
  C  C17  1  0.71724904  0.12945396  0.96266943  1
  C  C18  1  0.21724904  0.37054604  0.46266943  1
  C  C19  1  0.91571469  0.47265249  0.32980103  1
  N  N20  1  0.63537043  0.95294308  0.27714606  1
  N  N21  1  0.13537043  0.54705692  0.77714606  1
  N  N22  1  0.14667463  0.79039861  0.06275395  1
  N  N23  1  0.36462957  0.04705692  0.72285394  1
  N  N24  1  0.64667463  0.70960139  0.56275395  1
  N  N25  1  0.70625559  0.66485827  0.92267516  1
  N  N26  1  0.35332537  0.29039861  0.43724605  1
  N  N27  1  0.85332537  0.20960139  0.93724605  1
  N  N28  1  0.29374441  0.33514173  0.07732484  1
  N  N29  1  0.86462957  0.45294308  0.22285394  1
  N  N30  1  0.20625559  0.83514173  0.42267516  1
  N  N31  1  0.79374441  0.16485827  0.57732484  1
