# generated using pymatgen
data_GaSe2NCl6
_symmetry_space_group_name_H-M   'P 1'
_cell_length_a   10.19615190
_cell_length_b   11.05995733
_cell_length_c   11.81437844
_cell_angle_alpha   90.00000000
_cell_angle_beta   90.00000000
_cell_angle_gamma   114.47532826
_symmetry_Int_Tables_number   1
_chemical_formula_structural   GaSe2NCl6
_chemical_formula_sum   'Ga4 Se8 N4 Cl24'
_cell_volume   1212.57528274
_cell_formula_units_Z   4
loop_
 _symmetry_equiv_pos_site_id
 _symmetry_equiv_pos_as_xyz
  1  'x, y, z'
loop_
 _atom_site_type_symbol
 _atom_site_label
 _atom_site_symmetry_multiplicity
 _atom_site_fract_x
 _atom_site_fract_y
 _atom_site_fract_z
 _atom_site_occupancy
  Ga  Ga0  1  0.17252605  0.48702212  0.19364937  1
  Ga  Ga1  1  0.82747395  0.51297788  0.80635063  1
  Ga  Ga2  1  0.82747395  0.01297788  0.69364937  1
  Ga  Ga3  1  0.17252605  0.98702212  0.30635063  1
  Se  Se4  1  0.27382677  0.45414457  0.54646097  1
  Se  Se5  1  0.72617323  0.54585543  0.45353903  1
  Se  Se6  1  0.27382677  0.95414457  0.95353903  1
  Se  Se7  1  0.21160214  0.87899733  0.68185633  1
  Se  Se8  1  0.78839786  0.12100267  0.31814367  1
  Se  Se9  1  0.72617323  0.04585543  0.04646097  1
  Se  Se10  1  0.21160214  0.37899733  0.81814367  1
  Se  Se11  1  0.78839786  0.62100267  0.18185633  1
  N  N12  1  0.21481774  0.37242258  0.67242174  1
  N  N13  1  0.21481774  0.87242258  0.82757826  1
  N  N14  1  0.78518226  0.12757742  0.17242174  1
  N  N15  1  0.78518226  0.62757742  0.32757826  1
  Cl  Cl16  1  0.16360860  0.82176327  0.41422432  1
  Cl  Cl17  1  0.14213171  0.14273054  0.40289495  1
  Cl  Cl18  1  0.99696409  0.91307214  0.17615910  1
  Cl  Cl19  1  0.00303591  0.08692786  0.82384090  1
  Cl  Cl20  1  0.83639140  0.67823673  0.91422432  1
  Cl  Cl21  1  0.14213171  0.64273054  0.09710505  1
  Cl  Cl22  1  0.63452855  0.92201330  0.36795421  1
  Cl  Cl23  1  0.37773243  0.56697408  0.28799748  1
  Cl  Cl24  1  0.42377824  0.16005161  0.92029439  1
  Cl  Cl25  1  0.83639140  0.17823673  0.58577568  1
  Cl  Cl26  1  0.00303591  0.58692786  0.67615910  1
  Cl  Cl27  1  0.37773243  0.06697408  0.21200252  1
  Cl  Cl28  1  0.36547145  0.57798670  0.86795421  1
  Cl  Cl29  1  0.99696409  0.41307214  0.32384090  1
  Cl  Cl30  1  0.36547145  0.07798670  0.63204579  1
  Cl  Cl31  1  0.85786829  0.85726946  0.59710505  1
  Cl  Cl32  1  0.16360860  0.32176327  0.08577568  1
  Cl  Cl33  1  0.63452855  0.42201330  0.13204579  1
  Cl  Cl34  1  0.57622176  0.83994839  0.07970561  1
  Cl  Cl35  1  0.62226757  0.43302592  0.71200252  1
  Cl  Cl36  1  0.42377824  0.66005161  0.57970561  1
  Cl  Cl37  1  0.62226757  0.93302592  0.78799748  1
  Cl  Cl38  1  0.57622176  0.33994839  0.42029439  1
  Cl  Cl39  1  0.85786829  0.35726946  0.90289495  1
