# generated using pymatgen
data_AlGe2P(H3C)8
_symmetry_space_group_name_H-M   'P 1'
_cell_length_a   9.43313058
_cell_length_b   9.92817419
_cell_length_c   10.04550638
_cell_angle_alpha   76.81827427
_cell_angle_beta   80.49689637
_cell_angle_gamma   63.92935912
_symmetry_Int_Tables_number   1
_chemical_formula_structural   AlGe2P(H3C)8
_chemical_formula_sum   'Al2 Ge4 P2 H48 C16'
_cell_volume   820.54220139
_cell_formula_units_Z   2
loop_
 _symmetry_equiv_pos_site_id
 _symmetry_equiv_pos_as_xyz
  1  'x, y, z'
loop_
 _atom_site_type_symbol
 _atom_site_label
 _atom_site_symmetry_multiplicity
 _atom_site_fract_x
 _atom_site_fract_y
 _atom_site_fract_z
 _atom_site_occupancy
  Al  Al0  1  0.01985962  0.63434603  0.07540318  1
  Al  Al1  1  0.98014038  0.36565397  0.92459682  1
  Ge  Ge2  1  0.72222457  0.80857970  0.77015809  1
  Ge  Ge3  1  0.83620029  0.34308078  0.32379571  1
  Ge  Ge4  1  0.27777543  0.19142030  0.22984191  1
  Ge  Ge5  1  0.16379971  0.65691922  0.67620429  1
  P  P6  1  0.02997907  0.37562649  0.15561509  1
  P  P7  1  0.97002093  0.62437351  0.84438491  1
  H  H8  1  0.81007659  0.02060325  0.64812590  1
  H  H9  1  0.39649079  0.90255389  0.30175130  1
  H  H10  1  0.32824890  0.34653687  0.37460481  1
  H  H11  1  0.44674021  0.30830340  0.06180700  1
  H  H12  1  0.16874661  0.09207990  0.89041086  1
  H  H13  1  0.42331095  0.17093936  0.99045654  1
  H  H14  1  0.80316661  0.30582171  0.58464726  1
  H  H15  1  0.36076861  0.37630947  0.69145413  1
  H  H16  1  0.74080552  0.38195341  0.81730380  1
  H  H17  1  0.72479695  0.79282973  0.16125784  1
  H  H18  1  0.77952399  0.16821776  0.20826195  1
  H  H19  1  0.45665038  0.50043426  0.62503807  1
  H  H20  1  0.18992341  0.97939675  0.35187410  1
  H  H21  1  0.76106452  0.76945695  0.51821621  1
  H  H22  1  0.44315291  0.14721500  0.42483526  1
  H  H23  1  0.55325979  0.69169660  0.93819300  1
  H  H24  1  0.25919448  0.61804659  0.18269620  1
  H  H25  1  0.67175110  0.65346313  0.62539519  1
  H  H26  1  0.99225054  0.77755893  0.46932131  1
  H  H27  1  0.72198358  0.14480698  0.38731285  1
  H  H28  1  0.92549707  0.05683411  0.32800187  1
  H  H29  1  0.32873902  0.54636052  0.02698086  1
  H  H30  1  0.57668905  0.82906064  0.00954346  1
  H  H31  1  0.07450293  0.94316589  0.67199813  1
  H  H32  1  0.54334962  0.49956574  0.37496193  1
  H  H33  1  0.74328575  0.04078324  0.82237641  1
  H  H34  1  0.60350921  0.09744611  0.69824870  1
  H  H35  1  0.55807048  0.11006785  0.11978127  1
  H  H36  1  0.09361074  0.57612469  0.47892504  1
  H  H37  1  0.77069545  0.25491889  0.97560912  1
  H  H38  1  0.19683339  0.69417829  0.41535274  1
  H  H39  1  0.23893548  0.23054305  0.48178379  1
  H  H40  1  0.13989049  0.21615967  0.73006932  1
  H  H41  1  0.44192952  0.88993215  0.88021873  1
  H  H42  1  0.27520305  0.20717027  0.83874216  1
  H  H43  1  0.86010951  0.78384033  0.26993068  1
  H  H44  1  0.27801642  0.85519302  0.61268715  1
  H  H45  1  0.00774946  0.22244107  0.53067869  1
  H  H46  1  0.59107855  0.53738660  0.19528065  1
  H  H47  1  0.83125339  0.90792010  0.10958914  1
  H  H48  1  0.55684709  0.85278500  0.57516474  1
  H  H49  1  0.22047601  0.83178224  0.79173805  1
  H  H50  1  0.90638926  0.42387531  0.52107496  1
  H  H51  1  0.40892145  0.46261340  0.80471935  1
  H  H52  1  0.22930455  0.74508111  0.02439088  1
  H  H53  1  0.67126098  0.45363948  0.97301914  1
  H  H54  1  0.63923139  0.62369053  0.30854587  1
  H  H55  1  0.25671425  0.95921676  0.17762359  1
  C  C56  1  0.55678667  0.80349132  0.91561335  1
  C  C57  1  0.89549611  0.32180886  0.50903790  1
  C  C58  1  0.10450389  0.67819114  0.49096210  1
  C  C59  1  0.36872290  0.47978531  0.70335848  1
  C  C60  1  0.15971514  0.20558295  0.83773406  1
  C  C61  1  0.27942834  0.98699781  0.26934297  1
  C  C62  1  0.32579137  0.23415481  0.39550808  1
  C  C63  1  0.23021371  0.63433844  0.07663358  1
  C  C64  1  0.76978629  0.36566156  0.92336642  1
  C  C65  1  0.63127710  0.52021469  0.29664152  1
  C  C66  1  0.84028486  0.79441705  0.16226594  1
  C  C67  1  0.44321333  0.19650868  0.08438665  1
  C  C68  1  0.67420863  0.76584519  0.60449192  1
  C  C69  1  0.18586145  0.84150754  0.68985086  1
  C  C70  1  0.72057166  0.01300219  0.73065703  1
  C  C71  1  0.81413855  0.15849246  0.31014914  1
