# generated using pymatgen
data_Rb
_symmetry_space_group_name_H-M   'P 1'
_cell_length_a   10.12031851
_cell_length_b   10.12031902
_cell_length_c   25.50585549
_cell_angle_alpha   90.00000000
_cell_angle_beta   90.00000000
_cell_angle_gamma   109.83822442
_symmetry_Int_Tables_number   1
_chemical_formula_structural   Rb
_chemical_formula_sum   Rb26
_cell_volume   2457.30152459
_cell_formula_units_Z   26
loop_
 _symmetry_equiv_pos_site_id
 _symmetry_equiv_pos_as_xyz
  1  'x, y, z'
loop_
 _atom_site_type_symbol
 _atom_site_label
 _atom_site_symmetry_multiplicity
 _atom_site_fract_x
 _atom_site_fract_y
 _atom_site_fract_z
 _atom_site_occupancy
  Rb  Rb0  1  0.41262668  0.60096542  0.92745867  1
  Rb  Rb1  1  0.60096542  0.41262668  0.07254133  1
  Rb  Rb2  1  0.17539439  0.96045536  0.39339583  1
  Rb  Rb3  1  0.08976979  0.91023021  0.75000000  1
  Rb  Rb4  1  0.42908011  0.14210607  0.23276513  1
  Rb  Rb5  1  0.82460561  0.03954464  0.89339583  1
  Rb  Rb6  1  0.03954464  0.82460561  0.10660417  1
  Rb  Rb7  1  0.70667042  0.97247493  0.45613107  1
  Rb  Rb8  1  0.97247493  0.70667042  0.54386893  1
  Rb  Rb9  1  0.02752507  0.29332958  0.04386893  1
  Rb  Rb10  1  0.85789393  0.57091989  0.26723487  1
  Rb  Rb11  1  0.39903458  0.58737332  0.57254133  1
  Rb  Rb12  1  0.41759513  0.09337719  0.58878520  1
  Rb  Rb13  1  0.48445888  0.74015727  0.31692558  1
  Rb  Rb14  1  0.57091989  0.85789393  0.73276513  1
  Rb  Rb15  1  0.51554112  0.25984273  0.81692558  1
  Rb  Rb16  1  0.25984273  0.51554112  0.18307442  1
  Rb  Rb17  1  0.09337719  0.41759513  0.41121480  1
  Rb  Rb18  1  0.91023021  0.08976979  0.25000000  1
  Rb  Rb19  1  0.58737332  0.39903458  0.42745867  1
  Rb  Rb20  1  0.14210607  0.42908011  0.76723487  1
  Rb  Rb21  1  0.96045536  0.17539439  0.60660417  1
  Rb  Rb22  1  0.74015727  0.48445888  0.68307442  1
  Rb  Rb23  1  0.58240487  0.90662281  0.08878520  1
  Rb  Rb24  1  0.29332958  0.02752507  0.95613107  1
  Rb  Rb25  1  0.90662281  0.58240487  0.91121480  1
