# generated using pymatgen
data_Mg30CrCO32
_symmetry_space_group_name_H-M   'P 1'
_cell_length_a   8.57246575
_cell_length_b   8.49537267
_cell_length_c   8.49537267
_cell_angle_alpha   90.00000000
_cell_angle_beta   90.00000000
_cell_angle_gamma   90.00000000
_symmetry_Int_Tables_number   1
_chemical_formula_structural   Mg30CrCO32
_chemical_formula_sum   'Mg30 Cr1 C1 O32'
_cell_volume   618.68648432
_cell_formula_units_Z   1
loop_
 _symmetry_equiv_pos_site_id
 _symmetry_equiv_pos_as_xyz
  1  'x, y, z'
loop_
 _atom_site_type_symbol
 _atom_site_label
 _atom_site_symmetry_multiplicity
 _atom_site_fract_x
 _atom_site_fract_y
 _atom_site_fract_z
 _atom_site_occupancy
  Mg  Mg0  1  0.00000000  0.00000000  0.50000000  1
  Mg  Mg1  1  0.00000000  0.50000000  -0.00000000  1
  Mg  Mg2  1  0.50000000  0.00000000  -0.00000000  1
  Mg  Mg3  1  0.50000000  0.00000000  0.50000000  1
  Mg  Mg4  1  0.50000000  0.50000000  -0.00000000  1
  Mg  Mg5  1  0.50000000  0.50000000  0.50000000  1
  Mg  Mg6  1  0.00000000  0.25288058  0.25288058  1
  Mg  Mg7  1  0.00000000  0.25288058  0.74711942  1
  Mg  Mg8  1  0.00000000  0.74711942  0.25288058  1
  Mg  Mg9  1  0.00000000  0.74711942  0.74711942  1
  Mg  Mg10  1  0.50000000  0.24986847  0.24986847  1
  Mg  Mg11  1  0.50000000  0.24986847  0.75013153  1
  Mg  Mg12  1  0.50000000  0.75013153  0.24986847  1
  Mg  Mg13  1  0.50000000  0.75013153  0.75013153  1
  Mg  Mg14  1  0.25152101  0.00000000  0.24962190  1
  Mg  Mg15  1  0.25152101  0.00000000  0.75037810  1
  Mg  Mg16  1  0.24831819  0.50000000  0.25173487  1
  Mg  Mg17  1  0.24831819  0.50000000  0.74826513  1
  Mg  Mg18  1  0.74847899  0.00000000  0.24962190  1
  Mg  Mg19  1  0.74847899  0.00000000  0.75037810  1
  Mg  Mg20  1  0.75168181  0.50000000  0.25173487  1
  Mg  Mg21  1  0.75168181  0.50000000  0.74826513  1
  Mg  Mg22  1  0.25152101  0.24962190  -0.00000000  1
  Mg  Mg23  1  0.24831819  0.25173487  0.50000000  1
  Mg  Mg24  1  0.25152101  0.75037810  -0.00000000  1
  Mg  Mg25  1  0.24831819  0.74826513  0.50000000  1
  Mg  Mg26  1  0.74847899  0.24962190  -0.00000000  1
  Mg  Mg27  1  0.75168181  0.25173487  0.50000000  1
  Mg  Mg28  1  0.74847899  0.75037810  -0.00000000  1
  Mg  Mg29  1  0.75168181  0.74826513  0.50000000  1
  Cr  Cr30  1  0.00000000  0.00000000  -0.00000000  1
  C  C31  1  0.00000000  0.50000000  0.50000000  1
  O  O32  1  0.26470603  0.00000000  -0.00000000  1
  O  O33  1  0.24913630  0.00000000  0.50000000  1
  O  O34  1  0.24913630  0.50000000  -0.00000000  1
  O  O35  1  0.25138756  0.50000000  0.50000000  1
  O  O36  1  0.73529397  0.00000000  -0.00000000  1
  O  O37  1  0.75086370  0.00000000  0.50000000  1
  O  O38  1  0.75086370  0.50000000  -0.00000000  1
  O  O39  1  0.74861244  0.50000000  0.50000000  1
  O  O40  1  0.24866526  0.25038840  0.25038840  1
  O  O41  1  0.24866526  0.25038840  0.74961160  1
  O  O42  1  0.24866526  0.74961160  0.25038840  1
  O  O43  1  0.24866526  0.74961160  0.74961160  1
  O  O44  1  0.75133474  0.25038840  0.25038840  1
  O  O45  1  0.75133474  0.25038840  0.74961160  1
  O  O46  1  0.75133474  0.74961160  0.25038840  1
  O  O47  1  0.75133474  0.74961160  0.74961160  1
  O  O48  1  0.00000000  0.00000000  0.25149903  1
  O  O49  1  0.00000000  0.00000000  0.74850097  1
  O  O50  1  0.00000000  0.50000000  0.24837702  1
  O  O51  1  0.00000000  0.50000000  0.75162298  1
  O  O52  1  0.50000000  0.00000000  0.25217837  1
  O  O53  1  0.50000000  0.00000000  0.74782163  1
  O  O54  1  0.50000000  0.50000000  0.25088759  1
  O  O55  1  0.50000000  0.50000000  0.74911241  1
  O  O56  1  0.00000000  0.25149903  -0.00000000  1
  O  O57  1  0.00000000  0.24837702  0.50000000  1
  O  O58  1  0.00000000  0.74850097  -0.00000000  1
  O  O59  1  0.00000000  0.75162298  0.50000000  1
  O  O60  1  0.50000000  0.25217837  -0.00000000  1
  O  O61  1  0.50000000  0.25088759  0.50000000  1
  O  O62  1  0.50000000  0.74782163  -0.00000000  1
  O  O63  1  0.50000000  0.74911241  0.50000000  1
