# generated using pymatgen
data_NiH4C2(S2N)2
_symmetry_space_group_name_H-M   'P 1'
_cell_length_a   7.23177698
_cell_length_b   8.50619684
_cell_length_c   13.11622434
_cell_angle_alpha   90.00000000
_cell_angle_beta   90.00000000
_cell_angle_gamma   90.01113314
_symmetry_Int_Tables_number   1
_chemical_formula_structural   NiH4C2(S2N)2
_chemical_formula_sum   'Ni4 H16 C8 S16 N8'
_cell_volume   806.84345570
_cell_formula_units_Z   4
loop_
 _symmetry_equiv_pos_site_id
 _symmetry_equiv_pos_as_xyz
  1  'x, y, z'
loop_
 _atom_site_type_symbol
 _atom_site_label
 _atom_site_symmetry_multiplicity
 _atom_site_fract_x
 _atom_site_fract_y
 _atom_site_fract_z
 _atom_site_occupancy
  Ni  Ni0  1  0.86148061  0.97658296  0.87145760  1
  Ni  Ni1  1  0.63851939  0.52341704  0.37145760  1
  Ni  Ni2  1  0.13851939  0.02341704  0.12854240  1
  Ni  Ni3  1  0.36148061  0.47658296  0.62854240  1
  H  H4  1  0.35934586  0.97747073  0.76676852  1
  H  H5  1  0.14065414  0.52252927  0.26676852  1
  H  H6  1  0.32872400  0.96778688  0.50470906  1
  H  H7  1  0.68885150  0.56470710  0.08321429  1
  H  H8  1  0.82872400  0.46778688  0.99529094  1
  H  H9  1  0.49666777  0.12185954  0.14694309  1
  H  H10  1  0.99666777  0.62185954  0.35305691  1
  H  H11  1  0.81114850  0.93529290  0.58321429  1
  H  H12  1  0.17127600  0.53221312  0.00470906  1
  H  H13  1  0.64065414  0.02252927  0.23323148  1
  H  H14  1  0.85934586  0.47747073  0.73323148  1
  H  H15  1  0.67127600  0.03221312  0.49529094  1
  H  H16  1  0.18885150  0.06470710  0.41678571  1
  H  H17  1  0.00333223  0.37814046  0.64694309  1
  H  H18  1  0.31114850  0.43529290  0.91678571  1
  H  H19  1  0.50333223  0.87814046  0.85305691  1
  C  C20  1  0.30856303  0.20566922  0.52638015  1
  C  C21  1  0.10501977  0.75690736  0.23837416  1
  C  C22  1  0.69143697  0.79433078  0.47361985  1
  C  C23  1  0.89498023  0.24309264  0.76162584  1
  C  C24  1  0.39498023  0.74309264  0.73837416  1
  C  C25  1  0.80856303  0.70566922  0.97361985  1
  C  C26  1  0.19143697  0.29433078  0.02638015  1
  C  C27  1  0.60501977  0.25690736  0.26162584  1
  S  S28  1  0.76406784  0.22192989  0.86953966  1
  S  S29  1  0.23593216  0.77807011  0.13046034  1
  S  S30  1  0.73593216  0.27807011  0.36953966  1
  S  S31  1  0.00969075  0.93572250  0.26957866  1
  S  S32  1  0.71921989  0.88449492  0.00752375  1
  S  S33  1  0.21921989  0.38449492  0.49247625  1
  S  S34  1  0.26406784  0.72192989  0.63046034  1
  S  S35  1  0.55235525  0.77215773  0.36914174  1
  S  S36  1  0.99030925  0.06427750  0.73042134  1
  S  S37  1  0.94764475  0.72784227  0.86914174  1
  S  S38  1  0.49030925  0.56427750  0.76957866  1
  S  S39  1  0.44764475  0.22784227  0.63085826  1
  S  S40  1  0.05235525  0.27215773  0.13085826  1
  S  S41  1  0.50969075  0.43572250  0.23042134  1
  S  S42  1  0.78078011  0.61550508  0.50752375  1
  S  S43  1  0.28078011  0.11550508  0.99247625  1
  N  N44  1  0.22591934  0.42890168  0.97890646  1
  N  N45  1  0.07940788  0.62491106  0.28960552  1
  N  N46  1  0.92059212  0.37508894  0.71039448  1
  N  N47  1  0.27408066  0.07109832  0.47890646  1
  N  N48  1  0.42059212  0.87508894  0.78960552  1
  N  N49  1  0.72591934  0.92890168  0.52109354  1
  N  N50  1  0.57940788  0.12491106  0.21039448  1
  N  N51  1  0.77408066  0.57109832  0.02109354  1
