# generated using pymatgen
data_Cs2NaAu3(CN)6
_symmetry_space_group_name_H-M   'P 1'
_cell_length_a   7.30770802
_cell_length_b   7.30770806
_cell_length_c   18.41846078
_cell_angle_alpha   90.00000000
_cell_angle_beta   90.00000000
_cell_angle_gamma   119.99999980
_symmetry_Int_Tables_number   1
_chemical_formula_structural   Cs2NaAu3(CN)6
_chemical_formula_sum   'Cs4 Na2 Au6 C12 N12'
_cell_volume   851.81707686
_cell_formula_units_Z   2
loop_
 _symmetry_equiv_pos_site_id
 _symmetry_equiv_pos_as_xyz
  1  'x, y, z'
loop_
 _atom_site_type_symbol
 _atom_site_label
 _atom_site_symmetry_multiplicity
 _atom_site_fract_x
 _atom_site_fract_y
 _atom_site_fract_z
 _atom_site_occupancy
  Cs  Cs0  1  0.66666700  0.33333300  0.44545997  1
  Cs  Cs1  1  0.33333300  0.66666700  0.55454003  1
  Cs  Cs2  1  0.66666700  0.33333300  0.05454003  1
  Cs  Cs3  1  0.33333300  0.66666700  0.94545997  1
  Na  Na4  1  0.00000000  0.00000000  0.50000000  1
  Na  Na5  1  0.00000000  0.00000000  0.00000000  1
  Au  Au6  1  0.65169431  0.82584715  0.25000000  1
  Au  Au7  1  0.82584715  0.17415285  0.75000000  1
  Au  Au8  1  0.17415285  0.82584715  0.25000000  1
  Au  Au9  1  0.82584715  0.65169431  0.75000000  1
  Au  Au10  1  0.17415285  0.34830569  0.25000000  1
  Au  Au11  1  0.34830569  0.17415285  0.75000000  1
  C  C12  1  0.83025798  0.66051597  0.64194516  1
  C  C13  1  0.33948403  0.16974202  0.85805484  1
  C  C14  1  0.83025798  0.16974202  0.64194516  1
  C  C15  1  0.16974202  0.83025798  0.14194516  1
  C  C16  1  0.16974202  0.33948403  0.35805484  1
  C  C17  1  0.66051597  0.83025798  0.35805484  1
  C  C18  1  0.16974202  0.33948403  0.14194516  1
  C  C19  1  0.16974202  0.83025798  0.35805484  1
  C  C20  1  0.83025798  0.16974202  0.85805484  1
  C  C21  1  0.33948403  0.16974202  0.64194516  1
  C  C22  1  0.83025798  0.66051597  0.85805484  1
  C  C23  1  0.66051597  0.83025798  0.14194516  1
  N  N24  1  0.83653045  0.67306090  0.57835921  1
  N  N25  1  0.16346955  0.32693910  0.07835921  1
  N  N26  1  0.32693910  0.16346955  0.57835921  1
  N  N27  1  0.83653045  0.16346955  0.92164079  1
  N  N28  1  0.67306090  0.83653045  0.42164079  1
  N  N29  1  0.83653045  0.16346955  0.57835921  1
  N  N30  1  0.32693910  0.16346955  0.92164079  1
  N  N31  1  0.16346955  0.83653045  0.42164079  1
  N  N32  1  0.67306090  0.83653045  0.07835921  1
  N  N33  1  0.16346955  0.32693910  0.42164079  1
  N  N34  1  0.16346955  0.83653045  0.07835921  1
  N  N35  1  0.83653045  0.67306090  0.92164079  1
