# generated using pymatgen
data_CeNdI4
_symmetry_space_group_name_H-M   'P 1'
_cell_length_a   7.68065147
_cell_length_b   8.14214781
_cell_length_c   8.87587985
_cell_angle_alpha   112.25392418
_cell_angle_beta   110.62604257
_cell_angle_gamma   99.87399989
_symmetry_Int_Tables_number   1
_chemical_formula_structural   CeNdI4
_chemical_formula_sum   'Ce2 Nd2 I8'
_cell_volume   450.02694084
_cell_formula_units_Z   2
loop_
 _symmetry_equiv_pos_site_id
 _symmetry_equiv_pos_as_xyz
  1  'x, y, z'
loop_
 _atom_site_type_symbol
 _atom_site_label
 _atom_site_symmetry_multiplicity
 _atom_site_fract_x
 _atom_site_fract_y
 _atom_site_fract_z
 _atom_site_occupancy
  Ce  Ce0  1  0.24611603  0.49711839  0.99171565  1
  Ce  Ce1  1  0.75388397  0.50288161  0.00828435  1
  Nd  Nd2  1  0.88333407  0.13349241  0.26387925  1
  Nd  Nd3  1  0.11666593  0.86650759  0.73612075  1
  I  I4  1  0.49200488  0.24830994  0.12272391  1
  I  I5  1  0.12951024  0.87337547  0.12212807  1
  I  I6  1  0.50799512  0.75169006  0.87727609  1
  I  I7  1  0.71790784  0.80867166  0.36406609  1
  I  I8  1  0.28209216  0.19132834  0.63593391  1
  I  I9  1  0.87048976  0.12662453  0.87787193  1
  I  I10  1  0.14649473  0.55550190  0.36384446  1
  I  I11  1  0.85350527  0.44449810  0.63615554  1
