# generated using pymatgen
data_H12W3C4NCl9
_symmetry_space_group_name_H-M   'P 1'
_cell_length_a   11.11935272
_cell_length_b   11.11935255
_cell_length_c   8.77731433
_cell_angle_alpha   90.00000000
_cell_angle_beta   90.00000000
_cell_angle_gamma   120.00000051
_symmetry_Int_Tables_number   1
_chemical_formula_structural   H12W3C4NCl9
_chemical_formula_sum   'H24 W6 C8 N2 Cl18'
_cell_volume   939.83429327
_cell_formula_units_Z   2
loop_
 _symmetry_equiv_pos_site_id
 _symmetry_equiv_pos_as_xyz
  1  'x, y, z'
loop_
 _atom_site_type_symbol
 _atom_site_label
 _atom_site_symmetry_multiplicity
 _atom_site_fract_x
 _atom_site_fract_y
 _atom_site_fract_z
 _atom_site_occupancy
  H  H0  1  0.86646587  0.35237705  0.67909054  1
  H  H1  1  0.86646587  0.51408882  0.67909054  1
  H  H2  1  0.72049397  0.27950603  0.90679541  1
  H  H3  1  0.40576538  0.81153076  0.48752019  1
  H  H4  1  0.64762295  0.51408882  0.67909054  1
  H  H5  1  0.40576538  0.59423462  0.48752019  1
  H  H6  1  0.72049397  0.44098794  0.90679541  1
  H  H7  1  0.59423462  0.40576538  0.51247981  1
  H  H8  1  0.35237705  0.86646587  0.32090946  1
  H  H9  1  0.51408882  0.86646587  0.32090946  1
  H  H10  1  0.55901206  0.27950603  0.90679541  1
  H  H11  1  0.13353413  0.48591118  0.32090946  1
  H  H12  1  0.48591118  0.35237705  0.67909054  1
  H  H13  1  0.18846924  0.59423462  0.48752019  1
  H  H14  1  0.27950603  0.72049397  0.09320459  1
  H  H15  1  0.13353413  0.64762295  0.32090946  1
  H  H16  1  0.44098794  0.72049397  0.09320459  1
  H  H17  1  0.59423462  0.18846924  0.51247981  1
  H  H18  1  0.35237705  0.48591118  0.32090946  1
  H  H19  1  0.81153076  0.40576538  0.51247981  1
  H  H20  1  0.64762295  0.13353413  0.67909054  1
  H  H21  1  0.51408882  0.64762295  0.32090946  1
  H  H22  1  0.27950603  0.55901206  0.09320459  1
  H  H23  1  0.48591118  0.13353413  0.67909054  1
  W  W24  1  0.91137030  0.08862970  0.13109277  1
  W  W25  1  0.91137030  0.82274061  0.13109277  1
  W  W26  1  0.17725939  0.08862970  0.13109277  1
  W  W27  1  0.08862970  0.17725939  0.86890723  1
  W  W28  1  0.08862970  0.91137030  0.86890723  1
  W  W29  1  0.82274061  0.91137030  0.86890723  1
  C  C30  1  0.40690837  0.81381674  0.36269935  1
  C  C31  1  0.40690837  0.59309163  0.36269935  1
  C  C32  1  0.33333300  0.66666700  0.13349796  1
  C  C33  1  0.81381674  0.40690837  0.63730065  1
  C  C34  1  0.18618326  0.59309163  0.36269935  1
  C  C35  1  0.59309163  0.18618326  0.63730065  1
  C  C36  1  0.66666700  0.33333300  0.86650204  1
  C  C37  1  0.59309163  0.40690837  0.63730065  1
  N  N38  1  0.66666700  0.33333300  0.69499125  1
  N  N39  1  0.33333300  0.66666700  0.30500875  1
  Cl  Cl40  1  0.61569302  0.80784651  0.70551513  1
  Cl  Cl41  1  0.69086828  0.00000000  0.00000000  1
  Cl  Cl42  1  0.19215349  0.38430698  0.70551513  1
  Cl  Cl43  1  0.00000000  0.69086828  0.00000000  1
  Cl  Cl44  1  0.79837164  0.89918582  0.30823227  1
  Cl  Cl45  1  0.80784651  0.61569302  0.29448487  1
  Cl  Cl46  1  0.80784651  0.19215349  0.29448487  1
  Cl  Cl47  1  0.38430698  0.19215349  0.29448487  1
  Cl  Cl48  1  0.19215349  0.80784651  0.70551513  1
  Cl  Cl49  1  0.89918582  0.79837164  0.69176773  1
  Cl  Cl50  1  0.10081418  0.89918582  0.30823227  1
  Cl  Cl51  1  1.00000000  0.30913172  0.00000000  1
  Cl  Cl52  1  0.69086828  0.69086828  0.00000000  1
  Cl  Cl53  1  0.20162836  0.10081418  0.69176773  1
  Cl  Cl54  1  0.10081418  0.20162836  0.30823227  1
  Cl  Cl55  1  0.30913172  0.00000000  0.00000000  1
  Cl  Cl56  1  0.30913172  0.30913172  0.00000000  1
  Cl  Cl57  1  0.89918582  0.10081418  0.69176773  1
