# generated using pymatgen
data_YbHO2
_symmetry_space_group_name_H-M   'P 1'
_cell_length_a   5.42429518
_cell_length_b   5.42490077
_cell_length_c   5.77551372
_cell_angle_alpha   90.00016828
_cell_angle_beta   89.99965340
_cell_angle_gamma   89.99084488
_symmetry_Int_Tables_number   1
_chemical_formula_structural   YbHO2
_chemical_formula_sum   'Yb4 H4 O8'
_cell_volume   169.95178391
_cell_formula_units_Z   4
loop_
 _symmetry_equiv_pos_site_id
 _symmetry_equiv_pos_as_xyz
  1  'x, y, z'
loop_
 _atom_site_type_symbol
 _atom_site_label
 _atom_site_symmetry_multiplicity
 _atom_site_fract_x
 _atom_site_fract_y
 _atom_site_fract_z
 _atom_site_occupancy
  Yb  Yb0  1  0.78860387  0.28842104  0.23470648  1
  Yb  Yb1  1  0.71213653  0.78808746  0.76519419  1
  Yb  Yb2  1  0.21139520  0.71158122  0.23470915  1
  Yb  Yb3  1  0.28786123  0.21190977  0.76519609  1
  H  H4  1  0.79561645  0.29451679  0.71484224  1
  H  H5  1  0.70552852  0.79558352  0.28491549  1
  H  H6  1  0.20439339  0.70549362  0.71483286  1
  H  H7  1  0.29447280  0.20441475  0.28491392  1
  O  O8  1  0.49999952  0.99999961  0.07108287  1
  O  O9  1  0.00000189  0.50000226  0.92876264  1
  O  O10  1  0.49999926  0.50000019  0.00015199  1
  O  O11  1  -0.00000047  -0.00000009  0.00017678  1
  O  O12  1  0.69123151  0.19109943  0.61572120  1
  O  O13  1  0.80900025  0.69106219  0.38453302  1
  O  O14  1  0.30875860  0.80888984  0.61572901  1
  O  O15  1  0.19100146  0.30893841  0.38453207  1
