# generated using pymatgen
data_FeH12C4NCl4
_symmetry_space_group_name_H-M   'P 1'
_cell_length_a   6.69862141
_cell_length_b   6.59656043
_cell_length_c   14.66948181
_cell_angle_alpha   89.99837965
_cell_angle_beta   89.99045487
_cell_angle_gamma   89.92532708
_symmetry_Int_Tables_number   1
_chemical_formula_structural   FeH12C4NCl4
_chemical_formula_sum   'Fe2 H24 C8 N2 Cl8'
_cell_volume   648.21246309
_cell_formula_units_Z   2
loop_
 _symmetry_equiv_pos_site_id
 _symmetry_equiv_pos_as_xyz
  1  'x, y, z'
loop_
 _atom_site_type_symbol
 _atom_site_label
 _atom_site_symmetry_multiplicity
 _atom_site_fract_x
 _atom_site_fract_y
 _atom_site_fract_z
 _atom_site_occupancy
  Fe  Fe0  1  0.05104453  0.07846673  0.24997010  1
  Fe  Fe1  1  0.05189173  0.92192642  0.75001550  1
  H  H2  1  0.37024012  0.19443862  0.47525976  1
  H  H3  1  0.60997796  0.42366634  0.62656081  1
  H  H4  1  0.37339495  0.73727775  0.40719271  1
  H  H5  1  0.36980705  0.80564956  0.52472249  1
  H  H6  1  0.52870927  0.68114736  0.88151228  1
  H  H7  1  0.37353815  0.26275853  0.59280023  1
  H  H8  1  0.74427639  0.39990056  0.05717348  1
  H  H9  1  0.17873719  0.35215231  0.52043555  1
  H  H10  1  0.17874152  0.35215239  0.97957817  1
  H  H11  1  0.37021747  0.19441854  0.02474435  1
  H  H12  1  0.52893992  0.31883162  0.11854811  1
  H  H13  1  0.74405339  0.59973057  0.94286787  1
  H  H14  1  0.74405129  0.59972364  0.55710568  1
  H  H15  1  0.60981874  0.57620102  0.37346103  1
  H  H16  1  0.17854887  0.64830757  0.47952954  1
  H  H17  1  0.74427727  0.39989466  0.44280424  1
  H  H18  1  0.37357710  0.26278521  0.90720612  1
  H  H19  1  0.52896837  0.31885355  0.38146080  1
  H  H20  1  0.17854607  0.64830929  0.02048423  1
  H  H21  1  0.52868574  0.68113622  0.61848322  1
  H  H22  1  0.36982975  0.80565299  0.97526637  1
  H  H23  1  0.61001157  0.42367622  0.87343286  1
  H  H24  1  0.37335635  0.73727211  0.09280031  1
  H  H25  1  0.60978140  0.57617853  0.12651934  1
  C  C26  1  0.59670391  0.44500668  0.08149795  1
  C  C27  1  0.33651434  0.68486447  0.47590353  1
  C  C28  1  0.33670283  0.31528753  0.97591947  1
  C  C29  1  0.59659589  0.55489238  0.58148381  1
  C  C30  1  0.59672617  0.44500901  0.41849589  1
  C  C31  1  0.59661393  0.55488767  0.91850784  1
  C  C32  1  0.33669879  0.31528193  0.52408635  1
  C  C33  1  0.33650417  0.68486280  0.02410006  1
  N  N34  1  0.46515568  0.49996362  0.50000036  1
  N  N35  1  0.46515375  0.49995901  0.00000043  1
  Cl  Cl36  1  0.37717419  0.99519816  0.75015398  1
  Cl  Cl37  1  0.91285777  0.04179898  0.62408581  1
  Cl  Cl38  1  0.91312555  0.95784406  0.37540024  1
  Cl  Cl39  1  0.91313227  0.95784821  0.12460407  1
  Cl  Cl40  1  0.37648951  0.00549297  0.24999566  1
  Cl  Cl41  1  0.91333469  0.04209723  0.87592692  1
  Cl  Cl42  1  0.01690750  0.58689420  0.74990793  1
  Cl  Cl43  1  0.01820693  0.41230278  0.24999457  1
