# generated using pymatgen
data_P3SN4Cl5O
_symmetry_space_group_name_H-M   'P 1'
_cell_length_a   8.08011712
_cell_length_b   9.17088461
_cell_length_c   17.56961424
_cell_angle_alpha   90.00000000
_cell_angle_beta   90.00000000
_cell_angle_gamma   90.00000000
_symmetry_Int_Tables_number   1
_chemical_formula_structural   P3SN4Cl5O
_chemical_formula_sum   'P12 S4 N16 Cl20 O4'
_cell_volume   1301.94042250
_cell_formula_units_Z   4
loop_
 _symmetry_equiv_pos_site_id
 _symmetry_equiv_pos_as_xyz
  1  'x, y, z'
loop_
 _atom_site_type_symbol
 _atom_site_label
 _atom_site_symmetry_multiplicity
 _atom_site_fract_x
 _atom_site_fract_y
 _atom_site_fract_z
 _atom_site_occupancy
  P  P0  1  0.28309132  0.90199168  0.14491967  1
  P  P1  1  0.21690868  0.59800832  0.64491967  1
  P  P2  1  0.52767336  0.75000000  0.06604475  1
  P  P3  1  0.71690868  0.09800832  0.85508033  1
  P  P4  1  0.28309132  0.59800832  0.14491967  1
  P  P5  1  0.71690868  0.40199168  0.85508033  1
  P  P6  1  0.02767336  0.25000000  0.43395525  1
  P  P7  1  0.97232664  0.75000000  0.56604475  1
  P  P8  1  0.47232664  0.25000000  0.93395525  1
  P  P9  1  0.21690868  0.90199168  0.64491967  1
  P  P10  1  0.78309132  0.40199168  0.35508033  1
  P  P11  1  0.78309132  0.09800832  0.35508033  1
  S  S12  1  0.60966118  0.25000000  0.08679228  1
  S  S13  1  0.39033882  0.75000000  0.91320772  1
  S  S14  1  0.89033882  0.25000000  0.58679228  1
  S  S15  1  0.10966118  0.75000000  0.41320772  1
  N  N16  1  0.69812129  0.25000000  0.33366505  1
  N  N17  1  0.04942017  0.89959594  0.59707112  1
  N  N18  1  0.30187871  0.75000000  0.66633495  1
  N  N19  1  0.45057983  0.60040406  0.09707112  1
  N  N20  1  0.03270552  0.25000000  0.52964183  1
  N  N21  1  0.96729448  0.75000000  0.47035817  1
  N  N22  1  0.95057983  0.39959594  0.40292888  1
  N  N23  1  0.53270552  0.75000000  0.97035817  1
  N  N24  1  0.45057983  0.89959594  0.09707112  1
  N  N25  1  0.46729448  0.25000000  0.02964183  1
  N  N26  1  0.54942017  0.10040406  0.90292888  1
  N  N27  1  0.80187871  0.25000000  0.83366505  1
  N  N28  1  0.54942017  0.39959594  0.90292888  1
  N  N29  1  0.19812129  0.75000000  0.16633495  1
  N  N30  1  0.04942017  0.60040406  0.59707112  1
  N  N31  1  0.95057983  0.10040406  0.40292888  1
  Cl  Cl32  1  0.38444757  0.47096718  0.59215002  1
  Cl  Cl33  1  0.88444757  0.97096718  0.90784998  1
  Cl  Cl34  1  0.32032635  0.01905914  0.24096456  1
  Cl  Cl35  1  0.77180882  0.75000000  0.08854018  1
  Cl  Cl36  1  0.72819118  0.75000000  0.58854018  1
  Cl  Cl37  1  0.88444757  0.52903282  0.90784998  1
  Cl  Cl38  1  0.11555243  0.02903282  0.09215002  1
  Cl  Cl39  1  0.38444757  0.02903282  0.59215002  1
  Cl  Cl40  1  0.11555243  0.47096718  0.09215002  1
  Cl  Cl41  1  0.17967365  0.48094086  0.74096456  1
  Cl  Cl42  1  0.27180882  0.25000000  0.41145982  1
  Cl  Cl43  1  0.17967365  0.01905914  0.74096456  1
  Cl  Cl44  1  0.67967365  0.51905914  0.75903544  1
  Cl  Cl45  1  0.67967365  0.98094086  0.75903544  1
  Cl  Cl46  1  0.32032635  0.48094086  0.24096456  1
  Cl  Cl47  1  0.22819118  0.25000000  0.91145982  1
  Cl  Cl48  1  0.82032635  0.51905914  0.25903544  1
  Cl  Cl49  1  0.82032635  0.98094086  0.25903544  1
  Cl  Cl50  1  0.61555243  0.97096718  0.40784998  1
  Cl  Cl51  1  0.61555243  0.52903282  0.40784998  1
  O  O52  1  0.21958125  0.75000000  0.94112486  1
  O  O53  1  0.78041875  0.25000000  0.05887514  1
  O  O54  1  0.71958125  0.25000000  0.55887514  1
  O  O55  1  0.28041875  0.75000000  0.44112486  1
