# generated using pymatgen
data_FeHO2
_symmetry_space_group_name_H-M   'P 1'
_cell_length_a   10.54668559
_cell_length_b   6.18258845
_cell_length_c   10.71790284
_cell_angle_alpha   90.07887763
_cell_angle_beta   90.12361157
_cell_angle_gamma   90.05107456
_symmetry_Int_Tables_number   1
_chemical_formula_structural   FeHO2
_chemical_formula_sum   'Fe16 H16 O32'
_cell_volume   698.86703741
_cell_formula_units_Z   16
loop_
 _symmetry_equiv_pos_site_id
 _symmetry_equiv_pos_as_xyz
  1  'x, y, z'
loop_
 _atom_site_type_symbol
 _atom_site_label
 _atom_site_symmetry_multiplicity
 _atom_site_fract_x
 _atom_site_fract_y
 _atom_site_fract_z
 _atom_site_occupancy
  Fe  Fe0  1  0.35150910  0.98799225  0.12422941  1
  Fe  Fe1  1  0.14548518  0.99331506  0.62920342  1
  Fe  Fe2  1  0.84229504  0.24376287  0.62235051  1
  Fe  Fe3  1  0.67221776  0.24186023  0.10844477  1
  Fe  Fe4  1  0.65644243  0.00268986  0.81717733  1
  Fe  Fe5  1  0.86205721  0.99882672  0.32182023  1
  Fe  Fe6  1  0.15954378  0.24599187  0.33788469  1
  Fe  Fe7  1  0.35129065  0.24541024  0.82995331  1
  Fe  Fe8  1  0.34835024  0.50825483  0.11800726  1
  Fe  Fe9  1  0.14468443  0.49288609  0.63018302  1
  Fe  Fe10  1  0.84828265  0.74291781  0.61074803  1
  Fe  Fe11  1  0.65322980  0.74300936  0.11831480  1
  Fe  Fe12  1  0.65747166  0.48361074  0.81973915  1
  Fe  Fe13  1  0.86072998  0.49494323  0.32146431  1
  Fe  Fe14  1  0.15610404  0.74461813  0.33766582  1
  Fe  Fe15  1  0.35970522  0.74533212  0.82935439  1
  H  H16  1  0.35964414  0.98377014  0.39285977  1
  H  H17  1  0.41383536  0.99767972  0.64061154  1
  H  H18  1  0.92330626  0.26979931  0.11910689  1
  H  H19  1  0.64875508  0.97969140  0.54237062  1
  H  H20  1  0.60396480  0.02265352  0.31898892  1
  H  H21  1  0.15703792  0.23526894  0.07556341  1
  H  H22  1  0.48809167  0.28302317  0.23921371  1
  H  H23  1  0.07628763  0.23978695  0.82067487  1
  H  H24  1  0.35698418  0.50918469  0.39267346  1
  H  H25  1  0.41169322  0.48336745  0.63878590  1
  H  H26  1  0.85966748  0.75706382  0.85915126  1
  H  H27  1  0.91233088  0.76118743  0.11435907  1
  H  H28  1  0.64695279  0.49525010  0.54840439  1
  H  H29  1  0.61582303  0.55689561  0.33127057  1
  H  H30  1  0.14225775  0.75070844  0.08193913  1
  H  H31  1  0.08948034  0.74109688  0.83038295  1
  O  O32  1  0.30482921  0.99560995  0.32036890  1
  O  O33  1  0.04827711  0.99652444  0.30777370  1
  O  O34  1  0.33939485  0.99339826  0.69380764  1
  O  O35  1  0.33361098  0.99685859  0.94627654  1
  O  O36  1  0.78468688  0.24250968  0.79987104  1
  O  O37  1  0.53262188  0.24480590  0.80531352  1
  O  O38  1  0.85364633  0.25173668  0.17715893  1
  O  O39  1  0.83335083  0.24630842  0.43076985  1
  O  O40  1  0.70217191  0.98719943  0.61603770  1
  O  O41  1  0.96064931  0.99266012  0.63589590  1
  O  O42  1  0.66846030  0.00326481  0.25559244  1
  O  O43  1  0.67455587  0.98985792  0.00424490  1
  O  O44  1  0.22010324  0.24642547  0.14131951  1
  O  O45  1  0.47465007  0.25259716  0.15063147  1
  O  O46  1  0.15324362  0.24248020  0.77055184  1
  O  O47  1  0.17824123  0.24386162  0.51811321  1
  O  O48  1  0.30371104  0.49307612  0.31918655  1
  O  O49  1  0.04743104  0.49388506  0.30734723  1
  O  O50  1  0.33915023  0.49365663  0.69407488  1
  O  O51  1  0.33498810  0.49510271  0.94322783  1
  O  O52  1  0.79069370  0.74443185  0.79971152  1
  O  O53  1  0.54004222  0.74397919  0.80747389  1
  O  O54  1  0.84804466  0.75015441  0.17859540  1
  O  O55  1  0.83296517  0.74665049  0.42818526  1
  O  O56  1  0.70289059  0.50048673  0.62010979  1
  O  O57  1  0.96013159  0.49454508  0.63727648  1
  O  O58  1  0.66590586  0.50280069  0.26196556  1
  O  O59  1  0.67375128  0.49529009  0.00704232  1
  O  O60  1  0.21094272  0.74686047  0.14204744  1
  O  O61  1  0.46628310  0.74470890  0.14185371  1
  O  O62  1  0.15861488  0.74325178  0.77058140  1
  O  O63  1  0.17730551  0.74270319  0.51757974  1
