# generated using pymatgen
data_BaCo2(PO4)2
_symmetry_space_group_name_H-M   'P 1'
_cell_length_a   8.55565467
_cell_length_b   8.51757210
_cell_length_c   8.52866618
_cell_angle_alpha   32.48521068
_cell_angle_beta   33.13654496
_cell_angle_gamma   33.19531804
_symmetry_Int_Tables_number   1
_chemical_formula_structural   BaCo2(PO4)2
_chemical_formula_sum   'Ba1 Co2 P2 O8'
_cell_volume   163.46356950
_cell_formula_units_Z   1
loop_
 _symmetry_equiv_pos_site_id
 _symmetry_equiv_pos_as_xyz
  1  'x, y, z'
loop_
 _atom_site_type_symbol
 _atom_site_label
 _atom_site_symmetry_multiplicity
 _atom_site_fract_x
 _atom_site_fract_y
 _atom_site_fract_z
 _atom_site_occupancy
  O  O0  1  0.14917381  0.42953343  0.76262364  1
  O  O1  1  0.63547120  0.63388150  0.63931632  1
  O  O2  1  0.36457806  0.36607371  0.36073256  1
  O  O3  1  0.44485754  0.75599203  0.15051179  1
  O  O4  1  0.85077618  0.57053958  0.23736049  1
  P  P5  1  0.57103235  0.57563821  0.57214580  1
  P  P6  1  0.42892960  0.42434138  0.42784650  1
  O  O7  1  0.24354130  0.86205361  0.55408306  1
  O  O8  1  0.75646225  0.13795753  0.44594862  1
  Ba  Ba9  1  0.00003153  0.99997392  0.99998486  1
  Co  Co10  1  0.14922659  0.17751970  0.17832284  1
  O  O11  1  0.55513369  0.24404542  0.84942494  1
  Co  Co12  1  0.85078588  0.82244998  0.82169858  1
