# generated using pymatgen
data_Fe2CuS3
_symmetry_space_group_name_H-M   'P 1'
_cell_length_a   6.20731849
_cell_length_b   6.37779641
_cell_length_c   10.99529252
_cell_angle_alpha   90.01164265
_cell_angle_beta   90.03185863
_cell_angle_gamma   90.07966134
_symmetry_Int_Tables_number   1
_chemical_formula_structural   Fe2CuS3
_chemical_formula_sum   'Fe8 Cu4 S12'
_cell_volume   435.29228776
_cell_formula_units_Z   4
loop_
 _symmetry_equiv_pos_site_id
 _symmetry_equiv_pos_as_xyz
  1  'x, y, z'
loop_
 _atom_site_type_symbol
 _atom_site_label
 _atom_site_symmetry_multiplicity
 _atom_site_fract_x
 _atom_site_fract_y
 _atom_site_fract_z
 _atom_site_occupancy
  Fe  Fe0  1  0.87171746  0.91960616  0.91613064  1
  Fe  Fe1  1  0.37146813  0.58338997  0.58245466  1
  Fe  Fe2  1  0.63122030  0.41812533  0.41658714  1
  Fe  Fe3  1  0.13484712  0.08321855  0.08215981  1
  Fe  Fe4  1  0.37147142  0.58349013  0.91752822  1
  Fe  Fe5  1  0.87169544  0.91967632  0.58396296  1
  Fe  Fe6  1  0.63123331  0.41812047  0.08343427  1
  Fe  Fe7  1  0.13474888  0.08319870  0.41774995  1
  Cu  Cu8  1  0.60939340  0.91523041  0.24979090  1
  Cu  Cu9  1  0.38678592  0.08400442  0.75012958  1
  Cu  Cu10  1  0.10886137  0.58386687  0.24995033  1
  Cu  Cu11  1  0.88672837  0.41573242  0.75010377  1
  S  S12  1  0.76709765  0.08435286  0.41186923  1
  S  S13  1  0.23527020  0.90576674  0.91467213  1
  S  S14  1  0.25277179  0.42109967  0.75012289  1
  S  S15  1  0.73003071  0.58873096  0.58699433  1
  S  S16  1  0.76722456  0.08453727  0.08794360  1
  S  S17  1  0.24269106  0.91798185  0.25004907  1
  S  S18  1  0.26609211  0.41822033  0.41624191  1
  S  S19  1  0.75443573  0.08082738  0.75003635  1
  S  S20  1  0.73001835  0.58893271  0.91303334  1
  S  S21  1  0.26603014  0.41811385  0.08379429  1
  S  S22  1  0.74262094  0.57792821  0.24986120  1
  S  S23  1  0.23554564  0.90584842  0.58539942  1
