# generated using pymatgen
data_MoH4O5
_symmetry_space_group_name_H-M   'P 1'
_cell_length_a   7.97205950
_cell_length_b   6.16013892
_cell_length_c   4.14802631
_cell_angle_alpha   90.03955613
_cell_angle_beta   90.00535286
_cell_angle_gamma   78.98545249
_symmetry_Int_Tables_number   1
_chemical_formula_structural   MoH4O5
_chemical_formula_sum   'Mo2 H8 O10'
_cell_volume   199.95283430
_cell_formula_units_Z   2
loop_
 _symmetry_equiv_pos_site_id
 _symmetry_equiv_pos_as_xyz
  1  'x, y, z'
loop_
 _atom_site_type_symbol
 _atom_site_label
 _atom_site_symmetry_multiplicity
 _atom_site_fract_x
 _atom_site_fract_y
 _atom_site_fract_z
 _atom_site_occupancy
  Mo  Mo0  1  0.72969922  0.99334370  0.92768925  1
  Mo  Mo1  1  0.22972438  0.99298310  0.07237962  1
  H  H2  1  0.11155048  0.43168954  0.55472761  1
  H  H3  1  0.90127795  0.61874128  0.77876048  1
  H  H4  1  0.97848270  0.56905839  0.29512093  1
  H  H5  1  0.61130042  0.43122917  0.44457297  1
  H  H6  1  0.40162574  0.61852315  0.22093668  1
  H  H7  1  0.47831035  0.56917242  0.70434956  1
  H  H8  1  0.77200910  0.43162818  0.00160167  1
  H  H9  1  0.27224160  0.43079263  -0.00158680  1
  O  O10  1  0.01125396  0.98439257  0.00558473  1
  O  O11  1  0.51114638  0.98513967  0.99437709  1
  O  O12  1  0.99370973  0.50312433  0.51173368  1
  O  O13  1  0.49346423  0.50263681  0.48798579  1
  O  O14  1  0.74890002  0.98848961  0.50673450  1
  O  O15  1  0.24899325  0.98813199  0.49341162  1
  O  O16  1  0.71684958  0.29796320  0.01931509  1
  O  O17  1  0.82340546  0.67606146  0.97737038  1
  O  O18  1  0.32407478  0.67604389  0.02199722  1
  O  O19  1  0.21644367  0.29787790  0.98173593  1
