# generated using pymatgen
data_BaMg30NbO32
_symmetry_space_group_name_H-M   'P 1'
_cell_length_a   8.67352404
_cell_length_b   8.68771205
_cell_length_c   8.68771205
_cell_angle_alpha   90.00000000
_cell_angle_beta   90.00000000
_cell_angle_gamma   90.00000000
_symmetry_Int_Tables_number   1
_chemical_formula_structural   BaMg30NbO32
_chemical_formula_sum   'Ba1 Mg30 Nb1 O32'
_cell_volume   654.64585520
_cell_formula_units_Z   1
loop_
 _symmetry_equiv_pos_site_id
 _symmetry_equiv_pos_as_xyz
  1  'x, y, z'
loop_
 _atom_site_type_symbol
 _atom_site_label
 _atom_site_symmetry_multiplicity
 _atom_site_fract_x
 _atom_site_fract_y
 _atom_site_fract_z
 _atom_site_occupancy
  Ba  Ba0  1  0.00000000  -0.00000000  0.00000000  1
  Mg  Mg1  1  0.00000000  -0.00000000  0.50000000  1
  Mg  Mg2  1  0.00000000  0.50000000  0.00000000  1
  Mg  Mg3  1  0.50000000  -0.00000000  0.00000000  1
  Mg  Mg4  1  0.50000000  -0.00000000  0.50000000  1
  Mg  Mg5  1  0.50000000  0.50000000  0.00000000  1
  Mg  Mg6  1  0.50000000  0.50000000  0.50000000  1
  Mg  Mg7  1  0.00000000  0.25535918  0.25535918  1
  Mg  Mg8  1  0.00000000  0.25535918  0.74464082  1
  Mg  Mg9  1  0.00000000  0.74464082  0.25535918  1
  Mg  Mg10  1  0.00000000  0.74464082  0.74464082  1
  Mg  Mg11  1  0.50000000  0.25034758  0.25034758  1
  Mg  Mg12  1  0.50000000  0.25034758  0.74965242  1
  Mg  Mg13  1  0.50000000  0.74965242  0.25034758  1
  Mg  Mg14  1  0.50000000  0.74965242  0.74965242  1
  Mg  Mg15  1  0.25715846  -0.00000000  0.25733426  1
  Mg  Mg16  1  0.25715846  -0.00000000  0.74266574  1
  Mg  Mg17  1  0.25206952  0.50000000  0.24844839  1
  Mg  Mg18  1  0.25206952  0.50000000  0.75155161  1
  Mg  Mg19  1  0.74284154  -0.00000000  0.25733426  1
  Mg  Mg20  1  0.74284154  -0.00000000  0.74266574  1
  Mg  Mg21  1  0.74793048  0.50000000  0.24844839  1
  Mg  Mg22  1  0.74793048  0.50000000  0.75155161  1
  Mg  Mg23  1  0.25715846  0.25733426  -0.00000000  1
  Mg  Mg24  1  0.25206952  0.24844839  0.50000000  1
  Mg  Mg25  1  0.25715846  0.74266574  0.00000000  1
  Mg  Mg26  1  0.25206952  0.75155161  0.50000000  1
  Mg  Mg27  1  0.74284154  0.25733426  -0.00000000  1
  Mg  Mg28  1  0.74793048  0.24844839  0.50000000  1
  Mg  Mg29  1  0.74284154  0.74266574  0.00000000  1
  Mg  Mg30  1  0.74793048  0.75155161  0.50000000  1
  Nb  Nb31  1  0.00000000  0.50000000  0.50000000  1
  O  O32  1  0.27910984  -0.00000000  -0.00000000  1
  O  O33  1  0.25710130  -0.00000000  0.50000000  1
  O  O34  1  0.25710130  0.50000000  0.00000000  1
  O  O35  1  0.26183872  0.50000000  0.50000000  1
  O  O36  1  0.72089016  -0.00000000  0.00000000  1
  O  O37  1  0.74289870  -0.00000000  0.50000000  1
  O  O38  1  0.74289870  0.50000000  -0.00000000  1
  O  O39  1  0.73816128  0.50000000  0.50000000  1
  O  O40  1  0.24921717  0.24967078  0.24967078  1
  O  O41  1  0.24921717  0.24967078  0.75032922  1
  O  O42  1  0.24921717  0.75032922  0.24967078  1
  O  O43  1  0.24921717  0.75032922  0.75032922  1
  O  O44  1  0.75078283  0.24967078  0.24967078  1
  O  O45  1  0.75078283  0.24967078  0.75032922  1
  O  O46  1  0.75078283  0.75032922  0.24967078  1
  O  O47  1  0.75078283  0.75032922  0.75032922  1
  O  O48  1  0.00000000  -0.00000000  0.27820434  1
  O  O49  1  0.00000000  -0.00000000  0.72179566  1
  O  O50  1  0.00000000  0.50000000  0.24215394  1
  O  O51  1  0.00000000  0.50000000  0.75784606  1
  O  O52  1  0.50000000  -0.00000000  0.25549175  1
  O  O53  1  0.50000000  -0.00000000  0.74450825  1
  O  O54  1  0.50000000  0.50000000  0.24983146  1
  O  O55  1  0.50000000  0.50000000  0.75016854  1
  O  O56  1  0.00000000  0.27820434  0.00000000  1
  O  O57  1  0.00000000  0.24215394  0.50000000  1
  O  O58  1  0.00000000  0.72179566  -0.00000000  1
  O  O59  1  0.00000000  0.75784606  0.50000000  1
  O  O60  1  0.50000000  0.25549175  -0.00000000  1
  O  O61  1  0.50000000  0.24983146  0.50000000  1
  O  O62  1  0.50000000  0.74450825  0.00000000  1
  O  O63  1  0.50000000  0.75016854  0.50000000  1
