# generated using pymatgen
data_BaSrMg30O32
_symmetry_space_group_name_H-M   'P 1'
_cell_length_a   8.68943199
_cell_length_b   8.68943199
_cell_length_c   8.88798973
_cell_angle_alpha   90.00000000
_cell_angle_beta   90.00000000
_cell_angle_gamma   90.00000000
_symmetry_Int_Tables_number   1
_chemical_formula_structural   BaSrMg30O32
_chemical_formula_sum   'Ba1 Sr1 Mg30 O32'
_cell_volume   671.09858176
_cell_formula_units_Z   1
loop_
 _symmetry_equiv_pos_site_id
 _symmetry_equiv_pos_as_xyz
  1  'x, y, z'
loop_
 _atom_site_type_symbol
 _atom_site_label
 _atom_site_symmetry_multiplicity
 _atom_site_fract_x
 _atom_site_fract_y
 _atom_site_fract_z
 _atom_site_occupancy
  Ba  Ba0  1  0.00000000  0.00000000  0.50000000  1
  Sr  Sr1  1  0.00000000  0.00000000  0.00000000  1
  Mg  Mg2  1  0.00000000  0.50000000  0.00000000  1
  Mg  Mg3  1  0.00000000  0.50000000  0.50000000  1
  Mg  Mg4  1  0.50000000  0.00000000  0.00000000  1
  Mg  Mg5  1  0.50000000  0.00000000  0.50000000  1
  Mg  Mg6  1  0.50000000  0.50000000  0.00000000  1
  Mg  Mg7  1  0.50000000  0.50000000  0.50000000  1
  Mg  Mg8  1  0.00000000  0.26166672  0.24734918  1
  Mg  Mg9  1  0.00000000  0.26166672  0.75265082  1
  Mg  Mg10  1  0.00000000  0.73833328  0.24734918  1
  Mg  Mg11  1  0.00000000  0.73833328  0.75265082  1
  Mg  Mg12  1  0.50000000  0.25218519  0.24973514  1
  Mg  Mg13  1  0.50000000  0.25218519  0.75026486  1
  Mg  Mg14  1  0.50000000  0.74781481  0.24973514  1
  Mg  Mg15  1  0.50000000  0.74781481  0.75026486  1
  Mg  Mg16  1  0.26166672  0.00000000  0.24734918  1
  Mg  Mg17  1  0.26166672  0.00000000  0.75265082  1
  Mg  Mg18  1  0.25218519  0.50000000  0.24973514  1
  Mg  Mg19  1  0.25218519  0.50000000  0.75026486  1
  Mg  Mg20  1  0.73833328  0.00000000  0.24734918  1
  Mg  Mg21  1  0.73833328  0.00000000  0.75265082  1
  Mg  Mg22  1  0.74781481  0.50000000  0.24973514  1
  Mg  Mg23  1  0.74781481  0.50000000  0.75026486  1
  Mg  Mg24  1  0.25635189  0.25635189  0.00000000  1
  Mg  Mg25  1  0.25813235  0.25813235  0.50000000  1
  Mg  Mg26  1  0.25635189  0.74364811  0.00000000  1
  Mg  Mg27  1  0.25813235  0.74186765  0.50000000  1
  Mg  Mg28  1  0.74364811  0.25635189  0.00000000  1
  Mg  Mg29  1  0.74186765  0.25813235  0.50000000  1
  Mg  Mg30  1  0.74364811  0.74364811  0.00000000  1
  Mg  Mg31  1  0.74186765  0.74186765  0.50000000  1
  O  O32  1  0.27220826  0.00000000  0.00000000  1
  O  O33  1  0.28024770  0.00000000  0.50000000  1
  O  O34  1  0.25542621  0.50000000  0.00000000  1
  O  O35  1  0.25688834  0.50000000  0.50000000  1
  O  O36  1  0.72779174  0.00000000  0.00000000  1
  O  O37  1  0.71975230  0.00000000  0.50000000  1
  O  O38  1  0.74457379  0.50000000  0.00000000  1
  O  O39  1  0.74311166  0.50000000  0.50000000  1
  O  O40  1  0.25039051  0.25039051  0.25014720  1
  O  O41  1  0.25039051  0.25039051  0.74985280  1
  O  O42  1  0.25039051  0.74960949  0.25014720  1
  O  O43  1  0.25039051  0.74960949  0.74985280  1
  O  O44  1  0.74960949  0.25039051  0.25014720  1
  O  O45  1  0.74960949  0.25039051  0.74985280  1
  O  O46  1  0.74960949  0.74960949  0.25014720  1
  O  O47  1  0.74960949  0.74960949  0.74985280  1
  O  O48  1  0.00000000  0.00000000  0.24208240  1
  O  O49  1  0.00000000  0.00000000  0.75791760  1
  O  O50  1  0.00000000  0.50000000  0.24742812  1
  O  O51  1  0.00000000  0.50000000  0.75257188  1
  O  O52  1  0.50000000  0.00000000  0.24742812  1
  O  O53  1  0.50000000  0.00000000  0.75257188  1
  O  O54  1  0.50000000  0.50000000  0.24923053  1
  O  O55  1  0.50000000  0.50000000  0.75076947  1
  O  O56  1  0.00000000  0.27220826  0.00000000  1
  O  O57  1  0.00000000  0.28024770  0.50000000  1
  O  O58  1  0.00000000  0.72779174  0.00000000  1
  O  O59  1  0.00000000  0.71975230  0.50000000  1
  O  O60  1  0.50000000  0.25542621  0.00000000  1
  O  O61  1  0.50000000  0.25688834  0.50000000  1
  O  O62  1  0.50000000  0.74457379  0.00000000  1
  O  O63  1  0.50000000  0.74311166  0.50000000  1
