# generated using pymatgen
data_Al(HO)3
_symmetry_space_group_name_H-M   'P 1'
_cell_length_a   8.67936181
_cell_length_b   5.23556859
_cell_length_c   9.45935161
_cell_angle_alpha   90.00000000
_cell_angle_beta   90.00000000
_cell_angle_gamma   92.24121545
_symmetry_Int_Tables_number   1
_chemical_formula_structural   Al(HO)3
_chemical_formula_sum   'Al8 H24 O24'
_cell_volume   429.51731078
_cell_formula_units_Z   8
loop_
 _symmetry_equiv_pos_site_id
 _symmetry_equiv_pos_as_xyz
  1  'x, y, z'
loop_
 _atom_site_type_symbol
 _atom_site_label
 _atom_site_symmetry_multiplicity
 _atom_site_fract_x
 _atom_site_fract_y
 _atom_site_fract_z
 _atom_site_occupancy
  Al  Al0  1  0.78650688  0.01471800  0.48426619  1
  Al  Al1  1  0.30606526  0.52327859  0.49295552  1
  Al  Al2  1  0.19393474  0.47672141  0.99295552  1
  Al  Al3  1  0.71349312  0.98528200  0.98426619  1
  Al  Al4  1  0.14454280  0.00921847  0.48939185  1
  Al  Al5  1  0.65011383  0.50562412  0.50819048  1
  Al  Al6  1  0.84988617  0.49437588  0.00819048  1
  Al  Al7  1  0.35545720  0.99078153  0.98939185  1
  H  H8  1  0.40048379  0.63530099  0.80744033  1
  H  H9  1  0.50094172  0.81192054  0.63710700  1
  H  H10  1  0.95262807  0.71094880  0.39485970  1
  H  H11  1  0.54737193  0.28905120  0.89485970  1
  H  H12  1  0.09951621  0.36469901  0.30744033  1
  H  H13  1  0.99905828  0.18807946  0.13710700  1
  H  H14  1  0.49878470  0.29295992  0.32008202  1
  H  H15  1  0.92843057  0.13970383  0.71536245  1
  H  H16  1  0.98975737  0.36324303  0.60463592  1
  H  H17  1  0.51024263  0.63675697  0.10463592  1
  H  H18  1  0.57156943  0.86029617  0.21536245  1
  H  H19  1  0.00121530  0.70704008  0.82008202  1
  H  H20  1  0.27026697  0.80842481  0.28276124  1
  H  H21  1  0.22973303  0.19157519  0.78276124  1
  H  H22  1  0.66931105  0.17935876  0.70378588  1
  H  H23  1  0.83068895  0.82064124  0.20378588  1
  H  H24  1  0.39396808  0.15527476  0.61676340  1
  H  H25  1  0.76607358  0.31740247  0.28425794  1
  H  H26  1  0.73392642  0.68259753  0.78425794  1
  H  H27  1  0.10603192  0.84472624  0.11676340  1
  H  H28  1  0.52479578  0.88820789  0.39351266  1
  H  H29  1  0.18552782  0.71828482  0.70018680  1
  H  H30  1  0.31447218  0.28171518  0.20018680  1
  H  H31  1  0.97520422  0.11179211  0.89351266  1
  O  O32  1  0.46954411  0.63544470  0.61454411  1
  O  O33  1  0.96644107  0.89744907  0.38648221  1
  O  O34  1  0.53355893  0.10255093  0.88648221  1
  O  O35  1  0.03045589  0.36455530  0.11454411  1
  O  O36  1  0.48171510  0.41451648  0.39480946  1
  O  O37  1  0.97347007  0.17558893  0.61028693  1
  O  O38  1  0.52652993  0.82441107  0.11028693  1
  O  O39  1  0.01828490  0.58548352  0.89480946  1
  O  O40  1  0.77550599  0.73010778  0.59185350  1
  O  O41  1  0.28998274  0.82697457  0.38571988  1
  O  O42  1  0.21001726  0.17302543  0.88571988  1
  O  O43  1  0.72449401  0.26989222  0.09185350  1
  O  O44  1  0.16575819  0.31743095  0.38696262  1
  O  O45  1  0.64935926  0.19491104  0.60269766  1
  O  O46  1  0.85064074  0.80508896  0.10269766  1
  O  O47  1  0.33424181  0.68256905  0.88696262  1
  O  O48  1  0.28756097  0.20852130  0.60511506  1
  O  O49  1  0.79112463  0.33794740  0.38695546  1
  O  O50  1  0.70887537  0.66205260  0.88695546  1
  O  O51  1  0.21243903  0.79147870  0.10511506  1
  O  O52  1  0.63037740  0.88174792  0.35612174  1
  O  O53  1  0.15357194  0.70391698  0.60101598  1
  O  O54  1  0.34642806  0.29608302  0.10101598  1
  O  O55  1  0.86962260  0.11825208  0.85612274  1
