# generated using pymatgen
data_Te3As2(SF4)3
_symmetry_space_group_name_H-M   'P 1'
_cell_length_a   8.54420470
_cell_length_b   12.04556946
_cell_length_c   15.54802421
_cell_angle_alpha   90.00000000
_cell_angle_beta   90.99476354
_cell_angle_gamma   90.00000000
_symmetry_Int_Tables_number   1
_chemical_formula_structural   Te3As2(SF4)3
_chemical_formula_sum   'Te12 As8 S12 F48'
_cell_volume   1599.95854328
_cell_formula_units_Z   4
loop_
 _symmetry_equiv_pos_site_id
 _symmetry_equiv_pos_as_xyz
  1  'x, y, z'
loop_
 _atom_site_type_symbol
 _atom_site_label
 _atom_site_symmetry_multiplicity
 _atom_site_fract_x
 _atom_site_fract_y
 _atom_site_fract_z
 _atom_site_occupancy
  Te  Te0  1  0.19616951  0.85193295  0.53320779  1
  Te  Te1  1  0.41053505  0.23449070  0.81985076  1
  Te  Te2  1  0.91053505  0.26550930  0.31985076  1
  Te  Te3  1  0.80383049  0.14806705  0.46679221  1
  Te  Te4  1  0.89367529  0.69392144  0.16990652  1
  Te  Te5  1  0.39367529  0.80607856  0.66990652  1
  Te  Te6  1  0.10632471  0.30607856  0.83009348  1
  Te  Te7  1  0.69616951  0.64806705  0.03320779  1
  Te  Te8  1  0.58946495  0.76550930  0.18014924  1
  Te  Te9  1  0.08946495  0.73449070  0.68014924  1
  Te  Te10  1  0.30383049  0.35193295  0.96679221  1
  Te  Te11  1  0.60632471  0.19392144  0.33009348  1
  As  As12  1  0.69080744  0.52534370  0.77280677  1
  As  As13  1  0.72946979  0.79740510  0.43726096  1
  As  As14  1  0.77053021  0.29740510  0.06273904  1
  As  As15  1  0.22946979  0.70259490  0.93726096  1
  As  As16  1  0.27053021  0.20259490  0.56273904  1
  As  As17  1  0.30919256  0.47465630  0.22719323  1
  As  As18  1  0.19080744  0.97465630  0.27280677  1
  As  As19  1  0.80919256  0.02534370  0.72719323  1
  S  S20  1  0.17656438  0.07971266  0.95497792  1
  S  S21  1  0.37427830  0.04886738  0.88828767  1
  S  S22  1  0.12572170  0.54886738  0.61171233  1
  S  S23  1  0.73552416  0.82210423  0.94975822  1
  S  S24  1  0.23552416  0.67789577  0.44975822  1
  S  S25  1  0.67656438  0.42028734  0.45497792  1
  S  S26  1  0.76447584  0.32210423  0.55024178  1
  S  S27  1  0.82343562  0.92028734  0.04502208  1
  S  S28  1  0.62572170  0.95113262  0.11171233  1
  S  S29  1  0.32343562  0.57971266  0.54502208  1
  S  S30  1  0.87427830  0.45113262  0.38828767  1
  S  S31  1  0.26447584  0.17789577  0.05024178  1
  F  F32  1  0.75133633  0.88358984  0.73399256  1
  F  F33  1  0.13504994  0.83276679  0.27827026  1
  F  F34  1  0.19658047  0.61606008  0.84516194  1
  F  F35  1  0.07918699  0.00461579  0.36526049  1
  F  F36  1  0.85464971  0.55336216  0.84126090  1
  F  F37  1  0.76685859  0.71464971  0.52901794  1
  F  F38  1  0.47456272  0.50450334  0.29358078  1
  F  F39  1  0.91877171  0.37011537  0.00676219  1
  F  F40  1  0.23314141  0.28535029  0.47098206  1
  F  F41  1  0.63504994  0.66723321  0.77827026  1
  F  F42  1  0.26685859  0.78535029  0.02901794  1
  F  F43  1  0.11943875  0.27131724  0.61940850  1
  F  F44  1  0.69470154  0.05677335  0.81905430  1
  F  F45  1  0.87060545  0.89646575  0.47563727  1
  F  F46  1  0.58122829  0.87011537  0.49323781  1
  F  F47  1  0.59155825  0.70088548  0.39704273  1
  F  F48  1  0.14535029  0.44663784  0.15873910  1
  F  F49  1  0.30529846  0.94322665  0.18094570  1
  F  F50  1  0.30341953  0.11606008  0.65483806  1
  F  F51  1  0.62939455  0.39646575  0.02436273  1
  F  F52  1  0.92081301  0.99538421  0.63473951  1
  F  F53  1  0.24866367  0.11641016  0.26600744  1
  F  F54  1  0.74866367  0.38358984  0.76600744  1
  F  F55  1  0.37060545  0.60353425  0.97563727  1
  F  F56  1  0.02543728  0.00450334  0.20641922  1
  F  F57  1  0.12939455  0.10353425  0.52436273  1
  F  F58  1  0.57918699  0.49538421  0.86526049  1
  F  F59  1  0.25133633  0.61641016  0.23399256  1
  F  F60  1  0.88056125  0.72868276  0.38059150  1
  F  F61  1  0.80529846  0.55677335  0.68094570  1
  F  F62  1  0.97456272  0.99549666  0.79358078  1
  F  F63  1  0.35464971  0.94663784  0.34126090  1
  F  F64  1  0.19470154  0.44322665  0.31905430  1
  F  F65  1  0.09155825  0.79911452  0.89704273  1
  F  F66  1  0.52543728  0.49549666  0.70641922  1
  F  F67  1  0.41877171  0.12988463  0.50676219  1
  F  F68  1  0.90844175  0.20088548  0.10295727  1
  F  F69  1  0.73314141  0.21464971  0.97098206  1
  F  F70  1  0.42081301  0.50461579  0.13473951  1
  F  F71  1  0.36495006  0.33276679  0.22172974  1
  F  F72  1  0.40844175  0.29911452  0.60295727  1
  F  F73  1  0.86495006  0.16723321  0.72172974  1
  F  F74  1  0.64535029  0.05336216  0.65873910  1
  F  F75  1  0.38056125  0.77131724  0.88059150  1
  F  F76  1  0.08122829  0.62988463  0.99323781  1
  F  F77  1  0.69658047  0.88393992  0.34516194  1
  F  F78  1  0.80341953  0.38393992  0.15483806  1
  F  F79  1  0.61943875  0.22868276  0.11940850  1
