# generated using pymatgen
data_VSb2NCl14
_symmetry_space_group_name_H-M   'P 1'
_cell_length_a   6.43426169
_cell_length_b   13.09297118
_cell_length_c   24.67665937
_cell_angle_alpha   102.81437335
_cell_angle_beta   90.00000000
_cell_angle_gamma   90.00000000
_symmetry_Int_Tables_number   1
_chemical_formula_structural   VSb2NCl14
_chemical_formula_sum   'V4 Sb8 N4 Cl56'
_cell_volume   2027.07430799
_cell_formula_units_Z   4
loop_
 _symmetry_equiv_pos_site_id
 _symmetry_equiv_pos_as_xyz
  1  'x, y, z'
loop_
 _atom_site_type_symbol
 _atom_site_label
 _atom_site_symmetry_multiplicity
 _atom_site_fract_x
 _atom_site_fract_y
 _atom_site_fract_z
 _atom_site_occupancy
  V  V0  1  0.55110667  0.51055436  0.63812379  1
  V  V1  1  0.94889333  0.01055436  0.13812379  1
  V  V2  1  0.44889333  0.48944564  0.36187621  1
  V  V3  1  0.05110667  0.98944564  0.86187621  1
  Sb  Sb4  1  0.07099712  0.26181914  0.96603692  1
  Sb  Sb5  1  0.89940899  0.01019419  0.71219025  1
  Sb  Sb6  1  0.39940899  0.48980581  0.78780975  1
  Sb  Sb7  1  0.10059101  0.98980581  0.28780975  1
  Sb  Sb8  1  0.60059101  0.51019419  0.21219025  1
  Sb  Sb9  1  0.57099712  0.23818086  0.53396308  1
  Sb  Sb10  1  0.92900288  0.73818086  0.03396308  1
  Sb  Sb11  1  0.42900288  0.76181914  0.46603692  1
  N  N12  1  0.08341026  0.12150159  0.14626597  1
  N  N13  1  0.41658974  0.62150159  0.64626597  1
  N  N14  1  0.91658974  0.87849841  0.85373403  1
  N  N15  1  0.58341026  0.37849841  0.35373403  1
  Cl  Cl16  1  0.20907177  0.96144171  0.77025094  1
  Cl  Cl17  1  0.78244594  0.77549685  0.84680581  1
  Cl  Cl18  1  0.72280976  0.32256874  0.62582000  1
  Cl  Cl19  1  0.07957749  0.94382211  0.62816677  1
  Cl  Cl20  1  0.66006911  0.05995946  0.10484411  1
  Cl  Cl21  1  0.24195733  0.91760749  0.47506945  1
  Cl  Cl22  1  0.33507288  0.17646470  0.00711330  1
  Cl  Cl23  1  0.88207096  0.07111689  0.94258844  1
  Cl  Cl24  1  0.42042251  0.44382211  0.12816677  1
  Cl  Cl25  1  0.66492712  0.82353530  0.99288670  1
  Cl  Cl26  1  0.11829232  0.69958682  0.94995577  1
  Cl  Cl27  1  0.09093536  0.43946528  0.82475818  1
  Cl  Cl28  1  0.92042251  0.05617789  0.37183323  1
  Cl  Cl29  1  0.71233729  0.81505320  0.41773362  1
  Cl  Cl30  1  0.28244594  0.72450315  0.65319419  1
  Cl  Cl31  1  0.61829232  0.80041318  0.55004423  1
  Cl  Cl32  1  0.78766271  0.31505320  0.91773362  1
  Cl  Cl33  1  0.74195733  0.58239251  0.02493055  1
  Cl  Cl34  1  0.73065910  0.56904542  0.31080560  1
  Cl  Cl35  1  0.27719024  0.67743126  0.37418000  1
  Cl  Cl36  1  0.25804267  0.41760749  0.97506945  1
  Cl  Cl37  1  0.77178872  0.83920873  0.71296522  1
  Cl  Cl38  1  0.38170768  0.19958682  0.44995577  1
  Cl  Cl39  1  0.83507288  0.32353530  0.49288670  1
  Cl  Cl40  1  0.70907177  0.53855829  0.72974906  1
  Cl  Cl41  1  0.79092823  0.03855829  0.22974906  1
  Cl  Cl42  1  0.83993089  0.55995946  0.60484411  1
  Cl  Cl43  1  0.75804267  0.08239251  0.52493055  1
  Cl  Cl44  1  0.88170768  0.30041318  0.05004423  1
  Cl  Cl45  1  0.44182161  0.67609311  0.22280783  1
  Cl  Cl46  1  0.71755406  0.27549685  0.34680581  1
  Cl  Cl47  1  0.94182161  0.82390689  0.27719217  1
  Cl  Cl48  1  0.77719024  0.82256874  0.12582000  1
  Cl  Cl49  1  0.21233729  0.68494680  0.08226638  1
  Cl  Cl50  1  0.05817839  0.17609311  0.72280783  1
  Cl  Cl51  1  0.22280976  0.17743126  0.87418000  1
  Cl  Cl52  1  0.28766271  0.18494680  0.58226638  1
  Cl  Cl53  1  0.38207096  0.42888311  0.55741156  1
  Cl  Cl54  1  0.59093536  0.06053472  0.67524182  1
  Cl  Cl55  1  0.57957749  0.55617789  0.87183323  1
  Cl  Cl56  1  0.90906464  0.56053472  0.17524182  1
  Cl  Cl57  1  0.16006911  0.44004054  0.39515589  1
  Cl  Cl58  1  0.27178872  0.66079127  0.78703478  1
  Cl  Cl59  1  0.11792904  0.92888311  0.05741156  1
  Cl  Cl60  1  0.29092823  0.46144171  0.27025094  1
  Cl  Cl61  1  0.33993089  0.94004054  0.89515589  1
  Cl  Cl62  1  0.26934090  0.43095458  0.68919440  1
  Cl  Cl63  1  0.55817839  0.32390689  0.77719217  1
  Cl  Cl64  1  0.16492712  0.67646470  0.50711330  1
  Cl  Cl65  1  0.21755406  0.22450315  0.15319419  1
  Cl  Cl66  1  0.23065910  0.93095458  0.18919440  1
  Cl  Cl67  1  0.76934090  0.06904542  0.81080560  1
  Cl  Cl68  1  0.22821128  0.16079127  0.28703478  1
  Cl  Cl69  1  0.40906464  0.93946528  0.32475818  1
  Cl  Cl70  1  0.72821128  0.33920873  0.21296522  1
  Cl  Cl71  1  0.61792904  0.57111689  0.44258844  1
