# generated using pymatgen
data_Na2UI6
_symmetry_space_group_name_H-M   'P 1'
_cell_length_a   17.15123266
_cell_length_b   9.90226812
_cell_length_c   9.90226858
_cell_angle_alpha   90.00000000
_cell_angle_beta   54.73561120
_cell_angle_gamma   54.73560988
_symmetry_Int_Tables_number   1
_chemical_formula_structural   Na2UI6
_chemical_formula_sum   'Na4 U2 I12'
_cell_volume   970.96616970
_cell_formula_units_Z   2
loop_
 _symmetry_equiv_pos_site_id
 _symmetry_equiv_pos_as_xyz
  1  'x, y, z'
loop_
 _atom_site_type_symbol
 _atom_site_label
 _atom_site_symmetry_multiplicity
 _atom_site_fract_x
 _atom_site_fract_y
 _atom_site_fract_z
 _atom_site_occupancy
  Na  Na0  1  0.25000000  0.00000000  0.50000000  1
  Na  Na1  1  0.25000000  0.50000000  0.00000000  1
  Na  Na2  1  0.75000000  0.00000000  0.00000000  1
  Na  Na3  1  0.75000000  0.50000000  0.50000000  1
  U  U4  1  0.00000000  0.00000000  0.00000000  1
  U  U5  1  0.50000000  0.00000000  0.00000000  1
  I  I6  1  0.00000000  0.30321432  1.00000000  1
  I  I7  1  0.00000000  0.00000000  0.30321432  1
  I  I8  1  0.19678568  0.30321432  0.30321432  1
  I  I9  1  0.00000000  0.00000000  0.69678568  1
  I  I10  1  0.50000000  0.00000000  0.30321432  1
  I  I11  1  0.50000000  0.30321432  1.00000000  1
  I  I12  1  0.50000000  0.69678568  0.00000000  1
  I  I13  1  0.30321432  0.69678568  0.69678568  1
  I  I14  1  0.69678568  0.30321432  0.30321432  1
  I  I15  1  0.50000000  0.00000000  0.69678568  1
  I  I16  1  1.00000000  0.69678568  0.00000000  1
  I  I17  1  0.80321432  0.69678568  0.69678568  1
