# generated using pymatgen
data_Sb2Pb2O7
_symmetry_space_group_name_H-M   'P 1'
_cell_length_a   7.67615795
_cell_length_b   7.67641023
_cell_length_c   7.67595973
_cell_angle_alpha   59.98912018
_cell_angle_beta   60.01664155
_cell_angle_gamma   60.00369284
_symmetry_Int_Tables_number   1
_chemical_formula_structural   Sb2Pb2O7
_chemical_formula_sum   'Sb4 Pb4 O14'
_cell_volume   319.85323472
_cell_formula_units_Z   2
loop_
 _symmetry_equiv_pos_site_id
 _symmetry_equiv_pos_as_xyz
  1  'x, y, z'
loop_
 _atom_site_type_symbol
 _atom_site_label
 _atom_site_symmetry_multiplicity
 _atom_site_fract_x
 _atom_site_fract_y
 _atom_site_fract_z
 _atom_site_occupancy
  Sb  Sb0  1  0.49993432  -0.00006322  0.00006371  1
  Sb  Sb1  1  0.00006517  0.00002913  -0.00006210  1
  Sb  Sb2  1  0.99990506  -0.00003337  0.50005859  1
  Sb  Sb3  1  0.99989881  0.50005947  0.00001990  1
  Pb  Pb4  1  0.00037167  0.49995006  0.49965067  1
  Pb  Pb5  1  0.50018434  0.49938781  0.00016740  1
  Pb  Pb6  1  0.49977994  0.00011062  0.50015374  1
  Pb  Pb7  1  0.49969361  0.50025876  0.50034932  1
  O  O8  1  0.31727882  0.93265447  0.93269978  1
  O  O9  1  0.31720676  0.31729106  0.93274053  1
  O  O10  1  0.06747589  0.68256614  0.68273232  1
  O  O11  1  0.06738324  0.06729210  0.68268781  1
  O  O12  1  0.68279073  0.06724057  0.06710387  1
  O  O13  1  0.62437182  0.62568321  0.62498768  1
  O  O14  1  0.06725487  0.68293200  0.06716948  1
  O  O15  1  0.93277250  0.93274476  0.31715006  1
  O  O16  1  0.93262512  0.31728576  0.31734328  1
  O  O17  1  0.68265556  0.68278689  0.06721865  1
  O  O18  1  0.93285876  0.31724754  0.93267216  1
  O  O19  1  0.37574212  0.37445327  0.37492857  1
  O  O20  1  0.31710036  0.93287896  0.31730735  1
  O  O21  1  0.68265053  0.06724401  0.68285722  1
