# generated using pymatgen
data_Mn5Ge2
_symmetry_space_group_name_H-M   'P 1'
_cell_length_a   5.30769258
_cell_length_b   5.97493309
_cell_length_c   6.98719449
_cell_angle_alpha   115.27223626
_cell_angle_beta   112.30464230
_cell_angle_gamma   90.05757320
_symmetry_Int_Tables_number   1
_chemical_formula_structural   Mn5Ge2
_chemical_formula_sum   'Mn10 Ge4'
_cell_volume   181.83111871
_cell_formula_units_Z   2
loop_
 _symmetry_equiv_pos_site_id
 _symmetry_equiv_pos_as_xyz
  1  'x, y, z'
loop_
 _atom_site_type_symbol
 _atom_site_label
 _atom_site_symmetry_multiplicity
 _atom_site_fract_x
 _atom_site_fract_y
 _atom_site_fract_z
 _atom_site_occupancy
  Mn  Mn0  1  0.98086466  0.73317201  0.45982285  1
  Mn  Mn1  1  0.60974583  0.89900363  0.21720943  1
  Mn  Mn2  1  0.47883394  0.73293335  0.46011602  1
  Mn  Mn3  1  0.51695660  0.26901892  0.53826295  1
  Mn  Mn4  1  0.25004596  0.50030368  -0.00169527  1
  Mn  Mn5  1  0.10644384  0.32063451  0.21540210  1
  Mn  Mn6  1  0.88509921  0.67116001  0.77045289  1
  Mn  Mn7  1  0.38825662  0.10370995  0.77627017  1
  Mn  Mn8  1  0.74802506  0.50016974  -0.00216365  1
  Mn  Mn9  1  0.02103507  0.26840299  0.53776916  1
  Ge  Ge10  1  0.61453065  0.33399150  0.23169293  1
  Ge  Ge11  1  0.11414473  0.89840276  0.22544067  1
  Ge  Ge12  1  0.38171105  0.67103195  0.76392915  1
  Ge  Ge13  1  0.88212077  0.09673701  0.76434060  1
