# generated using pymatgen
data_TlHO
_symmetry_space_group_name_H-M   'P 1'
_cell_length_a   4.51040725
_cell_length_b   4.42490548
_cell_length_c   22.11868172
_cell_angle_alpha   89.85879435
_cell_angle_beta   91.10321640
_cell_angle_gamma   88.59292012
_symmetry_Int_Tables_number   1
_chemical_formula_structural   TlHO
_chemical_formula_sum   'Tl8 H8 O8'
_cell_volume   441.23060786
_cell_formula_units_Z   8
loop_
 _symmetry_equiv_pos_site_id
 _symmetry_equiv_pos_as_xyz
  1  'x, y, z'
loop_
 _atom_site_type_symbol
 _atom_site_label
 _atom_site_symmetry_multiplicity
 _atom_site_fract_x
 _atom_site_fract_y
 _atom_site_fract_z
 _atom_site_occupancy
  Tl  Tl0  1  0.92150500  0.36722528  0.93591982  1
  Tl  Tl1  1  0.35007612  0.96484703  0.05739819  1
  Tl  Tl2  1  0.33638366  0.92768469  0.55801991  1
  Tl  Tl3  1  0.90695197  0.34926716  0.43927673  1
  Tl  Tl4  1  0.95898980  0.83157346  0.80840817  1
  Tl  Tl5  1  0.85085139  0.93250484  0.18483859  1
  Tl  Tl6  1  0.34817146  0.42270095  0.68414876  1
  Tl  Tl7  1  0.42960762  0.34876413  0.31191800  1
  H  H8  1  0.87091004  0.96909365  0.66405594  1
  H  H9  1  0.23122134  0.81996317  0.26311968  1
  H  H10  1  0.72804731  0.30706451  0.76255890  1
  H  H11  1  0.37569529  0.46785419  0.16669011  1
  H  H12  1  0.80631625  0.72974738  0.51657882  1
  H  H13  1  0.46219878  0.85817997  0.41143588  1
  H  H14  1  0.46450601  0.91211001  0.91323622  1
  H  H15  1  0.82417481  0.72831126  0.01924150  1
  O  O16  1  0.91465055  0.07801560  0.70149137  1
  O  O17  1  0.11441478  0.91355767  0.29581969  1
  O  O18  1  0.61124211  0.41791379  0.79285730  1
  O  O19  1  0.40600492  0.59895907  0.20176953  1
  O  O20  1  0.89909152  0.60885630  0.54950093  1
  O  O21  1  0.57606412  0.85863168  0.44950130  1
  O  O22  1  0.59656028  0.89338455  0.94872398  1
  O  O23  1  0.94234689  0.60934165  0.04896468  1
