# generated using pymatgen
data_CeBMoO6
_symmetry_space_group_name_H-M   'P 1'
_cell_length_a   4.17436903
_cell_length_b   10.32596008
_cell_length_c   11.93064175
_cell_angle_alpha   114.83461756
_cell_angle_beta   90.00000000
_cell_angle_gamma   90.00000000
_symmetry_Int_Tables_number   1
_chemical_formula_structural   CeBMoO6
_chemical_formula_sum   'Ce4 B4 Mo4 O24'
_cell_volume   466.70574817
_cell_formula_units_Z   4
loop_
 _symmetry_equiv_pos_site_id
 _symmetry_equiv_pos_as_xyz
  1  'x, y, z'
loop_
 _atom_site_type_symbol
 _atom_site_label
 _atom_site_symmetry_multiplicity
 _atom_site_fract_x
 _atom_site_fract_y
 _atom_site_fract_z
 _atom_site_occupancy
  Ce  Ce0  1  0.78540327  0.16659382  0.96820327  1
  Ce  Ce1  1  0.21459673  0.83340618  0.03179673  1
  Ce  Ce2  1  0.71459673  0.66659382  0.46820327  1
  Ce  Ce3  1  0.28540327  0.33340618  0.53179673  1
  B  B4  1  0.16622722  0.69426297  0.69062230  1
  B  B5  1  0.66622722  0.80573703  0.80937770  1
  B  B6  1  0.33377278  0.19426297  0.19062230  1
  B  B7  1  0.83377278  0.30573703  0.30937770  1
  Mo  Mo8  1  0.19279874  0.03585276  0.68120399  1
  Mo  Mo9  1  0.80720126  0.96414724  0.31879601  1
  Mo  Mo10  1  0.69279874  0.46414724  0.81879601  1
  Mo  Mo11  1  0.30720126  0.53585276  0.18120399  1
  O  O12  1  0.23338970  0.65203844  0.10743808  1
  O  O13  1  0.22498702  0.34838098  0.08465463  1
  O  O14  1  0.72498702  0.15161902  0.41534537  1
  O  O15  1  0.22276034  0.60664871  0.35033488  1
  O  O16  1  0.77501298  0.65161902  0.91534537  1
  O  O17  1  0.34000976  0.76919715  0.79984904  1
  O  O18  1  0.26539808  0.46461382  0.80217009  1
  O  O19  1  0.15999024  0.26919715  0.29984904  1
  O  O20  1  0.72983134  0.41163653  0.41439589  1
  O  O21  1  0.77723966  0.39335129  0.64966512  1
  O  O22  1  0.65999024  0.23080285  0.20015096  1
  O  O23  1  0.27501298  0.84838098  0.58465463  1
  O  O24  1  0.76539808  0.03538618  0.69782991  1
  O  O25  1  0.27016866  0.58836347  0.58560411  1
  O  O26  1  0.23460192  0.96461382  0.30217009  1
  O  O27  1  0.22983134  0.08836347  0.08560411  1
  O  O28  1  0.26661030  0.15203844  0.60743808  1
  O  O29  1  0.76661030  0.34796156  0.89256192  1
  O  O30  1  0.84000976  0.73080285  0.70015096  1
  O  O31  1  0.77016866  0.91163653  0.91439589  1
  O  O32  1  0.72276034  0.89335129  0.14966512  1
  O  O33  1  0.73460192  0.53538618  0.19782991  1
  O  O34  1  0.27723966  0.10664871  0.85033488  1
  O  O35  1  0.73338970  0.84796156  0.39256192  1
