# generated using pymatgen
data_YAl6Si30(N15O)3
_symmetry_space_group_name_H-M   'P 1'
_cell_length_a   7.89928787
_cell_length_b   7.89150784
_cell_length_c   17.12609164
_cell_angle_alpha   90.13650590
_cell_angle_beta   90.10542914
_cell_angle_gamma   119.80657656
_symmetry_Int_Tables_number   1
_chemical_formula_structural   YAl6Si30(N15O)3
_chemical_formula_sum   'Y1 Al6 Si30 N45 O3'
_cell_volume   926.35218415
_cell_formula_units_Z   1
loop_
 _symmetry_equiv_pos_site_id
 _symmetry_equiv_pos_as_xyz
  1  'x, y, z'
loop_
 _atom_site_type_symbol
 _atom_site_label
 _atom_site_symmetry_multiplicity
 _atom_site_fract_x
 _atom_site_fract_y
 _atom_site_fract_z
 _atom_site_occupancy
  Y  Y0  1  0.67391658  0.32445809  0.91207109  1
  Al  Al1  1  0.10137286  0.50800619  0.90305202  1
  Al  Al2  1  0.74561783  0.91691542  0.00268857  1
  Al  Al3  1  0.91262010  0.42527947  0.73368648  1
  Al  Al4  1  0.83171124  0.08559629  0.17123419  1
  Al  Al5  1  0.83613746  0.08851126  0.50241827  1
  Al  Al6  1  0.82862938  0.08336927  0.83267597  1
  Si  Si7  1  0.08972903  0.84376227  0.00394353  1
  Si  Si8  1  0.08967734  0.84422452  0.33762972  1
  Si  Si9  1  0.08754137  0.84258542  0.66937847  1
  Si  Si10  1  0.08995887  0.50963523  0.23870881  1
  Si  Si11  1  0.09116232  0.50756176  0.56781654  1
  Si  Si12  1  0.43570605  0.92162759  0.23908708  1
  Si  Si13  1  0.43520654  0.91973683  0.56995014  1
  Si  Si14  1  0.43025026  0.91227181  0.90365932  1
  Si  Si15  1  0.16827619  0.25342188  0.00359779  1
  Si  Si16  1  0.16600684  0.25445428  0.33506262  1
  Si  Si17  1  0.16481689  0.25370466  0.66388712  1
  Si  Si18  1  0.25432287  0.16530874  0.16934297  1
  Si  Si19  1  0.25798586  0.16388372  0.50070079  1
  Si  Si20  1  0.24663932  0.16608347  0.83194666  1
  Si  Si21  1  0.48810983  0.57283199  0.23923121  1
  Si  Si22  1  0.48866605  0.57128770  0.57063156  1
  Si  Si23  1  0.48834946  0.57451198  0.90443330  1
  Si  Si24  1  0.73950310  0.91120572  0.66693854  1
  Si  Si25  1  0.73997155  0.91090044  0.33625203  1
  Si  Si26  1  0.56802180  0.48627673  0.07236401  1
  Si  Si27  1  0.56912880  0.48369511  0.40411588  1
  Si  Si28  1  0.56105796  0.47909708  0.73421272  1
  Si  Si29  1  0.51140704  0.07127893  0.07435431  1
  Si  Si30  1  0.51500261  0.07990281  0.40359867  1
  Si  Si31  1  0.51098638  0.07870602  0.73340719  1
  Si  Si32  1  0.91350172  0.75079427  0.16470514  1
  Si  Si33  1  0.91771305  0.75323023  0.82887691  1
  Si  Si34  1  0.91280804  0.74985820  0.49734153  1
  Si  Si35  1  0.92384890  0.42969201  0.07536903  1
  Si  Si36  1  0.91484249  0.42895616  0.40412255  1
  N  N37  1  0.04672384  0.39416943  0.32909012  1
  N  N38  1  0.05029835  0.38944409  0.65533071  1
  N  N39  1  0.04548336  0.38794420  0.00042058  1
  N  N40  1  0.33944696  0.95638572  0.32763853  1
  N  N41  1  0.33666106  0.95270773  0.65893653  1
  N  N42  1  0.34194230  0.95356651  0.99364032  1
  N  N43  1  0.01210301  0.00688245  0.00123767  1
  N  N44  1  0.01033416  0.99491408  0.16990680  1
  N  N45  1  0.99700580  0.00125920  0.33448040  1
  N  N46  1  0.01273450  0.99507126  0.50211075  1
  N  N47  1  0.00547952  0.99566426  0.83622392  1
  N  N48  1  0.33343207  0.67024894  0.22179017  1
  N  N49  1  0.33525765  0.66954000  0.55215233  1
  N  N50  1  0.35017863  0.67667814  0.88027890  1
  N  N51  1  0.30972086  0.32287954  0.24938889  1
  N  N52  1  0.31813445  0.32010129  0.58121779  1
  N  N53  1  0.31832619  0.32136221  0.91555825  1
  N  N54  1  0.32213157  0.31399118  0.08470442  1
  N  N55  1  0.31949186  0.31155938  0.41595714  1
  N  N56  1  0.30894749  0.31523517  0.74946035  1
  N  N57  1  0.67320760  0.98841640  0.25529196  1
  N  N58  1  0.67406113  0.98943005  0.58580955  1
  N  N59  1  0.67321750  0.02121255  0.91999577  1
  N  N60  1  0.61215838  0.65139892  0.32897338  1
  N  N61  1  0.61321233  0.63807499  0.99218108  1
  N  N62  1  0.61065034  0.65189758  0.66138143  1
  N  N63  1  0.65797116  0.60647086  0.16336348  1
  N  N64  1  0.65817438  0.60844840  0.49554079  1
  N  N65  1  0.65890337  0.59430658  0.83070525  1
  N  N66  1  0.39265664  0.04815098  0.16360140  1
  N  N67  1  0.39546392  0.04567136  0.49422540  1
  N  N68  1  0.39958459  0.05865055  0.83031158  1
  N  N69  1  0.66736127  0.33014092  0.05125179  1
  N  N70  1  0.66554315  0.33136364  0.38583081  1
  N  N71  1  0.64829104  0.32501743  0.71656676  1
  N  N72  1  0.99268499  0.68022939  0.08150770  1
  N  N73  1  0.99006020  0.68049933  0.41350593  1
  N  N74  1  0.99775050  0.69178389  0.74755942  1
  N  N75  1  0.67033111  0.99418740  0.08738231  1
  N  N76  1  0.67045616  0.99212145  0.74627990  1
  N  N77  1  0.67876986  0.99914137  0.41486176  1
  N  N78  1  0.95522253  0.35924567  0.16554649  1
  N  N79  1  0.95963911  0.36008068  0.49307775  1
  N  N80  1  0.92581186  0.34882417  0.83373450  1
  N  N81  1  0.99589234  0.00080394  0.66610960  1
  O  O82  1  0.00865643  0.68914061  0.25003405  1
  O  O83  1  0.00758960  0.68706629  0.58173904  1
  O  O84  1  0.99930389  0.68932820  0.91767686  1
