# generated using pymatgen
data_NaH3CN4O
_symmetry_space_group_name_H-M   'P 1'
_cell_length_a   5.87714199
_cell_length_b   5.72283175
_cell_length_c   6.52669403
_cell_angle_alpha   89.99999878
_cell_angle_beta   90.00001701
_cell_angle_gamma   90.00000405
_symmetry_Int_Tables_number   1
_chemical_formula_structural   NaH3CN4O
_chemical_formula_sum   'Na2 H6 C2 N8 O2'
_cell_volume   219.51814026
_cell_formula_units_Z   2
loop_
 _symmetry_equiv_pos_site_id
 _symmetry_equiv_pos_as_xyz
  1  'x, y, z'
loop_
 _atom_site_type_symbol
 _atom_site_label
 _atom_site_symmetry_multiplicity
 _atom_site_fract_x
 _atom_site_fract_y
 _atom_site_fract_z
 _atom_site_occupancy
  Na  Na0  1  0.99999934  0.00000191  0.49999991  1
  Na  Na1  1  0.00000001  0.00000064  0.00000004  1
  H  H2  1  0.49999970  0.82419631  0.24999994  1
  H  H3  1  0.50000033  0.17580340  0.75000001  1
  H  H4  1  0.86419137  0.59015175  0.24999985  1
  H  H5  1  0.86419096  0.40984825  0.75000008  1
  H  H6  1  0.13580847  0.40984789  0.75000011  1
  H  H7  1  0.13580897  0.59015148  0.24999994  1
  C  C8  1  0.49999994  0.01472324  0.25000008  1
  C  C9  1  0.50000010  0.98527642  0.75000001  1
  N  N10  1  0.61211391  0.36861452  0.25000032  1
  N  N11  1  0.61211315  0.63138432  0.74999964  1
  N  N12  1  0.38788619  0.63138523  0.74999980  1
  N  N13  1  0.38788658  0.36861533  0.25000026  1
  N  N14  1  0.68874200  0.14552670  0.25000007  1
  N  N15  1  0.68874242  0.85447275  0.74999983  1
  N  N16  1  0.31125821  0.85447352  0.74999992  1
  N  N17  1  0.31125823  0.14552683  0.25000000  1
  O  O18  1  0.00000052  0.69344463  0.24999953  1
  O  O19  1  0.99999962  0.30655487  0.75000066  1
