# generated using pymatgen
data_Nb6(Pb2O5)5
_symmetry_space_group_name_H-M   'P 1'
_cell_length_a   7.71700717
_cell_length_b   15.46344372
_cell_length_c   13.41500966
_cell_angle_alpha   29.83971431
_cell_angle_beta   55.47685622
_cell_angle_gamma   60.53647339
_symmetry_Int_Tables_number   1
_chemical_formula_structural   Nb6(Pb2O5)5
_chemical_formula_sum   'Nb6 Pb10 O25'
_cell_volume   656.26305065
_cell_formula_units_Z   1
loop_
 _symmetry_equiv_pos_site_id
 _symmetry_equiv_pos_as_xyz
  1  'x, y, z'
loop_
 _atom_site_type_symbol
 _atom_site_label
 _atom_site_symmetry_multiplicity
 _atom_site_fract_x
 _atom_site_fract_y
 _atom_site_fract_z
 _atom_site_occupancy
  Nb  Nb0  1  0.97755896  0.24821577  0.01314294  1
  Nb  Nb1  1  0.48101239  0.00215395  0.01023258  1
  Nb  Nb2  1  0.98684180  0.75621359  0.00247634  1
  Nb  Nb3  1  0.48851455  0.50043152  0.01191244  1
  Nb  Nb4  1  0.98250131  0.73692101  0.51920032  1
  Nb  Nb5  1  0.98409323  0.25649827  0.50394311  1
  Pb  Pb6  1  0.00229178  0.00135499  0.00254954  1
  Pb  Pb7  1  0.00633926  0.50200074  0.99781302  1
  Pb  Pb8  1  0.50493581  0.25602030  0.99880440  1
  Pb  Pb9  1  0.45489136  0.00499497  0.52277074  1
  Pb  Pb10  1  0.49981652  0.76644148  0.97858588  1
  Pb  Pb11  1  0.49811847  0.23186866  0.51653756  1
  Pb  Pb12  1  0.98368069  0.00308385  0.50893534  1
  Pb  Pb13  1  0.46791745  0.50634768  0.50670241  1
  Pb  Pb14  1  0.49086748  0.74059262  0.51899345  1
  Pb  Pb15  1  0.98085549  0.50044718  0.51589102  1
  O  O16  1  0.07520276  0.28507005  0.08516349  1
  O  O17  1  0.62748919  0.00830863  0.08106519  1
  O  O18  1  0.07464637  0.00241415  0.68449875  1
  O  O19  1  0.31489864  0.30925652  0.30072669  1
  O  O20  1  0.11797568  0.23006106  0.61575953  1
  O  O21  1  0.11889051  0.77207592  0.07337114  1
  O  O22  1  0.69005163  0.30462243  0.08231952  1
  O  O23  1  0.41611708  0.99822820  0.88436660  1
  O  O24  1  0.66693994  0.50121971  0.07138903  1
  O  O25  1  0.09654818  0.49859106  0.69634174  1
  O  O26  1  0.08357988  0.71616130  0.65215871  1
  O  O27  1  0.28990993  0.18943939  0.91631670  1
  O  O28  1  0.30051202  0.80624819  0.29993586  1
  O  O29  1  0.71073095  0.81243466  0.07499696  1
  O  O30  1  0.93046026  0.28153255  0.34284645  1
  O  O31  1  0.70842127  0.19182128  0.69426699  1
  O  O32  1  0.92888104  0.50279604  0.29077397  1
  O  O33  1  0.60486978  0.50071307  0.62247947  1
  O  O34  1  0.35935681  0.50255066  0.90592029  1
  O  O35  1  0.31772386  0.69308914  0.91591301  1
  O  O36  1  0.88328115  0.25956401  0.88915679  1
  O  O37  1  0.89081661  0.74472905  0.39996946  1
  O  O38  1  0.69772609  0.68490165  0.69755088  1
  O  O39  1  0.95024808  0.99731785  0.29217585  1
  O  O40  1  0.92898276  0.72196786  0.90346584  1
