# generated using pymatgen
data_Ce4Y6O17
_symmetry_space_group_name_H-M   'P 1'
_cell_length_a   3.78911244
_cell_length_b   3.78911252
_cell_length_c   38.88225580
_cell_angle_alpha   60.83970296
_cell_angle_beta   60.83970225
_cell_angle_gamma   60.00000056
_symmetry_Int_Tables_number   1
_chemical_formula_structural   Ce4Y6O17
_chemical_formula_sum   'Ce4 Y6 O17'
_cell_volume   399.67640010
_cell_formula_units_Z   1
loop_
 _symmetry_equiv_pos_site_id
 _symmetry_equiv_pos_as_xyz
  1  'x, y, z'
loop_
 _atom_site_type_symbol
 _atom_site_label
 _atom_site_symmetry_multiplicity
 _atom_site_fract_x
 _atom_site_fract_y
 _atom_site_fract_z
 _atom_site_occupancy
  Ce  Ce0  1  0.00635726  0.00635726  0.69809282  1
  Ce  Ce1  1  0.00660312  0.00660312  0.79801906  1
  Ce  Ce2  1  0.00685767  0.00685767  0.59794270  1
  Ce  Ce3  1  0.00752896  0.00752896  0.89774131  1
  Y  Y4  1  0.00806992  0.00806992  0.99757903  1
  Y  Y5  1  0.98856095  0.98856095  0.10343171  1
  Y  Y6  1  0.01032896  0.01032896  0.19690131  1
  Y  Y7  1  0.01045417  0.01045417  0.39686375  1
  Y  Y8  1  0.98983537  0.98983537  0.50304939  1
  Y  Y9  1  0.98933744  0.98933744  0.30319877  1
  O  O10  1  0.24852246  0.24852246  0.12544326  1
  O  O11  1  0.78335371  0.78335371  0.06499389  1
  O  O12  1  0.24922944  0.24922944  0.32523117  1
  O  O13  1  0.71701890  0.71701890  0.18489433  1
  O  O14  1  0.78467574  0.78467574  0.26459728  1
  O  O15  1  0.24768902  0.24768902  0.52569329  1
  O  O16  1  0.71717191  0.71717191  0.38484843  1
  O  O17  1  0.24657118  0.24657118  0.62602865  1
  O  O18  1  0.78457292  0.78457292  0.46462812  1
  O  O19  1  0.24653502  0.24653502  0.72603949  1
  O  O20  1  0.74819582  0.74819582  0.57554125  1
  O  O21  1  0.24643351  0.24643351  0.82606995  1
  O  O22  1  0.74772865  0.74772865  0.67568140  1
  O  O23  1  0.24912636  0.24912636  0.92526209  1
  O  O24  1  0.74798487  0.74798487  0.77560454  1
  O  O25  1  0.74937757  0.74937757  0.87518673  1
  O  O26  1  0.71187910  0.71187910  0.98643627  1
