# generated using pymatgen
data_Th10N9F13
_symmetry_space_group_name_H-M   'P 1'
_cell_length_a   4.06279547
_cell_length_b   4.06280356
_cell_length_c   29.44533482
_cell_angle_alpha   89.99983925
_cell_angle_beta   89.99987744
_cell_angle_gamma   90.00001918
_symmetry_Int_Tables_number   1
_chemical_formula_structural   Th10N9F13
_chemical_formula_sum   'Th10 N9 F13'
_cell_volume   486.03470498
_cell_formula_units_Z   1
loop_
 _symmetry_equiv_pos_site_id
 _symmetry_equiv_pos_as_xyz
  1  'x, y, z'
loop_
 _atom_site_type_symbol
 _atom_site_label
 _atom_site_symmetry_multiplicity
 _atom_site_fract_x
 _atom_site_fract_y
 _atom_site_fract_z
 _atom_site_occupancy
  Th  Th0  1  0.50000119  -0.00000162  0.14102856  1
  Th  Th1  1  0.50000076  0.00000112  0.34068707  1
  Th  Th2  1  0.49999704  0.99999804  0.94428425  1
  Th  Th3  1  0.50000089  0.00000186  0.73963629  1
  Th  Th4  1  0.49999896  0.00000066  0.53963222  1
  Th  Th5  1  0.00000135  0.50000062  0.06036719  1
  Th  Th6  1  -0.00000044  0.50000137  0.26037285  1
  Th  Th7  1  -0.00000103  0.50000196  0.45931458  1
  Th  Th8  1  -0.00000097  0.50000577  0.65897969  1
  Th  Th9  1  0.00000024  0.50000505  0.85570623  1
  N  N10  1  0.49999951  0.50000078  0.09998021  1
  N  N11  1  0.50000010  0.50000024  0.49951466  1
  N  N12  1  0.49999950  0.49999996  0.30048636  1
  N  N13  1  0.50000070  0.50000138  0.70002515  1
  N  N14  1  0.99999925  0.00000126  0.10146944  1
  N  N15  1  0.99999989  0.00000004  0.30063211  1
  N  N16  1  0.00000077  -0.00000028  0.49936891  1
  N  N17  1  0.00000039  0.00000101  0.69853481  1
  N  N18  1  0.00000054  0.00000149  0.89999723  1
  F  F19  1  0.99999870  0.00000050  0.00384542  1
  F  F20  1  0.49999959  0.49999936  0.99931642  1
  F  F21  1  0.50000032  0.49999661  0.89999530  1
  F  F22  1  0.49999997  0.50000084  0.39999991  1
  F  F23  1  0.50000024  0.49999207  0.20052022  1
  F  F24  1  0.49999971  0.49999466  0.80068133  1
  F  F25  1  0.49999975  0.50000085  0.59948093  1
  F  F26  1  0.50000163  0.99998698  0.84868500  1
  F  F27  1  0.00000004  0.00000169  0.20116887  1
  F  F28  1  0.00000030  0.50000237  0.95130058  1
  F  F29  1  0.00000015  0.00000073  0.40000027  1
  F  F30  1  0.99999992  0.00000183  0.59883384  1
  F  F31  1  0.00000103  0.00000079  0.79615408  1
