# generated using pymatgen
data_Sc14Cu14O37
_symmetry_space_group_name_H-M   'P 1'
_cell_length_a   5.98592296
_cell_length_b   5.98592310
_cell_length_c   82.83643375
_cell_angle_alpha   32.64653756
_cell_angle_beta   32.64653550
_cell_angle_gamma   33.31264112
_symmetry_Int_Tables_number   1
_chemical_formula_structural   Sc14Cu14O37
_chemical_formula_sum   'Sc14 Cu14 O37'
_cell_volume   777.60264579
_cell_formula_units_Z   1
loop_
 _symmetry_equiv_pos_site_id
 _symmetry_equiv_pos_as_xyz
  1  'x, y, z'
loop_
 _atom_site_type_symbol
 _atom_site_label
 _atom_site_symmetry_multiplicity
 _atom_site_fract_x
 _atom_site_fract_y
 _atom_site_fract_z
 _atom_site_occupancy
  Sc  Sc0  1  0.48850478  0.48850478  0.03631851  1
  Sc  Sc1  1  0.49841121  0.49841121  0.10690458  1
  Sc  Sc2  1  0.51651085  0.51651085  0.17900752  1
  Sc  Sc3  1  0.49968395  0.49968395  0.24970985  1
  Sc  Sc4  1  0.48855457  0.48855457  0.31986431  1
  Sc  Sc5  1  0.51126609  0.51126609  0.39447786  1
  Sc  Sc6  1  0.49789557  0.49789557  0.46382172  1
  Sc  Sc7  1  0.50611980  0.50611980  0.53421437  1
  Sc  Sc8  1  0.52264508  0.52264508  0.60640692  1
  Sc  Sc9  1  0.51087939  0.51087939  0.67783294  1
  Sc  Sc10  1  0.50765733  0.50765733  0.75003545  1
  Sc  Sc11  1  0.50324749  0.50324749  0.82208436  1
  Sc  Sc12  1  0.50003374  0.50003374  0.89398727  1
  Sc  Sc13  1  0.50124710  0.50124710  0.96590062  1
  Cu  Cu14  1  0.01981665  0.01981665  0.99628481  1
  Cu  Cu15  1  0.98290942  0.98290942  0.07313604  1
  Cu  Cu16  1  0.00257121  0.00257121  0.14314248  1
  Cu  Cu17  1  0.03248272  0.03248272  0.20932994  1
  Cu  Cu18  1  0.95862377  0.95862377  0.29117099  1
  Cu  Cu19  1  0.99941111  0.99941111  0.35718255  1
  Cu  Cu20  1  0.02972422  0.02972422  0.42435054  1
  Cu  Cu21  1  0.98612953  0.98612953  0.50127312  1
  Cu  Cu22  1  0.99851005  0.99851005  0.57190278  1
  Cu  Cu23  1  0.00805659  0.00805659  0.64121000  1
  Cu  Cu24  1  0.00990183  0.00990183  0.71218891  1
  Cu  Cu25  1  0.00934286  0.00934286  0.78370391  1
  Cu  Cu26  1  0.00922186  0.00922186  0.85518565  1
  Cu  Cu27  1  0.01350816  0.01350816  0.92624085  1
  O  O28  1  0.10669660  0.10669660  0.00765969  1
  O  O29  1  0.10731379  0.10731379  0.07836354  1
  O  O30  1  0.11933243  0.11933243  0.15019599  1
  O  O31  1  0.88810391  0.88810391  0.06366832  1
  O  O32  1  0.12046268  0.12046268  0.22067444  1
  O  O33  1  0.91512661  0.91512661  0.13178947  1
  O  O34  1  0.63122380  0.63122380  0.19258366  1
  O  O35  1  0.13074934  0.13074934  0.29007423  1
  O  O36  1  0.87573851  0.87573851  0.20839267  1
  O  O37  1  0.34232100  0.34232100  0.31150895  1
  O  O38  1  0.09341051  0.09341051  0.36819671  1
  O  O39  1  0.88663226  0.88663226  0.27757256  1
  O  O40  1  0.11266116  0.11266116  0.43634250  1
  O  O41  1  0.90617475  0.90617475  0.34617072  1
  O  O42  1  0.65634293  0.65634293  0.40281422  1
  O  O43  1  0.11117488  0.11117488  0.50630918  1
  O  O44  1  0.86324488  0.86324488  0.42466767  1
  O  O45  1  0.12544203  0.12544203  0.57730632  1
  O  O46  1  0.88785400  0.88785400  0.49244283  1
  O  O47  1  0.12451566  0.12451566  0.64877871  1
  O  O48  1  0.92136096  0.92136096  0.55920829  1
  O  O49  1  0.64466345  0.64466345  0.61868567  1
  O  O50  1  0.11658160  0.11658160  0.72104865  1
  O  O51  1  0.89081990  0.89081990  0.63390332  1
  O  O52  1  0.63505557  0.63505557  0.69218581  1
  O  O53  1  0.11475707  0.11475707  0.79272568  1
  O  O54  1  0.89000618  0.89000618  0.70537040  1
  O  O55  1  0.62777282  0.62777282  0.76444885  1
  O  O56  1  0.11317916  0.11317916  0.86449395  1
  O  O57  1  0.88691138  0.88691138  0.77724939  1
  O  O58  1  0.62192633  0.62192633  0.83679819  1
  O  O59  1  0.10987136  0.10987136  0.93686427  1
  O  O60  1  0.88397643  0.88397643  0.84910898  1
  O  O61  1  0.61755625  0.61755625  0.90917300  1
  O  O62  1  0.88347446  0.88347446  0.92085337  1
  O  O63  1  0.60261872  0.60261872  0.98210540  1
  O  O64  1  0.86484871  0.86484871  0.99502152  1
