# generated using pymatgen
data_Sn6P7O24
_symmetry_space_group_name_H-M   'P 1'
_cell_length_a   6.09606900
_cell_length_b   27.60157087
_cell_length_c   7.22140648
_cell_angle_alpha   90.00000000
_cell_angle_beta   110.56047450
_cell_angle_gamma   90.00000000
_symmetry_Int_Tables_number   1
_chemical_formula_structural   Sn6P7O24
_chemical_formula_sum   'Sn12 P14 O48'
_cell_volume   1137.68342363
_cell_formula_units_Z   2
loop_
 _symmetry_equiv_pos_site_id
 _symmetry_equiv_pos_as_xyz
  1  'x, y, z'
loop_
 _atom_site_type_symbol
 _atom_site_label
 _atom_site_symmetry_multiplicity
 _atom_site_fract_x
 _atom_site_fract_y
 _atom_site_fract_z
 _atom_site_occupancy
  Sn  Sn0  1  0.85611077  0.31476880  0.69613993  1
  Sn  Sn1  1  0.77738991  0.60221957  0.91340704  1
  Sn  Sn2  1  0.22261009  0.39778043  0.08659296  1
  Sn  Sn3  1  0.17638073  0.54563044  0.69037717  1
  Sn  Sn4  1  0.17638073  0.95436956  0.69037717  1
  Sn  Sn5  1  0.22261009  0.10221957  0.08659296  1
  Sn  Sn6  1  0.14388923  0.68523120  0.30386007  1
  Sn  Sn7  1  0.82361927  0.04563044  0.30962283  1
  Sn  Sn8  1  0.14388923  0.81476880  0.30386007  1
  Sn  Sn9  1  0.77738991  0.89778043  0.91340704  1
  Sn  Sn10  1  0.82361927  0.45436956  0.30962283  1
  Sn  Sn11  1  0.85611077  0.18523120  0.69613993  1
  P  P12  1  0.66798130  0.89482248  0.38273407  1
  P  P13  1  0.29435936  0.52654806  0.19310561  1
  P  P14  1  0.76221434  0.33027606  0.18376649  1
  P  P15  1  0.70564064  0.47345194  0.80689439  1
  P  P16  1  0.47410403  0.25000000  0.91830220  1
  P  P17  1  0.29435936  0.97345194  0.19310561  1
  P  P18  1  0.66798130  0.60517752  0.38273407  1
  P  P19  1  0.52589597  0.75000000  0.08169780  1
  P  P20  1  0.23778566  0.83027606  0.81623351  1
  P  P21  1  0.70564064  0.02654806  0.80689439  1
  P  P22  1  0.33201870  0.39482248  0.61726593  1
  P  P23  1  0.23778566  0.66972394  0.81623351  1
  P  P24  1  0.76221434  0.16972394  0.18376649  1
  P  P25  1  0.33201870  0.10517752  0.61726593  1
  O  O26  1  0.09232971  0.83618548  0.95083422  1
  O  O27  1  0.63354905  0.25000000  0.79631610  1
  O  O28  1  0.82924871  0.47333946  0.65783795  1
  O  O29  1  0.46653647  0.79675677  0.93809745  1
  O  O30  1  0.17075129  0.52666054  0.34216205  1
  O  O31  1  0.18233250  0.38063513  0.74200731  1
  O  O32  1  0.18233250  0.11936487  0.74200731  1
  O  O33  1  0.83067101  0.90977666  0.59568308  1
  O  O34  1  0.88709906  0.30656059  0.38156991  1
  O  O35  1  0.48448983  0.64087786  0.39136261  1
  O  O36  1  0.45634907  0.44523835  0.71963521  1
  O  O37  1  0.35536319  0.87932123  0.79240231  1
  O  O38  1  0.83067101  0.59022334  0.59568308  1
  O  O39  1  0.78657757  0.75000000  0.18799673  1
  O  O40  1  0.81766750  0.88063513  0.25799269  1
  O  O41  1  0.16932899  0.40977666  0.40431692  1
  O  O42  1  0.51551017  0.14087786  0.60863739  1
  O  O43  1  0.45634907  0.05476165  0.71963521  1
  O  O44  1  0.36645095  0.75000000  0.20368390  1
  O  O45  1  0.37705645  0.47632550  0.14788392  1
  O  O46  1  0.88709906  0.19343941  0.38156991  1
  O  O47  1  0.64463681  0.12067877  0.20759769  1
  O  O48  1  0.17075129  0.97333946  0.34216205  1
  O  O49  1  0.90767029  0.33618548  0.04916578  1
  O  O50  1  0.85667147  0.05258909  0.00118821  1
  O  O51  1  0.62294355  0.97632550  0.85211608  1
  O  O52  1  0.16932899  0.09022334  0.40431692  1
  O  O53  1  0.81766750  0.61936487  0.25799269  1
  O  O54  1  0.46653647  0.70324323  0.93809745  1
  O  O55  1  0.90767029  0.16381452  0.04916578  1
  O  O56  1  0.35536319  0.62067877  0.79240231  1
  O  O57  1  0.14332853  0.94741091  0.99881179  1
  O  O58  1  0.09232971  0.66381452  0.95083422  1
  O  O59  1  0.48448983  0.85912214  0.39136261  1
  O  O60  1  0.51551017  0.35912214  0.60863739  1
  O  O61  1  0.85667147  0.44741091  0.00118821  1
  O  O62  1  0.54365093  0.94523835  0.28036479  1
  O  O63  1  0.11290094  0.69343941  0.61843009  1
  O  O64  1  0.54365093  0.55476165  0.28036479  1
  O  O65  1  0.11290094  0.80656059  0.61843009  1
  O  O66  1  0.37705645  0.02367450  0.14788392  1
  O  O67  1  0.82924871  0.02666054  0.65783795  1
  O  O68  1  0.53346353  0.29675677  0.06190255  1
  O  O69  1  0.64463681  0.37932123  0.20759769  1
  O  O70  1  0.14332853  0.55258909  0.99881179  1
  O  O71  1  0.53346353  0.20324323  0.06190255  1
  O  O72  1  0.21342243  0.25000000  0.81200327  1
  O  O73  1  0.62294355  0.52367450  0.85211608  1
