# generated using pymatgen
data_MnPO4
_symmetry_space_group_name_H-M   'P 1'
_cell_length_a   8.84303826
_cell_length_b   8.84303895
_cell_length_c   8.84303887
_cell_angle_alpha   108.21458115
_cell_angle_beta   108.21458260
_cell_angle_gamma   108.21457518
_symmetry_Int_Tables_number   1
_chemical_formula_structural   MnPO4
_chemical_formula_sum   'Mn6 P6 O24'
_cell_volume   555.72009819
_cell_formula_units_Z   6
loop_
 _symmetry_equiv_pos_site_id
 _symmetry_equiv_pos_as_xyz
  1  'x, y, z'
loop_
 _atom_site_type_symbol
 _atom_site_label
 _atom_site_symmetry_multiplicity
 _atom_site_fract_x
 _atom_site_fract_y
 _atom_site_fract_z
 _atom_site_occupancy
  Mn  Mn0  1  0.04121288  0.46334286  0.24390661  1
  Mn  Mn1  1  0.24390661  0.04121288  0.46334286  1
  Mn  Mn2  1  0.74846871  0.93221815  0.52301289  1
  Mn  Mn3  1  0.52301289  0.74846871  0.93221815  1
  Mn  Mn4  1  0.46334286  0.24390661  0.04121288  1
  Mn  Mn5  1  0.93221815  0.52301289  0.74846871  1
  P  P6  1  0.57564020  0.39035397  0.78971800  1
  P  P7  1  0.08863379  0.27922709  0.88084925  1
  P  P8  1  0.88084925  0.08863379  0.27922709  1
  P  P9  1  0.27922709  0.88084925  0.08863379  1
  P  P10  1  0.78971800  0.57564020  0.39035397  1
  P  P11  1  0.39035397  0.78971800  0.57564020  1
  O  O12  1  0.37743796  0.28593516  0.64605538  1
  O  O13  1  0.88059834  0.62597613  0.59087317  1
  O  O14  1  0.93724217  0.60826136  0.32560361  1
  O  O15  1  0.40579519  0.79410951  0.07296822  1
  O  O16  1  0.28582128  0.32015617  0.95916227  1
  O  O17  1  0.73903966  0.97216331  0.08272193  1
  O  O18  1  0.59087317  0.88059834  0.62597613  1
  O  O19  1  0.32015617  0.95916227  0.28582128  1
  O  O20  1  0.97216331  0.08272193  0.73903966  1
  O  O21  1  0.28593516  0.64605538  0.37743796  1
  O  O22  1  0.79410951  0.07296822  0.40579519  1
  O  O23  1  0.02621763  0.02508961  0.31529035  1
  O  O24  1  0.35926097  0.70603237  0.69931686  1
  O  O25  1  0.32560361  0.93724217  0.60826136  1
  O  O26  1  0.95916227  0.28582128  0.32015617  1
  O  O27  1  0.70603237  0.69931686  0.35926097  1
  O  O28  1  0.69931686  0.35926097  0.70603237  1
  O  O29  1  0.08272193  0.73903966  0.97216331  1
  O  O30  1  0.07296822  0.40579519  0.79410951  1
  O  O31  1  0.64605538  0.37743796  0.28593516  1
  O  O32  1  0.62597613  0.59087317  0.88059834  1
  O  O33  1  0.31529035  0.02621763  0.02508961  1
  O  O34  1  0.60826136  0.32560361  0.93724217  1
  O  O35  1  0.02508961  0.31529035  0.02621763  1
