# generated using pymatgen
data_NiMo3S4
_symmetry_space_group_name_H-M   'P 1'
_cell_length_a   6.58980636
_cell_length_b   6.56910181
_cell_length_c   6.41673132
_cell_angle_alpha   91.39803794
_cell_angle_beta   97.01569483
_cell_angle_gamma   98.21008447
_symmetry_Int_Tables_number   1
_chemical_formula_structural   NiMo3S4
_chemical_formula_sum   'Ni2 Mo6 S8'
_cell_volume   272.62162419
_cell_formula_units_Z   2
loop_
 _symmetry_equiv_pos_site_id
 _symmetry_equiv_pos_as_xyz
  1  'x, y, z'
loop_
 _atom_site_type_symbol
 _atom_site_label
 _atom_site_symmetry_multiplicity
 _atom_site_fract_x
 _atom_site_fract_y
 _atom_site_fract_z
 _atom_site_occupancy
  Ni  Ni0  1  0.05678666  0.09152561  0.83475415  1
  Ni  Ni1  1  0.94321334  0.90847439  0.16524585  1
  Mo  Mo2  1  0.20682291  0.39671307  0.54197758  1
  Mo  Mo3  1  0.40973284  0.54373419  0.21944650  1
  Mo  Mo4  1  0.46454624  0.78717451  0.59218850  1
  Mo  Mo5  1  0.53545376  0.21282549  0.40781150  1
  Mo  Mo6  1  0.59026716  0.45626581  0.78055350  1
  Mo  Mo7  1  0.79317709  0.60328693  0.45802242  1
  S  S8  1  0.14436770  0.71912314  0.35815140  1
  S  S9  1  0.28161411  0.61380890  0.85705987  1
  S  S10  1  0.19315449  0.18844625  0.19716261  1
  S  S11  1  0.36979991  0.12290942  0.73042251  1
  S  S12  1  0.63020009  0.87709058  0.26957749  1
  S  S13  1  0.80684551  0.81155375  0.80283739  1
  S  S14  1  0.71838589  0.38619110  0.14294013  1
  S  S15  1  0.85563230  0.28087686  0.64184860  1
