# generated using pymatgen
data_Sr4Nb2O9
_symmetry_space_group_name_H-M   'P 1'
_cell_length_a   12.03567414
_cell_length_b   18.46456456
_cell_length_c   10.76147536
_cell_angle_alpha   29.04643073
_cell_angle_beta   54.20698606
_cell_angle_gamma   59.24960114
_symmetry_Int_Tables_number   1
_chemical_formula_structural   Sr4Nb2O9
_chemical_formula_sum   'Sr16 Nb8 O36'
_cell_volume   941.84634969
_cell_formula_units_Z   4
loop_
 _symmetry_equiv_pos_site_id
 _symmetry_equiv_pos_as_xyz
  1  'x, y, z'
loop_
 _atom_site_type_symbol
 _atom_site_label
 _atom_site_symmetry_multiplicity
 _atom_site_fract_x
 _atom_site_fract_y
 _atom_site_fract_z
 _atom_site_occupancy
  Sr  Sr0  1  0.13663015  0.03122748  0.17228947  1
  Sr  Sr1  1  0.25000000  0.99544432  0.50683352  1
  Sr  Sr2  1  0.13557246  0.32423988  0.29878616  1
  Sr  Sr3  1  0.63663015  0.96877252  0.26597191  1
  Sr  Sr4  1  0.36336985  0.03122748  0.73402809  1
  Sr  Sr5  1  0.12128750  0.66832079  0.24933187  1
  Sr  Sr6  1  0.75000000  0.00455568  0.49316648  1
  Sr  Sr7  1  0.36442754  0.32423988  0.72849321  1
  Sr  Sr8  1  0.62128750  0.33167921  0.25429324  1
  Sr  Sr9  1  0.25000000  0.65273044  0.52090484  1
  Sr  Sr10  1  0.86336985  0.96877252  0.82771053  1
  Sr  Sr11  1  0.75000000  0.34726956  0.47909516  1
  Sr  Sr12  1  0.63557246  0.67576012  0.27150679  1
  Sr  Sr13  1  0.37871250  0.66832079  0.74570676  1
  Sr  Sr14  1  0.87871250  0.33167921  0.75066813  1
  Sr  Sr15  1  0.86442754  0.67576012  0.70121384  1
  Nb  Nb16  1  0.00000000  0.00000000  0.00000000  1
  Nb  Nb17  1  0.50000000  0.00000000  0.00000000  1
  Nb  Nb18  1  0.49590072  0.32980332  0.00945432  1
  Nb  Nb19  1  0.25000000  0.34723564  0.47914604  1
  Nb  Nb20  1  0.50409928  0.67019668  0.99054568  1
  Nb  Nb21  1  0.00409928  0.32980332  0.00113472  1
  Nb  Nb22  1  0.99590072  0.67019668  0.99886528  1
  Nb  Nb23  1  0.75000000  0.65276436  0.52085396  1
  O  O24  1  0.13218622  0.18229376  0.18630073  1
  O  O25  1  0.37593303  0.99698419  0.23096540  1
  O  O26  1  0.12214570  0.48745373  0.28285236  1
  O  O27  1  0.12735878  0.16587957  0.75163441  1
  O  O28  1  0.36781378  0.18229376  0.26681698  1
  O  O29  1  0.35745629  0.32747249  0.28422109  1
  O  O30  1  0.14254371  0.32747249  0.73336043  1
  O  O31  1  0.60073567  0.20924326  0.23630459  1
  O  O32  1  0.11940320  0.50473687  0.68810646  1
  O  O33  1  0.11184245  0.84807435  0.23994536  1
  O  O34  1  0.37264122  0.16587957  0.75072689  1
  O  O35  1  0.37785430  0.48745373  0.25478746  1
  O  O36  1  0.38926053  0.65161991  0.23602164  1
  O  O37  1  0.87593303  0.00301581  0.22191796  1
  O  O38  1  0.11073947  0.65161991  0.80911962  1
  O  O39  1  0.61940320  0.49526313  0.20231808  1
  O  O40  1  0.61184245  0.15192565  0.78416840  1
  O  O41  1  0.10073567  0.79075674  0.86403536  1
  O  O42  1  0.38815755  0.84807435  0.21583160  1
  O  O43  1  0.89926433  0.20924326  0.13596464  1
  O  O44  1  0.38059680  0.50473687  0.79768192  1
  O  O45  1  0.88926053  0.34838009  0.19088038  1
  O  O46  1  0.61073947  0.34838009  0.76397836  1
  O  O47  1  0.12406697  0.99698419  0.77808204  1
  O  O48  1  0.62214570  0.51254627  0.74521254  1
  O  O49  1  0.62735878  0.83412043  0.24927311  1
  O  O50  1  0.39926433  0.79075674  0.76369541  1
  O  O51  1  0.88815755  0.15192565  0.76005464  1
  O  O52  1  0.88059680  0.49526313  0.31189354  1
  O  O53  1  0.85745629  0.67252751  0.26663957  1
  O  O54  1  0.64254371  0.67252751  0.71577891  1
  O  O55  1  0.63218622  0.81770624  0.73318302  1
  O  O56  1  0.87785430  0.51254627  0.71714764  1
  O  O57  1  0.87264122  0.83412043  0.24836559  1
  O  O58  1  0.62406697  0.00301581  0.76903460  1
  O  O59  1  0.86781378  0.81770624  0.81369927  1
