# generated using pymatgen
data_FeGe4H24C8(S5N)2
_symmetry_space_group_name_H-M   'P 1'
_cell_length_a   9.96855062
_cell_length_b   9.96855062
_cell_length_c   9.96855062
_cell_angle_alpha   122.55300782
_cell_angle_beta   122.55300782
_cell_angle_gamma   85.63216404
_symmetry_Int_Tables_number   1
_chemical_formula_structural   FeGe4H24C8(S5N)2
_chemical_formula_sum   'Fe1 Ge4 H24 C8 S10 N2'
_cell_volume   671.29966410
_cell_formula_units_Z   1
loop_
 _symmetry_equiv_pos_site_id
 _symmetry_equiv_pos_as_xyz
  1  'x, y, z'
loop_
 _atom_site_type_symbol
 _atom_site_label
 _atom_site_symmetry_multiplicity
 _atom_site_fract_x
 _atom_site_fract_y
 _atom_site_fract_z
 _atom_site_occupancy
  Fe  Fe0  1  0.75000000  0.25000000  0.50000000  1
  Ge  Ge1  1  0.97605341  0.73204325  0.88750655  1
  Ge  Ge2  1  0.84453670  0.08854685  0.11249345  1
  Ge  Ge3  1  0.91145315  0.02394659  0.75598984  1
  Ge  Ge4  1  0.26795675  0.15546330  0.24401016  1
  H  H5  1  0.41770474  0.51957797  0.77064393  1
  H  H6  1  0.74893404  0.64706081  0.22935607  1
  H  H7  1  0.35293919  0.58229526  0.10187323  1
  H  H8  1  0.48042203  0.25106596  0.89812677  1
  H  H9  1  0.32323614  0.61636689  0.89725779  1
  H  H10  1  0.71910910  0.42597835  0.10274221  1
  H  H11  1  0.57402165  0.67676386  0.29313075  1
  H  H12  1  0.38363311  0.28089090  0.70686925  1
  H  H13  1  0.53476346  0.71474060  0.01259655  1
  H  H14  1  0.70214406  0.52216692  0.98740345  1
  H  H15  1  0.47783308  0.46523654  0.17997714  1
  H  H16  1  0.28525940  0.29785594  0.82002286  1
  H  H17  1  0.25780767  0.91905788  0.43187578  1
  H  H18  1  0.48718210  0.82593189  0.56812422  1
  H  H19  1  0.17406811  0.74219233  0.66125021  1
  H  H20  1  0.08094212  0.51281790  0.33874979  1
  H  H21  1  0.10158369  0.91455379  0.46831687  1
  H  H22  1  0.44623691  0.63326682  0.53168313  1
  H  H23  1  0.36673318  0.89841631  0.81297009  1
  H  H24  1  0.08544621  0.55376309  0.18702991  1
  H  H25  1  0.31555310  0.01219436  0.67457295  1
  H  H26  1  0.33762141  0.64098016  0.32542705  1
  H  H27  1  0.35901984  0.68444690  0.69664126  1
  H  H28  1  0.98780564  0.66237859  0.30335874  1
  C  C29  1  0.43883501  0.59549715  0.91356961  1
  C  C30  1  0.68192754  0.52526541  0.08643039  1
  C  C31  1  0.47473459  0.56116499  0.15666213  1
  C  C32  1  0.40450285  0.31807246  0.84333787  1
  C  C33  1  0.22968819  0.91047560  0.51955719  1
  C  C34  1  0.39091842  0.71013101  0.48044281  1
  C  C35  1  0.28986899  0.77031181  0.68078741  1
  C  C36  1  0.08952440  0.60908158  0.31921259  1
  S  S37  1  0.24946353  0.88627646  0.13527027  1
  S  S38  1  0.75100619  0.11419326  0.86472973  1
  S  S39  1  0.88580674  0.75053647  0.63681293  1
  S  S40  1  0.11372354  0.24899381  0.36318707  1
  S  S41  1  0.81751476  0.81751476  0.00000000  1
  S  S42  1  0.18248524  0.18248524  0.00000000  1
  S  S43  1  0.97607610  0.47502256  0.79411160  1
  S  S44  1  0.68091096  0.18196450  0.20588840  1
  S  S45  1  0.81803550  0.02392390  0.49894646  1
  S  S46  1  0.52497744  0.31908904  0.50105354  1
  N  N47  1  0.50000000  0.50000000  0.00000000  1
  N  N48  1  0.25000000  0.75000000  0.50000000  1
