# generated using pymatgen
data_LaH6S3(NO3)3
_symmetry_space_group_name_H-M   'P 1'
_cell_length_a   9.88498684
_cell_length_b   9.86825735
_cell_length_c   6.07937974
_cell_angle_alpha   89.72363723
_cell_angle_beta   89.64665073
_cell_angle_gamma   120.01981833
_symmetry_Int_Tables_number   1
_chemical_formula_structural   LaH6S3(NO3)3
_chemical_formula_sum   'La2 H12 S6 N6 O18'
_cell_volume   513.44428430
_cell_formula_units_Z   2
loop_
 _symmetry_equiv_pos_site_id
 _symmetry_equiv_pos_as_xyz
  1  'x, y, z'
loop_
 _atom_site_type_symbol
 _atom_site_label
 _atom_site_symmetry_multiplicity
 _atom_site_fract_x
 _atom_site_fract_y
 _atom_site_fract_z
 _atom_site_occupancy
  La  La0  1  0.33334306  0.66646284  0.24921088  1
  La  La1  1  0.66673326  0.33362980  0.74897392  1
  H  H2  1  0.11285544  0.91251737  0.62961692  1
  H  H3  1  0.26719286  0.93758334  0.76849444  1
  H  H4  1  0.06308485  0.32958328  0.73042891  1
  H  H5  1  0.08919494  0.20119740  0.87374394  1
  H  H6  1  0.19937158  0.10041750  0.13266187  1
  H  H7  1  0.32229708  0.26074251  0.27370888  1
  H  H8  1  0.67292278  0.73531168  0.73026126  1
  H  H9  1  0.79735953  0.89045613  0.87289507  1
  H  H10  1  0.90201681  0.79872330  0.36879774  1
  H  H11  1  0.93833054  0.67595062  0.22462122  1
  H  H12  1  0.73727141  0.06244940  0.23109066  1
  H  H13  1  0.89291790  0.09455134  0.37528707  1
  S  S14  1  0.08649016  0.68517181  0.75004682  1
  S  S15  1  0.31538121  0.40183179  0.75137027  1
  S  S16  1  0.59852536  0.91398007  0.74779254  1
  S  S17  1  0.40262156  0.08524570  0.25121669  1
  S  S18  1  0.68310906  0.59757987  0.24917881  1
  S  S19  1  0.91485433  0.31653130  0.24872494  1
  N  N20  1  0.14741569  0.87520157  0.76355559  1
  N  N21  1  0.12594797  0.27268694  0.73844198  1
  N  N22  1  0.27049253  0.14121780  0.26615029  1
  N  N23  1  0.72963325  0.85541071  0.73525142  1
  N  N24  1  0.87156073  0.72861874  0.23399700  1
  N  N25  1  0.85692246  0.12690989  0.23715843  1
  O  O26  1  0.14687736  0.65172064  0.94935760  1
  O  O27  1  0.14635799  0.64927796  0.54961166  1
  O  O28  1  0.30783711  0.91420531  0.25217866  1
  O  O29  1  0.08527199  0.39222548  0.24845453  1
  O  O30  1  0.50482372  0.85159756  0.55027821  1
  O  O31  1  0.50362296  0.85478278  0.95013580  1
  O  O32  1  0.34811005  0.49595198  0.55102127  1
  O  O33  1  0.35163305  0.49738973  0.95083078  1
  O  O34  1  0.38963815  0.30484957  0.75558191  1
  O  O35  1  0.60801394  0.69310968  0.24936185  1
  O  O36  1  0.65274040  0.50271965  0.05125630  1
  O  O37  1  0.64638859  0.50258666  0.45176107  1
  O  O38  1  0.49735310  0.14484648  0.04871680  1
  O  O39  1  0.49715448  0.14896915  0.44891970  1
  O  O40  1  0.91538351  0.61080747  0.74718079  1
  O  O41  1  0.69451814  0.08555718  0.74756279  1
  O  O42  1  0.85467606  0.35160346  0.44998347  1
  O  O43  1  0.85175303  0.34783656  0.04972926  1
