# generated using pymatgen
data_NiH18C4S6(N2O)4
_symmetry_space_group_name_H-M   'P 1'
_cell_length_a   19.31207642
_cell_length_b   10.56892932
_cell_length_c   9.08787043
_cell_angle_alpha   90.00000000
_cell_angle_beta   90.00000000
_cell_angle_gamma   90.00000000
_symmetry_Int_Tables_number   1
_chemical_formula_structural   NiH18C4S6(N2O)4
_chemical_formula_sum   'Ni4 H72 C16 S24 N32 O16'
_cell_volume   1854.90679150
_cell_formula_units_Z   4
loop_
 _symmetry_equiv_pos_site_id
 _symmetry_equiv_pos_as_xyz
  1  'x, y, z'
loop_
 _atom_site_type_symbol
 _atom_site_label
 _atom_site_symmetry_multiplicity
 _atom_site_fract_x
 _atom_site_fract_y
 _atom_site_fract_z
 _atom_site_occupancy
  Ni  Ni0  1  0.90339027  0.57557957  0.43715312  1
  Ni  Ni1  1  0.59660973  0.42442043  0.93715312  1
  Ni  Ni2  1  0.40339027  0.92442043  0.56284688  1
  Ni  Ni3  1  0.09660973  0.07557957  0.06284688  1
  H  H4  1  0.15740325  0.54640127  0.29420176  1
  H  H5  1  0.34259675  0.45359873  0.79420176  1
  H  H6  1  0.65740325  0.95359873  0.70579824  1
  H  H7  1  0.84259675  0.04640127  0.20579824  1
  H  H8  1  0.17936200  0.69867103  0.35167116  1
  H  H9  1  0.32063800  0.30132897  0.85167116  1
  H  H10  1  0.67936200  0.80132897  0.64832884  1
  H  H11  1  0.82063800  0.19867103  0.14832884  1
  H  H12  1  0.00461225  0.78713490  0.42416571  1
  H  H13  1  0.49538775  0.21286510  0.92416571  1
  H  H14  1  0.50461225  0.71286510  0.57583429  1
  H  H15  1  0.99538775  0.28713490  0.07583429  1
  H  H16  1  0.09028652  0.84107067  0.41950372  1
  H  H17  1  0.40971348  0.15892933  0.91950372  1
  H  H18  1  0.59028652  0.65892933  0.58049628  1
  H  H19  1  0.90971348  0.34107067  0.08049628  1
  H  H20  1  0.85182457  0.48743069  0.73081449  1
  H  H21  1  0.64817543  0.51256931  0.23081449  1
  H  H22  1  0.35182457  0.01256931  0.26918551  1
  H  H23  1  0.14817543  0.98743069  0.76918551  1
  H  H24  1  0.80379929  0.37263811  0.82770381  1
  H  H25  1  0.69620071  0.62736189  0.32770381  1
  H  H26  1  0.30379929  0.12736189  0.17229619  1
  H  H27  1  0.19620071  0.87263811  0.67229619  1
  H  H28  1  0.83561915  0.12491717  0.57719306  1
  H  H29  1  0.66438085  0.87508283  0.07719306  1
  H  H30  1  0.33561915  0.37508283  0.42280694  1
  H  H31  1  0.16438085  0.62491717  0.92280694  1
  H  H32  1  0.79410606  0.17004084  0.73748238  1
  H  H33  1  0.70589394  0.82995916  0.23748238  1
  H  H34  1  0.29410606  0.32995916  0.26251762  1
  H  H35  1  0.20589394  0.67004084  0.76251762  1
  H  H36  1  0.04532649  0.50408685  0.96333104  1
  H  H37  1  0.45467351  0.49591315  0.46333104  1
  H  H38  1  0.54532649  0.99591315  0.03666896  1
  H  H39  1  0.95467351  0.00408685  0.53666896  1
  H  H40  1  0.98140517  0.62103456  0.97270466  1
  H  H41  1  0.51859483  0.37896544  0.47270466  1
  H  H42  1  0.48140517  0.87896544  0.02729534  1
  H  H43  1  0.01859483  0.12103456  0.52729534  1
  H  H44  1  0.02326460  0.45099294  0.58207363  1
  H  H45  1  0.47673540  0.54900706  0.08207363  1
  H  H46  1  0.52326460  0.04900706  0.41792637  1
  H  H47  1  0.97673540  0.95099294  0.91792637  1
  H  H48  1  0.06126969  0.39315031  0.74458665  1
  H  H49  1  0.43873031  0.60684969  0.24458665  1
  H  H50  1  0.56126969  0.10684969  0.25541335  1
  H  H51  1  0.93873031  0.89315031  0.75541335  1
  H  H52  1  0.78897235  0.69307356  0.88362701  1
  H  H53  1  0.71102765  0.30692644  0.38362701  1
  H  H54  1  0.28897235  0.80692644  0.11637299  1
  H  H55  1  0.21102765  0.19307356  0.61637299  1
  H  H56  1  0.75998829  0.55023200  0.95825805  1
  H  H57  1  0.74001171  0.44976800  0.45825805  1
  H  H58  1  0.25998829  0.94976800  0.04174195  1
  H  H59  1  0.24001171  0.05023200  0.54174195  1
  H  H60  1  0.87012497  0.80624391  0.99976924  1
  H  H61  1  0.62987503  0.19375609  0.49976924  1
  H  H62  1  0.37012497  0.69375609  0.00023076  1
  H  H63  1  0.12987503  0.30624391  0.50023076  1
  H  H64  1  0.90928157  0.75413265  0.16050330  1
  H  H65  1  0.59071843  0.24586735  0.66050330  1
  H  H66  1  0.40928157  0.74586735  0.83949670  1
  H  H67  1  0.09071843  0.25413265  0.33949670  1
  H  H68  1  0.73065320  0.03579520  0.37159000  1
  H  H69  1  0.76934680  0.96420480  0.87159000  1
  H  H70  1  0.23065320  0.46420480  0.62841000  1
  H  H71  1  0.26934680  0.53579520  0.12841000  1
  H  H72  1  0.67658603  0.09112474  0.26302591  1
  H  H73  1  0.82341397  0.90887526  0.76302591  1
  H  H74  1  0.17658603  0.40887526  0.73697409  1
  H  H75  1  0.32341397  0.59112474  0.23697409  1
  C  C76  1  0.07494712  0.65445040  0.36224876  1
  C  C77  1  0.42505288  0.34554960  0.86224876  1
  C  C78  1  0.57494712  0.84554960  0.63775124  1
  C  C79  1  0.92505288  0.15445040  0.13775124  1
  C  C80  1  0.84942762  0.31189646  0.63563460  1
  C  C81  1  0.65057238  0.68810354  0.13563460  1
  C  C82  1  0.34942762  0.18810354  0.36436540  1
  C  C83  1  0.15057238  0.81189646  0.86436540  1
  C  C84  1  0.99706983  0.54605893  0.76773476  1
  C  C85  1  0.50293017  0.45394107  0.26773476  1
  C  C86  1  0.49706983  0.95394107  0.23226524  1
  C  C87  1  0.00293017  0.04605893  0.73226524  1
  C  C88  1  0.84097681  0.63229433  0.06850756  1
  C  C89  1  0.65902319  0.36770567  0.56850756  1
  C  C90  1  0.34097681  0.86770567  0.93149244  1
  C  C91  1  0.15902319  0.13229433  0.43149244  1
  S  S92  1  0.01495678  0.53823250  0.32458817  1
  S  S93  1  0.48504322  0.46176750  0.82458817  1
  S  S94  1  0.51495678  0.96176750  0.67541183  1
  S  S95  1  0.98504322  0.03823250  0.17541183  1
  S  S96  1  0.89343074  0.35152772  0.47796563  1
  S  S97  1  0.60656926  0.64847228  0.97796563  1
  S  S98  1  0.39343074  0.14847228  0.52203437  1
  S  S99  1  0.10656926  0.85152772  0.02203437  1
  S  S100  1  0.93809589  0.64310328  0.68261973  1
  S  S101  1  0.56190411  0.35689672  0.18261973  1
  S  S102  1  0.43809589  0.85689672  0.31738027  1
  S  S103  1  0.06190411  0.14310328  0.81738027  1
  S  S104  1  0.84324425  0.51901833  0.20377764  1
  S  S105  1  0.65675575  0.48098167  0.70377764  1
  S  S106  1  0.34324425  0.98098167  0.79622236  1
  S  S107  1  0.15675575  0.01901833  0.29622236  1
  S  S108  1  0.78202904  0.68365185  0.53107667  1
  S  S109  1  0.71797096  0.31634815  0.03107667  1
  S  S110  1  0.28202904  0.81634815  0.46892333  1
  S  S111  1  0.21797096  0.18365185  0.96892333  1
  S  S112  1  0.83493538  0.83348655  0.44680562  1
  S  S113  1  0.66506462  0.16651345  0.94680562  1
  S  S114  1  0.33493538  0.66651345  0.55319438  1
  S  S115  1  0.16506462  0.33348655  0.05319438  1
  N  N116  1  0.14207097  0.63119434  0.33652353  1
  N  N117  1  0.35792903  0.36880566  0.83652353  1
  N  N118  1  0.64207097  0.86880566  0.66347647  1
  N  N119  1  0.85792903  0.13119434  0.16347647  1
  N  N120  1  0.05609293  0.76729852  0.41493585  1
  N  N121  1  0.44390707  0.23270148  0.91493585  1
  N  N122  1  0.55609293  0.73270148  0.58506415  1
  N  N123  1  0.94390707  0.26729852  0.08506415  1
  N  N124  1  0.83548496  0.39604666  0.74162990  1
  N  N125  1  0.66451504  0.60395334  0.24162990  1
  N  N126  1  0.33548496  0.10395334  0.25837010  1
  N  N127  1  0.16451504  0.89604666  0.75837010  1
  N  N128  1  0.82789252  0.19272342  0.65494325  1
  N  N129  1  0.67210748  0.80727658  0.15494325  1
  N  N130  1  0.32789252  0.30727658  0.34505675  1
  N  N131  1  0.17210748  0.69272342  0.84505675  1
  N  N132  1  0.00617491  0.55272605  0.91366367  1
  N  N133  1  0.49382509  0.44727395  0.41366367  1
  N  N134  1  0.50617491  0.94727395  0.08633633  1
  N  N135  1  0.99382509  0.05272605  0.58633633  1
  N  N136  1  0.03343705  0.46085119  0.69151483  1
  N  N137  1  0.46656295  0.53914881  0.19151483  1
  N  N138  1  0.53343705  0.03914881  0.30848517  1
  N  N139  1  0.96656295  0.96085119  0.80848517  1
  N  N140  1  0.79528953  0.62148511  0.95818510  1
  N  N141  1  0.70471047  0.37851489  0.45818510  1
  N  N142  1  0.29528953  0.87851489  0.04181490  1
  N  N143  1  0.20471047  0.12148511  0.54181490  1
  N  N144  1  0.88522820  0.73129236  0.06413729  1
  N  N145  1  0.61477180  0.26870764  0.56413729  1
  N  N146  1  0.38522820  0.76870764  0.93586271  1
  N  N147  1  0.11477180  0.23129236  0.43586271  1
  O  O148  1  0.90076362  0.77823889  0.38467141  1
  O  O149  1  0.59923638  0.22176111  0.88467141  1
  O  O150  1  0.40076362  0.72176111  0.61532859  1
  O  O151  1  0.09923638  0.27823889  0.11532859  1
  O  O152  1  0.85245160  0.92532911  0.56526600  1
  O  O153  1  0.64754840  0.07467089  0.06526600  1
  O  O154  1  0.35245160  0.57467089  0.43473400  1
  O  O155  1  0.14754840  0.42532911  0.93473400  1
  O  O156  1  0.79390864  0.89726446  0.33017876  1
  O  O157  1  0.70609136  0.10273554  0.83017876  1
  O  O158  1  0.29390864  0.60273554  0.66982124  1
  O  O159  1  0.20609136  0.39726446  0.16982124  1
  O  O160  1  0.69583646  0.10316164  0.36224538  1
  O  O161  1  0.80416354  0.89683836  0.86224538  1
  O  O162  1  0.19583646  0.39683836  0.63775462  1
  O  O163  1  0.30416354  0.60316164  0.13775462  1
