# generated using pymatgen
data_CsAg(BH)10
_symmetry_space_group_name_H-M   'P 1'
_cell_length_a   10.05732452
_cell_length_b   10.97517750
_cell_length_c   9.27307638
_cell_angle_alpha   90.00000000
_cell_angle_beta   90.00000000
_cell_angle_gamma   90.00000000
_symmetry_Int_Tables_number   1
_chemical_formula_structural   CsAg(BH)10
_chemical_formula_sum   'Cs4 Ag4 B40 H40'
_cell_volume   1023.57071858
_cell_formula_units_Z   4
loop_
 _symmetry_equiv_pos_site_id
 _symmetry_equiv_pos_as_xyz
  1  'x, y, z'
loop_
 _atom_site_type_symbol
 _atom_site_label
 _atom_site_symmetry_multiplicity
 _atom_site_fract_x
 _atom_site_fract_y
 _atom_site_fract_z
 _atom_site_occupancy
  Cs  Cs0  1  0.82114501  0.43867078  0.75000000  1
  Cs  Cs1  1  0.17885499  0.56132922  0.25000000  1
  Cs  Cs2  1  0.82114501  0.06132922  0.25000000  1
  Cs  Cs3  1  0.17885499  0.93867078  0.75000000  1
  Ag  Ag4  1  0.48930014  0.25000000  0.50000000  1
  Ag  Ag5  1  0.51069986  0.75000000  0.00000000  1
  Ag  Ag6  1  0.51069986  0.75000000  0.50000000  1
  Ag  Ag7  1  0.48930014  0.25000000  0.00000000  1
  B  B8  1  0.43110988  0.36035433  0.75000000  1
  B  B9  1  0.56889012  0.63964567  0.25000000  1
  B  B10  1  0.43110988  0.13964567  0.25000000  1
  B  B11  1  0.56889012  0.86035433  0.75000000  1
  B  B12  1  0.43065294  0.51565234  0.75000000  1
  B  B13  1  0.56934706  0.48434766  0.25000000  1
  B  B14  1  0.43065294  0.98434766  0.25000000  1
  B  B15  1  0.56934706  0.01565234  0.75000000  1
  B  B16  1  0.34599781  0.42603902  0.61089942  1
  B  B17  1  0.65400219  0.57396098  0.11089942  1
  B  B18  1  0.34599781  0.07396098  0.38910058  1
  B  B19  1  0.65400219  0.92603902  0.88910058  1
  B  B20  1  0.65400219  0.57396098  0.38910058  1
  B  B21  1  0.34599781  0.42603902  0.88910058  1
  B  B22  1  0.65400219  0.92603902  0.61089942  1
  B  B23  1  0.34599781  0.07396098  0.11089942  1
  B  B24  1  0.26149441  0.33609202  0.75000000  1
  B  B25  1  0.73850559  0.66390798  0.25000000  1
  B  B26  1  0.26149441  0.16390798  0.25000000  1
  B  B27  1  0.73850559  0.83609202  0.75000000  1
  B  B28  1  0.29348268  0.57921325  0.65225533  1
  B  B29  1  0.70651732  0.42078675  0.15225533  1
  B  B30  1  0.29348268  0.92078675  0.34774467  1
  B  B31  1  0.70651732  0.07921325  0.84774467  1
  B  B32  1  0.70651732  0.42078675  0.34774467  1
  B  B33  1  0.29348268  0.57921325  0.84774467  1
  B  B34  1  0.70651732  0.07921325  0.65225533  1
  B  B35  1  0.29348268  0.92078675  0.15225533  1
  B  B36  1  0.17377700  0.45215883  0.65168580  1
  B  B37  1  0.82622300  0.54784117  0.15168580  1
  B  B38  1  0.17377700  0.04784117  0.34831420  1
  B  B39  1  0.82622300  0.95215883  0.84831420  1
  B  B40  1  0.82622300  0.54784117  0.34831420  1
  B  B41  1  0.17377700  0.45215883  0.84831420  1
  B  B42  1  0.82622300  0.95215883  0.65168580  1
  B  B43  1  0.17377700  0.04784117  0.15168580  1
  B  B44  1  0.15061005  0.58201252  0.75000000  1
  B  B45  1  0.84938995  0.41798748  0.25000000  1
  B  B46  1  0.15061005  0.91798748  0.25000000  1
  B  B47  1  0.84938995  0.08201252  0.75000000  1
  H  H48  1  0.52719911  0.29285685  0.75000000  1
  H  H49  1  0.47280089  0.70714315  0.25000000  1
  H  H50  1  0.52719911  0.20714315  0.25000000  1
  H  H51  1  0.47280089  0.79285685  0.75000000  1
  H  H52  1  0.53388008  0.57076965  0.75000000  1
  H  H53  1  0.46611992  0.42923035  0.25000000  1
  H  H54  1  0.53388008  0.92923035  0.25000000  1
  H  H55  1  0.46611992  0.07076965  0.75000000  1
  H  H56  1  0.36922036  0.40980532  0.48311853  1
  H  H57  1  0.63077964  0.59019468  0.98311853  1
  H  H58  1  0.36922036  0.09019468  0.51688147  1
  H  H59  1  0.63077964  0.90980532  0.01688147  1
  H  H60  1  0.63077964  0.59019468  0.51688147  1
  H  H61  1  0.36922036  0.40980532  0.01688147  1
  H  H62  1  0.63077964  0.90980532  0.48311853  1
  H  H63  1  0.36922036  0.09019468  0.98311853  1
  H  H64  1  0.21771879  0.23462841  0.75000000  1
  H  H65  1  0.78228121  0.76537159  0.25000000  1
  H  H66  1  0.21771879  0.26537159  0.25000000  1
  H  H67  1  0.78228121  0.73462841  0.75000000  1
  H  H68  1  0.31440836  0.66021978  0.56548401  1
  H  H69  1  0.68559164  0.33978022  0.06548401  1
  H  H70  1  0.31440836  0.83978022  0.43451599  1
  H  H71  1  0.68559164  0.16021978  0.93451599  1
  H  H72  1  0.68559164  0.33978022  0.43451599  1
  H  H73  1  0.31440836  0.66021978  0.93451599  1
  H  H74  1  0.68559164  0.16021978  0.56548401  1
  H  H75  1  0.31440836  0.83978022  0.06548401  1
  H  H76  1  0.09156710  0.42105841  0.56478090  1
  H  H77  1  0.90843290  0.57894159  0.06478090  1
  H  H78  1  0.09156710  0.07894159  0.43521910  1
  H  H79  1  0.90843290  0.92105841  0.93521910  1
  H  H80  1  0.90843290  0.57894159  0.43521910  1
  H  H81  1  0.09156710  0.42105841  0.93521910  1
  H  H82  1  0.90843290  0.92105841  0.56478090  1
  H  H83  1  0.09156710  0.07894159  0.06478090  1
  H  H84  1  0.05874654  0.65211023  0.75000000  1
  H  H85  1  0.94125346  0.34788977  0.25000000  1
  H  H86  1  0.05874654  0.84788977  0.25000000  1
  H  H87  1  0.94125346  0.15211023  0.75000000  1
