# generated using pymatgen
data_Li3Ni2(PO4)3
_symmetry_space_group_name_H-M   'P 1'
_cell_length_a   9.74895058
_cell_length_b   9.77668362
_cell_length_c   9.77668373
_cell_angle_alpha   86.32193215
_cell_angle_beta   86.60846970
_cell_angle_gamma   86.60846939
_symmetry_Int_Tables_number   1
_chemical_formula_structural   Li3Ni2(PO4)3
_chemical_formula_sum   'Li12 Ni8 P12 O48'
_cell_volume   926.85653035
_cell_formula_units_Z   4
loop_
 _symmetry_equiv_pos_site_id
 _symmetry_equiv_pos_as_xyz
  1  'x, y, z'
loop_
 _atom_site_type_symbol
 _atom_site_label
 _atom_site_symmetry_multiplicity
 _atom_site_fract_x
 _atom_site_fract_y
 _atom_site_fract_z
 _atom_site_occupancy
  Li  Li0  1  0.35101637  0.77256227  0.45005857  1
  Li  Li1  1  0.28663022  0.81667239  0.98085730  1
  Li  Li2  1  0.46517086  0.34686091  0.76956516  1
  Li  Li3  1  0.14898363  0.04994143  0.72743773  1
  Li  Li4  1  0.21336978  0.51914270  0.68332761  1
  Li  Li5  1  0.84603725  0.96564894  0.26628013  1
  Li  Li6  1  0.72759005  0.16308764  0.02513607  1
  Li  Li7  1  0.77240995  0.47486393  0.33691236  1
  Li  Li8  1  0.03482914  0.73043484  0.15313909  1
  Li  Li9  1  0.65396275  0.23371987  0.53435106  1
  Li  Li10  1  0.49452349  0.51315623  0.45887506  1
  Li  Li11  1  0.00547651  0.04112494  0.98684377  1
  Ni  Ni12  1  0.03653500  0.25504309  0.47203982  1
  Ni  Ni13  1  0.75000000  0.53191158  0.96808842  1
  Ni  Ni14  1  0.96895821  0.75112008  0.53466850  1
  Ni  Ni15  1  0.46346500  0.02796018  0.24495691  1
  Ni  Ni16  1  0.53104179  0.96533150  0.74887992  1
  Ni  Ni17  1  0.25000000  0.24860823  0.25139177  1
  Ni  Ni18  1  0.75000000  0.74926503  0.75073497  1
  Ni  Ni19  1  0.25000000  0.46514029  0.03485971  1
  P  P20  1  0.04991486  0.67235338  0.85617692  1
  P  P21  1  0.35653282  0.17052490  0.54655695  1
  P  P22  1  0.95285422  0.32482360  0.15409331  1
  P  P23  1  0.17467227  0.54854639  0.35262160  1
  P  P24  1  0.67171283  0.85507858  0.04477523  1
  P  P25  1  0.45008514  0.64382308  0.82764662  1
  P  P26  1  0.85279088  0.04914707  0.67595548  1
  P  P27  1  0.64720912  0.82404452  0.45085293  1
  P  P28  1  0.32532773  0.14737840  0.95145361  1
  P  P29  1  0.82828717  0.45522477  0.64492142  1
  P  P30  1  0.14346718  0.95344305  0.32947510  1
  P  P31  1  0.54714578  0.34590669  0.17517640  1
  O  O32  1  0.12205059  0.11393357  0.33588768  1
  O  O33  1  0.32954389  0.12214010  0.11194892  1
  O  O34  1  0.17045611  0.38805108  0.37785990  1
  O  O35  1  0.61539920  0.39332331  0.03460671  1
  O  O36  1  0.80284859  0.80653392  0.40735994  1
  O  O37  1  0.72270303  0.41402644  0.54707732  1
  O  O38  1  0.60183233  0.96473822  0.38117697  1
  O  O39  1  0.38681946  0.37638330  0.17088882  1
  O  O40  1  0.03249288  0.61639241  0.39669845  1
  O  O41  1  0.38118277  0.60738985  0.97153136  1
  O  O42  1  0.58599120  0.18852182  0.18299055  1
  O  O43  1  0.94186751  0.08105103  0.79192720  1
  O  O44  1  0.11318054  0.32911118  0.12361670  1
  O  O45  1  0.45156422  0.27890465  0.58799702  1
  O  O46  1  0.91400880  0.31700945  0.31147818  1
  O  O47  1  0.37794941  0.16411232  0.38606643  1
  O  O48  1  0.59378298  0.41509244  0.29849036  1
  O  O49  1  0.39263972  0.02579190  0.61319504  1
  O  O50  1  0.88885158  0.66500399  0.87667937  1
  O  O51  1  0.88460080  0.46539329  0.10667669  1
  O  O52  1  0.79199122  0.41080606  0.79654455  1
  O  O53  1  0.18853128  0.59016183  0.19642429  1
  O  O54  1  0.90621702  0.20150964  0.08490756  1
  O  O55  1  0.40815252  0.54859658  0.72044267  1
  O  O56  1  0.87563764  0.88804054  0.66617808  1
  O  O57  1  0.83276186  0.61668304  0.62324480  1
  O  O58  1  0.77729697  0.95292268  0.08597356  1
  O  O59  1  0.61114842  0.62332063  0.83499601  1
  O  O60  1  0.66723814  0.87675520  0.88331696  1
  O  O61  1  0.70800878  0.70345545  0.08919394  1
  O  O62  1  0.97514081  0.39514611  0.60782191  1
  O  O63  1  0.46750712  0.10330155  0.88360759  1
  O  O64  1  0.52485919  0.89217809  0.10485389  1
  O  O65  1  0.40700525  0.79830605  0.80223154  1
  O  O66  1  0.31146872  0.30357571  0.90983817  1
  O  O67  1  0.29033664  0.59000462  0.43837431  1
  O  O68  1  0.29720895  0.90819412  0.30059859  1
  O  O69  1  0.89816767  0.11882303  0.53526178  1
  O  O70  1  0.11881723  0.52846864  0.89261015  1
  O  O71  1  0.69715141  0.09264006  0.69346608  1
  O  O72  1  0.20966336  0.06162569  0.90999538  1
  O  O73  1  0.09184748  0.77955733  0.95140342  1
  O  O74  1  0.09299475  0.69776846  0.70169395  1
  O  O75  1  0.04843578  0.91200298  0.22109535  1
  O  O76  1  0.62436236  0.83382192  0.61195946  1
  O  O77  1  0.10736028  0.88680496  0.47420810  1
  O  O78  1  0.55813249  0.70807280  0.41894897  1
  O  O79  1  0.20279105  0.19940141  0.59180588  1
