# generated using pymatgen
data_BeH6(NF2)2
_symmetry_space_group_name_H-M   'P 1'
_cell_length_a   5.42899628
_cell_length_b   7.85415518
_cell_length_c   9.94741007
_cell_angle_alpha   90.00000000
_cell_angle_beta   90.54236360
_cell_angle_gamma   90.00000000
_symmetry_Int_Tables_number   1
_chemical_formula_structural   BeH6(NF2)2
_chemical_formula_sum   'Be4 H24 N8 F16'
_cell_volume   424.14034476
_cell_formula_units_Z   4
loop_
 _symmetry_equiv_pos_site_id
 _symmetry_equiv_pos_as_xyz
  1  'x, y, z'
loop_
 _atom_site_type_symbol
 _atom_site_label
 _atom_site_symmetry_multiplicity
 _atom_site_fract_x
 _atom_site_fract_y
 _atom_site_fract_z
 _atom_site_occupancy
  Be  Be0  1  0.22674521  0.71169987  0.92585423  1
  Be  Be1  1  0.22674521  0.78830013  0.42585423  1
  Be  Be2  1  0.77325479  0.21169987  0.57414577  1
  Be  Be3  1  0.77325479  0.28830013  0.07414577  1
  H  H4  1  0.05267040  0.07595420  0.75517492  1
  H  H5  1  0.19017331  0.34325400  0.83915067  1
  H  H6  1  0.20322808  0.19463981  0.96542573  1
  H  H7  1  0.05267040  0.42404580  0.25517492  1
  H  H8  1  0.19017331  0.15674600  0.33915067  1
  H  H9  1  0.20322808  0.30536019  0.46542573  1
  H  H10  1  0.32281821  0.13504778  0.68624534  1
  H  H11  1  0.32904570  0.98321614  0.81212678  1
  H  H12  1  0.32281821  0.36495222  0.18624534  1
  H  H13  1  0.46732113  0.26363017  0.88154744  1
  H  H14  1  0.32904570  0.51678386  0.31212678  1
  H  H15  1  0.53267887  0.76363017  0.61845256  1
  H  H16  1  0.46732113  0.23636983  0.38154744  1
  H  H17  1  0.67095430  0.48321614  0.68787322  1
  H  H18  1  0.53267887  0.73636983  0.11845256  1
  H  H19  1  0.67718179  0.63504778  0.81375466  1
  H  H20  1  0.67095430  0.01678386  0.18787322  1
  H  H21  1  0.67718179  0.86495222  0.31375466  1
  H  H22  1  0.79677192  0.69463981  0.53457427  1
  H  H23  1  0.80982669  0.84325400  0.66084933  1
  H  H24  1  0.94732960  0.57595420  0.74482508  1
  H  H25  1  0.79677192  0.80536019  0.03457427  1
  H  H26  1  0.80982669  0.65674600  0.16084933  1
  H  H27  1  0.94732960  0.92404580  0.24482508  1
  N  N28  1  0.27771564  0.23107214  0.87141699  1
  N  N29  1  0.27771564  0.26892786  0.37141699  1
  N  N30  1  0.24297417  0.09609856  0.77502042  1
  N  N31  1  0.24297417  0.40390144  0.27502042  1
  N  N32  1  0.75702583  0.59609856  0.72497958  1
  N  N33  1  0.75702583  0.90390144  0.22497958  1
  N  N34  1  0.72228436  0.73107214  0.62858301  1
  N  N35  1  0.72228436  0.76892786  0.12858301  1
  F  F36  1  0.98540063  0.81798166  0.91085412  1
  F  F37  1  0.98540063  0.68201834  0.41085412  1
  F  F38  1  0.21086472  0.55918181  0.82189963  1
  F  F39  1  0.27031134  0.84995708  0.57293576  1
  F  F40  1  0.21086472  0.94081819  0.32189963  1
  F  F41  1  0.45210203  0.82431338  0.88244464  1
  F  F42  1  0.27031134  0.65004292  0.07293576  1
  F  F43  1  0.45210203  0.67568662  0.38244464  1
  F  F44  1  0.54789797  0.32431338  0.61755536  1
  F  F45  1  0.72968866  0.34995708  0.92706424  1
  F  F46  1  0.54789797  0.17568662  0.11755536  1
  F  F47  1  0.78913528  0.05918181  0.67810037  1
  F  F48  1  0.72968866  0.15004292  0.42706424  1
  F  F49  1  0.78913528  0.44081819  0.17810037  1
  F  F50  1  0.01459937  0.31798166  0.58914588  1
  F  F51  1  0.01459937  0.18201834  0.08914588  1
