# generated using pymatgen
data_Cr(PO3)5
_symmetry_space_group_name_H-M   'P 1'
_cell_length_a   12.35493429
_cell_length_b   9.72838691
_cell_length_c   5.21512426
_cell_angle_alpha   90.00000000
_cell_angle_beta   93.47992684
_cell_angle_gamma   90.00000000
_symmetry_Int_Tables_number   1
_chemical_formula_structural   Cr(PO3)5
_chemical_formula_sum   'Cr2 P10 O30'
_cell_volume   625.66867368
_cell_formula_units_Z   2
loop_
 _symmetry_equiv_pos_site_id
 _symmetry_equiv_pos_as_xyz
  1  'x, y, z'
loop_
 _atom_site_type_symbol
 _atom_site_label
 _atom_site_symmetry_multiplicity
 _atom_site_fract_x
 _atom_site_fract_y
 _atom_site_fract_z
 _atom_site_occupancy
  Cr  Cr0  1  0.99580946  0.00274384  0.00527532  1
  Cr  Cr1  1  0.49580946  0.99725616  0.50527532  1
  P  P2  1  0.14267318  0.47010446  0.61506621  1
  P  P3  1  0.08044363  0.17708775  0.51068925  1
  P  P4  1  0.36029609  0.46770869  0.88234703  1
  P  P5  1  0.24613193  0.01676432  0.25673612  1
  P  P6  1  0.74613193  0.98323568  0.75673612  1
  P  P7  1  0.91358474  0.82613714  0.50114633  1
  P  P8  1  0.58044363  0.82291225  0.01068925  1
  P  P9  1  0.41358474  0.17386286  0.00114633  1
  P  P10  1  0.86029609  0.53229131  0.38234703  1
  P  P11  1  0.64267318  0.52989554  0.11506621  1
  O  O12  1  0.55489353  0.84494774  0.28568220  1
  O  O13  1  0.43605139  0.51370807  0.68341044  1
  O  O14  1  0.83985409  0.06074965  0.88563118  1
  O  O15  1  0.06908987  0.52086373  0.81484694  1
  O  O16  1  0.29263909  0.12276583  0.05002429  1
  O  O17  1  0.40106155  0.33649791  0.04273405  1
  O  O18  1  0.66087302  0.41055669  0.93940297  1
  O  O19  1  0.09860503  0.33831225  0.46130626  1
  O  O20  1  0.99962221  0.13142206  0.30083780  1
  O  O21  1  0.49442436  0.12617998  0.20938515  1
  O  O22  1  0.59860503  0.66168775  0.96130626  1
  O  O23  1  0.65202846  0.05741165  0.62229079  1
  O  O24  1  0.75129814  0.59576237  0.24749822  1
  O  O25  1  0.16087302  0.58944331  0.43940297  1
  O  O26  1  0.49962221  0.86857794  0.80083780  1
  O  O27  1  0.05489353  0.15505226  0.78568220  1
  O  O28  1  0.43626639  0.14758039  0.72564009  1
  O  O29  1  0.90106155  0.66350209  0.54273405  1
  O  O30  1  0.84336189  0.41075607  0.55365917  1
  O  O31  1  0.93626639  0.85241961  0.22564009  1
  O  O32  1  0.99442436  0.87382002  0.70938515  1
  O  O33  1  0.15202846  0.94258835  0.12229079  1
  O  O34  1  0.34336189  0.58924393  0.05365917  1
  O  O35  1  0.93605139  0.48629193  0.18341044  1
  O  O36  1  0.79263909  0.87723417  0.55002429  1
  O  O37  1  0.33985409  0.93925035  0.38563118  1
  O  O38  1  0.56908987  0.47913627  0.31484694  1
  O  O39  1  0.25129814  0.40423763  0.74749822  1
  O  O40  1  0.70023594  0.88167342  0.97105922  1
  O  O41  1  0.20023594  0.11832658  0.47105922  1
