# generated using pymatgen
data_ReH22C4S4N8Cl8O3
_symmetry_space_group_name_H-M   'P 1'
_cell_length_a   17.79470069
_cell_length_b   9.07233901
_cell_length_c   17.01108775
_cell_angle_alpha   90.00000000
_cell_angle_beta   90.00000000
_cell_angle_gamma   90.00000000
_symmetry_Int_Tables_number   1
_chemical_formula_structural   ReH22C4S4N8Cl8O3
_chemical_formula_sum   'Re4 H88 C16 S16 N32 Cl32 O12'
_cell_volume   2746.26247455
_cell_formula_units_Z   4
loop_
 _symmetry_equiv_pos_site_id
 _symmetry_equiv_pos_as_xyz
  1  'x, y, z'
loop_
 _atom_site_type_symbol
 _atom_site_label
 _atom_site_symmetry_multiplicity
 _atom_site_fract_x
 _atom_site_fract_y
 _atom_site_fract_z
 _atom_site_occupancy
  Re  Re0  1  0.56135134  0.34040692  0.25000000  1
  Re  Re1  1  0.06135134  0.15959308  0.25000000  1
  Re  Re2  1  0.43864866  0.65959308  0.75000000  1
  Re  Re3  1  0.93864866  0.84040692  0.75000000  1
  H  H4  1  0.47179984  0.90593145  0.12440540  1
  H  H5  1  0.97179984  0.59406855  0.37559460  1
  H  H6  1  0.52820016  0.09406855  0.62440540  1
  H  H7  1  0.02820016  0.40593145  0.87559460  1
  H  H8  1  0.52820016  0.09406855  0.87559460  1
  H  H9  1  0.02820016  0.40593145  0.62440540  1
  H  H10  1  0.47179984  0.90593145  0.37559460  1
  H  H11  1  0.97179984  0.59406855  0.12440540  1
  H  H12  1  0.56400780  0.89138705  0.16654710  1
  H  H13  1  0.06400780  0.60861295  0.33345290  1
  H  H14  1  0.43599220  0.10861295  0.66654710  1
  H  H15  1  0.93599220  0.39138705  0.83345290  1
  H  H16  1  0.43599220  0.10861295  0.83345290  1
  H  H17  1  0.93599220  0.39138705  0.66654710  1
  H  H18  1  0.56400780  0.89138705  0.33345290  1
  H  H19  1  0.06400780  0.60861295  0.16654710  1
  H  H20  1  0.45372740  0.82827296  0.99378865  1
  H  H21  1  0.95372740  0.67172704  0.50621135  1
  H  H22  1  0.54627260  0.17172704  0.49378865  1
  H  H23  1  0.04627260  0.32827296  0.00621135  1
  H  H24  1  0.54627260  0.17172704  0.00621135  1
  H  H25  1  0.04627260  0.32827296  0.49378865  1
  H  H26  1  0.45372740  0.82827296  0.50621135  1
  H  H27  1  0.95372740  0.67172704  0.99378865  1
  H  H28  1  0.53026138  0.75475820  0.94087817  1
  H  H29  1  0.03026138  0.74524180  0.55912183  1
  H  H30  1  0.46973862  0.24524180  0.44087817  1
  H  H31  1  0.96973862  0.25475820  0.05912183  1
  H  H32  1  0.46973862  0.24524180  0.05912183  1
  H  H33  1  0.96973862  0.25475820  0.44087817  1
  H  H34  1  0.53026138  0.75475820  0.55912183  1
  H  H35  1  0.03026138  0.74524180  0.94087817  1
  H  H36  1  0.68906261  0.34115152  0.87423144  1
  H  H37  1  0.18906261  0.15884848  0.62576856  1
  H  H38  1  0.31093739  0.65884848  0.37423144  1
  H  H39  1  0.81093739  0.84115152  0.12576856  1
  H  H40  1  0.31093739  0.65884848  0.12576856  1
  H  H41  1  0.81093739  0.84115152  0.37423144  1
  H  H42  1  0.68906261  0.34115152  0.62576856  1
  H  H43  1  0.18906261  0.15884848  0.87423144  1
  H  H44  1  0.70059179  0.51720491  0.82749387  1
  H  H45  1  0.20059179  0.98279509  0.67250613  1
  H  H46  1  0.29940821  0.48279509  0.32749387  1
  H  H47  1  0.79940821  0.01720491  0.17250613  1
  H  H48  1  0.29940821  0.48279509  0.17250613  1
  H  H49  1  0.79940821  0.01720491  0.32749387  1
  H  H50  1  0.70059179  0.51720491  0.67250613  1
  H  H51  1  0.20059179  0.98279509  0.82749387  1
  H  H52  1  0.65465406  0.33352876  0.00717899  1
  H  H53  1  0.15465406  0.16647124  0.49282101  1
  H  H54  1  0.34534594  0.66647124  0.50717899  1
  H  H55  1  0.84534594  0.83352876  0.99282101  1
  H  H56  1  0.34534594  0.66647124  0.99282101  1
  H  H57  1  0.84534594  0.83352876  0.50717899  1
  H  H58  1  0.65465406  0.33352876  0.49282101  1
  H  H59  1  0.15465406  0.16647124  0.00717899  1
  H  H60  1  0.64045149  0.49952300  0.05805633  1
  H  H61  1  0.14045149  0.00047700  0.44194367  1
  H  H62  1  0.35954851  0.50047700  0.55805633  1
  H  H63  1  0.85954851  0.99952300  0.94194367  1
  H  H64  1  0.35954851  0.50047700  0.94194367  1
  H  H65  1  0.85954851  0.99952300  0.55805633  1
  H  H66  1  0.64045149  0.49952300  0.44194367  1
  H  H67  1  0.14045149  0.00047700  0.05805633  1
  H  H68  1  0.63701546  0.61244087  0.25000000  1
  H  H69  1  0.13701546  0.88755913  0.25000000  1
  H  H70  1  0.36298454  0.38755913  0.75000000  1
  H  H71  1  0.86298454  0.11244087  0.75000000  1
  H  H72  1  0.70234147  0.48556218  0.25000000  1
  H  H73  1  0.20234147  0.01443782  0.25000000  1
  H  H74  1  0.29765853  0.51443782  0.75000000  1
  H  H75  1  0.79765853  0.98556218  0.75000000  1
  H  H76  1  0.80841991  0.52337557  0.20296236  1
  H  H77  1  0.30841991  0.97662443  0.29703764  1
  H  H78  1  0.19158009  0.47662443  0.70296236  1
  H  H79  1  0.69158009  0.02337557  0.79703764  1
  H  H80  1  0.19158009  0.47662443  0.79703764  1
  H  H81  1  0.69158009  0.02337557  0.70296236  1
  H  H82  1  0.80841991  0.52337557  0.29703764  1
  H  H83  1  0.30841991  0.97662443  0.20296236  1
  H  H84  1  0.74065677  0.17111721  0.25000000  1
  H  H85  1  0.24065677  0.32888279  0.25000000  1
  H  H86  1  0.25934323  0.82888279  0.75000000  1
  H  H87  1  0.75934323  0.67111721  0.75000000  1
  H  H88  1  0.82002171  0.24443785  0.25000000  1
  H  H89  1  0.32002171  0.25556215  0.25000000  1
  H  H90  1  0.17997829  0.75556215  0.75000000  1
  H  H91  1  0.67997829  0.74443785  0.75000000  1
  C  C92  1  0.55278517  0.82135842  0.05334235  1
  C  C93  1  0.05278517  0.67864158  0.44665765  1
  C  C94  1  0.44721483  0.17864158  0.55334235  1
  C  C95  1  0.94721483  0.32135842  0.94665765  1
  C  C96  1  0.44721483  0.17864158  0.94665765  1
  C  C97  1  0.94721483  0.32135842  0.55334235  1
  C  C98  1  0.55278517  0.82135842  0.44665765  1
  C  C99  1  0.05278517  0.67864158  0.05334235  1
  C  C100  1  0.67158836  0.51997035  0.94319483  1
  C  C101  1  0.17158836  0.98002965  0.55680517  1
  C  C102  1  0.32841164  0.48002965  0.44319483  1
  C  C103  1  0.82841164  0.01997035  0.05680517  1
  C  C104  1  0.32841164  0.48002965  0.05680517  1
  C  C105  1  0.82841164  0.01997035  0.44319483  1
  C  C106  1  0.67158836  0.51997035  0.55680517  1
  C  C107  1  0.17158836  0.98002965  0.94319483  1
  S  S108  1  0.65039640  0.77399976  0.05437172  1
  S  S109  1  0.15039640  0.72600024  0.44562828  1
  S  S110  1  0.34960360  0.22600024  0.55437172  1
  S  S111  1  0.84960360  0.27399976  0.94562828  1
  S  S112  1  0.34960360  0.22600024  0.94562828  1
  S  S113  1  0.84960360  0.27399976  0.55437172  1
  S  S114  1  0.65039640  0.77399976  0.44562828  1
  S  S115  1  0.15039640  0.72600024  0.05437172  1
  S  S116  1  0.67177972  0.71691803  0.94017662  1
  S  S117  1  0.17177972  0.78308197  0.55982338  1
  S  S118  1  0.32822028  0.28308197  0.44017662  1
  S  S119  1  0.82822028  0.21691803  0.05982338  1
  S  S120  1  0.32822028  0.28308197  0.05982338  1
  S  S121  1  0.82822028  0.21691803  0.44017662  1
  S  S122  1  0.67177972  0.71691803  0.55982338  1
  S  S123  1  0.17177972  0.78308197  0.94017662  1
  N  N124  1  0.52809931  0.88097841  0.11910893  1
  N  N125  1  0.02809931  0.61902159  0.38089107  1
  N  N126  1  0.47190069  0.11902159  0.61910893  1
  N  N127  1  0.97190069  0.38097841  0.88089107  1
  N  N128  1  0.47190069  0.11902159  0.88089107  1
  N  N129  1  0.97190069  0.38097841  0.61910893  1
  N  N130  1  0.52809931  0.88097841  0.38089107  1
  N  N131  1  0.02809931  0.61902159  0.11910893  1
  N  N132  1  0.50971027  0.80130534  0.99112372  1
  N  N133  1  0.00971027  0.69869466  0.50887628  1
  N  N134  1  0.49028973  0.19869466  0.49112372  1
  N  N135  1  0.99028973  0.30130534  0.00887628  1
  N  N136  1  0.49028973  0.19869466  0.00887628  1
  N  N137  1  0.99028973  0.30130534  0.49112372  1
  N  N138  1  0.50971027  0.80130534  0.50887628  1
  N  N139  1  0.00971027  0.69869466  0.99112372  1
  N  N140  1  0.69171955  0.45470847  0.87738165  1
  N  N141  1  0.19171955  0.04529153  0.62261835  1
  N  N142  1  0.30828045  0.54529153  0.37738165  1
  N  N143  1  0.80828045  0.95470847  0.12261835  1
  N  N144  1  0.30828045  0.54529153  0.12261835  1
  N  N145  1  0.80828045  0.95470847  0.37738165  1
  N  N146  1  0.69171955  0.45470847  0.62261835  1
  N  N147  1  0.19171955  0.04529153  0.87738165  1
  N  N148  1  0.65380542  0.44633585  0.00728206  1
  N  N149  1  0.15380542  0.05366415  0.49271794  1
  N  N150  1  0.34619458  0.55366415  0.50728206  1
  N  N151  1  0.84619458  0.94633585  0.99271794  1
  N  N152  1  0.34619458  0.55366415  0.99271794  1
  N  N153  1  0.84619458  0.94633585  0.50728206  1
  N  N154  1  0.65380542  0.44633585  0.49271794  1
  N  N155  1  0.15380542  0.05366415  0.00728206  1
  Cl  Cl156  1  0.63226097  0.21371450  0.15311961  1
  Cl  Cl157  1  0.13226097  0.28628550  0.34688039  1
  Cl  Cl158  1  0.36773903  0.78628550  0.65311961  1
  Cl  Cl159  1  0.86773903  0.71371450  0.84688039  1
  Cl  Cl160  1  0.36773903  0.78628550  0.84688039  1
  Cl  Cl161  1  0.86773903  0.71371450  0.65311961  1
  Cl  Cl162  1  0.63226097  0.21371450  0.34688039  1
  Cl  Cl163  1  0.13226097  0.28628550  0.15311961  1
  Cl  Cl164  1  0.50233696  0.48164597  0.15103024  1
  Cl  Cl165  1  0.00233696  0.01835403  0.34896976  1
  Cl  Cl166  1  0.49766304  0.51835403  0.65103024  1
  Cl  Cl167  1  0.99766304  0.98164597  0.84896976  1
  Cl  Cl168  1  0.49766304  0.51835403  0.84896976  1
  Cl  Cl169  1  0.99766304  0.98164597  0.65103024  1
  Cl  Cl170  1  0.50233696  0.48164597  0.34896976  1
  Cl  Cl171  1  0.00233696  0.01835403  0.15103024  1
  Cl  Cl172  1  0.46550783  0.15986765  0.25000000  1
  Cl  Cl173  1  0.96550783  0.34013235  0.25000000  1
  Cl  Cl174  1  0.53449217  0.84013235  0.75000000  1
  Cl  Cl175  1  0.03449217  0.65986765  0.75000000  1
  Cl  Cl176  1  0.84568433  0.61120139  0.08375441  1
  Cl  Cl177  1  0.34568433  0.88879861  0.41624559  1
  Cl  Cl178  1  0.15431567  0.38879861  0.58375441  1
  Cl  Cl179  1  0.65431567  0.11120139  0.91624559  1
  Cl  Cl180  1  0.15431567  0.38879861  0.91624559  1
  Cl  Cl181  1  0.65431567  0.11120139  0.58375441  1
  Cl  Cl182  1  0.84568433  0.61120139  0.41624559  1
  Cl  Cl183  1  0.34568433  0.88879861  0.08375441  1
  Cl  Cl184  1  0.65414461  0.83272433  0.25000000  1
  Cl  Cl185  1  0.15414461  0.66727567  0.25000000  1
  Cl  Cl186  1  0.34585539  0.16727567  0.75000000  1
  Cl  Cl187  1  0.84585539  0.33272433  0.75000000  1
  O  O188  1  0.64529837  0.50246066  0.25000000  1
  O  O189  1  0.14529837  0.99753934  0.25000000  1
  O  O190  1  0.35470163  0.49753934  0.75000000  1
  O  O191  1  0.85470163  0.00246066  0.75000000  1
  O  O192  1  0.78828336  0.47223693  0.25000000  1
  O  O193  1  0.28828336  0.02776307  0.25000000  1
  O  O194  1  0.21171664  0.52776307  0.75000000  1
  O  O195  1  0.71171664  0.97223693  0.75000000  1
  O  O196  1  0.79453070  0.14802008  0.25000000  1
  O  O197  1  0.29453070  0.35197992  0.25000000  1
  O  O198  1  0.20546930  0.85197992  0.75000000  1
  O  O199  1  0.70546930  0.64802008  0.75000000  1
