# generated using pymatgen
data_LiTi2NbCu2O9
_symmetry_space_group_name_H-M   'P 1'
_cell_length_a   6.47508853
_cell_length_b   6.52914928
_cell_length_c   19.51602524
_cell_angle_alpha   109.48788851
_cell_angle_beta   109.33806845
_cell_angle_gamma   109.65517976
_symmetry_Int_Tables_number   1
_chemical_formula_structural   LiTi2NbCu2O9
_chemical_formula_sum   'Li4 Ti8 Nb4 Cu8 O36'
_cell_volume   634.61029800
_cell_formula_units_Z   4
loop_
 _symmetry_equiv_pos_site_id
 _symmetry_equiv_pos_as_xyz
  1  'x, y, z'
loop_
 _atom_site_type_symbol
 _atom_site_label
 _atom_site_symmetry_multiplicity
 _atom_site_fract_x
 _atom_site_fract_y
 _atom_site_fract_z
 _atom_site_occupancy
  Li  Li0  1  0.96856153  0.05145782  0.97672076  1
  Li  Li1  1  0.99620831  0.49838764  0.83221072  1
  Li  Li2  1  0.98705001  0.08740447  0.67935594  1
  Li  Li3  1  0.93040761  0.88895201  0.32504037  1
  Ti  Ti4  1  0.98260329  0.50827733  0.66442779  1
  Ti  Ti5  1  0.98610376  0.98949719  0.49810872  1
  Ti  Ti6  1  0.99730799  0.48601479  0.33457800  1
  Ti  Ti7  1  0.00005095  0.00900772  0.82865334  1
  Ti  Ti8  1  0.48549032  0.49338082  0.49604403  1
  Ti  Ti9  1  0.00690327  0.51787783  0.00278679  1
  Ti  Ti10  1  0.47818796  0.49016691  0.16597950  1
  Ti  Ti11  1  0.98496349  0.98464642  0.16517351  1
  Nb  Nb12  1  0.51179417  0.50945695  0.83347302  1
  Nb  Nb13  1  0.49323132  0.00129991  0.66301121  1
  Nb  Nb14  1  0.48560691  0.99782823  0.33182677  1
  Nb  Nb15  1  0.49009931  0.00468404  0.00318592  1
  Cu  Cu16  1  0.50352421  0.00135652  0.83424261  1
  Cu  Cu17  1  0.48960418  0.50047313  0.66318222  1
  Cu  Cu18  1  0.49725263  0.99703911  0.49876385  1
  Cu  Cu19  1  0.50378882  0.50232724  0.33267522  1
  Cu  Cu20  1  0.99873924  0.49852281  0.49962805  1
  Cu  Cu21  1  0.49783445  0.49884524  0.00207573  1
  Cu  Cu22  1  0.50412307  0.00190021  0.16955675  1
  Cu  Cu23  1  0.99518333  0.49904958  0.16576184  1
  O  O24  1  0.18009087  0.69842858  0.96136778  1
  O  O25  1  0.12826000  0.81119513  0.76997672  1
  O  O26  1  0.17271083  0.28644864  0.82152501  1
  O  O27  1  0.17519676  0.68560520  0.62271363  1
  O  O28  1  0.29896844  0.12863984  0.94094947  1
  O  O29  1  0.51167046  0.82391279  0.89850926  1
  O  O30  1  0.29987178  0.47663496  0.72420533  1
  O  O31  1  0.12495981  0.82034936  0.43367614  1
  O  O32  1  0.18460383  0.31172049  0.49607799  1
  O  O33  1  0.68917572  0.51209356  0.94204035  1
  O  O34  1  0.50320961  0.18168574  0.77172610  1
  O  O35  1  0.30236661  0.13097893  0.60622553  1
  O  O36  1  0.17051952  0.69374333  0.28965698  1
  O  O37  1  0.51050889  0.81523939  0.56157534  1
  O  O38  1  0.69507298  0.86867356  0.72465654  1
  O  O39  1  0.31220462  0.49196270  0.39285476  1
  O  O40  1  0.13163791  0.81893799  0.10537722  1
  O  O41  1  0.82079303  0.71030164  0.84166239  1
  O  O42  1  0.17898349  0.31204104  0.16372342  1
  O  O43  1  0.87637236  0.18547798  0.89754288  1
  O  O44  1  0.68934481  0.51284424  0.60604105  1
  O  O45  1  0.31011131  0.13334436  0.27289767  1
  O  O46  1  0.48953636  0.18102743  0.43738311  1
  O  O47  1  0.81625782  0.29321292  0.70203966  1
  O  O48  1  0.52105374  0.82013480  0.23190688  1
  O  O49  1  0.69938945  0.87315439  0.39103304  1
  O  O50  1  0.29942692  0.47690978  0.05926834  1
  O  O51  1  0.81928804  0.69045668  0.50183087  1
  O  O52  1  0.87072251  0.17572742  0.56249047  1
  O  O53  1  0.69661200  0.51511576  0.27335201  1
  O  O54  1  0.49263318  0.18472086  0.10704849  1
  O  O55  1  0.69007672  0.86855528  0.06073294  1
  O  O56  1  0.82484867  0.31105214  0.37706709  1
  O  O57  1  0.82059715  0.69586688  0.17109603  1
  O  O58  1  0.87545448  0.18110855  0.23151521  1
  O  O59  1  0.82284916  0.30484374  0.04179060  1
