# generated using pymatgen
data_P3H11N4O9
_symmetry_space_group_name_H-M   'P 1'
_cell_length_a   8.26015183
_cell_length_b   8.03413234
_cell_length_c   8.52604198
_cell_angle_alpha   104.66487806
_cell_angle_beta   101.82557411
_cell_angle_gamma   86.16244268
_symmetry_Int_Tables_number   1
_chemical_formula_structural   P3H11N4O9
_chemical_formula_sum   'P6 H22 N8 O18'
_cell_volume   535.69725953
_cell_formula_units_Z   2
loop_
 _symmetry_equiv_pos_site_id
 _symmetry_equiv_pos_as_xyz
  1  'x, y, z'
loop_
 _atom_site_type_symbol
 _atom_site_label
 _atom_site_symmetry_multiplicity
 _atom_site_fract_x
 _atom_site_fract_y
 _atom_site_fract_z
 _atom_site_occupancy
  P  P0  1  0.71174254  0.15959438  0.46293367  1
  P  P1  1  0.28825746  0.84040562  0.53706633  1
  P  P2  1  0.99582544  0.69292215  0.30596218  1
  P  P3  1  0.00417456  0.30707785  0.69403782  1
  P  P4  1  0.81160712  0.96137335  0.15198283  1
  P  P5  1  0.18839288  0.03862665  0.84801717  1
  H  H6  1  0.74291323  0.92303961  0.65905890  1
  H  H7  1  0.25708677  0.07696039  0.34094110  1
  H  H8  1  0.25291680  0.16660863  0.17075902  1
  H  H9  1  0.74708320  0.83339137  0.82924098  1
  H  H10  1  0.08493368  0.18842793  0.26091971  1
  H  H11  1  0.91506632  0.81157207  0.73908029  1
  H  H12  1  0.23536925  0.44435756  0.34462952  1
  H  H13  1  0.76463075  0.55564244  0.65537048  1
  H  H14  1  0.41711633  0.33249625  0.41111829  1
  H  H15  1  0.58288367  0.66750375  0.58888171  1
  H  H16  1  0.75326093  0.64154198  0.48632533  1
  H  H17  1  0.24673907  0.35845802  0.51367467  1
  H  H18  1  0.78245281  0.43218276  0.95173350  1
  H  H19  1  0.21754719  0.56781724  0.04826650  1
  H  H20  1  0.76617537  0.28562813  0.05944189  1
  H  H21  1  0.23382463  0.71437187  0.94055811  1
  H  H22  1  0.67441643  0.48499700  0.10667198  1
  H  H23  1  0.32558357  0.51500300  0.89332802  1
  H  H24  1  0.41321017  0.74657159  0.21173991  1
  H  H25  1  0.58678983  0.25342841  0.78826009  1
  H  H26  1  0.51219967  0.73944617  0.05869873  1
  H  H27  1  0.48780033  0.26055383  0.94130127  1
  N  N28  1  0.21494585  0.18422277  0.28742678  1
  N  N29  1  0.78505415  0.81577723  0.71257322  1
  N  N30  1  0.71595897  0.65809092  0.60203924  1
  N  N31  1  0.28404103  0.34190908  0.39796076  1
  N  N32  1  0.70327731  0.38596978  0.01117756  1
  N  N33  1  0.29672269  0.61403022  0.98882244  1
  N  N34  1  0.44732934  0.66688262  0.10814503  1
  N  N35  1  0.55267066  0.33311738  0.89185497  1
  O  O36  1  0.90727841  0.21252473  0.50940204  1
  O  O37  1  0.09272159  0.78747527  0.49059796  1
  O  O38  1  0.71220360  0.00034330  0.30259583  1
  O  O39  1  0.28779640  0.99965670  0.69740417  1
  O  O40  1  0.97182020  0.85088625  0.21632985  1
  O  O41  1  0.02817980  0.14911375  0.78367015  1
  O  O42  1  0.39018735  0.69313519  0.58558374  1
  O  O43  1  0.60981265  0.30686481  0.41441626  1
  O  O44  1  0.67060333  0.08725542  0.59572060  1
  O  O45  1  0.32939667  0.91274458  0.40427940  1
  O  O46  1  0.83302416  0.63696389  0.32400513  1
  O  O47  1  0.16697584  0.36303611  0.67599487  1
  O  O48  1  0.11051592  0.56271683  0.22134666  1
  O  O49  1  0.88948408  0.43728317  0.77865334  1
  O  O50  1  0.12047397  0.87573142  0.86326274  1
  O  O51  1  0.87952603  0.12426858  0.13673726  1
  O  O52  1  0.70257492  0.84913967  0.00559083  1
  O  O53  1  0.29742508  0.15086033  0.99440917  1
