# generated using pymatgen
data_AsS4N3
_symmetry_space_group_name_H-M   'P 1'
_cell_length_a   7.58374148
_cell_length_b   16.64008805
_cell_length_c   8.46313821
_cell_angle_alpha   90.00000000
_cell_angle_beta   90.00000000
_cell_angle_gamma   90.00000000
_symmetry_Int_Tables_number   1
_chemical_formula_structural   AsS4N3
_chemical_formula_sum   'As4 S16 N12'
_cell_volume   1067.99832942
_cell_formula_units_Z   4
loop_
 _symmetry_equiv_pos_site_id
 _symmetry_equiv_pos_as_xyz
  1  'x, y, z'
loop_
 _atom_site_type_symbol
 _atom_site_label
 _atom_site_symmetry_multiplicity
 _atom_site_fract_x
 _atom_site_fract_y
 _atom_site_fract_z
 _atom_site_occupancy
  As  As0  1  0.90508083  0.42456388  0.75000000  1
  As  As1  1  0.40508083  0.07543612  0.75000000  1
  As  As2  1  0.09491917  0.57543612  0.25000000  1
  As  As3  1  0.59491917  0.92456388  0.25000000  1
  S  S4  1  0.87751460  0.93275984  0.75000000  1
  S  S5  1  0.37751460  0.56724016  0.75000000  1
  S  S6  1  0.12248540  0.06724016  0.25000000  1
  S  S7  1  0.62248540  0.43275984  0.25000000  1
  S  S8  1  0.11375581  0.21664799  0.75000000  1
  S  S9  1  0.61375581  0.28335201  0.75000000  1
  S  S10  1  0.88624419  0.78335201  0.25000000  1
  S  S11  1  0.38624419  0.71664799  0.25000000  1
  S  S12  1  0.36842259  0.49923335  0.95060584  1
  S  S13  1  0.86842259  0.00076665  0.54939416  1
  S  S14  1  0.63157741  0.50076665  0.45060584  1
  S  S15  1  0.13157741  0.99923335  0.04939416  1
  S  S16  1  0.63157741  0.50076665  0.04939416  1
  S  S17  1  0.13157741  0.99923335  0.45060584  1
  S  S18  1  0.36842259  0.49923335  0.54939416  1
  S  S19  1  0.86842259  0.00076665  0.95060584  1
  N  N20  1  0.25590489  0.14987404  0.75000000  1
  N  N21  1  0.75590489  0.35012596  0.75000000  1
  N  N22  1  0.74409511  0.85012596  0.25000000  1
  N  N23  1  0.24409511  0.64987404  0.25000000  1
  N  N24  1  0.00886240  0.70970302  0.81585220  1
  N  N25  1  0.50886240  0.79029698  0.68414780  1
  N  N26  1  0.99113760  0.29029698  0.31585220  1
  N  N27  1  0.49113760  0.20970302  0.18414780  1
  N  N28  1  0.99113760  0.29029698  0.18414780  1
  N  N29  1  0.49113760  0.20970302  0.31585220  1
  N  N30  1  0.00886240  0.70970302  0.68414780  1
  N  N31  1  0.50886240  0.79029698  0.81585220  1
