# generated using pymatgen
data_Ba4Br6O
_symmetry_space_group_name_H-M   'P 1'
_cell_length_a   10.21923167
_cell_length_b   10.21923167
_cell_length_c   7.72419842
_cell_angle_alpha   90.00000000
_cell_angle_beta   90.00000000
_cell_angle_gamma   90.00000000
_symmetry_Int_Tables_number   1
_chemical_formula_structural   Ba4Br6O
_chemical_formula_sum   'Ba8 Br12 O2'
_cell_volume   806.65886486
_cell_formula_units_Z   2
loop_
 _symmetry_equiv_pos_site_id
 _symmetry_equiv_pos_as_xyz
  1  'x, y, z'
loop_
 _atom_site_type_symbol
 _atom_site_label
 _atom_site_symmetry_multiplicity
 _atom_site_fract_x
 _atom_site_fract_y
 _atom_site_fract_z
 _atom_site_occupancy
  Ba  Ba0  1  0.98213608  0.25000000  0.58639201  1
  Ba  Ba1  1  0.25000000  0.98213608  0.08639201  1
  Ba  Ba2  1  0.25000000  0.51786392  0.08639201  1
  Ba  Ba3  1  0.51786392  0.25000000  0.58639201  1
  Ba  Ba4  1  0.48213608  0.75000000  0.41360799  1
  Ba  Ba5  1  0.75000000  0.48213608  0.91360799  1
  Ba  Ba6  1  0.75000000  0.01786392  0.91360799  1
  Ba  Ba7  1  0.01786392  0.75000000  0.41360799  1
  Br  Br8  1  0.04468690  0.95531310  0.75000000  1
  Br  Br9  1  0.04468690  0.54468690  0.75000000  1
  Br  Br10  1  0.25000000  0.25000000  0.33929125  1
  Br  Br11  1  0.25000000  0.25000000  0.83929125  1
  Br  Br12  1  0.45531310  0.54468690  0.75000000  1
  Br  Br13  1  0.45531310  0.95531310  0.75000000  1
  Br  Br14  1  0.54468690  0.04468690  0.25000000  1
  Br  Br15  1  0.54468690  0.45531310  0.25000000  1
  Br  Br16  1  0.75000000  0.75000000  0.16070875  1
  Br  Br17  1  0.75000000  0.75000000  0.66070875  1
  Br  Br18  1  0.95531310  0.04468690  0.25000000  1
  Br  Br19  1  0.95531310  0.45531310  0.25000000  1
  O  O20  1  0.25000000  0.75000000  0.25000000  1
  O  O21  1  0.75000000  0.25000000  0.75000000  1
