# generated using pymatgen
data_Fe2P2H4NO8
_symmetry_space_group_name_H-M   'P 1'
_cell_length_a   12.93737777
_cell_length_b   12.93737777
_cell_length_c   10.40176890
_cell_angle_alpha   66.44870382
_cell_angle_beta   113.55129618
_cell_angle_gamma   105.07234491
_symmetry_Int_Tables_number   1
_chemical_formula_structural   Fe2P2H4NO8
_chemical_formula_sum   'Fe16 P16 H32 N8 O64'
_cell_volume   1452.56611602
_cell_formula_units_Z   8
loop_
 _symmetry_equiv_pos_site_id
 _symmetry_equiv_pos_as_xyz
  1  'x, y, z'
loop_
 _atom_site_type_symbol
 _atom_site_label
 _atom_site_symmetry_multiplicity
 _atom_site_fract_x
 _atom_site_fract_y
 _atom_site_fract_z
 _atom_site_occupancy
  Fe  Fe0  1  0.13785881  0.98893105  0.59017188  1
  Fe  Fe1  1  0.98893105  0.13785881  0.90982812  1
  Fe  Fe2  1  0.86214119  0.01106895  0.40982812  1
  Fe  Fe3  1  0.01106895  0.86214119  0.09017188  1
  Fe  Fe4  1  0.34807587  0.00987158  0.90213737  1
  Fe  Fe5  1  0.00987158  0.34807587  0.59786263  1
  Fe  Fe6  1  0.65192413  0.99012842  0.09786263  1
  Fe  Fe7  1  0.99012842  0.65192413  0.40213737  1
  Fe  Fe8  1  0.30135654  0.30135654  0.75000000  1
  Fe  Fe9  1  0.69864346  0.69864346  0.25000000  1
  Fe  Fe10  1  0.19086983  0.19086983  0.25000000  1
  Fe  Fe11  1  0.80913017  0.80913017  0.75000000  1
  Fe  Fe12  1  0.19091458  0.69193731  0.74980293  1
  Fe  Fe13  1  0.69193731  0.19091458  0.75019707  1
  Fe  Fe14  1  0.80908542  0.30806269  0.25019707  1
  Fe  Fe15  1  0.30806269  0.80908542  0.24980293  1
  P  P16  1  0.18357212  0.89375737  0.42280884  1
  P  P17  1  0.89375737  0.18357212  0.07719116  1
  P  P18  1  0.81642788  0.10624263  0.57719116  1
  P  P19  1  0.10624263  0.81642788  0.92280884  1
  P  P20  1  0.24609793  0.07572236  0.04534229  1
  P  P21  1  0.07572236  0.24609793  0.45465771  1
  P  P22  1  0.75390207  0.92427764  0.95465771  1
  P  P23  1  0.92427764  0.75390207  0.54534229  1
  P  P24  1  0.58974131  0.24147552  0.96777395  1
  P  P25  1  0.24147552  0.58974131  0.53222605  1
  P  P26  1  0.41025869  0.75852448  0.03222605  1
  P  P27  1  0.75852448  0.41025869  0.46777395  1
  P  P28  1  0.38131198  0.18755910  0.57873898  1
  P  P29  1  0.18755910  0.38131198  0.92126102  1
  P  P30  1  0.61868802  0.81244090  0.42126102  1
  P  P31  1  0.81244090  0.61868802  0.07873898  1
  H  H32  1  0.43853866  0.12001336  0.27794159  1
  H  H33  1  0.12001336  0.43853866  0.22205841  1
  H  H34  1  0.56146134  0.87998664  0.72205841  1
  H  H35  1  0.87998664  0.56146134  0.77794159  1
  H  H36  1  0.56227294  0.16002530  0.24317062  1
  H  H37  1  0.16002530  0.56227294  0.25682938  1
  H  H38  1  0.43772706  0.83997470  0.75682938  1
  H  H39  1  0.83997470  0.43772706  0.74317062  1
  H  H40  1  0.63368409  0.13194933  0.49239097  1
  H  H41  1  0.13194933  0.63368409  0.00760903  1
  H  H42  1  0.36631591  0.86805067  0.50760903  1
  H  H43  1  0.86805067  0.36631591  0.99239097  1
  H  H44  1  0.49440658  0.93849071  0.30444040  1
  H  H45  1  0.93849071  0.49440658  0.19555960  1
  H  H46  1  0.50559342  0.06150929  0.69555960  1
  H  H47  1  0.06150929  0.50559342  0.80444040  1
  H  H48  1  0.55426831  0.69770472  0.87700549  1
  H  H49  1  0.69770472  0.55426831  0.62299451  1
  H  H50  1  0.44573169  0.30229528  0.12299451  1
  H  H51  1  0.30229528  0.44573169  0.37700549  1
  H  H52  1  0.50894628  0.38616578  0.92175683  1
  H  H53  1  0.38616578  0.50894628  0.57824317  1
  H  H54  1  0.49105372  0.61383422  0.07824317  1
  H  H55  1  0.61383422  0.49105372  0.42175683  1
  H  H56  1  0.55848299  0.71388665  0.70965402  1
  H  H57  1  0.71388665  0.55848299  0.79034598  1
  H  H58  1  0.44151701  0.28611335  0.29034598  1
  H  H59  1  0.28611335  0.44151701  0.20965402  1
  H  H60  1  0.42759048  0.66799222  0.74103764  1
  H  H61  1  0.66799222  0.42759048  0.75896236  1
  H  H62  1  0.57240952  0.33200778  0.25896236  1
  H  H63  1  0.33200778  0.57240952  0.24103764  1
  N  N64  1  0.51831692  0.16547899  0.30340127  1
  N  N65  1  0.16547899  0.51831692  0.19659873  1
  N  N66  1  0.48168308  0.83452101  0.69659873  1
  N  N67  1  0.83452101  0.48168308  0.80340127  1
  N  N68  1  0.50761934  0.71797464  0.76424740  1
  N  N69  1  0.71797464  0.50761934  0.73575260  1
  N  N70  1  0.49238066  0.28202536  0.23575260  1
  N  N71  1  0.28202536  0.49238066  0.26424740  1
  O  O72  1  0.20370192  0.85350633  0.59162070  1
  O  O73  1  0.85350633  0.20370192  0.90837930  1
  O  O74  1  0.79629808  0.14649367  0.40837930  1
  O  O75  1  0.14649367  0.79629808  0.09162070  1
  O  O76  1  0.16080671  0.01654714  0.36520076  1
  O  O77  1  0.01654714  0.16080671  0.13479924  1
  O  O78  1  0.83919329  0.98345286  0.63479924  1
  O  O79  1  0.98345286  0.83919329  0.86520076  1
  O  O80  1  0.09251696  0.81968904  0.33504768  1
  O  O81  1  0.81968904  0.09251696  0.16495232  1
  O  O82  1  0.90748304  0.18031096  0.66495232  1
  O  O83  1  0.18031096  0.90748304  0.83504768  1
  O  O84  1  0.30230641  0.88626556  0.40954930  1
  O  O85  1  0.88626556  0.30230641  0.09045070  1
  O  O86  1  0.69769359  0.11373444  0.59045070  1
  O  O87  1  0.11373444  0.69769359  0.90954930  1
  O  O88  1  0.32129540  0.97611527  0.11891157  1
  O  O89  1  0.97611527  0.32129540  0.38108843  1
  O  O90  1  0.67870460  0.02388473  0.88108843  1
  O  O91  1  0.02388473  0.67870460  0.61891157  1
  O  O92  1  0.27721560  0.13972363  0.89902372  1
  O  O93  1  0.13972363  0.27721560  0.60097628  1
  O  O94  1  0.72278440  0.86027637  0.10097628  1
  O  O95  1  0.86027637  0.72278440  0.39902372  1
  O  O96  1  0.11579883  0.03396800  0.00493591  1
  O  O97  1  0.03396800  0.11579883  0.49506409  1
  O  O98  1  0.88420117  0.96603200  0.99506409  1
  O  O99  1  0.96603200  0.88420117  0.50493591  1
  O  O100  1  0.28050425  0.14734075  0.14591655  1
  O  O101  1  0.14734075  0.28050425  0.35408345  1
  O  O102  1  0.71949575  0.85265925  0.85408345  1
  O  O103  1  0.85265925  0.71949575  0.64591655  1
  O  O104  1  0.54164681  0.11484200  0.00031081  1
  O  O105  1  0.11484200  0.54164681  0.49968919  1
  O  O106  1  0.45835319  0.88515800  0.99968919  1
  O  O107  1  0.88515800  0.45835319  0.50031081  1
  O  O108  1  0.65721726  0.27107405  0.10894168  1
  O  O109  1  0.27107405  0.65721726  0.39105832  1
  O  O110  1  0.34278274  0.72892595  0.89105832  1
  O  O111  1  0.72892595  0.34278274  0.60894168  1
  O  O112  1  0.48036623  0.31441001  0.90237499  1
  O  O113  1  0.31441001  0.48036623  0.59762501  1
  O  O114  1  0.51963377  0.68558999  0.09762501  1
  O  O115  1  0.68558999  0.51963377  0.40237499  1
  O  O116  1  0.64564789  0.28599950  0.84908354  1
  O  O117  1  0.28599950  0.64564789  0.65091646  1
  O  O118  1  0.35435211  0.71400050  0.15091646  1
  O  O119  1  0.71400050  0.35435211  0.34908354  1
  O  O120  1  0.31032917  0.08195707  0.65761004  1
  O  O121  1  0.08195707  0.31032917  0.84238996  1
  O  O122  1  0.68967083  0.91804293  0.34238996  1
  O  O123  1  0.91804293  0.68967083  0.15761004  1
  O  O124  1  0.50903623  0.14412130  0.65423031  1
  O  O125  1  0.14412130  0.50903623  0.84576969  1
  O  O126  1  0.49096377  0.85587870  0.34576969  1
  O  O127  1  0.85587870  0.49096377  0.15423031  1
  O  O128  1  0.39044408  0.29086265  0.61982789  1
  O  O129  1  0.29086265  0.39044408  0.88017211  1
  O  O130  1  0.60955592  0.70913735  0.38017211  1
  O  O131  1  0.70913735  0.60955592  0.11982789  1
  O  O132  1  0.35597242  0.21670192  0.41183497  1
  O  O133  1  0.21670192  0.35597242  0.08816503  1
  O  O134  1  0.64402758  0.78329808  0.58816503  1
  O  O135  1  0.78329808  0.64402758  0.91183497  1
