# generated using pymatgen
data_Li3TiS3
_symmetry_space_group_name_H-M   'P 1'
_cell_length_a   6.89982749
_cell_length_b   6.97071145
_cell_length_c   6.95270304
_cell_angle_alpha   113.23688026
_cell_angle_beta   111.58415947
_cell_angle_gamma   111.98518959
_symmetry_Int_Tables_number   1
_chemical_formula_structural   Li3TiS3
_chemical_formula_sum   'Li6 Ti2 S6'
_cell_volume   226.85136299
_cell_formula_units_Z   2
loop_
 _symmetry_equiv_pos_site_id
 _symmetry_equiv_pos_as_xyz
  1  'x, y, z'
loop_
 _atom_site_type_symbol
 _atom_site_label
 _atom_site_symmetry_multiplicity
 _atom_site_fract_x
 _atom_site_fract_y
 _atom_site_fract_z
 _atom_site_occupancy
  Li  Li0  1  0.30398068  0.85281187  0.40248264  1
  Li  Li1  1  0.35214192  0.81054174  0.89184467  1
  Li  Li2  1  0.80424425  0.90173857  0.35314999  1
  Li  Li3  1  0.39907562  0.31060036  0.85351374  1
  Li  Li4  1  0.85234517  0.39182555  0.30917869  1
  Li  Li5  1  0.90082514  0.35374954  0.80921556  1
  Ti  Ti6  1  0.60337212  0.60074766  0.60112258  1
  Ti  Ti7  1  0.10291362  0.10035679  0.10069749  1
  S  S8  1  0.02786977  0.85048705  0.66866066  1
  S  S9  1  0.35106140  0.52710180  0.17899774  1
  S  S10  1  0.17761273  0.35377881  0.53282210  1
  S  S11  1  0.85040136  0.67698733  0.02634488  1
  S  S12  1  0.52699116  0.16892192  0.35034664  1
  S  S13  1  0.67904705  0.03223201  0.85350262  1
