# generated using pymatgen
data_Li2AgF3
_symmetry_space_group_name_H-M   'P 1'
_cell_length_a   12.81001348
_cell_length_b   7.61015030
_cell_length_c   2.94185839
_cell_angle_alpha   90.00000000
_cell_angle_beta   90.00000000
_cell_angle_gamma   90.00000000
_symmetry_Int_Tables_number   1
_chemical_formula_structural   Li2AgF3
_chemical_formula_sum   'Li8 Ag4 F12'
_cell_volume   286.79038335
_cell_formula_units_Z   4
loop_
 _symmetry_equiv_pos_site_id
 _symmetry_equiv_pos_as_xyz
  1  'x, y, z'
loop_
 _atom_site_type_symbol
 _atom_site_label
 _atom_site_symmetry_multiplicity
 _atom_site_fract_x
 _atom_site_fract_y
 _atom_site_fract_z
 _atom_site_occupancy
  Li  Li0  1  0.00892109  0.14819948  0.75000000  1
  Li  Li1  1  0.08381444  0.46999068  0.25000000  1
  Li  Li2  1  0.41618556  0.96999068  0.75000000  1
  Li  Li3  1  0.49107891  0.64819948  0.25000000  1
  Li  Li4  1  0.50892109  0.35180052  0.75000000  1
  Li  Li5  1  0.58381444  0.03000932  0.25000000  1
  Li  Li6  1  0.91618556  0.53000932  0.75000000  1
  Li  Li7  1  0.99107891  0.85180052  0.25000000  1
  Ag  Ag8  1  0.24458902  0.66384452  0.75000000  1
  Ag  Ag9  1  0.25541098  0.16384452  0.25000000  1
  Ag  Ag10  1  0.74458902  0.83615548  0.75000000  1
  Ag  Ag11  1  0.75541098  0.33615548  0.25000000  1
  F  F12  1  0.04587273  0.65607973  0.75000000  1
  F  F13  1  0.08790333  0.04588065  0.25000000  1
  F  F14  1  0.16391594  0.37442010  0.75000000  1
  F  F15  1  0.33608406  0.87442010  0.25000000  1
  F  F16  1  0.41209667  0.54588065  0.75000000  1
  F  F17  1  0.45412727  0.15607973  0.25000000  1
  F  F18  1  0.54587273  0.84392027  0.75000000  1
  F  F19  1  0.58790333  0.45411935  0.25000000  1
  F  F20  1  0.66391594  0.12557990  0.75000000  1
  F  F21  1  0.83608406  0.62557990  0.25000000  1
  F  F22  1  0.91209667  0.95411935  0.75000000  1
  F  F23  1  0.95412727  0.34392027  0.25000000  1
