# generated using pymatgen
data_Tl3(SbO3)8
_symmetry_space_group_name_H-M   'P 1'
_cell_length_a   7.37677692
_cell_length_b   7.38493398
_cell_length_c   12.74496792
_cell_angle_alpha   106.38999056
_cell_angle_beta   73.67048094
_cell_angle_gamma   119.55686972
_symmetry_Int_Tables_number   1
_chemical_formula_structural   Tl3(SbO3)8
_chemical_formula_sum   'Tl3 Sb8 O24'
_cell_volume   570.96639352
_cell_formula_units_Z   1
loop_
 _symmetry_equiv_pos_site_id
 _symmetry_equiv_pos_as_xyz
  1  'x, y, z'
loop_
 _atom_site_type_symbol
 _atom_site_label
 _atom_site_symmetry_multiplicity
 _atom_site_fract_x
 _atom_site_fract_y
 _atom_site_fract_z
 _atom_site_occupancy
  Tl  Tl0  1  0.02695459  0.37983886  0.32486847  1
  Tl  Tl1  1  0.76487836  0.10527105  0.82978467  1
  Tl  Tl2  1  0.39460309  0.73396398  0.82926738  1
  Sb  Sb3  1  0.99595154  0.50454197  0.01252050  1
  Sb  Sb4  1  0.00159431  0.00040299  0.00062916  1
  Sb  Sb5  1  0.49933424  0.49847294  0.00068169  1
  Sb  Sb6  1  0.74755104  0.74991995  0.25093811  1
  Sb  Sb7  1  0.99707029  0.99713242  0.49990161  1
  Sb  Sb8  1  0.49996935  0.50113825  0.49968282  1
  Sb  Sb9  1  0.49943729  0.99662323  0.49969412  1
  Sb  Sb10  1  0.26336368  0.23604883  0.74616708  1
  O  O11  1  0.29807305  0.61989385  0.02193994  1
  O  O12  1  0.28672791  0.21344800  0.03112271  1
  O  O13  1  0.51408706  0.58671236  0.16150926  1
  O  O14  1  0.21053129  0.88994171  0.46656729  1
  O  O15  1  0.91230356  0.98397275  0.16125028  1
  O  O16  1  0.59230687  0.91725901  0.33823911  1
  O  O17  1  0.91118118  0.58854197  0.16942756  1
  O  O18  1  0.98270752  0.91791125  0.33892676  1
  O  O19  1  0.58573551  0.51625894  0.33905423  1
  O  O20  1  0.88094816  0.20281761  0.02265701  1
  O  O21  1  0.39005085  0.71211130  0.53731537  1
  O  O22  1  0.21182169  0.28591387  0.46551241  1
  O  O23  1  0.78266202  0.71518339  0.53924726  1
  O  O24  1  0.60710772  0.28714957  0.46705547  1
  O  O25  1  0.01651454  0.09401338  0.66359782  1
  O  O26  1  0.10719797  0.77983001  0.95867615  1
  O  O27  1  0.40493284  0.48181832  0.66338217  1
  O  O28  1  0.09077875  0.40850829  0.83948146  1
  O  O29  1  0.42085936  0.07928553  0.66357151  1
  O  O30  1  0.06792998  0.01526132  0.83833099  1
  O  O31  1  0.48461674  0.43162004  0.83825506  1
  O  O32  1  0.78763030  0.10979864  0.53551790  1
  O  O33  1  0.71632732  0.78358290  0.96483784  1
  O  O34  1  0.72011604  0.39279552  0.95882081  1
