# generated using pymatgen
data_Li4CuF7
_symmetry_space_group_name_H-M   'P 1'
_cell_length_a   7.58730164
_cell_length_b   7.58730232
_cell_length_c   5.33190536
_cell_angle_alpha   80.99453579
_cell_angle_beta   99.00546616
_cell_angle_gamma   107.80069894
_symmetry_Int_Tables_number   1
_chemical_formula_structural   Li4CuF7
_chemical_formula_sum   'Li8 Cu2 F14'
_cell_volume   286.71153708
_cell_formula_units_Z   2
loop_
 _symmetry_equiv_pos_site_id
 _symmetry_equiv_pos_as_xyz
  1  'x, y, z'
loop_
 _atom_site_type_symbol
 _atom_site_label
 _atom_site_symmetry_multiplicity
 _atom_site_fract_x
 _atom_site_fract_y
 _atom_site_fract_z
 _atom_site_occupancy
  Li  Li0  1  0.05696268  0.76115785  0.30759002  1
  Li  Li1  1  0.23884215  0.94303732  0.80759002  1
  Li  Li2  1  0.30296985  0.57224782  0.75836791  1
  Li  Li3  1  0.42775218  0.69703015  0.25836791  1
  Li  Li4  1  0.57224782  0.30296985  0.74163209  1
  Li  Li5  1  0.69703015  0.42775218  0.24163209  1
  Li  Li6  1  0.76115785  0.05696268  0.19240998  1
  Li  Li7  1  0.94303732  0.23884215  0.69240998  1
  Cu  Cu8  1  0.23797518  0.23797518  0.25000000  1
  Cu  Cu9  1  0.76202482  0.76202482  0.75000000  1
  F  F10  1  0.00062916  0.18604325  0.36702651  1
  F  F11  1  0.15424095  0.34061437  0.91933316  1
  F  F12  1  0.21827142  0.62632923  0.42428765  1
  F  F13  1  0.37367077  0.78172858  0.92428765  1
  F  F14  1  0.18604325  0.00062916  0.13297349  1
  F  F15  1  0.34061437  0.15424095  0.58066684  1
  F  F16  1  0.44727470  0.44727470  0.25000000  1
  F  F17  1  0.55272530  0.55272530  0.75000000  1
  F  F18  1  0.65938563  0.84575905  0.41933316  1
  F  F19  1  0.81395675  0.99937084  0.86702651  1
  F  F20  1  0.62632923  0.21827142  0.07571235  1
  F  F21  1  0.78172858  0.37367077  0.57571235  1
  F  F22  1  0.84575905  0.65938563  0.08066684  1
  F  F23  1  0.99937084  0.81395675  0.63297349  1
