# generated using pymatgen
data_Li2CuSiO4
_symmetry_space_group_name_H-M   'P 1'
_cell_length_a   5.27264704
_cell_length_b   5.27264704
_cell_length_c   6.30294027
_cell_angle_alpha   90.00000000
_cell_angle_beta   90.00000000
_cell_angle_gamma   86.29863658
_symmetry_Int_Tables_number   1
_chemical_formula_structural   Li2CuSiO4
_chemical_formula_sum   'Li4 Cu2 Si2 O8'
_cell_volume   174.86131604
_cell_formula_units_Z   2
loop_
 _symmetry_equiv_pos_site_id
 _symmetry_equiv_pos_as_xyz
  1  'x, y, z'
loop_
 _atom_site_type_symbol
 _atom_site_label
 _atom_site_symmetry_multiplicity
 _atom_site_fract_x
 _atom_site_fract_y
 _atom_site_fract_z
 _atom_site_occupancy
  Li  Li0  1  0.31021548  0.68978452  0.50000000  1
  Li  Li1  1  0.18395320  0.18395320  0.75000000  1
  Li  Li2  1  0.81604680  0.81604680  0.25000000  1
  Li  Li3  1  0.68978452  0.31021548  0.00000000  1
  Cu  Cu4  1  0.18265470  0.18265470  0.25000000  1
  Cu  Cu5  1  0.81734530  0.81734530  0.75000000  1
  Si  Si6  1  0.32792210  0.67207790  0.00000000  1
  Si  Si7  1  0.67207790  0.32792210  0.50000000  1
  O  O8  1  0.19539544  0.80205257  0.21474315  1
  O  O9  1  0.19794743  0.80460456  0.78525685  1
  O  O10  1  0.30142189  0.36107340  0.00076039  1
  O  O11  1  0.63892660  0.69857811  0.99923961  1
  O  O12  1  0.69857811  0.63892660  0.50076039  1
  O  O13  1  0.36107340  0.30142189  0.49923961  1
  O  O14  1  0.80460456  0.19794743  0.71474315  1
  O  O15  1  0.80205257  0.19539544  0.28525685  1
