# generated using pymatgen
data_Mo4H8N2O13
_symmetry_space_group_name_H-M   'P 1'
_cell_length_a   8.42606780
_cell_length_b   8.48663993
_cell_length_c   10.41942749
_cell_angle_alpha   104.15953777
_cell_angle_beta   105.99577832
_cell_angle_gamma   109.93288855
_symmetry_Int_Tables_number   1
_chemical_formula_structural   Mo4H8N2O13
_chemical_formula_sum   'Mo8 H16 N4 O26'
_cell_volume   624.28621217
_cell_formula_units_Z   2
loop_
 _symmetry_equiv_pos_site_id
 _symmetry_equiv_pos_as_xyz
  1  'x, y, z'
loop_
 _atom_site_type_symbol
 _atom_site_label
 _atom_site_symmetry_multiplicity
 _atom_site_fract_x
 _atom_site_fract_y
 _atom_site_fract_z
 _atom_site_occupancy
  Mo  Mo0  1  0.22665728  0.53942340  0.03937727  1
  Mo  Mo1  1  0.77334272  0.46057660  0.96062273  1
  Mo  Mo2  1  0.93897663  0.11934588  0.72771588  1
  Mo  Mo3  1  0.06102337  0.88065412  0.27228412  1
  Mo  Mo4  1  0.92201652  0.50497650  0.70728856  1
  Mo  Mo5  1  0.07798348  0.49502350  0.29271144  1
  Mo  Mo6  1  0.77389595  0.84943396  0.94627220  1
  Mo  Mo7  1  0.22610405  0.15056604  0.05372780  1
  H  H8  1  0.75585163  0.12176898  0.33486997  1
  H  H9  1  0.24414837  0.87823102  0.66513003  1
  H  H10  1  0.41196516  0.08825999  0.71342001  1
  H  H11  1  0.58803484  0.91174001  0.28657999  1
  H  H12  1  0.44197570  0.90426362  0.63818804  1
  H  H13  1  0.55802430  0.09573638  0.36181196  1
  H  H14  1  0.44140181  0.95881817  0.80480218  1
  H  H15  1  0.55859819  0.04118183  0.19519782  1
  H  H16  1  0.68180772  0.55210409  0.46575054  1
  H  H17  1  0.31819228  0.44789591  0.53424946  1
  H  H18  1  0.64959529  0.74234900  0.48614305  1
  H  H19  1  0.35040471  0.25765100  0.51385695  1
  H  H20  1  0.81440043  0.72012525  0.42930988  1
  H  H21  1  0.18559957  0.27987475  0.57069012  1
  H  H22  1  0.40958871  0.40545476  0.67989234  1
  H  H23  1  0.59041129  0.59454524  0.32010766  1
  N  N24  1  0.61543913  0.04378107  0.29703658  1
  N  N25  1  0.38456087  0.95621893  0.70296342  1
  N  N26  1  0.68438801  0.65303192  0.42577849  1
  N  N27  1  0.31561199  0.34696808  0.57422151  1
  O  O28  1  0.92900729  0.01951599  0.88374848  1
  O  O29  1  0.07099271  0.98048401  0.11625152  1
  O  O30  1  0.21872686  0.30510306  0.93438091  1
  O  O31  1  0.78127314  0.69489694  0.06561909  1
  O  O32  1  0.45391036  0.66026765  0.16324803  1
  O  O33  1  0.54608964  0.33973235  0.83675197  1
  O  O34  1  0.02983192  0.66028984  0.64160933  1
  O  O35  1  0.97016808  0.33971016  0.35839067  1
  O  O36  1  0.89842766  0.35099609  0.86719913  1
  O  O37  1  0.10157234  0.64900391  0.13280087  1
  O  O38  1  0.87712021  0.64110231  0.85766571  1
  O  O39  1  0.12287979  0.35889769  0.14233429  1
  O  O40  1  0.04851763  0.00964141  0.65095036  1
  O  O41  1  0.95148237  0.99035859  0.34904964  1
  O  O42  1  0.29528017  0.01545283  0.95175788  1
  O  O43  1  0.70471983  0.98454717  0.04824212  1
  O  O44  1  0.00333447  0.31290404  0.65908178  1
  O  O45  1  0.99666553  0.68709596  0.34091822  1
  O  O46  1  0.70583340  0.98783046  0.61639735  1
  O  O47  1  0.29416660  0.01216954  0.38360265  1
  O  O48  1  0.69587185  0.38573206  0.57590058  1
  O  O49  1  0.30412815  0.61426794  0.42409942  1
  O  O50  1  0.21294130  0.62109164  0.89779278  1
  O  O51  1  0.78705870  0.37890836  0.10220722  1
  O  O52  1  0.42165783  0.27882054  0.21130726  1
  O  O53  1  0.57834217  0.72117946  0.78869274  1
