# generated using pymatgen
data_Na5Cu7O13
_symmetry_space_group_name_H-M   'P 1'
_cell_length_a   7.60901792
_cell_length_b   6.81287117
_cell_length_c   6.86750861
_cell_angle_alpha   76.17568963
_cell_angle_beta   98.48897082
_cell_angle_gamma   80.25248534
_symmetry_Int_Tables_number   1
_chemical_formula_structural   Na5Cu7O13
_chemical_formula_sum   'Na5 Cu7 O13'
_cell_volume   334.05956725
_cell_formula_units_Z   1
loop_
 _symmetry_equiv_pos_site_id
 _symmetry_equiv_pos_as_xyz
  1  'x, y, z'
loop_
 _atom_site_type_symbol
 _atom_site_label
 _atom_site_symmetry_multiplicity
 _atom_site_fract_x
 _atom_site_fract_y
 _atom_site_fract_z
 _atom_site_occupancy
  Na  Na0  1  0.17476672  0.08058024  0.41806192  1
  Na  Na1  1  0.54306620  0.77718705  0.72402906  1
  Na  Na2  1  0.70518566  0.35554836  0.15187774  1
  Na  Na3  1  0.85565905  0.92619437  0.56779505  1
  Na  Na4  1  0.02899928  0.51367429  0.98950373  1
  Cu  Cu5  1  0.99366426  0.00449145  0.99357185  1
  Cu  Cu6  1  0.14554906  0.57013832  0.43144371  1
  Cu  Cu7  1  0.28145083  0.14187400  0.85739972  1
  Cu  Cu8  1  0.42996683  0.71119770  0.28390943  1
  Cu  Cu9  1  0.56428104  0.29212520  0.70091962  1
  Cu  Cu10  1  0.71589878  0.85243714  0.14456974  1
  Cu  Cu11  1  0.85936372  0.42511568  0.57402751  1
  O  O12  1  0.02700785  0.57391990  0.64400027  1
  O  O13  1  0.09837326  0.00151375  0.77198623  1
  O  O14  1  0.16332000  0.15014484  0.06882305  1
  O  O15  1  0.25803450  0.57117488  0.21474007  1
  O  O16  1  0.40690207  0.13477868  0.66069639  1
  O  O17  1  0.31512915  0.71710047  0.50040308  1
  O  O18  1  0.54909085  0.70452790  0.07067249  1
  O  O19  1  0.70050860  0.27573346  0.49274534  1
  O  O20  1  0.60398051  0.84726883  0.36415197  1
  O  O21  1  0.73461604  0.43318125  0.78794531  1
  O  O22  1  0.82664588  0.85160777  0.92461707  1
  O  O23  1  0.87984047  0.00851325  0.21269648  1
  O  O24  1  0.97846138  0.42043322  0.35763217  1
