# generated using pymatgen
data_Mg2Bi
_symmetry_space_group_name_H-M   'P 1'
_cell_length_a   5.78731079
_cell_length_b   5.78731132
_cell_length_c   5.42315832
_cell_angle_alpha   90.00000000
_cell_angle_beta   90.00000000
_cell_angle_gamma   119.99999691
_symmetry_Int_Tables_number   1
_chemical_formula_structural   Mg2Bi
_chemical_formula_sum   'Mg4 Bi2'
_cell_volume   157.30284563
_cell_formula_units_Z   2
loop_
 _symmetry_equiv_pos_site_id
 _symmetry_equiv_pos_as_xyz
  1  'x, y, z'
loop_
 _atom_site_type_symbol
 _atom_site_label
 _atom_site_symmetry_multiplicity
 _atom_site_fract_x
 _atom_site_fract_y
 _atom_site_fract_z
 _atom_site_occupancy
  Mg  Mg0  1  0.66983123  0.00000000  0.00000000  1
  Mg  Mg1  1  0.00000000  0.66983123  -0.00000000  1
  Mg  Mg2  1  0.33016877  0.33016877  0.00000000  1
  Mg  Mg3  1  0.00000000  0.00000000  0.50000000  1
  Bi  Bi4  1  0.33333300  0.66666700  0.50000000  1
  Bi  Bi5  1  0.66666700  0.33333300  0.50000000  1
