# generated using pymatgen
data_LuTlO3
_symmetry_space_group_name_H-M   'P 1'
_cell_length_a   5.80755955
_cell_length_b   8.42578304
_cell_length_c   5.69520019
_cell_angle_alpha   90.00000000
_cell_angle_beta   90.00000000
_cell_angle_gamma   90.00000000
_symmetry_Int_Tables_number   1
_chemical_formula_structural   LuTlO3
_chemical_formula_sum   'Lu4 Tl4 O12'
_cell_volume   278.68457929
_cell_formula_units_Z   4
loop_
 _symmetry_equiv_pos_site_id
 _symmetry_equiv_pos_as_xyz
  1  'x, y, z'
loop_
 _atom_site_type_symbol
 _atom_site_label
 _atom_site_symmetry_multiplicity
 _atom_site_fract_x
 _atom_site_fract_y
 _atom_site_fract_z
 _atom_site_occupancy
  Lu  Lu0  1  0.00000000  0.00000000  0.50000000  1
  Lu  Lu1  1  0.00000000  0.50000000  0.50000000  1
  Lu  Lu2  1  0.50000000  0.00000000  0.00000000  1
  Lu  Lu3  1  0.50000000  0.50000000  0.00000000  1
  Tl  Tl4  1  0.05160471  0.25000000  0.98326476  1
  Tl  Tl5  1  0.44839529  0.75000000  0.48326476  1
  Tl  Tl6  1  0.55160471  0.25000000  0.51673524  1
  Tl  Tl7  1  0.94839529  0.75000000  0.01673524  1
  O  O8  1  0.08119650  0.75000000  0.62664781  1
  O  O9  1  0.18145483  0.57227061  0.17803591  1
  O  O10  1  0.18145483  0.92772939  0.17803591  1
  O  O11  1  0.31854517  0.42772939  0.67803591  1
  O  O12  1  0.31854517  0.07227061  0.67803591  1
  O  O13  1  0.41880350  0.25000000  0.12664781  1
  O  O14  1  0.58119650  0.75000000  0.87335219  1
  O  O15  1  0.68145483  0.57227061  0.32196409  1
  O  O16  1  0.68145483  0.92772939  0.32196409  1
  O  O17  1  0.81854517  0.07227061  0.82196409  1
  O  O18  1  0.81854517  0.42772939  0.82196409  1
  O  O19  1  0.91880350  0.25000000  0.37335219  1
