# generated using pymatgen
data_CaTb2O4
_symmetry_space_group_name_H-M   'P 1'
_cell_length_a   5.81315840
_cell_length_b   5.81315840
_cell_length_c   11.03454925
_cell_angle_alpha   90.00000000
_cell_angle_beta   90.00000000
_cell_angle_gamma   33.42853879
_symmetry_Int_Tables_number   1
_chemical_formula_structural   CaTb2O4
_chemical_formula_sum   'Ca2 Tb4 O8'
_cell_volume   205.42293462
_cell_formula_units_Z   2
loop_
 _symmetry_equiv_pos_site_id
 _symmetry_equiv_pos_as_xyz
  1  'x, y, z'
loop_
 _atom_site_type_symbol
 _atom_site_label
 _atom_site_symmetry_multiplicity
 _atom_site_fract_x
 _atom_site_fract_y
 _atom_site_fract_z
 _atom_site_occupancy
  Tb  Tb0  1  0.36746967  0.36746967  0.42537832  1
  Tb  Tb1  1  0.36746967  0.36746967  0.07462168  1
  Tb  Tb2  1  0.63253033  0.63253033  0.57462168  1
  Tb  Tb3  1  0.63253033  0.63253033  0.92537832  1
  Ca  Ca4  1  0.11041437  0.11041437  0.25000000  1
  Ca  Ca5  1  0.88958563  0.88958563  0.75000000  1
  O  O6  1  0.00000000  0.00000000  0.00000000  1
  O  O7  1  0.00000000  0.00000000  0.50000000  1
  O  O8  1  0.26634916  0.26634916  0.61320521  1
  O  O9  1  0.46837324  0.46837324  0.25000000  1
  O  O10  1  0.53162676  0.53162676  0.75000000  1
  O  O11  1  0.73365084  0.73365084  0.38679479  1
  O  O12  1  0.26634916  0.26634916  0.88679479  1
  O  O13  1  0.73365084  0.73365084  0.11320521  1
