# generated using pymatgen
data_ErAlO3
_symmetry_space_group_name_H-M   'P 1'
_cell_length_a   3.44574989
_cell_length_b   3.44575389
_cell_length_c   11.44968161
_cell_angle_alpha   90.00049126
_cell_angle_beta   90.00019372
_cell_angle_gamma   120.00001495
_symmetry_Int_Tables_number   1
_chemical_formula_structural   ErAlO3
_chemical_formula_sum   'Er2 Al2 O6'
_cell_volume   117.73131164
_cell_formula_units_Z   2
loop_
 _symmetry_equiv_pos_site_id
 _symmetry_equiv_pos_as_xyz
  1  'x, y, z'
loop_
 _atom_site_type_symbol
 _atom_site_label
 _atom_site_symmetry_multiplicity
 _atom_site_fract_x
 _atom_site_fract_y
 _atom_site_fract_z
 _atom_site_occupancy
  Er  Er0  1  0.00000319  0.00004636  0.99999001  1
  Er  Er1  1  0.99997783  0.99995142  0.50000296  1
  Al  Al2  1  0.33330172  0.66668679  0.24999603  1
  Al  Al3  1  0.66667908  0.33337952  0.75000134  1
  O  O4  1  0.33332933  0.66671815  0.09108726  1
  O  O5  1  0.33333051  0.66665295  0.40892876  1
  O  O6  1  0.00000539  0.00001669  0.25000671  1
  O  O7  1  0.00002255  0.00003796  0.74999096  1
  O  O8  1  0.66667264  0.33337989  0.90890090  1
  O  O9  1  0.66667878  0.33333126  0.59109709  1
