# generated using pymatgen
data_LiTiSiO4
_symmetry_space_group_name_H-M   'P 1'
_cell_length_a   9.36038744
_cell_length_b   6.10274909
_cell_length_c   4.98098017
_cell_angle_alpha   90.00164612
_cell_angle_beta   89.99291081
_cell_angle_gamma   89.99747793
_symmetry_Int_Tables_number   1
_chemical_formula_structural   LiTiSiO4
_chemical_formula_sum   'Li4 Ti4 Si4 O16'
_cell_volume   284.53398660
_cell_formula_units_Z   4
loop_
 _symmetry_equiv_pos_site_id
 _symmetry_equiv_pos_as_xyz
  1  'x, y, z'
loop_
 _atom_site_type_symbol
 _atom_site_label
 _atom_site_symmetry_multiplicity
 _atom_site_fract_x
 _atom_site_fract_y
 _atom_site_fract_z
 _atom_site_occupancy
  Li  Li0  1  0.16964040  0.75001474  0.48025357  1
  Li  Li1  1  0.33038820  0.24999433  0.98024596  1
  Li  Li2  1  0.66961244  0.75000558  0.01975418  1
  Li  Li3  1  0.83035974  0.24998646  0.51974632  1
  Ti  Ti4  1  0.99999960  0.00000195  0.99999980  1
  Ti  Ti5  1  0.00000022  0.50000050  0.00000064  1
  Ti  Ti6  1  0.50000018  0.00000286  0.49999870  1
  Ti  Ti7  1  0.50000030  0.49999787  0.49999829  1
  Si  Si8  1  0.17757595  0.24999019  0.47543497  1
  Si  Si9  1  0.32241850  0.74999767  0.97544557  1
  Si  Si10  1  0.67758193  0.25000294  0.02455390  1
  Si  Si11  1  0.82242419  0.75000824  0.52456485  1
  O  O12  1  0.12909066  0.24998003  0.79843113  1
  O  O13  1  0.11554930  0.03149969  0.32792596  1
  O  O14  1  0.11555102  0.46852197  0.32793419  1
  O  O15  1  0.14718954  0.75001792  0.90133037  1
  O  O16  1  0.35282118  0.24999633  0.40132638  1
  O  O17  1  0.38445469  0.96851469  0.82793699  1
  O  O18  1  0.38446290  0.53148868  0.82791356  1
  O  O19  1  0.37090773  0.74999821  0.29841539  1
  O  O20  1  0.62909216  0.25000212  0.70158483  1
  O  O21  1  0.61554554  0.03148231  0.17206394  1
  O  O22  1  0.61553692  0.46850943  0.17208765  1
  O  O23  1  0.64717937  0.75000430  0.59867528  1
  O  O24  1  0.85281000  0.24998299  0.09866736  1
  O  O25  1  0.88444825  0.53147819  0.67206537  1
  O  O26  1  0.88445059  0.96849982  0.67207598  1
  O  O27  1  0.87090852  0.75002000  0.20156889  1
