# generated using pymatgen
data_CaMg2
_symmetry_space_group_name_H-M   'P 1'
_cell_length_a   13.07041282
_cell_length_b   3.44962446
_cell_length_c   7.92893672
_cell_angle_alpha   90.00000000
_cell_angle_beta   102.18381982
_cell_angle_gamma   90.00000000
_symmetry_Int_Tables_number   1
_chemical_formula_structural   CaMg2
_chemical_formula_sum   'Ca4 Mg8'
_cell_volume   349.44752660
_cell_formula_units_Z   4
loop_
 _symmetry_equiv_pos_site_id
 _symmetry_equiv_pos_as_xyz
  1  'x, y, z'
loop_
 _atom_site_type_symbol
 _atom_site_label
 _atom_site_symmetry_multiplicity
 _atom_site_fract_x
 _atom_site_fract_y
 _atom_site_fract_z
 _atom_site_occupancy
  Ca  Ca0  1  0.38089737  0.00000000  0.26319525  1
  Ca  Ca1  1  0.06152746  -0.00000000  0.62140028  1
  Ca  Ca2  1  0.88089737  0.50000000  0.26319525  1
  Ca  Ca3  1  0.56152746  0.50000000  0.62140028  1
  Mg  Mg4  1  0.00575478  -0.00000000  0.00222867  1
  Mg  Mg5  1  0.16415814  0.50000000  0.32121941  1
  Mg  Mg6  1  0.33131696  -0.00000000  0.67839157  1
  Mg  Mg7  1  0.22301229  0.50000000  0.94689783  1
  Mg  Mg8  1  0.50575478  0.50000000  0.00222867  1
  Mg  Mg9  1  0.66415814  0.00000000  0.32121941  1
  Mg  Mg10  1  0.83131696  0.50000000  0.67839157  1
  Mg  Mg11  1  0.72301229  0.00000000  0.94689783  1
