# generated using pymatgen
data_LiTiP2O7
_symmetry_space_group_name_H-M   'P 1'
_cell_length_a   6.52240074
_cell_length_b   6.40109376
_cell_length_c   6.83566458
_cell_angle_alpha   113.18767550
_cell_angle_beta   97.21202264
_cell_angle_gamma   80.38105367
_symmetry_Int_Tables_number   1
_chemical_formula_structural   LiTiP2O7
_chemical_formula_sum   'Li2 Ti2 P4 O14'
_cell_volume   258.08746848
_cell_formula_units_Z   2
loop_
 _symmetry_equiv_pos_site_id
 _symmetry_equiv_pos_as_xyz
  1  'x, y, z'
loop_
 _atom_site_type_symbol
 _atom_site_label
 _atom_site_symmetry_multiplicity
 _atom_site_fract_x
 _atom_site_fract_y
 _atom_site_fract_z
 _atom_site_occupancy
  Li  Li0  1  0.08225815  0.69188274  0.15682415  1
  Li  Li1  1  0.91774185  0.30811726  0.84317585  1
  Ti  Ti2  1  0.34873484  0.90703215  0.78048368  1
  Ti  Ti3  1  0.65126516  0.09296785  0.21951632  1
  P  P4  1  0.13465068  0.21837085  0.23273099  1
  P  P5  1  0.39587311  0.35128713  0.65257692  1
  P  P6  1  0.60412689  0.64871287  0.34742308  1
  P  P7  1  0.86534932  0.78162915  0.76726901  1
  O  O8  1  0.01884573  0.93316835  0.75468217  1
  O  O9  1  0.04406528  0.38973210  0.13585095  1
  O  O10  1  0.21680393  0.36403986  0.47172541  1
  O  O11  1  0.32390197  0.20819159  0.75927025  1
  O  O12  1  0.33246592  0.06215977  0.12022016  1
  O  O13  1  0.39586319  0.60196884  0.80557913  1
  O  O14  1  0.39618455  0.75347952  0.45100616  1
  O  O15  1  0.60381545  0.24652048  0.54899384  1
  O  O16  1  0.60413681  0.39803116  0.19442087  1
  O  O17  1  0.66753408  0.93784023  0.87977984  1
  O  O18  1  0.67609803  0.79180841  0.24072975  1
  O  O19  1  0.78319607  0.63596014  0.52827459  1
  O  O20  1  0.95593472  0.61026790  0.86414905  1
  O  O21  1  0.98115427  0.06683165  0.24531783  1
