# generated using pymatgen
data_HoHO2
_symmetry_space_group_name_H-M   'P 1'
_cell_length_a   3.50487420
_cell_length_b   3.50492949
_cell_length_c   9.20699995
_cell_angle_alpha   90.00128684
_cell_angle_beta   89.99931270
_cell_angle_gamma   120.00062846
_symmetry_Int_Tables_number   1
_chemical_formula_structural   HoHO2
_chemical_formula_sum   'Ho2 H2 O4'
_cell_volume   97.94848932
_cell_formula_units_Z   2
loop_
 _symmetry_equiv_pos_site_id
 _symmetry_equiv_pos_as_xyz
  1  'x, y, z'
loop_
 _atom_site_type_symbol
 _atom_site_label
 _atom_site_symmetry_multiplicity
 _atom_site_fract_x
 _atom_site_fract_y
 _atom_site_fract_z
 _atom_site_occupancy
  Ho  Ho0  1  0.99999870  0.00002299  0.99999811  1
  Ho  Ho1  1  0.99999958  0.99999830  0.49999897  1
  H  H2  1  0.33331265  0.66668456  0.24999754  1
  H  H3  1  0.66668909  0.33337935  0.74999919  1
  O  O4  1  0.33332045  0.66672273  0.11693146  1
  O  O5  1  0.33332175  0.66665221  0.38307017  1
  O  O6  1  0.66667805  0.33338794  0.88307064  1
  O  O7  1  0.66667973  0.33335292  0.61693291  1
