# generated using pymatgen
data_Li2O
_symmetry_space_group_name_H-M   'P 1'
_cell_length_a   5.15179482
_cell_length_b   3.14042783
_cell_length_c   5.93340816
_cell_angle_alpha   90.00000000
_cell_angle_beta   90.00000000
_cell_angle_gamma   90.00000000
_symmetry_Int_Tables_number   1
_chemical_formula_structural   Li2O
_chemical_formula_sum   'Li8 O4'
_cell_volume   95.99566025
_cell_formula_units_Z   4
loop_
 _symmetry_equiv_pos_site_id
 _symmetry_equiv_pos_as_xyz
  1  'x, y, z'
loop_
 _atom_site_type_symbol
 _atom_site_label
 _atom_site_symmetry_multiplicity
 _atom_site_fract_x
 _atom_site_fract_y
 _atom_site_fract_z
 _atom_site_occupancy
  Li  Li0  1  0.01224540  0.25000000  0.15906137  1
  Li  Li1  1  0.14108652  0.25000000  0.57920844  1
  Li  Li2  1  0.35891348  0.75000000  0.07920844  1
  Li  Li3  1  0.48775460  0.75000000  0.65906137  1
  Li  Li4  1  0.51224540  0.25000000  0.34093863  1
  Li  Li5  1  0.64108652  0.25000000  0.92079156  1
  Li  Li6  1  0.85891348  0.75000000  0.42079156  1
  Li  Li7  1  0.98775460  0.75000000  0.84093863  1
  O  O8  1  0.24606691  0.75000000  0.39882437  1
  O  O9  1  0.25393309  0.25000000  0.89882437  1
  O  O10  1  0.74606691  0.75000000  0.10117563  1
  O  O11  1  0.75393309  0.25000000  0.60117563  1
