# generated using pymatgen
data_Nb2SbO6
_symmetry_space_group_name_H-M   'P 1'
_cell_length_a   8.94890102
_cell_length_b   8.94890102
_cell_length_c   5.62876265
_cell_angle_alpha   88.82542437
_cell_angle_beta   91.17457563
_cell_angle_gamma   147.27245549
_symmetry_Int_Tables_number   1
_chemical_formula_structural   Nb2SbO6
_chemical_formula_sum   'Nb4 Sb2 O12'
_cell_volume   243.64934433
_cell_formula_units_Z   2
loop_
 _symmetry_equiv_pos_site_id
 _symmetry_equiv_pos_as_xyz
  1  'x, y, z'
loop_
 _atom_site_type_symbol
 _atom_site_label
 _atom_site_symmetry_multiplicity
 _atom_site_fract_x
 _atom_site_fract_y
 _atom_site_fract_z
 _atom_site_occupancy
  Nb  Nb0  1  0.08220924  0.42829358  0.82860267  1
  Nb  Nb1  1  0.57170642  0.91779076  0.32860267  1
  Nb  Nb2  1  0.42829358  0.08220924  0.67139733  1
  Nb  Nb3  1  0.91779076  0.57170642  0.17139733  1
  Sb  Sb4  1  0.80664857  0.80664857  0.75000000  1
  Sb  Sb5  1  0.19335143  0.19335143  0.25000000  1
  O  O6  1  0.15544229  0.71586747  0.84893966  1
  O  O7  1  0.28413253  0.84455771  0.34893966  1
  O  O8  1  0.31932677  0.59610235  0.57103442  1
  O  O9  1  0.40389765  0.68067323  0.07103442  1
  O  O10  1  0.01376280  0.14733474  0.91938184  1
  O  O11  1  0.85266526  0.98623720  0.41938184  1
  O  O12  1  0.14733474  0.01376280  0.58061816  1
  O  O13  1  0.98623720  0.85266526  0.08061816  1
  O  O14  1  0.59610235  0.31932677  0.92896558  1
  O  O15  1  0.68067323  0.40389765  0.42896558  1
  O  O16  1  0.71586747  0.15544229  0.65106034  1
  O  O17  1  0.84455771  0.28413253  0.15106034  1
