# generated using pymatgen
data_SbSeO5
_symmetry_space_group_name_H-M   'P 1'
_cell_length_a   9.88781160
_cell_length_b   9.28539397
_cell_length_c   5.25913373
_cell_angle_alpha   90.00000000
_cell_angle_beta   90.00000000
_cell_angle_gamma   90.00000000
_symmetry_Int_Tables_number   1
_chemical_formula_structural   SbSeO5
_chemical_formula_sum   'Sb4 Se4 O20'
_cell_volume   482.85277567
_cell_formula_units_Z   4
loop_
 _symmetry_equiv_pos_site_id
 _symmetry_equiv_pos_as_xyz
  1  'x, y, z'
loop_
 _atom_site_type_symbol
 _atom_site_label
 _atom_site_symmetry_multiplicity
 _atom_site_fract_x
 _atom_site_fract_y
 _atom_site_fract_z
 _atom_site_occupancy
  Sb  Sb0  1  0.15448238  0.40967466  0.12865983  1
  Sb  Sb1  1  0.34551762  0.59032534  0.62865983  1
  Sb  Sb2  1  0.65448238  0.09032534  0.87134017  1
  Sb  Sb3  1  0.84551762  0.90967466  0.37134017  1
  Se  Se4  1  0.03996717  0.72653374  0.85533144  1
  Se  Se5  1  0.46003283  0.27346626  0.35533144  1
  Se  Se6  1  0.53996717  0.77346626  0.14466856  1
  Se  Se7  1  0.96003283  0.22653374  0.64466856  1
  O  O8  1  0.00273269  0.35559237  0.43264577  1
  O  O9  1  0.99109430  0.05650050  0.52914471  1
  O  O10  1  0.05234466  0.23410765  0.91640877  1
  O  O11  1  0.21033762  0.74576183  0.79503967  1
  O  O12  1  0.22404392  0.57118139  0.33428653  1
  O  O13  1  0.27595608  0.42881861  0.83428653  1
  O  O14  1  0.28966238  0.25423817  0.29503967  1
  O  O15  1  0.44765534  0.76589235  0.41640877  1
  O  O16  1  0.50890570  0.94349950  0.02914471  1
  O  O17  1  0.49726731  0.64440763  0.93264577  1
  O  O18  1  0.50273269  0.14440763  0.56735423  1
  O  O19  1  0.49109430  0.44349950  0.47085529  1
  O  O20  1  0.55234466  0.26589235  0.08359123  1
  O  O21  1  0.71033762  0.75423817  0.20496033  1
  O  O22  1  0.72404392  0.92881861  0.66571347  1
  O  O23  1  0.77595608  0.07118139  0.16571347  1
  O  O24  1  0.78966238  0.24576183  0.70496033  1
  O  O25  1  0.94765534  0.73410765  0.58359123  1
  O  O26  1  0.00890570  0.55650050  0.97085529  1
  O  O27  1  0.99726731  0.85559237  0.06735423  1
