# generated using pymatgen
data_Al2HgO4
_symmetry_space_group_name_H-M   'P 1'
_cell_length_a   6.05545600
_cell_length_b   6.05556348
_cell_length_c   6.05545600
_cell_angle_alpha   119.99941286
_cell_angle_beta   90.00000000
_cell_angle_gamma   60.00058714
_symmetry_Int_Tables_number   1
_chemical_formula_structural   Al2HgO4
_chemical_formula_sum   'Al4 Hg2 O8'
_cell_volume   157.01493978
_cell_formula_units_Z   2
loop_
 _symmetry_equiv_pos_site_id
 _symmetry_equiv_pos_as_xyz
  1  'x, y, z'
loop_
 _atom_site_type_symbol
 _atom_site_label
 _atom_site_symmetry_multiplicity
 _atom_site_fract_x
 _atom_site_fract_y
 _atom_site_fract_z
 _atom_site_occupancy
  Al  Al0  1  0.37500000  0.75000000  0.37500000  1
  Al  Al1  1  0.87500000  0.75000000  0.37500000  1
  Al  Al2  1  0.37500000  0.25000000  0.87500000  1
  Al  Al3  1  0.37500000  0.25000000  0.37500000  1
  Hg  Hg4  1  0.75000000  0.50000000  0.75000000  1
  Hg  Hg5  1  0.00000000  0.00000000  0.00000000  1
  O  O6  1  0.60250800  0.79498400  0.60251300  1
  O  O7  1  0.60250800  0.79498400  0.19247100  1
  O  O8  1  0.14749200  0.70501600  0.14748700  1
  O  O9  1  0.14749200  0.70501600  0.55752900  1
  O  O10  1  0.55752900  0.29498400  0.14749200  1
  O  O11  1  0.14748700  0.29498400  0.14749200  1
  O  O12  1  0.60251300  0.20501600  0.60250800  1
  O  O13  1  0.19247100  0.20501600  0.60250800  1
