# generated using pymatgen
data_LiNbPO5
_symmetry_space_group_name_H-M   'P 1'
_cell_length_a   7.11307104
_cell_length_b   7.43215518
_cell_length_c   8.18300640
_cell_angle_alpha   89.43045202
_cell_angle_beta   92.54247083
_cell_angle_gamma   115.73781239
_symmetry_Int_Tables_number   1
_chemical_formula_structural   LiNbPO5
_chemical_formula_sum   'Li4 Nb4 P4 O20'
_cell_volume   389.27600454
_cell_formula_units_Z   4
loop_
 _symmetry_equiv_pos_site_id
 _symmetry_equiv_pos_as_xyz
  1  'x, y, z'
loop_
 _atom_site_type_symbol
 _atom_site_label
 _atom_site_symmetry_multiplicity
 _atom_site_fract_x
 _atom_site_fract_y
 _atom_site_fract_z
 _atom_site_occupancy
  Li  Li0  1  0.29695129  0.82746313  0.42529525  1
  Li  Li1  1  0.21810580  0.30898424  0.07612742  1
  Li  Li2  1  0.78189420  0.69101576  0.92387258  1
  Li  Li3  1  0.70304871  0.17253687  0.57470475  1
  Nb  Nb4  1  0.24399497  0.50995987  0.73728124  1
  Nb  Nb5  1  0.24611776  0.01374017  0.76596074  1
  Nb  Nb6  1  0.75388224  0.98625983  0.23403926  1
  Nb  Nb7  1  0.75600503  0.49004013  0.26271876  1
  P  P8  1  0.23107370  0.74592579  0.09328852  1
  P  P9  1  0.26270213  0.23859133  0.40854689  1
  P  P10  1  0.73729787  0.76140867  0.59145311  1
  P  P11  1  0.76892630  0.25407421  0.90671148  1
  O  O12  1  0.12411431  0.84313604  0.97545894  1
  O  O13  1  0.08669067  0.64355967  0.23722728  1
  O  O14  1  0.24045105  0.75299236  0.66662429  1
  O  O15  1  0.27400691  0.59105846  0.99508531  1
  O  O16  1  0.19458129  0.36878970  0.51537247  1
  O  O17  1  0.43131463  0.90568347  0.17792325  1
  O  O18  1  0.07540941  0.09362246  0.30302090  1
  O  O19  1  0.26648719  0.26238242  0.84223502  1
  O  O20  1  0.64504942  0.87816817  0.47947666  1
  O  O21  1  0.42467868  0.36983069  0.28424948  1
  O  O22  1  0.57532132  0.63016931  0.71575052  1
  O  O23  1  0.35495058  0.12183183  0.52052334  1
  O  O24  1  0.73351281  0.73761758  0.15776498  1
  O  O25  1  0.92459059  0.90637754  0.69697910  1
  O  O26  1  0.56868537  0.09431653  0.82207675  1
  O  O27  1  0.80541871  0.63121030  0.48462753  1
  O  O28  1  0.72599309  0.40894154  0.00491469  1
  O  O29  1  0.75954895  0.24700764  0.33337571  1
  O  O30  1  0.91330933  0.35644033  0.76277272  1
  O  O31  1  0.87588569  0.15686396  0.02454106  1
