# generated using pymatgen
data_LiSn(PO3)4
_symmetry_space_group_name_H-M   'P 1'
_cell_length_a   7.42294917
_cell_length_b   8.97902457
_cell_length_c   15.09832098
_cell_angle_alpha   90.00000000
_cell_angle_beta   94.49084305
_cell_angle_gamma   90.00000000
_symmetry_Int_Tables_number   1
_chemical_formula_structural   LiSn(PO3)4
_chemical_formula_sum   'Li4 Sn4 P16 O48'
_cell_volume   1003.22629064
_cell_formula_units_Z   4
loop_
 _symmetry_equiv_pos_site_id
 _symmetry_equiv_pos_as_xyz
  1  'x, y, z'
loop_
 _atom_site_type_symbol
 _atom_site_label
 _atom_site_symmetry_multiplicity
 _atom_site_fract_x
 _atom_site_fract_y
 _atom_site_fract_z
 _atom_site_occupancy
  Li  Li0  1  0.05519283  0.57502212  0.93004536  1
  Li  Li1  1  0.44480717  0.07502212  0.56995464  1
  Li  Li2  1  0.55519283  0.92497788  0.43004536  1
  Li  Li3  1  0.94480717  0.42497788  0.06995464  1
  Sn  Sn4  1  0.04229021  0.65860557  0.35759345  1
  Sn  Sn5  1  0.54229021  0.84139443  0.85759345  1
  Sn  Sn6  1  0.45770979  0.15860557  0.14240655  1
  Sn  Sn7  1  0.95770979  0.34139443  0.64240655  1
  P  P8  1  0.06924818  0.26919004  0.42704068  1
  P  P9  1  0.13338612  0.05479699  0.78090079  1
  P  P10  1  0.17343157  0.23024320  0.95010993  1
  P  P11  1  0.21483211  0.02947071  0.31012046  1
  P  P12  1  0.32656843  0.73024320  0.54989007  1
  P  P13  1  0.36661388  0.55479699  0.71909921  1
  P  P14  1  0.28516789  0.52947071  0.18987954  1
  P  P15  1  0.56924818  0.23080996  0.92704068  1
  P  P16  1  0.43075182  0.76919004  0.07295932  1
  P  P17  1  0.71483211  0.47052929  0.81012046  1
  P  P18  1  0.63338612  0.44520301  0.28090079  1
  P  P19  1  0.67343157  0.26975680  0.45010993  1
  P  P20  1  0.78516789  0.97052929  0.68987954  1
  P  P21  1  0.82656843  0.76975680  0.04989007  1
  P  P22  1  0.86661388  0.94520301  0.21909921  1
  P  P23  1  0.93075182  0.73080996  0.57295932  1
  O  O24  1  0.06329474  0.36802109  0.96374456  1
  O  O25  1  0.07508475  0.14437313  0.86626139  1
  O  O26  1  0.04506654  0.04774710  0.23808992  1
  O  O27  1  0.12260425  0.28209095  0.52601653  1
  O  O28  1  0.14851101  0.15641277  0.70199903  1
  O  O29  1  0.14002563  0.78315630  0.58849007  1
  O  O30  1  0.11011395  0.39585138  0.36773561  1
  O  O31  1  0.21044749  0.45492617  0.69459670  1
  O  O32  1  0.15798971  0.11563323  0.39730550  1
  O  O33  1  0.13004057  0.61303521  0.22562825  1
  O  O34  1  0.28955251  0.95492617  0.80540330  1
  O  O35  1  0.25180751  0.87180076  0.33994994  1
  O  O36  1  0.28861180  0.62696675  0.47228013  1
  O  O37  1  0.35997437  0.28315630  0.91150993  1
  O  O38  1  0.35148899  0.65641277  0.79800097  1
  O  O39  1  0.37739575  0.78209095  0.97398347  1
  O  O40  1  0.21138820  0.12696675  0.02771987  1
  O  O41  1  0.24819249  0.37180076  0.16005006  1
  O  O42  1  0.42491525  0.64437313  0.63373861  1
  O  O43  1  0.36995943  0.11303521  0.27437175  1
  O  O44  1  0.43670526  0.86802109  0.53625544  1
  O  O45  1  0.34201029  0.61563323  0.10269450  1
  O  O46  1  0.54506654  0.45225290  0.73808992  1
  O  O47  1  0.38988605  0.89585138  0.13226439  1
  O  O48  1  0.61011395  0.10414862  0.86773561  1
  O  O49  1  0.45493346  0.54774710  0.26191008  1
  O  O50  1  0.65798971  0.38436677  0.89730550  1
  O  O51  1  0.56329474  0.13197891  0.46374456  1
  O  O52  1  0.63004057  0.88696479  0.72562825  1
  O  O53  1  0.57508475  0.35562687  0.36626139  1
  O  O54  1  0.75180751  0.62819924  0.83994994  1
  O  O55  1  0.78861180  0.87303325  0.97228013  1
  O  O56  1  0.62260425  0.21790905  0.02601653  1
  O  O57  1  0.64851101  0.34358723  0.20199903  1
  O  O58  1  0.64002563  0.71684370  0.08849007  1
  O  O59  1  0.71138820  0.37303325  0.52771987  1
  O  O60  1  0.74819249  0.12819924  0.66005006  1
  O  O61  1  0.71044749  0.04507383  0.19459670  1
  O  O62  1  0.86995943  0.38696479  0.77437175  1
  O  O63  1  0.84201029  0.88436677  0.60269450  1
  O  O64  1  0.78955251  0.54507383  0.30540330  1
  O  O65  1  0.88988605  0.60414862  0.63226439  1
  O  O66  1  0.85997437  0.21684370  0.41150993  1
  O  O67  1  0.85148899  0.84358723  0.29800097  1
  O  O68  1  0.87739575  0.71790905  0.47398347  1
  O  O69  1  0.95493346  0.95225290  0.76191008  1
  O  O70  1  0.92491525  0.85562687  0.13373861  1
  O  O71  1  0.93670526  0.63197891  0.03625544  1
