# generated using pymatgen
data_Er2TiO5
_symmetry_space_group_name_H-M   'P 1'
_cell_length_a   5.26651759
_cell_length_b   6.38461586
_cell_length_c   7.52374568
_cell_angle_alpha   68.49834245
_cell_angle_beta   90.02850633
_cell_angle_gamma   65.65129492
_symmetry_Int_Tables_number   1
_chemical_formula_structural   Er2TiO5
_chemical_formula_sum   'Er4 Ti2 O10'
_cell_volume   210.98354122
_cell_formula_units_Z   2
loop_
 _symmetry_equiv_pos_site_id
 _symmetry_equiv_pos_as_xyz
  1  'x, y, z'
loop_
 _atom_site_type_symbol
 _atom_site_label
 _atom_site_symmetry_multiplicity
 _atom_site_fract_x
 _atom_site_fract_y
 _atom_site_fract_z
 _atom_site_occupancy
  Er  Er0  1  0.62836180  0.72424220  0.75124283  1
  Er  Er1  1  0.35293654  0.27774314  0.74808785  1
  Er  Er2  1  0.64602925  0.72476858  0.25140104  1
  Er  Er3  1  0.36769119  0.27865004  0.24763048  1
  Ti  Ti4  1  0.99393739  0.00026111  0.49098821  1
  Ti  Ti5  1  0.00493143  0.99985949  0.99136687  1
  O  O6  1  0.02438176  0.66069505  0.63956747  1
  O  O7  1  0.75199819  0.85704691  0.95580576  1
  O  O8  1  0.38954478  0.85768906  0.45581499  1
  O  O9  1  0.68485143  0.33978839  0.85941793  1
  O  O10  1  0.31395792  0.66091987  0.14021593  1
  O  O11  1  0.16894294  0.00049949  0.75294924  1
  O  O12  1  0.60812021  0.14459418  0.54332309  1
  O  O13  1  0.24619867  0.14476839  0.04363829  1
  O  O14  1  0.97294750  0.33994855  0.35817033  1
  O  O15  1  0.82855201  0.00184356  0.25267467  1
