# generated using pymatgen
data_Li2Cu(Si2O5)2
_symmetry_space_group_name_H-M   'P 1'
_cell_length_a   9.62374750
_cell_length_b   7.37537167
_cell_length_c   6.88746997
_cell_angle_alpha   63.15829083
_cell_angle_beta   76.98756468
_cell_angle_gamma   100.56448419
_symmetry_Int_Tables_number   1
_chemical_formula_structural   Li2Cu(Si2O5)2
_chemical_formula_sum   'Li4 Cu2 Si8 O20'
_cell_volume   401.50303056
_cell_formula_units_Z   2
loop_
 _symmetry_equiv_pos_site_id
 _symmetry_equiv_pos_as_xyz
  1  'x, y, z'
loop_
 _atom_site_type_symbol
 _atom_site_label
 _atom_site_symmetry_multiplicity
 _atom_site_fract_x
 _atom_site_fract_y
 _atom_site_fract_z
 _atom_site_occupancy
  Li  Li0  1  0.02437634  0.25873921  0.63094809  1
  Li  Li1  1  0.56566403  0.70129699  0.78159311  1
  Li  Li2  1  0.43433597  0.29870301  0.21840689  1
  Li  Li3  1  0.97562366  0.74126079  0.36905191  1
  Cu  Cu4  1  0.43008066  0.29544783  0.76023909  1
  Cu  Cu5  1  0.56991934  0.70455217  0.23976091  1
  Si  Si6  1  0.18475073  0.96423314  0.76077650  1
  Si  Si7  1  0.26416740  0.66692947  0.59618379  1
  Si  Si8  1  0.23894243  0.61264711  0.19834949  1
  Si  Si9  1  0.14829063  0.27807406  0.09794989  1
  Si  Si10  1  0.85170937  0.72192594  0.90205011  1
  Si  Si11  1  0.76105757  0.38735289  0.80165051  1
  Si  Si12  1  0.73583260  0.33307053  0.40381621  1
  Si  Si13  1  0.81524927  0.03576686  0.23922350  1
  O  O14  1  0.00313927  0.93409215  0.78921110  1
  O  O15  1  0.14827332  0.47455711  0.85680342  1
  O  O16  1  0.25852257  0.89816200  0.57278812  1
  O  O17  1  0.17373793  0.62998839  0.43064553  1
  O  O18  1  0.18725456  0.79716104  0.01542909  1
  O  O19  1  0.12647461  0.37032697  0.28076327  1
  O  O20  1  0.43584653  0.66734659  0.53221261  1
  O  O21  1  0.25808405  0.21268876  0.67211904  1
  O  O22  1  0.69928178  0.78095517  0.93029455  1
  O  O23  1  0.58729944  0.37282462  0.88414669  1
  O  O24  1  0.41270056  0.62717538  0.11585331  1
  O  O25  1  0.30071822  0.21904483  0.06970545  1
  O  O26  1  0.74191595  0.78731124  0.32788096  1
  O  O27  1  0.56415347  0.33265341  0.46778739  1
  O  O28  1  0.87352539  0.62967303  0.71923673  1
  O  O29  1  0.81274544  0.20283896  0.98457091  1
  O  O30  1  0.82626207  0.37001161  0.56935447  1
  O  O31  1  0.74147743  0.10183800  0.42721188  1
  O  O32  1  0.85172668  0.52544289  0.14319658  1
  O  O33  1  0.99686073  0.06590785  0.21078890  1
