# generated using pymatgen
data_LiSiBiO4
_symmetry_space_group_name_H-M   'P 1'
_cell_length_a   10.57509785
_cell_length_b   14.87735639
_cell_length_c   5.35538977
_cell_angle_alpha   90.00000000
_cell_angle_beta   90.00000000
_cell_angle_gamma   90.00000000
_symmetry_Int_Tables_number   1
_chemical_formula_structural   LiSiBiO4
_chemical_formula_sum   'Li8 Si8 Bi8 O32'
_cell_volume   842.56079254
_cell_formula_units_Z   8
loop_
 _symmetry_equiv_pos_site_id
 _symmetry_equiv_pos_as_xyz
  1  'x, y, z'
loop_
 _atom_site_type_symbol
 _atom_site_label
 _atom_site_symmetry_multiplicity
 _atom_site_fract_x
 _atom_site_fract_y
 _atom_site_fract_z
 _atom_site_occupancy
  Li  Li0  1  0.02841195  0.75198144  0.05195797  1
  Li  Li1  1  0.21233245  0.00303700  0.54872443  1
  Li  Li2  1  0.28766755  0.50303700  0.54872443  1
  Li  Li3  1  0.47158805  0.25198144  0.05195797  1
  Li  Li4  1  0.52841195  0.75198144  0.94804203  1
  Li  Li5  1  0.71233245  0.00303700  0.45127557  1
  Li  Li6  1  0.78766755  0.50303700  0.45127557  1
  Li  Li7  1  0.97158805  0.25198144  0.94804203  1
  Si  Si8  1  0.03420728  0.37482169  0.44376943  1
  Si  Si9  1  0.21556908  0.12832522  0.06895801  1
  Si  Si10  1  0.28443092  0.62832522  0.06895801  1
  Si  Si11  1  0.46579272  0.87482169  0.44376943  1
  Si  Si12  1  0.53420728  0.37482169  0.55623057  1
  Si  Si13  1  0.71556908  0.12832522  0.93104199  1
  Si  Si14  1  0.78443092  0.62832522  0.93104199  1
  Si  Si15  1  0.96579272  0.87482169  0.55623057  1
  Bi  Bi16  1  0.03210811  0.50138781  0.94077170  1
  Bi  Bi17  1  0.21222831  0.75155608  0.55648036  1
  Bi  Bi18  1  0.28777169  0.25155608  0.55648036  1
  Bi  Bi19  1  0.46789189  0.00138781  0.94077170  1
  Bi  Bi20  1  0.53210811  0.50138781  0.05922830  1
  Bi  Bi21  1  0.71222831  0.75155608  0.44351964  1
  Bi  Bi22  1  0.78777169  0.25155608  0.44351964  1
  Bi  Bi23  1  0.96789189  0.00138781  0.05922830  1
  O  O24  1  0.00955695  0.86384738  0.84744201  1
  O  O25  1  0.96629402  0.46738295  0.55942897  1
  O  O26  1  0.01650359  0.78334474  0.40890910  1
  O  O27  1  0.06123999  0.13731876  0.03298304  1
  O  O28  1  0.18686812  0.38718628  0.49194252  1
  O  O29  1  0.23887416  0.53931825  0.90422560  1
  O  O30  1  0.28887597  0.22020810  0.97192082  1
  O  O31  1  0.25219305  0.11588529  0.36593331  1
  O  O32  1  0.24780695  0.61588529  0.36593331  1
  O  O33  1  0.21112403  0.72020810  0.97192082  1
  O  O34  1  0.26112584  0.03931825  0.90422560  1
  O  O35  1  0.31313188  0.88718628  0.49194252  1
  O  O36  1  0.43876001  0.63731876  0.03298304  1
  O  O37  1  0.48349641  0.28334474  0.40890910  1
  O  O38  1  0.53370598  0.96738295  0.55942897  1
  O  O39  1  0.49044305  0.36384738  0.84744201  1
  O  O40  1  0.50955695  0.86384738  0.15255799  1
  O  O41  1  0.46629402  0.46738295  0.44057103  1
  O  O42  1  0.51650359  0.78334474  0.59109090  1
  O  O43  1  0.56123999  0.13731876  0.96701696  1
  O  O44  1  0.68686812  0.38718628  0.50805748  1
  O  O45  1  0.73887416  0.53931825  0.09577440  1
  O  O46  1  0.78887597  0.22020810  0.02807918  1
  O  O47  1  0.75219305  0.11588529  0.63406669  1
  O  O48  1  0.74780695  0.61588529  0.63406669  1
  O  O49  1  0.71112403  0.72020810  0.02807918  1
  O  O50  1  0.76112584  0.03931825  0.09577440  1
  O  O51  1  0.81313188  0.88718628  0.50805748  1
  O  O52  1  0.93876001  0.63731876  0.96701696  1
  O  O53  1  0.98349641  0.28334474  0.59109090  1
  O  O54  1  0.03370598  0.96738295  0.44057103  1
  O  O55  1  0.99044305  0.36384738  0.15255799  1
