# generated using pymatgen
data_LiSn(PO3)4
_symmetry_space_group_name_H-M   'P 1'
_cell_length_a   9.65812367
_cell_length_b   13.09495725
_cell_length_c   7.18278647
_cell_angle_alpha   90.00000000
_cell_angle_beta   91.01189110
_cell_angle_gamma   90.00000000
_symmetry_Int_Tables_number   1
_chemical_formula_structural   LiSn(PO3)4
_chemical_formula_sum   'Li4 Sn4 P16 O48'
_cell_volume   908.28484958
_cell_formula_units_Z   4
loop_
 _symmetry_equiv_pos_site_id
 _symmetry_equiv_pos_as_xyz
  1  'x, y, z'
loop_
 _atom_site_type_symbol
 _atom_site_label
 _atom_site_symmetry_multiplicity
 _atom_site_fract_x
 _atom_site_fract_y
 _atom_site_fract_z
 _atom_site_occupancy
  Li  Li0  1  0.05760470  0.78154709  0.48764927  1
  Li  Li1  1  0.44239530  0.28154709  0.01235073  1
  Li  Li2  1  0.55760470  0.71845291  0.98764927  1
  Li  Li3  1  0.94239530  0.21845291  0.51235073  1
  Sn  Sn4  1  0.02093570  0.21758640  0.98957694  1
  Sn  Sn5  1  0.47906430  0.71758640  0.51042306  1
  Sn  Sn6  1  0.52093570  0.28241360  0.48957694  1
  Sn  Sn7  1  0.97906430  0.78241360  0.01042306  1
  P  P8  1  0.19239288  0.37066681  0.35604667  1
  P  P9  1  0.19989008  0.59229366  0.27667858  1
  P  P10  1  0.23307033  0.11615193  0.61816009  1
  P  P11  1  0.23918664  0.89696788  0.74336852  1
  P  P12  1  0.26081336  0.39696788  0.75663148  1
  P  P13  1  0.26692967  0.61615193  0.88183991  1
  P  P14  1  0.30010992  0.09229366  0.22332142  1
  P  P15  1  0.30760712  0.87066681  0.14395333  1
  P  P16  1  0.69239288  0.12933319  0.85604667  1
  P  P17  1  0.69989008  0.90770634  0.77667858  1
  P  P18  1  0.73307033  0.38384807  0.11816009  1
  P  P19  1  0.73918664  0.60303212  0.24336852  1
  P  P20  1  0.76081336  0.10303212  0.25663148  1
  P  P21  1  0.76692967  0.88384807  0.38183991  1
  P  P22  1  0.80010992  0.40770634  0.72332142  1
  P  P23  1  0.80760712  0.62933319  0.64395333  1
  O  O24  1  0.08225987  0.66647110  0.25468989  1
  O  O25  1  0.08555971  0.89038179  0.77896645  1
  O  O26  1  0.09271914  0.14916542  0.68640070  1
  O  O27  1  0.09775357  0.28668124  0.28980516  1
  O  O28  1  0.13124385  0.47908198  0.28633221  1
  O  O29  1  0.15101127  0.69138800  0.86546923  1
  O  O30  1  0.15427545  0.86641523  0.18163046  1
  O  O31  1  0.16688402  0.37372383  0.57643562  1
  O  O32  1  0.21206048  0.33221656  0.91717417  1
  O  O33  1  0.21194034  0.51316329  0.78756073  1
  O  O34  1  0.20711596  0.08217460  0.40556025  1
  O  O35  1  0.20275666  0.10930907  0.05939742  1
  O  O36  1  0.29724334  0.60930907  0.44060258  1
  O  O37  1  0.28805966  0.01316329  0.71243927  1
  O  O38  1  0.29288404  0.58217460  0.09443975  1
  O  O39  1  0.28793952  0.83221656  0.58282583  1
  O  O40  1  0.33311598  0.87372383  0.92356438  1
  O  O41  1  0.34572455  0.36641523  0.31836954  1
  O  O42  1  0.34898873  0.19138800  0.63453077  1
  O  O43  1  0.36875615  0.97908198  0.21366779  1
  O  O44  1  0.40728086  0.64916542  0.81359930  1
  O  O45  1  0.40224643  0.78668124  0.21019484  1
  O  O46  1  0.41444029  0.39038179  0.72103355  1
  O  O47  1  0.41774013  0.16647110  0.24531011  1
  O  O48  1  0.58225987  0.83352890  0.75468989  1
  O  O49  1  0.58555971  0.60961821  0.27896645  1
  O  O50  1  0.59775357  0.21331876  0.78980516  1
  O  O51  1  0.59271914  0.35083458  0.18640070  1
  O  O52  1  0.63124385  0.02091802  0.78633221  1
  O  O53  1  0.65101127  0.80861200  0.36546923  1
  O  O54  1  0.65427545  0.63358477  0.68163046  1
  O  O55  1  0.66688402  0.12627617  0.07643562  1
  O  O56  1  0.71206048  0.16778344  0.41717417  1
  O  O57  1  0.70711596  0.41782540  0.90556025  1
  O  O58  1  0.71194034  0.98683671  0.28756073  1
  O  O59  1  0.70275666  0.39069093  0.55939742  1
  O  O60  1  0.79724334  0.89069093  0.94060258  1
  O  O61  1  0.79288404  0.91782540  0.59443975  1
  O  O62  1  0.78805966  0.48683671  0.21243927  1
  O  O63  1  0.78793952  0.66778344  0.08282583  1
  O  O64  1  0.83311598  0.62627617  0.42356438  1
  O  O65  1  0.84572455  0.13358477  0.81836954  1
  O  O66  1  0.84898873  0.30861200  0.13453077  1
  O  O67  1  0.86875615  0.52091802  0.71366779  1
  O  O68  1  0.90224643  0.71331876  0.71019484  1
  O  O69  1  0.90728086  0.85083458  0.31359930  1
  O  O70  1  0.91444029  0.10961821  0.22103355  1
  O  O71  1  0.91774013  0.33352890  0.74531011  1
