# generated using pymatgen
data_Li2Cu2Si5O13
_symmetry_space_group_name_H-M   'P 1'
_cell_length_a   7.61286735
_cell_length_b   7.85429735
_cell_length_c   9.66428140
_cell_angle_alpha   83.02759852
_cell_angle_beta   68.74701587
_cell_angle_gamma   67.83764164
_symmetry_Int_Tables_number   1
_chemical_formula_structural   Li2Cu2Si5O13
_chemical_formula_sum   'Li4 Cu4 Si10 O26'
_cell_volume   498.69368839
_cell_formula_units_Z   2
loop_
 _symmetry_equiv_pos_site_id
 _symmetry_equiv_pos_as_xyz
  1  'x, y, z'
loop_
 _atom_site_type_symbol
 _atom_site_label
 _atom_site_symmetry_multiplicity
 _atom_site_fract_x
 _atom_site_fract_y
 _atom_site_fract_z
 _atom_site_occupancy
  Li  Li0  1  0.21448789  0.06764989  0.86360928  1
  Li  Li1  1  0.15370656  0.40192152  0.73958870  1
  Li  Li2  1  0.84629344  0.59807848  0.26041130  1
  Li  Li3  1  0.78551211  0.93235011  0.13639072  1
  Cu  Cu4  1  0.04738074  0.14751437  0.59842232  1
  Cu  Cu5  1  0.44041727  0.84454724  0.40916690  1
  Cu  Cu6  1  0.55958273  0.15545276  0.59083310  1
  Cu  Cu7  1  0.95261926  0.85248563  0.40157768  1
  Si  Si8  1  0.17478575  0.21952428  0.26072848  1
  Si  Si9  1  0.20523216  0.69168825  0.05160024  1
  Si  Si10  1  0.31164309  0.46091938  0.40289668  1
  Si  Si11  1  0.24412569  0.75593154  0.73407693  1
  Si  Si12  1  0.61506192  0.70956260  0.05230633  1
  Si  Si13  1  0.38493808  0.29043740  0.94769367  1
  Si  Si14  1  0.75587431  0.24406846  0.26592307  1
  Si  Si15  1  0.68835691  0.53908062  0.59710332  1
  Si  Si16  1  0.79476784  0.30831175  0.94839976  1
  Si  Si17  1  0.82521425  0.78047572  0.73927152  1
  O  O18  1  0.00576678  0.77431811  0.19439733  1
  O  O19  1  0.19802922  0.05525663  0.37958168  1
  O  O20  1  0.32429026  0.15362029  0.08771856  1
  O  O21  1  0.21570715  0.39502651  0.29883533  1
  O  O22  1  0.05675259  0.69265317  0.74701523  1
  O  O23  1  0.40426999  0.68345319  0.07868322  1
  O  O24  1  0.19283691  0.67950593  0.43387840  1
  O  O25  1  0.31621438  0.32301842  0.54308362  1
  O  O26  1  0.55346503  0.42774315  0.30523596  1
  O  O27  1  0.38006550  0.21110909  0.80361439  1
  O  O28  1  0.21015222  0.49764142  0.99899927  1
  O  O29  1  0.27600750  0.92406767  0.62341252  1
  O  O30  1  0.19393195  0.82894795  0.90500341  1
  O  O31  1  0.80606805  0.17105205  0.09499659  1
  O  O32  1  0.72399250  0.07593233  0.37658748  1
  O  O33  1  0.78984778  0.50235858  0.00100073  1
  O  O34  1  0.61993450  0.78889091  0.19638561  1
  O  O35  1  0.44653497  0.57225685  0.69476404  1
  O  O36  1  0.68378562  0.67698158  0.45691638  1
  O  O37  1  0.80716309  0.32049407  0.56612160  1
  O  O38  1  0.59573001  0.31654681  0.92131678  1
  O  O39  1  0.94324741  0.30734683  0.25298477  1
  O  O40  1  0.78429285  0.60497349  0.70116467  1
  O  O41  1  0.67570974  0.84637971  0.91228144  1
  O  O42  1  0.80197078  0.94474337  0.62041832  1
  O  O43  1  0.99423322  0.22568189  0.80560267  1
