# generated using pymatgen
data_LiCu2F5
_symmetry_space_group_name_H-M   'P 1'
_cell_length_a   6.38680644
_cell_length_b   6.40808012
_cell_length_c   6.19663334
_cell_angle_alpha   71.64729465
_cell_angle_beta   107.92356586
_cell_angle_gamma   72.93475664
_symmetry_Int_Tables_number   1
_chemical_formula_structural   LiCu2F5
_chemical_formula_sum   'Li2 Cu4 F10'
_cell_volume   206.52683536
_cell_formula_units_Z   2
loop_
 _symmetry_equiv_pos_site_id
 _symmetry_equiv_pos_as_xyz
  1  'x, y, z'
loop_
 _atom_site_type_symbol
 _atom_site_label
 _atom_site_symmetry_multiplicity
 _atom_site_fract_x
 _atom_site_fract_y
 _atom_site_fract_z
 _atom_site_occupancy
  Li  Li0  1  0.36536702  0.86456479  0.75130481  1
  Li  Li1  1  0.63455670  0.13530302  0.24876560  1
  Cu  Cu2  1  0.00000237  0.49999946  0.50001858  1
  Cu  Cu3  1  0.00001529  0.00000618  0.00000078  1
  Cu  Cu4  1  0.00002442  0.50001554  0.99996048  1
  Cu  Cu5  1  0.50001794  0.49998193  0.50003985  1
  F  F6  1  0.05438283  0.77799415  0.85461785  1
  F  F7  1  0.17215846  0.16506608  0.73021201  1
  F  F8  1  0.27722447  0.55420397  0.64605462  1
  F  F9  1  0.33480616  0.32800337  0.23075395  1
  F  F10  1  0.66745473  0.16795544  0.75087900  1
  F  F11  1  0.33250771  0.83192663  0.24917366  1
  F  F12  1  0.66514938  0.67207260  0.76917948  1
  F  F13  1  0.72278080  0.44582133  0.35407709  1
  F  F14  1  0.82783864  0.83498590  0.26976209  1
  F  F15  1  0.94571308  0.22209862  0.14520316  1
