# generated using pymatgen
data_TeH14C2(NO2)4
_symmetry_space_group_name_H-M   'P 1'
_cell_length_a   8.75772723
_cell_length_b   8.75772723
_cell_length_c   9.04316255
_cell_angle_alpha   81.66782297
_cell_angle_beta   68.32916429
_cell_angle_gamma   117.97302372
_symmetry_Int_Tables_number   1
_chemical_formula_structural   TeH14C2(NO2)4
_chemical_formula_sum   'Te2 H28 C4 N8 O16'
_cell_volume   524.76150919
_cell_formula_units_Z   2
loop_
 _symmetry_equiv_pos_site_id
 _symmetry_equiv_pos_as_xyz
  1  'x, y, z'
loop_
 _atom_site_type_symbol
 _atom_site_label
 _atom_site_symmetry_multiplicity
 _atom_site_fract_x
 _atom_site_fract_y
 _atom_site_fract_z
 _atom_site_occupancy
  Te  Te0  1  0.18377485  0.43377485  0.25000000  1
  Te  Te1  1  0.81622515  0.56622515  0.75000000  1
  H  H2  1  0.25740135  0.97138861  0.41087059  1
  H  H3  1  0.12843307  0.66921057  0.33710655  1
  H  H4  1  0.10725186  0.68396459  0.80217570  1
  H  H5  1  0.54794710  0.88807470  0.10238855  1
  H  H6  1  0.48272088  0.89719433  0.68133933  1
  H  H7  1  0.33900054  0.68982589  0.55335404  1
  H  H8  1  0.29506773  0.65240591  0.96639615  1
  H  H9  1  0.49046325  0.65033565  0.39761145  1
  H  H10  1  0.11880206  0.26146389  0.53360385  1
  H  H11  1  0.11774080  0.33172806  0.91087059  1
  H  H12  1  0.01385970  0.09057144  0.30217570  1
  H  H13  1  0.74317993  0.89235458  0.94664596  1
  H  H14  1  0.07853367  0.16406121  0.81866067  1
  H  H15  1  0.50631712  0.46553962  0.16289345  1
  H  H16  1  0.49368288  0.53446038  0.83710655  1
  H  H17  1  0.92146633  0.83593879  0.18133933  1
  H  H18  1  0.25682007  0.10764542  0.05335404  1
  H  H19  1  0.98614030  0.90942856  0.69782430  1
  H  H20  1  0.88225920  0.66827194  0.08912941  1
  H  H21  1  0.88119794  0.73853611  0.46639615  1
  H  H22  1  0.50953675  0.34966435  0.60238855  1
  H  H23  1  0.70493227  0.34759409  0.03360385  1
  H  H24  1  0.66099946  0.31017411  0.44664596  1
  H  H25  1  0.51727912  0.10280567  0.31866067  1
  H  H26  1  0.45205290  0.11192530  0.89761145  1
  H  H27  1  0.89274814  0.31603541  0.19782430  1
  H  H28  1  0.87156693  0.33078943  0.66289345  1
  H  H29  1  0.74259865  0.02861139  0.58912941  1
  C  C30  1  0.17552010  0.87633099  0.98683333  1
  C  C31  1  0.63683568  0.83764657  0.48683333  1
  C  C32  1  0.36316432  0.16235343  0.51316667  1
  C  C33  1  0.82447990  0.12366901  0.01316667  1
  N  N34  1  0.69575047  0.96065118  0.01323344  1
  N  N35  1  0.61795925  0.92855366  0.59293206  1
  N  N36  1  0.47388461  0.70898291  0.48676656  1
  N  N37  1  0.02148672  0.21089130  0.90706794  1
  N  N38  1  0.97851328  0.78910870  0.09293206  1
  N  N39  1  0.52611539  0.29101709  0.51323344  1
  N  N40  1  0.38204075  0.07144634  0.40706794  1
  N  N41  1  0.30424953  0.03934882  0.98676656  1
  O  O42  1  0.07327002  0.62866945  0.71901912  1
  O  O43  1  0.23915197  0.80298096  0.88746957  1
  O  O44  1  0.24933243  0.67494254  0.26206897  1
  O  O45  1  0.31286801  0.54921861  0.99611031  1
  O  O46  1  0.04532893  0.30897832  0.50388969  1
  O  O47  1  0.43701151  0.51140139  0.23793103  1
  O  O48  1  0.15231043  0.20770986  0.21901912  1
  O  O49  1  0.80954947  0.87337746  0.38746957  1
  O  O50  1  0.19045053  0.12662254  0.61253043  1
  O  O51  1  0.84768957  0.79229014  0.78098088  1
  O  O52  1  0.56298849  0.48859861  0.76206897  1
  O  O53  1  0.95467107  0.69102168  0.49611031  1
  O  O54  1  0.68713199  0.45078139  0.00388969  1
  O  O55  1  0.75066757  0.32505746  0.73793103  1
  O  O56  1  0.76084803  0.19701904  0.11253043  1
  O  O57  1  0.92672998  0.37133055  0.28098088  1
