# generated using pymatgen
data_Li3CuF4
_symmetry_space_group_name_H-M   'P 1'
_cell_length_a   2.88003789
_cell_length_b   2.88010430
_cell_length_c   20.45220019
_cell_angle_alpha   90.02135794
_cell_angle_beta   90.04881023
_cell_angle_gamma   60.00514512
_symmetry_Int_Tables_number   1
_chemical_formula_structural   Li3CuF4
_chemical_formula_sum   'Li6 Cu2 F8'
_cell_volume   146.92626541
_cell_formula_units_Z   2
loop_
 _symmetry_equiv_pos_site_id
 _symmetry_equiv_pos_as_xyz
  1  'x, y, z'
loop_
 _atom_site_type_symbol
 _atom_site_label
 _atom_site_symmetry_multiplicity
 _atom_site_fract_x
 _atom_site_fract_y
 _atom_site_fract_z
 _atom_site_occupancy
  Li  Li0  1  0.00000811  0.99996055  0.99995965  1
  Li  Li1  1  0.00007545  0.00003710  0.50004673  1
  Li  Li2  1  0.33322843  0.33364084  0.38412579  1
  Li  Li3  1  0.33363205  0.33347370  0.11592261  1
  Li  Li4  1  0.66618007  0.66638448  0.88401743  1
  Li  Li5  1  0.66699015  0.66660418  0.61594090  1
  Cu  Cu6  1  0.33259223  0.33149097  0.74999475  1
  Cu  Cu7  1  0.66729591  0.66838165  0.25000058  1
  F  F8  1  0.00092642  0.00018774  0.67169161  1
  F  F9  1  0.33308522  0.33316935  0.94192232  1
  F  F10  1  0.33355189  0.33333214  0.55806014  1
  F  F11  1  0.00060764  0.99981577  0.17171139  1
  F  F12  1  0.99891778  0.99988151  0.82825020  1
  F  F13  1  0.66663769  0.66686521  0.44201344  1
  F  F14  1  0.99937893  0.00031506  0.32833620  1
  F  F15  1  0.66689303  0.66676074  0.05800727  1
