# generated using pymatgen
data_LiCuPO4
_symmetry_space_group_name_H-M   'P 1'
_cell_length_a   7.43573019
_cell_length_b   7.65962331
_cell_length_c   9.47296087
_cell_angle_alpha   92.96185941
_cell_angle_beta   88.47498349
_cell_angle_gamma   121.00115045
_symmetry_Int_Tables_number   1
_chemical_formula_structural   LiCuPO4
_chemical_formula_sum   'Li6 Cu6 P6 O24'
_cell_volume   461.84536976
_cell_formula_units_Z   6
loop_
 _symmetry_equiv_pos_site_id
 _symmetry_equiv_pos_as_xyz
  1  'x, y, z'
loop_
 _atom_site_type_symbol
 _atom_site_label
 _atom_site_symmetry_multiplicity
 _atom_site_fract_x
 _atom_site_fract_y
 _atom_site_fract_z
 _atom_site_occupancy
  Li  Li0  1  0.20187549  0.95122261  0.25079277  1
  Li  Li1  1  0.05201502  0.25785325  0.25830333  1
  Li  Li2  1  0.25972834  0.04139755  0.74915294  1
  Li  Li3  1  0.74027166  0.78166921  0.24915294  1
  Li  Li4  1  0.79812451  0.74934712  0.75079277  1
  Li  Li5  1  0.94798498  0.20583723  0.75830333  1
  Cu  Cu6  1  0.05039557  0.60094356  0.46593654  1
  Cu  Cu7  1  0.57144753  0.97942063  0.45821058  1
  Cu  Cu8  1  0.41904426  0.47517430  0.48091420  1
  Cu  Cu9  1  0.42855247  0.40797410  0.95821058  1
  Cu  Cu10  1  0.58095574  0.05613003  0.98091420  1
  Cu  Cu11  1  0.94960443  0.55054799  0.96593654  1
  P  P12  1  0.32536570  0.66730978  0.17284408  1
  P  P13  1  0.99849036  -0.00015308  0.00350749  1
  P  P14  1  0.00150964  0.00135655  0.50350749  1
  P  P15  1  0.34093430  0.66269041  0.77298344  1
  P  P16  1  0.67463430  0.34194408  0.67284408  1
  P  P17  1  0.65906570  0.32175612  0.27298344  1
  O  O18  1  0.09817183  0.87634458  0.44108476  1
  O  O19  1  0.15444862  0.70794613  0.12084770  1
  O  O20  1  0.39076604  0.87996634  0.82130976  1
  O  O21  1  0.12381116  0.49517627  0.82735790  1
  O  O22  1  0.27997672  0.45248429  0.12293009  1
  O  O23  1  0.31891084  0.67506034  0.34177971  1
  O  O24  1  0.99824373  0.00253560  0.16563282  1
  O  O25  1  0.00175627  0.00429288  0.66563282  1
  O  O26  1  0.33974970  0.64541242  0.60754554  1
  O  O27  1  0.12312780  0.21794056  0.44508571  1
  O  O28  1  0.54617284  0.83380300  0.12813241  1
  O  O29  1  0.23102644  0.11942974  0.94785702  1
  O  O30  1  0.51333989  0.62656181  0.82768120  1
  O  O31  1  0.76897356  0.88840330  0.44785702  1
  O  O32  1  0.45382716  0.28763016  0.62813241  1
  O  O33  1  0.48666011  0.11322092  0.32768120  1
  O  O34  1  0.60923396  0.48920031  0.32130976  1
  O  O35  1  0.84555138  0.55349751  0.62084770  1
  O  O36  1  0.68108916  0.35615050  0.84177971  1
  O  O37  1  0.66025030  0.30566272  0.10754554  1
  O  O38  1  0.90182817  0.77817275  0.94108476  1
  O  O39  1  0.72002328  0.17250757  0.62293009  1
  O  O40  1  0.87618884  0.37136611  0.32735790  1
  O  O41  1  0.87687120  0.09481176  0.94508571  1
