# generated using pymatgen
data_Li3Sn2(PO4)3
_symmetry_space_group_name_H-M   'P 1'
_cell_length_a   9.35433618
_cell_length_b   9.35866482
_cell_length_c   16.29934003
_cell_angle_alpha   77.68297718
_cell_angle_beta   86.99900627
_cell_angle_gamma   122.41563169
_symmetry_Int_Tables_number   1
_chemical_formula_structural   Li3Sn2(PO4)3
_chemical_formula_sum   'Li12 Sn8 P12 O48'
_cell_volume   1152.55442830
_cell_formula_units_Z   4
loop_
 _symmetry_equiv_pos_site_id
 _symmetry_equiv_pos_as_xyz
  1  'x, y, z'
loop_
 _atom_site_type_symbol
 _atom_site_label
 _atom_site_symmetry_multiplicity
 _atom_site_fract_x
 _atom_site_fract_y
 _atom_site_fract_z
 _atom_site_occupancy
  Li  Li0  1  0.12416114  0.67713232  0.34187525  1
  Li  Li1  1  0.90194205  0.23489039  0.96488018  1
  Li  Li2  1  0.18232114  0.42843797  0.24991883  1
  Li  Li3  1  0.70037253  0.86600530  0.53401898  1
  Li  Li4  1  0.53093773  0.47800185  0.15582163  1
  Li  Li5  1  0.49728892  0.49190880  0.49953192  1
  Li  Li6  1  0.47252983  0.52522250  0.84416854  1
  Li  Li7  1  0.29981872  0.13110094  0.46399451  1
  Li  Li8  1  0.81780580  0.56896451  0.74968601  1
  Li  Li9  1  0.09860528  0.76469076  0.03385138  1
  Li  Li10  1  0.86733441  0.31618719  0.65608637  1
  Li  Li11  1  0.49800407  0.00272138  0.00398648  1
  Sn  Sn12  1  0.26390545  0.71615006  0.52932522  1
  Sn  Sn13  1  0.29198758  0.77578843  0.83589056  1
  Sn  Sn14  1  0.11236224  0.12793016  0.66340891  1
  Sn  Sn15  1  0.74504423  0.79213801  0.96948965  1
  Sn  Sn16  1  0.25326339  0.20684914  0.02969606  1
  Sn  Sn17  1  0.88802764  0.87259288  0.33619546  1
  Sn  Sn18  1  0.70823709  0.22420312  0.16317299  1
  Sn  Sn19  1  0.73840651  0.28468283  0.47039216  1
  P  P20  1  0.59214869  0.95296441  0.38138947  1
  P  P21  1  0.31777309  0.55424269  0.67667456  1
  P  P22  1  0.32949854  0.58777677  0.04796222  1
  P  P23  1  0.13743545  0.37838376  0.45103325  1
  P  P24  1  0.73063186  0.99396349  0.82249788  1
  P  P25  1  0.83296654  0.97262340  0.11794146  1
  P  P26  1  0.16606107  0.02634853  0.88187317  1
  P  P27  1  0.26880598  0.00543362  0.17634680  1
  P  P28  1  0.86405278  0.62193601  0.54847176  1
  P  P29  1  0.66970762  0.41118343  0.95160088  1
  P  P30  1  0.68393713  0.44644313  0.32310762  1
  P  P31  1  0.40982493  0.04938671  0.61790633  1
  O  O32  1  0.14933012  0.87870899  0.26165161  1
  O  O33  1  0.18362376  0.94582455  0.09675800  1
  O  O34  1  0.29634454  0.97680271  0.89735639  1
  O  O35  1  0.32178429  0.95036674  0.54888479  1
  O  O36  1  0.04400653  0.68321490  0.49166077  1
  O  O37  1  0.32787877  0.91892490  0.70626048  1
  O  O38  1  0.39299021  0.86892991  0.40374399  1
  O  O39  1  0.14689881  0.54169998  0.65522940  1
  O  O40  1  0.19566456  0.63017726  0.03348906  1
  O  O41  1  0.55662703  0.97551409  0.82939366  1
  O  O42  1  0.32228887  0.50732096  0.14168858  1
  O  O43  1  0.36010585  0.59018760  0.76162244  1
  O  O44  1  0.27522631  0.52130397  0.49101496  1
  O  O45  1  0.45723100  0.71790774  0.59692407  1
  O  O46  1  0.51227759  0.76530213  0.00733100  1
  O  O47  1  0.62713533  0.80731929  0.39650173  1
  O  O48  1  0.14834884  0.46237697  0.35730563  1
  O  O49  1  0.00025592  0.13039759  0.04891153  1
  O  O50  1  0.30524602  0.38698046  0.66950569  1
  O  O51  1  0.32374274  0.46383184  0.99130017  1
  O  O52  1  0.87647938  0.96632066  0.20629452  1
  O  O53  1  0.16753733  0.23115515  0.46522408  1
  O  O54  1  0.77149105  0.79576389  0.09552636  1
  O  O55  1  0.69579072  0.80149023  0.84364529  1
  O  O56  1  0.30316967  0.19758237  0.15545800  1
  O  O57  1  0.22715347  0.20354510  0.90386622  1
  O  O58  1  0.83701872  0.77098587  0.53447218  1
  O  O59  1  0.12303797  0.03307714  0.79322644  1
  O  O60  1  0.67560073  0.53495806  0.00840177  1
  O  O61  1  0.69458807  0.61280737  0.33050601  1
  O  O62  1  0.99808180  0.86890062  0.95058058  1
  O  O63  1  0.84988118  0.53480184  0.64206921  1
  O  O64  1  0.37644191  0.19603623  0.60217197  1
  O  O65  1  0.48618689  0.23394605  0.99187303  1
  O  O66  1  0.54474299  0.28228924  0.40269774  1
  O  O67  1  0.72654579  0.48047611  0.50745300  1
  O  O68  1  0.64267278  0.41095207  0.23785994  1
  O  O69  1  0.67839537  0.49317611  0.85791674  1
  O  O70  1  0.44310600  0.02432593  0.16771734  1
  O  O71  1  0.80139605  0.36601486  0.96622427  1
  O  O72  1  0.85517692  0.46020559  0.34445993  1
  O  O73  1  0.60957306  0.13312832  0.59610599  1
  O  O74  1  0.67356426  0.08353086  0.29291215  1
  O  O75  1  0.95724500  0.31545934  0.50827477  1
  O  O76  1  0.68066055  0.05143973  0.45047093  1
  O  O77  1  0.70172426  0.02165052  0.10314691  1
  O  O78  1  0.81492323  0.05310563  0.90224822  1
  O  O79  1  0.85162537  0.12104003  0.73741296  1
