# generated using pymatgen
data_LiCuCO3
_symmetry_space_group_name_H-M   'P 1'
_cell_length_a   14.37378025
_cell_length_b   14.37116480
_cell_length_c   3.05134228
_cell_angle_alpha   89.32054631
_cell_angle_beta   90.44400690
_cell_angle_gamma   119.95902505
_symmetry_Int_Tables_number   1
_chemical_formula_structural   LiCuCO3
_chemical_formula_sum   'Li9 Cu9 C9 O27'
_cell_volume   546.04972583
_cell_formula_units_Z   9
loop_
 _symmetry_equiv_pos_site_id
 _symmetry_equiv_pos_as_xyz
  1  'x, y, z'
loop_
 _atom_site_type_symbol
 _atom_site_label
 _atom_site_symmetry_multiplicity
 _atom_site_fract_x
 _atom_site_fract_y
 _atom_site_fract_z
 _atom_site_occupancy
  Li  Li0  1  0.09447721  0.88135449  0.51196568  1
  Li  Li1  1  0.11737050  0.56424439  0.48244154  1
  Li  Li2  1  0.44646163  0.88170423  0.55613039  1
  Li  Li3  1  0.11794500  0.21302397  0.51091597  1
  Li  Li4  1  0.43482003  0.55367288  0.45497304  1
  Li  Li5  1  0.45614583  0.25417222  0.50331894  1
  Li  Li6  1  0.78695327  0.90569330  0.49083932  1
  Li  Li7  1  0.79753514  0.54369041  0.48834338  1
  Li  Li8  1  0.74508648  0.20189228  0.50371994  1
  Cu  Cu9  1  0.23246099  0.79122107  0.06488335  1
  Cu  Cu10  1  0.20762082  0.44130171  0.01028256  1
  Cu  Cu11  1  0.22957483  0.11567171  0.01922729  1
  Cu  Cu12  1  0.55820167  0.76756599  0.93974058  1
  Cu  Cu13  1  0.56667206  0.46428096  0.96736056  1
  Cu  Cu14  1  0.53530383  0.10280707  0.03851142  1
  Cu  Cu15  1  0.88532700  0.77031301  0.98459178  1
  Cu  Cu16  1  0.89624685  0.43249478  0.98045041  1
  Cu  Cu17  1  0.88399994  0.11394177  0.00522699  1
  C  C18  1  0.00801843  0.66336752  0.00132889  1
  C  C19  1  0.33284283  0.66672787  0.99764745  1
  C  C20  1  0.33584699  0.34487548  0.98992536  1
  C  C21  1  0.65479092  0.99157292  0.00956238  1
  C  C22  1  0.33260050  0.01211022  0.52703115  1
  C  C23  1  0.67876157  0.66704997  0.46759367  1
  C  C24  1  0.66600762  0.33305393  0.99749981  1
  C  C25  1  0.99970542  0.99985825  0.00358507  1
  C  C26  1  0.98685006  0.32027864  0.50520801  1
  O  O27  1  0.01719825  0.91932113  0.00136201  1
  O  O28  1  0.02735998  0.58402852  0.97952964  1
  O  O29  1  0.08671784  0.76185085  0.06057192  1
  O  O30  1  0.33291223  0.92229968  0.55756891  1
  O  O31  1  0.07678789  0.41046825  0.50353912  1
  O  O32  1  0.23357094  0.58849972  0.00751506  1
  O  O33  1  0.35485212  0.76526757  0.05200747  1
  O  O34  1  0.08050364  0.09766233  0.01751106  1
  O  O35  1  0.55636292  0.97203268  0.04396770  1
  O  O36  1  0.23687422  0.32443095  0.04176564  1
  O  O37  1  0.41048672  0.64654184  0.93751932  1
  O  O38  1  0.67455200  0.91324601  0.93655055  1
  O  O39  1  0.35421961  0.26524434  0.96718750  1
  O  O40  1  0.41506076  0.44378620  0.96658634  1
  O  O41  1  0.24139307  0.01191834  0.51087118  1
  O  O42  1  0.58876656  0.66718421  0.45070607  1
  O  O43  1  0.67912625  0.57608921  0.47400329  1
  O  O44  1  0.42358064  0.10325539  0.51558673  1
  O  O45  1  0.90147430  0.98245120  0.99656763  1
  O  O46  1  0.76966433  0.75832483  0.47589024  1
  O  O47  1  0.57204555  0.32579634  0.00235238  1
  O  O48  1  0.67339808  0.24635108  0.00113309  1
  O  O49  1  0.75257895  0.42716558  0.98948141  1
  O  O50  1  0.91007739  0.64501287  0.96635712  1
  O  O51  1  0.73427467  0.08931324  0.04491729  1
  O  O52  1  0.89575244  0.32018854  0.49758089  1
  O  O53  1  0.98725222  0.22923705  0.51488654  1
