# generated using pymatgen
data_LiSn(PO3)4
_symmetry_space_group_name_H-M   'P 1'
_cell_length_a   10.34686376
_cell_length_b   9.08742350
_cell_length_c   10.46595293
_cell_angle_alpha   90.00000000
_cell_angle_beta   104.52206911
_cell_angle_gamma   90.00000000
_symmetry_Int_Tables_number   1
_chemical_formula_structural   LiSn(PO3)4
_chemical_formula_sum   'Li4 Sn4 P16 O48'
_cell_volume   952.63508137
_cell_formula_units_Z   4
loop_
 _symmetry_equiv_pos_site_id
 _symmetry_equiv_pos_as_xyz
  1  'x, y, z'
loop_
 _atom_site_type_symbol
 _atom_site_label
 _atom_site_symmetry_multiplicity
 _atom_site_fract_x
 _atom_site_fract_y
 _atom_site_fract_z
 _atom_site_occupancy
  Li  Li0  1  0.31820662  0.94360617  0.99425940  1
  Li  Li1  1  0.18179338  0.44360617  0.50574060  1
  Li  Li2  1  0.81820662  0.55639383  0.49425940  1
  Li  Li3  1  0.68179338  0.05639383  0.00574060  1
  Sn  Sn4  1  0.99638956  0.78756404  0.30952539  1
  Sn  Sn5  1  0.49638956  0.71243596  0.80952539  1
  Sn  Sn6  1  0.50361044  0.28756404  0.19047461  1
  Sn  Sn7  1  0.00361044  0.21243596  0.69047461  1
  P  P8  1  0.18053973  0.38720015  0.98257432  1
  P  P9  1  0.15520470  0.59689763  0.75636028  1
  P  P10  1  0.04140765  0.17131905  0.35589978  1
  P  P11  1  0.34479530  0.09689763  0.74363972  1
  P  P12  1  0.31946027  0.88720015  0.51742568  1
  P  P13  1  0.24235436  0.01071711  0.25330941  1
  P  P14  1  0.25764564  0.51071711  0.24669059  1
  P  P15  1  0.54140665  0.32868095  0.85589978  1
  P  P16  1  0.45859335  0.67131905  0.14410022  1
  P  P17  1  0.74235436  0.48928289  0.75330941  1
  P  P18  1  0.75764564  0.98928289  0.74669059  1
  P  P19  1  0.68053973  0.11279985  0.48257432  1
  P  P20  1  0.65520470  0.90310237  0.25636028  1
  P  P21  1  0.95859335  0.82868095  0.64410022  1
  P  P22  1  0.84479530  0.40310237  0.24363972  1
  P  P23  1  0.81946027  0.61279985  0.01742568  1
  O  O24  1  0.06690007  0.28959155  0.91554946  1
  O  O25  1  0.03285167  0.71005444  0.75145729  1
  O  O26  1  0.03760511  0.96969891  0.66256834  1
  O  O27  1  0.17335106  0.54181356  0.90393564  1
  O  O28  1  0.11285756  0.47411561  0.65808750  1
  O  O29  1  0.08163656  0.24596206  0.48892980  1
  O  O30  1  0.22567793  0.18540297  0.75649045  1
  O  O31  1  0.17769242  0.83183059  0.48591298  1
  O  O32  1  0.27432207  0.68540297  0.74350955  1
  O  O33  1  0.18005550  0.56105804  0.34228199  1
  O  O34  1  0.13426438  0.89838280  0.19994893  1
  O  O35  1  0.17818543  0.15174857  0.30916292  1
  O  O36  1  0.15046611  0.45028688  0.11721156  1
  O  O37  1  0.38714244  0.97411561  0.84191250  1
  O  O38  1  0.32664894  0.04181356  0.59606436  1
  O  O39  1  0.46239489  0.46969891  0.83743166  1
  O  O40  1  0.34953389  0.95028688  0.38278844  1
  O  O41  1  0.46714833  0.21005444  0.74854271  1
  O  O42  1  0.43309993  0.78959155  0.58445054  1
  O  O43  1  0.32181457  0.65174857  0.19083708  1
  O  O44  1  0.58163656  0.25403794  0.98892980  1
  O  O45  1  0.36573562  0.39838280  0.30005107  1
  O  O46  1  0.31994450  0.06105804  0.15771801  1
  O  O47  1  0.32230758  0.33183059  0.01408702  1
  O  O48  1  0.67769242  0.66816941  0.98591298  1
  O  O49  1  0.68005550  0.93894196  0.84228199  1
  O  O50  1  0.63426438  0.60161720  0.69994893  1
  O  O51  1  0.41836344  0.74596206  0.01107020  1
  O  O52  1  0.67818543  0.34825143  0.80916292  1
  O  O53  1  0.56690007  0.21040845  0.41554946  1
  O  O54  1  0.53285167  0.78994556  0.25145729  1
  O  O55  1  0.65046611  0.04971312  0.61721156  1
  O  O56  1  0.53760511  0.53030109  0.16256834  1
  O  O57  1  0.67335106  0.95818644  0.40393564  1
  O  O58  1  0.61285756  0.02588439  0.15808750  1
  O  O59  1  0.84953389  0.54971312  0.88278844  1
  O  O60  1  0.82181457  0.84825143  0.69083708  1
  O  O61  1  0.86573562  0.10161720  0.80005107  1
  O  O62  1  0.81994450  0.43894196  0.65771801  1
  O  O63  1  0.72567793  0.31459703  0.25649045  1
  O  O64  1  0.82230758  0.16816941  0.51408702  1
  O  O65  1  0.77432207  0.81459703  0.24350955  1
  O  O66  1  0.91836344  0.75403794  0.51107020  1
  O  O67  1  0.88714244  0.52588439  0.34191250  1
  O  O68  1  0.82664894  0.45818644  0.09606436  1
  O  O69  1  0.96239489  0.03030109  0.33743166  1
  O  O70  1  0.96714833  0.28994556  0.24854271  1
  O  O71  1  0.93309993  0.71040845  0.08445054  1
