# generated using pymatgen
data_Li5Sn(P2O7)2
_symmetry_space_group_name_H-M   'P 1'
_cell_length_a   8.68764068
_cell_length_b   9.72956028
_cell_length_c   7.16271084
_cell_angle_alpha   77.77776405
_cell_angle_beta   110.72092694
_cell_angle_gamma   102.91131421
_symmetry_Int_Tables_number   1
_chemical_formula_structural   Li5Sn(P2O7)2
_chemical_formula_sum   'Li10 Sn2 P8 O28'
_cell_volume   546.08791096
_cell_formula_units_Z   2
loop_
 _symmetry_equiv_pos_site_id
 _symmetry_equiv_pos_as_xyz
  1  'x, y, z'
loop_
 _atom_site_type_symbol
 _atom_site_label
 _atom_site_symmetry_multiplicity
 _atom_site_fract_x
 _atom_site_fract_y
 _atom_site_fract_z
 _atom_site_occupancy
  Li  Li0  1  0.18758108  0.72378970  0.66776959  1
  Li  Li1  1  0.25987252  0.42855623  0.71908212  1
  Li  Li2  1  0.26916637  0.90629975  0.24944404  1
  Li  Li3  1  0.49766338  0.85757915  0.96007179  1
  Li  Li4  1  0.48446995  0.64806081  0.57553346  1
  Li  Li5  1  0.51553005  0.35193919  0.42446654  1
  Li  Li6  1  0.50233662  0.14242085  0.03992821  1
  Li  Li7  1  0.73083363  0.09370025  0.75055596  1
  Li  Li8  1  0.74012748  0.57144377  0.28091788  1
  Li  Li9  1  0.81241892  0.27621030  0.33223041  1
  Sn  Sn10  1  0.13456676  0.23827314  0.13388184  1
  Sn  Sn11  1  0.86543324  0.76172686  0.86611816  1
  P  P12  1  0.12911517  0.03085278  0.83215619  1
  P  P13  1  0.10187981  0.54209880  0.30392905  1
  P  P14  1  0.34523231  0.05482867  0.59286680  1
  P  P15  1  0.36721143  0.57029427  0.11762738  1
  P  P16  1  0.63278857  0.42970573  0.88237262  1
  P  P17  1  0.65476769  0.94517133  0.40713320  1
  P  P18  1  0.89812019  0.45790120  0.69607095  1
  P  P19  1  0.87088483  0.96914722  0.16784381  1
  O  O20  1  0.05132949  0.38266321  0.78742846  1
  O  O21  1  0.15341011  0.87331749  0.90378555  1
  O  O22  1  0.04985527  0.95205192  0.21719510  1
  O  O23  1  0.05594968  0.37758831  0.31642953  1
  O  O24  1  0.25447445  0.12610231  0.99029854  1
  O  O25  1  0.22412195  0.58952868  0.50339915  1
  O  O26  1  0.18045191  0.08463829  0.63069532  1
  O  O27  1  0.36779507  0.65742226  0.91586960  1
  O  O28  1  0.31293917  0.90334326  0.54733192  1
  O  O29  1  0.19959069  0.60037855  0.14185713  1
  O  O30  1  0.35165758  0.17188327  0.40980242  1
  O  O31  1  0.34220839  0.40601020  0.12231563  1
  O  O32  1  0.49658227  0.07641201  0.78361925  1
  O  O33  1  0.47985653  0.39334413  0.70070606  1
  O  O34  1  0.52014347  0.60665587  0.29929394  1
  O  O35  1  0.50341773  0.92358799  0.21638075  1
  O  O36  1  0.65779161  0.59398980  0.87768437  1
  O  O37  1  0.64834242  0.82811673  0.59019758  1
  O  O38  1  0.80040931  0.39962145  0.85814287  1
  O  O39  1  0.68706083  0.09665674  0.45266808  1
  O  O40  1  0.63220493  0.34257774  0.08413040  1
  O  O41  1  0.81954809  0.91536171  0.36930468  1
  O  O42  1  0.77587805  0.41047132  0.49660085  1
  O  O43  1  0.74552555  0.87389769  0.00970146  1
  O  O44  1  0.94405032  0.62241169  0.68357047  1
  O  O45  1  0.95014473  0.04794808  0.78280490  1
  O  O46  1  0.84658989  0.12668251  0.09621445  1
  O  O47  1  0.94867051  0.61733679  0.21257154  1
