# generated using pymatgen
data_Li3HfO3
_symmetry_space_group_name_H-M   'P 1'
_cell_length_a   9.59988502
_cell_length_b   9.59988502
_cell_length_c   3.45527594
_cell_angle_alpha   90.00000000
_cell_angle_beta   90.00000000
_cell_angle_gamma   90.00000000
_symmetry_Int_Tables_number   1
_chemical_formula_structural   Li3HfO3
_chemical_formula_sum   'Li12 Hf4 O12'
_cell_volume   318.43060275
_cell_formula_units_Z   4
loop_
 _symmetry_equiv_pos_site_id
 _symmetry_equiv_pos_as_xyz
  1  'x, y, z'
loop_
 _atom_site_type_symbol
 _atom_site_label
 _atom_site_symmetry_multiplicity
 _atom_site_fract_x
 _atom_site_fract_y
 _atom_site_fract_z
 _atom_site_occupancy
  Li  Li0  1  0.08636805  0.35649348  0.50000000  1
  Li  Li1  1  0.14350652  0.58636805  0.00000000  1
  Li  Li2  1  0.17358879  0.17358879  0.00000000  1
  Li  Li3  1  0.32641121  0.67358879  0.50000000  1
  Li  Li4  1  0.35649348  0.08636805  0.50000000  1
  Li  Li5  1  0.41363195  0.85649348  0.00000000  1
  Li  Li6  1  0.58636805  0.14350652  0.00000000  1
  Li  Li7  1  0.64350652  0.91363195  0.50000000  1
  Li  Li8  1  0.67358879  0.32641121  0.50000000  1
  Li  Li9  1  0.82641121  0.82641121  0.00000000  1
  Li  Li10  1  0.85649348  0.41363195  0.00000000  1
  Li  Li11  1  0.91363195  0.64350652  0.50000000  1
  Hf  Hf12  1  0.11930841  0.88069159  0.50000000  1
  Hf  Hf13  1  0.38069159  0.38069159  0.00000000  1
  Hf  Hf14  1  0.61930841  0.61930841  0.00000000  1
  Hf  Hf15  1  0.88069159  0.11930841  0.50000000  1
  O  O16  1  0.10247362  0.10247362  0.50000000  1
  O  O17  1  0.11471324  0.67282929  0.50000000  1
  O  O18  1  0.17282929  0.38528676  0.00000000  1
  O  O19  1  0.32717071  0.88528676  0.50000000  1
  O  O20  1  0.38528676  0.17282929  0.00000000  1
  O  O21  1  0.39752638  0.60247362  0.00000000  1
  O  O22  1  0.60247362  0.39752638  0.00000000  1
  O  O23  1  0.61471324  0.82717071  0.00000000  1
  O  O24  1  0.67282929  0.11471324  0.50000000  1
  O  O25  1  0.82717071  0.61471324  0.00000000  1
  O  O26  1  0.88528676  0.32717071  0.50000000  1
  O  O27  1  0.89752638  0.89752638  0.50000000  1
