# generated using pymatgen
data_Bi11PO20
_symmetry_space_group_name_H-M   'P 1'
_cell_length_a   8.97081036
_cell_length_b   8.81050021
_cell_length_c   8.95354833
_cell_angle_alpha   107.71382403
_cell_angle_beta   109.78217142
_cell_angle_gamma   110.49122716
_symmetry_Int_Tables_number   1
_chemical_formula_structural   Bi11PO20
_chemical_formula_sum   'Bi11 P1 O20'
_cell_volume   547.34894367
_cell_formula_units_Z   1
loop_
 _symmetry_equiv_pos_site_id
 _symmetry_equiv_pos_as_xyz
  1  'x, y, z'
loop_
 _atom_site_type_symbol
 _atom_site_label
 _atom_site_symmetry_multiplicity
 _atom_site_fract_x
 _atom_site_fract_y
 _atom_site_fract_z
 _atom_site_occupancy
  Bi  Bi0  1  0.49481508  0.29835710  0.14439690  1
  Bi  Bi1  1  0.86060836  0.72024119  0.21437705  1
  Bi  Bi2  1  0.28769687  0.15912952  0.49830896  1
  Bi  Bi3  1  0.70822679  0.21213805  0.85842287  1
  Bi  Bi4  1  0.78574914  0.47393379  0.62512313  1
  Bi  Bi5  1  0.14889881  0.49131253  0.30305917  1
  Bi  Bi6  1  0.66695874  0.80860474  0.48972521  1
  Bi  Bi7  1  0.37427891  0.85159578  0.15082376  1
  Bi  Bi8  1  0.52176425  0.66571144  0.80267091  1
  Bi  Bi9  1  0.12593933  0.34035950  0.82399668  1
  Bi  Bi10  1  0.20395493  0.85063358  0.69873365  1
  P  P11  1  0.00265402  0.00282419  0.99422166  1
  O  O12  1  0.81325639  0.98810452  0.95896310  1
  O  O13  1  0.41213277  0.00304433  0.99647983  1
  O  O14  1  0.74220659  0.37129782  0.11651134  1
  O  O15  1  0.84587490  0.24004204  0.65056024  1
  O  O16  1  0.57110673  0.24374366  0.36504109  1
  O  O17  1  0.16360024  0.18446847  0.16740582  1
  O  O18  1  0.75309734  0.62573941  0.37907246  1
  O  O19  1  0.00961035  0.40758361  0.01406883  1
  O  O20  1  0.01109213  0.99359014  0.44400763  1
  O  O21  1  0.64019750  0.39077067  0.75810637  1
  O  O22  1  0.37023280  0.11675075  0.73833968  1
  O  O23  1  0.62496769  0.83726639  0.22807193  1
  O  O24  1  0.37861396  0.62168454  0.27437104  1
  O  O25  1  0.60155859  0.60290564  0.59841499  1
  O  O26  1  0.26423003  0.38771495  0.63086044  1
  O  O27  1  0.00332799  0.83358273  0.01689358  1
  O  O28  1  0.02410352  0.99878172  0.82631179  1
  O  O29  1  0.11607832  0.73625797  0.36506850  1
  O  O30  1  0.39252454  0.76799927  0.64635389  1
  O  O31  1  0.23703239  0.62981895  0.88032049  1
