# generated using pymatgen
data_Li4Ti15O32
_symmetry_space_group_name_H-M   'P 1'
_cell_length_a   5.97799115
_cell_length_b   5.97799130
_cell_length_c   19.68046295
_cell_angle_alpha   81.26432346
_cell_angle_beta   98.73567562
_cell_angle_gamma   119.99999914
_symmetry_Int_Tables_number   1
_chemical_formula_structural   Li4Ti15O32
_chemical_formula_sum   'Li4 Ti15 O32'
_cell_volume   599.64363632
_cell_formula_units_Z   1
loop_
 _symmetry_equiv_pos_site_id
 _symmetry_equiv_pos_as_xyz
  1  'x, y, z'
loop_
 _atom_site_type_symbol
 _atom_site_label
 _atom_site_symmetry_multiplicity
 _atom_site_fract_x
 _atom_site_fract_y
 _atom_site_fract_z
 _atom_site_occupancy
  Li  Li0  1  0.18805259  0.81194741  0.56415876  1
  Li  Li1  1  0.24947449  0.75052551  0.74842348  1
  Li  Li2  1  0.43796969  0.56203031  0.31390907  1
  Li  Li3  1  0.49948614  0.50051386  0.49845741  1
  Ti  Ti4  1  0.09497183  0.90502817  0.28491649  1
  Ti  Ti5  1  0.20478728  0.27688129  0.65102471  1
  Ti  Ti6  1  0.47044890  0.52955110  0.90612836  1
  Ti  Ti7  1  0.21699606  0.78300394  0.15627591  1
  Ti  Ti8  1  0.21699606  0.27771520  0.15627591  1
  Ti  Ti9  1  0.34373435  0.65626565  0.03120405  1
  Ti  Ti10  1  0.47044890  0.03476944  0.90612836  1
  Ti  Ti11  1  0.59252889  0.40747111  0.77758668  1
  Ti  Ti12  1  0.72311871  0.79521272  0.65102471  1
  Ti  Ti13  1  0.72228480  0.78300394  0.15627591  1
  Ti  Ti14  1  0.96523056  0.52955110  0.90612836  1
  Ti  Ti15  1  0.72311871  0.27688129  0.65102471  1
  Ti  Ti16  1  0.48272407  0.03559296  0.41153716  1
  Ti  Ti17  1  0.96440704  0.51727593  0.41153716  1
  Ti  Ti18  1  0.96440704  0.03559296  0.41153716  1
  O  O19  1  0.02911966  0.97088034  0.60543090  1
  O  O20  1  0.17641801  0.82358199  0.96427778  1
  O  O21  1  0.15356928  0.84643072  0.46070883  1
  O  O22  1  0.03484904  0.96515096  0.10454812  1
  O  O23  1  0.02911966  0.45280842  0.60543090  1
  O  O24  1  0.17641801  0.38855825  0.96427778  1
  O  O25  1  0.28394518  0.71605482  0.85183454  1
  O  O26  1  0.61144175  0.82358199  0.96427778  1
  O  O27  1  0.26205711  0.73794289  0.34566055  1
  O  O28  1  0.14030674  0.34158322  0.45713930  1
  O  O29  1  0.54719158  0.97088034  0.60543090  1
  O  O30  1  0.07619775  0.48902367  0.09814942  1
  O  O31  1  0.32354979  0.23746275  0.84862428  1
  O  O32  1  0.42542776  0.57457224  0.71685481  1
  O  O33  1  0.53395035  0.46604965  0.60185006  1
  O  O34  1  0.40354336  0.59645664  0.21063007  1
  O  O35  1  0.65257741  0.34742259  0.95773222  1
  O  O36  1  0.26205711  0.17845366  0.34566055  1
  O  O37  1  0.51097633  0.92380225  0.09814942  1
  O  O38  1  0.65841678  0.85969326  0.45713930  1
  O  O39  1  0.76253725  0.67645021  0.84862428  1
  O  O40  1  0.42542776  0.13399971  0.71685481  1
  O  O41  1  0.86599929  0.57457224  0.71685481  1
  O  O42  1  0.76253725  0.23746275  0.84862428  1
  O  O43  1  0.51097633  0.48902367  0.09814942  1
  O  O44  1  0.36381701  0.07502072  0.21377557  1
  O  O45  1  0.65841678  0.34158322  0.45713930  1
  O  O46  1  0.82154634  0.73794289  0.34566055  1
  O  O47  1  0.92497928  0.63618299  0.21377557  1
  O  O48  1  0.90197461  0.09802539  0.70592383  1
  O  O49  1  0.78554705  0.21445295  0.35664215  1
  O  O50  1  0.92497928  0.07502072  0.21377557  1
