# generated using pymatgen
data_Li8TeO6
_symmetry_space_group_name_H-M   'P 1'
_cell_length_a   5.61448526
_cell_length_b   6.23287435
_cell_length_c   5.59353033
_cell_angle_alpha   116.92985723
_cell_angle_beta   119.79728116
_cell_angle_gamma   63.26628888
_symmetry_Int_Tables_number   1
_chemical_formula_structural   Li8TeO6
_chemical_formula_sum   'Li8 Te1 O6'
_cell_volume   144.91058154
_cell_formula_units_Z   1
loop_
 _symmetry_equiv_pos_site_id
 _symmetry_equiv_pos_as_xyz
  1  'x, y, z'
loop_
 _atom_site_type_symbol
 _atom_site_label
 _atom_site_symmetry_multiplicity
 _atom_site_fract_x
 _atom_site_fract_y
 _atom_site_fract_z
 _atom_site_occupancy
  Li  Li0  1  0.22925588  0.36263118  0.49026337  1
  Li  Li1  1  0.10327065  0.63694247  0.22997378  1
  Li  Li2  1  0.48965933  0.63369557  0.89584422  1
  Li  Li3  1  0.35374867  0.95816207  0.66167715  1
  Li  Li4  1  0.64625133  0.04183793  0.33832285  1
  Li  Li5  1  0.51034067  0.36630443  0.10415578  1
  Li  Li6  1  0.89672935  0.36305753  0.77002622  1
  Li  Li7  1  0.77074412  0.63736882  0.50973663  1
  Te  Te8  1  0.00000000  0.00000000  0.00000000  1
  O  O9  1  0.09876818  0.74592219  0.60633244  1
  O  O10  1  0.24140505  0.24930851  0.09293056  1
  O  O11  1  0.60540164  0.24987058  0.75879913  1
  O  O12  1  0.39459836  0.75012942  0.24120087  1
  O  O13  1  0.75859495  0.75069149  0.90706944  1
  O  O14  1  0.90123182  0.25407781  0.39366756  1
