# generated using pymatgen
data_LiCu(PO3)2
_symmetry_space_group_name_H-M   'P 1'
_cell_length_a   14.20953266
_cell_length_b   5.27506182
_cell_length_c   14.46321031
_cell_angle_alpha   90.00000000
_cell_angle_beta   106.74292059
_cell_angle_gamma   90.00000000
_symmetry_Int_Tables_number   1
_chemical_formula_structural   LiCu(PO3)2
_chemical_formula_sum   'Li8 Cu8 P16 O48'
_cell_volume   1038.14817417
_cell_formula_units_Z   8
loop_
 _symmetry_equiv_pos_site_id
 _symmetry_equiv_pos_as_xyz
  1  'x, y, z'
loop_
 _atom_site_type_symbol
 _atom_site_label
 _atom_site_symmetry_multiplicity
 _atom_site_fract_x
 _atom_site_fract_y
 _atom_site_fract_z
 _atom_site_occupancy
  Li  Li0  1  0.15394894  0.21863315  0.91620119  1
  Li  Li1  1  0.16186529  0.85701715  0.37945376  1
  Li  Li2  1  0.33813471  0.35701715  0.62054624  1
  Li  Li3  1  0.34605106  0.71863315  0.08379881  1
  Li  Li4  1  0.65394894  0.28136685  0.91620119  1
  Li  Li5  1  0.66186529  0.64298285  0.37945376  1
  Li  Li6  1  0.83813471  0.14298285  0.62054624  1
  Li  Li7  1  0.84605106  0.78136685  0.08379881  1
  Cu  Cu8  1  0.11303509  0.31325314  0.55300149  1
  Cu  Cu9  1  0.09861898  0.67380035  0.05369795  1
  Cu  Cu10  1  0.40138102  0.17380035  0.94630205  1
  Cu  Cu11  1  0.38696491  0.81325314  0.44699851  1
  Cu  Cu12  1  0.61303509  0.18674686  0.55300149  1
  Cu  Cu13  1  0.59861898  0.82619965  0.05369795  1
  Cu  Cu14  1  0.90138102  0.32619965  0.94630205  1
  Cu  Cu15  1  0.88696491  0.68674686  0.44699851  1
  P  P16  1  0.00642519  0.71706350  0.64158895  1
  P  P17  1  0.00027805  0.26332380  0.14887347  1
  P  P18  1  0.21343172  0.82536273  0.65875658  1
  P  P19  1  0.29735015  0.65856739  0.86328573  1
  P  P20  1  0.20264985  0.15856739  0.13671427  1
  P  P21  1  0.28656828  0.32536273  0.34124342  1
  P  P22  1  0.49972195  0.76332380  0.85112653  1
  P  P23  1  0.50642519  0.78293650  0.64158895  1
  P  P24  1  0.49357481  0.21706350  0.35841105  1
  P  P25  1  0.50027805  0.23667620  0.14887347  1
  P  P26  1  0.71343172  0.67463727  0.65875658  1
  P  P27  1  0.79735015  0.84143261  0.86328573  1
  P  P28  1  0.70264985  0.34143261  0.13671427  1
  P  P29  1  0.78656828  0.17463727  0.34124342  1
  P  P30  1  0.99972195  0.73667620  0.85112653  1
  P  P31  1  0.99357481  0.28293650  0.35841105  1
  O  O32  1  0.07875998  0.87646125  0.92757518  1
  O  O33  1  0.02167074  0.80339766  0.75189321  1
  O  O34  1  0.02080046  0.43681352  0.63497277  1
  O  O35  1  0.09618313  0.87985379  0.62345411  1
  O  O36  1  0.08623221  0.15602898  0.42006115  1
  O  O37  1  0.01292378  0.54379755  0.13710891  1
  O  O38  1  0.23240958  0.82580536  0.77484106  1
  O  O39  1  0.25310549  0.40340601  0.86781775  1
  O  O40  1  0.26209819  0.05007044  0.63019609  1
  O  O41  1  0.22919580  0.56485520  0.62422963  1
  O  O42  1  0.10311383  0.11080363  0.16823862  1
  O  O43  1  0.31875873  0.83162625  0.95011557  1
  O  O44  1  0.18124127  0.33162625  0.04988443  1
  O  O45  1  0.39688617  0.61080363  0.83176138  1
  O  O46  1  0.27080420  0.06485520  0.37577037  1
  O  O47  1  0.23790181  0.55007044  0.36980391  1
  O  O48  1  0.24689451  0.90340601  0.13218225  1
  O  O49  1  0.26759042  0.32580536  0.22515894  1
  O  O50  1  0.48707622  0.04379755  0.86289109  1
  O  O51  1  0.41376779  0.65602898  0.57993885  1
  O  O52  1  0.57875998  0.62353875  0.92757518  1
  O  O53  1  0.40381687  0.37985379  0.37654589  1
  O  O54  1  0.52167074  0.69660234  0.75189321  1
  O  O55  1  0.47919954  0.93681352  0.36502723  1
  O  O56  1  0.52080046  0.06318648  0.63497277  1
  O  O57  1  0.47832926  0.30339766  0.24810679  1
  O  O58  1  0.59618313  0.62014621  0.62345411  1
  O  O59  1  0.42124002  0.37646125  0.07242482  1
  O  O60  1  0.58623221  0.34397102  0.42006115  1
  O  O61  1  0.51292378  0.95620245  0.13710891  1
  O  O62  1  0.73240958  0.67419464  0.77484106  1
  O  O63  1  0.75310549  0.09659399  0.86781775  1
  O  O64  1  0.76209819  0.44992956  0.63019609  1
  O  O65  1  0.72919580  0.93514480  0.62422963  1
  O  O66  1  0.60311383  0.38919637  0.16823862  1
  O  O67  1  0.81875873  0.66837375  0.95011557  1
  O  O68  1  0.68124127  0.16837375  0.04988443  1
  O  O69  1  0.89688617  0.88919637  0.83176138  1
  O  O70  1  0.77080420  0.43514480  0.37577037  1
  O  O71  1  0.73790181  0.94992956  0.36980391  1
  O  O72  1  0.74689451  0.59659399  0.13218225  1
  O  O73  1  0.76759042  0.17419464  0.22515894  1
  O  O74  1  0.98707622  0.45620245  0.86289109  1
  O  O75  1  0.91376779  0.84397102  0.57993885  1
  O  O76  1  0.90381687  0.12014621  0.37654589  1
  O  O77  1  0.97919954  0.56318648  0.36502723  1
  O  O78  1  0.97832926  0.19660234  0.24810679  1
  O  O79  1  0.92124002  0.12353875  0.07242482  1
