# generated using pymatgen
data_Li3Bi(PO4)2
_symmetry_space_group_name_H-M   'P 1'
_cell_length_a   9.09629651
_cell_length_b   9.22096921
_cell_length_c   9.06647785
_cell_angle_alpha   89.67934050
_cell_angle_beta   112.46249403
_cell_angle_gamma   91.03223454
_symmetry_Int_Tables_number   1
_chemical_formula_structural   Li3Bi(PO4)2
_chemical_formula_sum   'Li12 Bi4 P8 O32'
_cell_volume   702.65456855
_cell_formula_units_Z   4
loop_
 _symmetry_equiv_pos_site_id
 _symmetry_equiv_pos_as_xyz
  1  'x, y, z'
loop_
 _atom_site_type_symbol
 _atom_site_label
 _atom_site_symmetry_multiplicity
 _atom_site_fract_x
 _atom_site_fract_y
 _atom_site_fract_z
 _atom_site_occupancy
  Li  Li0  1  0.37614725  0.77310064  0.89002243  1
  Li  Li1  1  0.13193439  0.28238645  0.59330458  1
  Li  Li2  1  0.06384378  0.43264791  0.13974755  1
  Li  Li3  1  0.59352514  0.76690831  0.61415636  1
  Li  Li4  1  0.05836169  0.77310689  0.11321782  1
  Li  Li5  1  0.40486078  0.24683329  0.40511180  1
  Li  Li6  1  0.91719791  0.23664292  0.88026003  1
  Li  Li7  1  0.94659154  0.55637561  0.86063836  1
  Li  Li8  1  0.11908775  0.02982077  0.04173843  1
  Li  Li9  1  0.88074137  0.69299942  0.42307391  1
  Li  Li10  1  0.59687147  0.22044648  0.10872342  1
  Li  Li11  1  0.68769294  0.90874099  0.08830628  1
  Bi  Bi12  1  0.22992287  0.89248191  0.49420367  1
  Bi  Bi13  1  0.49430390  0.43662119  0.74796775  1
  Bi  Bi14  1  0.50266202  0.59352125  0.23659874  1
  Bi  Bi15  1  0.78250425  0.10466338  0.50915828  1
  P  P16  1  0.03756239  0.91216756  0.74445071  1
  P  P17  1  0.27091838  0.41663706  0.95961428  1
  P  P18  1  0.23871136  0.56837962  0.43131362  1
  P  P19  1  0.57194865  0.07701269  0.76250929  1
  P  P20  1  0.44254221  0.92166207  0.24876658  1
  P  P21  1  0.75954462  0.42289564  0.56351847  1
  P  P22  1  0.73608577  0.59720483  0.03436011  1
  P  P23  1  0.96791702  0.09515201  0.24899010  1
  O  O24  1  0.03793127  0.85220681  0.90289810  1
  O  O25  1  0.09650385  0.40263933  0.94480717  1
  O  O26  1  0.19462095  0.86090264  0.72497543  1
  O  O27  1  0.28520366  0.35009662  0.80763769  1
  O  O28  1  0.08802662  0.64201684  0.43305672  1
  O  O29  1  0.59248217  0.07492657  0.93742044  1
  O  O30  1  0.95196159  0.92737360  0.21818057  1
  O  O31  1  0.66460932  0.43749023  0.02082965  1
  O  O32  1  0.62832525  0.68179799  0.88403315  1
  O  O33  1  0.10466026  0.11852468  0.42183234  1
  O  O34  1  0.49141234  0.93382033  0.67105481  1
  O  O35  1  0.25683859  0.40588208  0.47942432  1
  O  O36  1  0.38422796  0.65322211  0.55787696  1
  O  O37  1  0.46050880  0.20079908  0.66381897  1
  O  O38  1  0.24187905  0.58381598  0.26112342  1
  O  O39  1  0.73763905  0.09769633  0.74984503  1
  O  O40  1  0.26329155  0.92396991  0.22354821  1
  O  O41  1  0.76683270  0.43083114  0.73861578  1
  O  O42  1  0.53176671  0.81155781  0.38492568  1
  O  O43  1  0.61252627  0.32965370  0.45941907  1
  O  O44  1  0.74086683  0.57780930  0.49425466  1
  O  O45  1  0.51429232  0.07571742  0.29953293  1
  O  O46  1  0.89351766  0.85958150  0.59190956  1
  O  O47  1  0.38919130  0.34620033  0.11399347  1
  O  O48  1  0.32310418  0.58247425  0.96576220  1
  O  O49  1  0.03624021  0.08208291  0.74503212  1
  O  O50  1  0.46501986  0.86144768  0.09943748  1
  O  O51  1  0.90865844  0.34250694  0.56403289  1
  O  O52  1  0.72832571  0.67137403  0.18651003  1
  O  O53  1  0.81008434  0.14902216  0.25877562  1
  O  O54  1  0.91157685  0.59494246  0.05102711  1
  O  O55  1  0.00901491  0.17798034  0.12047480  1
