# generated using pymatgen
data_Li2AgF3
_symmetry_space_group_name_H-M   'P 1'
_cell_length_a   7.19616720
_cell_length_b   2.87380412
_cell_length_c   14.70573268
_cell_angle_alpha   90.00000000
_cell_angle_beta   90.00000000
_cell_angle_gamma   90.00000000
_symmetry_Int_Tables_number   1
_chemical_formula_structural   Li2AgF3
_chemical_formula_sum   'Li8 Ag4 F12'
_cell_volume   304.12006570
_cell_formula_units_Z   4
loop_
 _symmetry_equiv_pos_site_id
 _symmetry_equiv_pos_as_xyz
  1  'x, y, z'
loop_
 _atom_site_type_symbol
 _atom_site_label
 _atom_site_symmetry_multiplicity
 _atom_site_fract_x
 _atom_site_fract_y
 _atom_site_fract_z
 _atom_site_occupancy
  Li  Li0  1  0.05747350  0.75000000  0.33255491  1
  Li  Li1  1  0.15950030  0.25000000  0.50600385  1
  Li  Li2  1  0.34049970  0.75000000  0.00600385  1
  Li  Li3  1  0.44252650  0.25000000  0.83255491  1
  Li  Li4  1  0.55747350  0.75000000  0.16744509  1
  Li  Li5  1  0.65950030  0.25000000  0.99399615  1
  Li  Li6  1  0.84049970  0.75000000  0.49399615  1
  Li  Li7  1  0.94252650  0.25000000  0.66744509  1
  Ag  Ag8  1  0.02694625  0.25000000  0.12439307  1
  Ag  Ag9  1  0.47305375  0.75000000  0.62439307  1
  Ag  Ag10  1  0.52694625  0.25000000  0.37560693  1
  Ag  Ag11  1  0.97305375  0.75000000  0.87560693  1
  F  F12  1  0.03927454  0.75000000  0.58281977  1
  F  F13  1  0.14704547  0.25000000  0.25958875  1
  F  F14  1  0.17714168  0.25000000  0.96469796  1
  F  F15  1  0.32285832  0.75000000  0.46469796  1
  F  F16  1  0.35295453  0.75000000  0.75958875  1
  F  F17  1  0.46072546  0.25000000  0.08281977  1
  F  F18  1  0.53927454  0.75000000  0.91718023  1
  F  F19  1  0.64704547  0.25000000  0.24041125  1
  F  F20  1  0.67714168  0.25000000  0.53530204  1
  F  F21  1  0.82285832  0.75000000  0.03530204  1
  F  F22  1  0.85295453  0.75000000  0.74041125  1
  F  F23  1  0.96072546  0.25000000  0.41718023  1
