# generated using pymatgen
data_LiCuPO4
_symmetry_space_group_name_H-M   'P 1'
_cell_length_a   7.49408834
_cell_length_b   7.49481526
_cell_length_c   9.77944758
_cell_angle_alpha   90.00435767
_cell_angle_beta   89.98767380
_cell_angle_gamma   119.98626645
_symmetry_Int_Tables_number   1
_chemical_formula_structural   LiCuPO4
_chemical_formula_sum   'Li6 Cu6 P6 O24'
_cell_volume   475.75654228
_cell_formula_units_Z   6
loop_
 _symmetry_equiv_pos_site_id
 _symmetry_equiv_pos_as_xyz
  1  'x, y, z'
loop_
 _atom_site_type_symbol
 _atom_site_label
 _atom_site_symmetry_multiplicity
 _atom_site_fract_x
 _atom_site_fract_y
 _atom_site_fract_z
 _atom_site_occupancy
  Li  Li0  1  0.06945500  0.58759658  0.48213738  1
  Li  Li1  1  0.51809625  0.93058343  0.48216101  1
  Li  Li2  1  0.41239596  0.48180860  0.48219359  1
  Li  Li3  1  0.48182625  0.41237561  0.98214690  1
  Li  Li4  1  0.58752000  0.06940851  0.98217071  1
  Li  Li5  1  0.93054586  0.51813890  0.98217255  1
  Cu  Cu6  1  0.22692932  0.95659446  0.27112421  1
  Cu  Cu7  1  0.04350885  0.27021508  0.27107105  1
  Cu  Cu8  1  0.27008522  0.04339178  0.77103852  1
  Cu  Cu9  1  0.72965615  0.77339854  0.27113622  1
  Cu  Cu10  1  0.77342810  0.72970727  0.77109684  1
  Cu  Cu11  1  0.95640207  0.22678311  0.77118760  1
  P  P12  1  0.33335658  0.66668483  0.18155768  1
  P  P13  1  0.99998305  0.99998100  0.00688591  1
  P  P14  1  0.00002666  0.00000592  0.50688684  1
  P  P15  1  0.33336061  0.66665245  0.77008224  1
  P  P16  1  0.66665431  0.33330463  0.68156209  1
  P  P17  1  0.66667110  0.33338612  0.27007274  1
  O  O18  1  0.09810852  0.87321360  0.45619437  1
  O  O19  1  0.24097514  0.79716697  0.12318563  1
  O  O20  1  0.39867314  0.88526166  0.82862891  1
  O  O21  1  0.11468543  0.51339172  0.82864353  1
  O  O22  1  0.20290817  0.44380190  0.12319707  1
  O  O23  1  0.33335485  0.66672132  0.33959380  1
  O  O24  1  0.99994502  0.99998173  0.17274523  1
  O  O25  1  -0.00005389  0.99996333  0.67276431  1
  O  O26  1  0.33337878  0.66669418  0.61247521  1
  O  O27  1  0.12678544  0.22481084  0.45617243  1
  O  O28  1  0.22482412  0.12675202  0.95618771  1
  O  O29  1  0.55625163  0.75900293  0.12316009  1
  O  O30  1  0.48659488  0.60123247  0.82861387  1
  O  O31  1  0.77518090  0.90198562  0.45624225  1
  O  O32  1  0.44380525  0.20285875  0.62318025  1
  O  O33  1  0.51343320  0.11477894  0.32860556  1
  O  O34  1  0.60129252  0.48666987  0.32863803  1
  O  O35  1  0.75908121  0.55616678  0.62317823  1
  O  O36  1  0.66659324  0.33328912  0.83959444  1
  O  O37  1  0.66667240  0.33335894  0.11247169  1
  O  O38  1  0.90191995  0.77517701  0.95616123  1
  O  O39  1  0.79722559  0.24093207  0.62319205  1
  O  O40  1  0.88530214  0.39872163  0.32860035  1
  O  O41  1  0.87316302  0.09804678  0.95622466  1
