# generated using pymatgen
data_LiCu(PO3)2
_symmetry_space_group_name_H-M   'P 1'
_cell_length_a   14.28046551
_cell_length_b   5.18954970
_cell_length_c   14.18580613
_cell_angle_alpha   90.00000000
_cell_angle_beta   105.35073275
_cell_angle_gamma   90.00000000
_symmetry_Int_Tables_number   1
_chemical_formula_structural   LiCu(PO3)2
_chemical_formula_sum   'Li8 Cu8 P16 O48'
_cell_volume   1013.79177286
_cell_formula_units_Z   8
loop_
 _symmetry_equiv_pos_site_id
 _symmetry_equiv_pos_as_xyz
  1  'x, y, z'
loop_
 _atom_site_type_symbol
 _atom_site_label
 _atom_site_symmetry_multiplicity
 _atom_site_fract_x
 _atom_site_fract_y
 _atom_site_fract_z
 _atom_site_occupancy
  Li  Li0  1  0.13318557  0.29592933  0.56521859  1
  Li  Li1  1  0.11761611  0.68864536  0.06336892  1
  Li  Li2  1  0.38238389  0.18864536  0.93663108  1
  Li  Li3  1  0.36681443  0.79592933  0.43478141  1
  Li  Li4  1  0.63318557  0.20407067  0.56521859  1
  Li  Li5  1  0.61761611  0.81135464  0.06336892  1
  Li  Li6  1  0.88238389  0.31135464  0.93663108  1
  Li  Li7  1  0.86681443  0.70407067  0.43478141  1
  Cu  Cu8  1  0.13812054  0.25749447  0.90593682  1
  Cu  Cu9  1  0.14702431  0.85479983  0.38737924  1
  Cu  Cu10  1  0.35297569  0.35479983  0.61262076  1
  Cu  Cu11  1  0.36187946  0.75749447  0.09406318  1
  Cu  Cu12  1  0.63812054  0.24250553  0.90593682  1
  Cu  Cu13  1  0.64702431  0.64520017  0.38737924  1
  Cu  Cu14  1  0.85297569  0.14520017  0.61262076  1
  Cu  Cu15  1  0.86187946  0.74250553  0.09406318  1
  P  P16  1  0.00851577  0.70063700  0.63698596  1
  P  P17  1  0.00354952  0.28949841  0.15134333  1
  P  P18  1  0.20952230  0.83167470  0.65026785  1
  P  P19  1  0.29651212  0.66914893  0.85759192  1
  P  P20  1  0.20348788  0.16914893  0.14240808  1
  P  P21  1  0.29047770  0.33167470  0.34973215  1
  P  P22  1  0.49645048  0.78949841  0.84865667  1
  P  P23  1  0.50851577  0.79936300  0.63698596  1
  P  P24  1  0.49148423  0.20063700  0.36301404  1
  P  P25  1  0.50354952  0.21050159  0.15134333  1
  P  P26  1  0.70952230  0.66832530  0.65026785  1
  P  P27  1  0.79651212  0.83085107  0.85759192  1
  P  P28  1  0.70348788  0.33085107  0.14240808  1
  P  P29  1  0.79047770  0.16832530  0.34973215  1
  P  P30  1  0.99645048  0.71050159  0.84865667  1
  P  P31  1  0.99148423  0.29936300  0.36301404  1
  O  O32  1  0.06628817  0.85492729  0.92969373  1
  O  O33  1  0.02732780  0.76893613  0.75082166  1
  O  O34  1  0.02627888  0.42158657  0.62229484  1
  O  O35  1  0.09351719  0.88259869  0.61503861  1
  O  O36  1  0.08524078  0.17851984  0.42099951  1
  O  O37  1  0.01849942  0.57411270  0.13804109  1
  O  O38  1  0.22388592  0.81315354  0.76743746  1
  O  O39  1  0.26102880  0.40128274  0.87054354  1
  O  O40  1  0.25594169  0.07413708  0.62738286  1
  O  O41  1  0.22759152  0.57915460  0.60808997  1
  O  O42  1  0.10732717  0.13667544  0.18111920  1
  O  O43  1  0.31847074  0.85189191  0.94304762  1
  O  O44  1  0.18152926  0.35189191  0.05695238  1
  O  O45  1  0.39267283  0.63667544  0.81888080  1
  O  O46  1  0.27240848  0.07915460  0.39191003  1
  O  O47  1  0.24405831  0.57413708  0.37261714  1
  O  O48  1  0.23897120  0.90128274  0.12945646  1
  O  O49  1  0.27611408  0.31315354  0.23256254  1
  O  O50  1  0.48150058  0.07411270  0.86195891  1
  O  O51  1  0.41475922  0.67851984  0.57900049  1
  O  O52  1  0.56628817  0.64507271  0.92969373  1
  O  O53  1  0.40648281  0.38259869  0.38496139  1
  O  O54  1  0.52732780  0.73106387  0.75082166  1
  O  O55  1  0.47372112  0.92158657  0.37770516  1
  O  O56  1  0.52627888  0.07841343  0.62229484  1
  O  O57  1  0.47267220  0.26893613  0.24917834  1
  O  O58  1  0.59351719  0.61740131  0.61503861  1
  O  O59  1  0.43371183  0.35492729  0.07030627  1
  O  O60  1  0.58524078  0.32148016  0.42099951  1
  O  O61  1  0.51849942  0.92588730  0.13804109  1
  O  O62  1  0.72388592  0.68684646  0.76743746  1
  O  O63  1  0.76102880  0.09871726  0.87054354  1
  O  O64  1  0.75594169  0.42586292  0.62738286  1
  O  O65  1  0.72759152  0.92084540  0.60808997  1
  O  O66  1  0.60732717  0.36332456  0.18111920  1
  O  O67  1  0.81847074  0.64810809  0.94304762  1
  O  O68  1  0.68152926  0.14810809  0.05695238  1
  O  O69  1  0.89267283  0.86332456  0.81888080  1
  O  O70  1  0.77240848  0.42084540  0.39191003  1
  O  O71  1  0.74405831  0.92586292  0.37261714  1
  O  O72  1  0.73897120  0.59871726  0.12945646  1
  O  O73  1  0.77611408  0.18684646  0.23256254  1
  O  O74  1  0.98150058  0.42588730  0.86195891  1
  O  O75  1  0.91475922  0.82148016  0.57900049  1
  O  O76  1  0.90648281  0.11740131  0.38496139  1
  O  O77  1  0.97372112  0.57841343  0.37770516  1
  O  O78  1  0.97267220  0.23106387  0.24917834  1
  O  O79  1  0.93371183  0.14507271  0.07030627  1
