# generated using pymatgen
data_LiCuPO4
_symmetry_space_group_name_H-M   'P 1'
_cell_length_a   8.48373746
_cell_length_b   15.35972692
_cell_length_c   7.75858017
_cell_angle_alpha   90.00000000
_cell_angle_beta   90.00000000
_cell_angle_gamma   91.37869831
_symmetry_Int_Tables_number   1
_chemical_formula_structural   LiCuPO4
_chemical_formula_sum   'Li12 Cu12 P12 O48'
_cell_volume   1010.71153412
_cell_formula_units_Z   12
loop_
 _symmetry_equiv_pos_site_id
 _symmetry_equiv_pos_as_xyz
  1  'x, y, z'
loop_
 _atom_site_type_symbol
 _atom_site_label
 _atom_site_symmetry_multiplicity
 _atom_site_fract_x
 _atom_site_fract_y
 _atom_site_fract_z
 _atom_site_occupancy
  Li  Li0  1  0.21944565  0.94125519  0.97068560  1
  Li  Li1  1  0.22993935  0.59152850  0.04646525  1
  Li  Li2  1  0.23155698  0.24640031  0.85101390  1
  Li  Li3  1  0.26844302  0.25359969  0.35101390  1
  Li  Li4  1  0.27006065  0.90847150  0.54646525  1
  Li  Li5  1  0.28055435  0.55874481  0.47068560  1
  Li  Li6  1  0.71944565  0.44125519  0.52931440  1
  Li  Li7  1  0.72993935  0.09152850  0.45353475  1
  Li  Li8  1  0.73155698  0.74640031  0.64898610  1
  Li  Li9  1  0.76844302  0.75359969  0.14898610  1
  Li  Li10  1  0.77006065  0.40847150  0.95353475  1
  Li  Li11  1  0.78055435  0.05874481  0.02931440  1
  Cu  Cu12  1  0.03730239  0.41006610  0.26176759  1
  Cu  Cu13  1  0.11025452  0.77353407  0.23364957  1
  Cu  Cu14  1  0.11863855  0.07565495  0.27002127  1
  Cu  Cu15  1  0.38136145  0.42434505  0.77002127  1
  Cu  Cu16  1  0.38974548  0.72646593  0.73364957  1
  Cu  Cu17  1  0.46269761  0.08993390  0.76176759  1
  Cu  Cu18  1  0.53730239  0.91006610  0.23823241  1
  Cu  Cu19  1  0.61025452  0.27353407  0.26635043  1
  Cu  Cu20  1  0.61863855  0.57565495  0.22997873  1
  Cu  Cu21  1  0.88136145  0.92434505  0.72997873  1
  Cu  Cu22  1  0.88974548  0.22646593  0.76635043  1
  Cu  Cu23  1  0.96269761  0.58993390  0.73823241  1
  P  P24  1  0.04337369  0.40583464  0.66001584  1
  P  P25  1  0.07886055  0.77677393  0.82093105  1
  P  P26  1  0.10720511  0.07508889  0.67203665  1
  P  P27  1  0.39279489  0.42491111  0.17203665  1
  P  P28  1  0.42113945  0.72322607  0.32093105  1
  P  P29  1  0.45662631  0.09416536  0.16001584  1
  P  P30  1  0.54337369  0.90583464  0.83998416  1
  P  P31  1  0.57886055  0.27677393  0.67906895  1
  P  P32  1  0.60720511  0.57508889  0.82796335  1
  P  P33  1  0.89279489  0.92491111  0.32796335  1
  P  P34  1  0.92113945  0.22322607  0.17906895  1
  P  P35  1  0.95662631  0.59416536  0.33998416  1
  O  O36  1  0.05470017  0.60822893  0.50665593  1
  O  O37  1  0.09085306  0.67711083  0.85683267  1
  O  O38  1  0.07219481  0.99609495  0.79330219  1
  O  O39  1  0.04302504  0.87188740  0.35967104  1
  O  O40  1  0.05725087  0.53502055  0.21980057  1
  O  O41  1  0.08110773  0.82759503  0.99359034  1
  O  O42  1  0.07108715  0.31765432  0.75031774  1
  O  O43  1  0.07372897  0.20364359  0.27877091  1
  O  O44  1  0.16909212  0.03572712  0.50067853  1
  O  O45  1  0.20493571  0.45125217  0.61846391  1
  O  O46  1  0.27738824  0.69193722  0.20865259  1
  O  O47  1  0.26163189  0.36562781  0.25041382  1
  O  O48  1  0.22261176  0.80806278  0.70865259  1
  O  O49  1  0.23836811  0.13437219  0.75041382  1
  O  O50  1  0.29506429  0.04874783  0.11846391  1
  O  O51  1  0.33090788  0.46427288  0.00067853  1
  O  O52  1  0.42627103  0.29635641  0.77877091  1
  O  O53  1  0.41889227  0.67240497  0.49359034  1
  O  O54  1  0.42891285  0.18234568  0.25031774  1
  O  O55  1  0.44274913  0.96497945  0.71980057  1
  O  O56  1  0.45697496  0.62811260  0.85967104  1
  O  O57  1  0.42780519  0.50390505  0.29330219  1
  O  O58  1  0.40914694  0.82288917  0.35683267  1
  O  O59  1  0.44529983  0.89177107  0.00665593  1
  O  O60  1  0.55470017  0.10822893  0.99334407  1
  O  O61  1  0.59085306  0.17711083  0.64316733  1
  O  O62  1  0.57219481  0.49609495  0.70669781  1
  O  O63  1  0.54302504  0.37188740  0.14032896  1
  O  O64  1  0.55725087  0.03502055  0.28019943  1
  O  O65  1  0.57108715  0.81765432  0.74968226  1
  O  O66  1  0.58110773  0.32759503  0.50640966  1
  O  O67  1  0.57372897  0.70364359  0.22122909  1
  O  O68  1  0.66909212  0.53572712  0.99932147  1
  O  O69  1  0.70493571  0.95125217  0.88153609  1
  O  O70  1  0.76163189  0.86562781  0.24958618  1
  O  O71  1  0.77738824  0.19193722  0.29134741  1
  O  O72  1  0.73836811  0.63437219  0.74958618  1
  O  O73  1  0.72261176  0.30806278  0.79134741  1
  O  O74  1  0.79506429  0.54874783  0.38153609  1
  O  O75  1  0.83090788  0.96427288  0.49932147  1
  O  O76  1  0.92627103  0.79635641  0.72122909  1
  O  O77  1  0.92891285  0.68234568  0.24968226  1
  O  O78  1  0.91889227  0.17240497  0.00640966  1
  O  O79  1  0.94274913  0.46497945  0.78019943  1
  O  O80  1  0.95697496  0.12811260  0.64032896  1
  O  O81  1  0.92780519  0.00390505  0.20669781  1
  O  O82  1  0.90914694  0.32288917  0.14316733  1
  O  O83  1  0.94529983  0.39177107  0.49334407  1
