# generated using pymatgen
data_YBO3
_symmetry_space_group_name_H-M   'P 1'
_cell_length_a   4.12407727
_cell_length_b   3.96768154
_cell_length_c   8.67174697
_cell_angle_alpha   90.00031693
_cell_angle_beta   90.00003130
_cell_angle_gamma   121.31463181
_symmetry_Int_Tables_number   1
_chemical_formula_structural   YBO3
_chemical_formula_sum   'Y2 B2 O6'
_cell_volume   121.22547321
_cell_formula_units_Z   2
loop_
 _symmetry_equiv_pos_site_id
 _symmetry_equiv_pos_as_xyz
  1  'x, y, z'
loop_
 _atom_site_type_symbol
 _atom_site_label
 _atom_site_symmetry_multiplicity
 _atom_site_fract_x
 _atom_site_fract_y
 _atom_site_fract_z
 _atom_site_occupancy
  Y  Y0  1  0.05226443  0.00003409  0.99999870  1
  Y  Y1  1  0.05223975  0.00000991  0.50000050  1
  B  B2  1  0.50187271  0.74326553  0.25000062  1
  B  B3  1  0.75861882  0.25673239  0.75000163  1
  O  O4  1  0.33511882  0.65937321  0.10414978  1
  O  O5  1  0.33512743  0.65936938  0.39585266  1
  O  O6  1  0.89302210  0.93481077  0.25000493  1
  O  O7  1  0.67577121  0.34064917  0.60415269  1
  O  O8  1  0.67577521  0.34066254  0.89583913  1
  O  O9  1  0.95818853  0.06519201  0.75000036  1
