# generated using pymatgen
data_Li3Fe(PO4)2
_symmetry_space_group_name_H-M   'P 1'
_cell_length_a   5.02955984
_cell_length_b   12.38184786
_cell_length_c   18.11121075
_cell_angle_alpha   90.00000000
_cell_angle_beta   90.00000000
_cell_angle_gamma   90.00000000
_symmetry_Int_Tables_number   1
_chemical_formula_structural   Li3Fe(PO4)2
_chemical_formula_sum   'Li24 Fe8 P16 O64'
_cell_volume   1127.88008202
_cell_formula_units_Z   8
loop_
 _symmetry_equiv_pos_site_id
 _symmetry_equiv_pos_as_xyz
  1  'x, y, z'
loop_
 _atom_site_type_symbol
 _atom_site_label
 _atom_site_symmetry_multiplicity
 _atom_site_fract_x
 _atom_site_fract_y
 _atom_site_fract_z
 _atom_site_occupancy
  Li  Li0  1  0.06788710  0.35943499  0.24379496  1
  Li  Li1  1  0.06788710  0.14056501  0.74379496  1
  Li  Li2  1  0.06859428  0.46415877  0.05366823  1
  Li  Li3  1  0.06859428  0.03584123  0.55366823  1
  Li  Li4  1  0.03835795  0.70962723  0.41935047  1
  Li  Li5  1  0.03835795  0.79037277  0.91935047  1
  Li  Li6  1  0.46535380  0.03913293  0.82016871  1
  Li  Li7  1  0.46535380  0.46086707  0.32016871  1
  Li  Li8  1  0.40988559  0.71057716  0.67807437  1
  Li  Li9  1  0.40988559  0.78942284  0.17807437  1
  Li  Li10  1  0.45231205  0.61425712  0.49235534  1
  Li  Li11  1  0.45231205  0.88574288  0.99235534  1
  Li  Li12  1  0.54768795  0.11425712  0.49235534  1
  Li  Li13  1  0.54768795  0.38574288  0.99235534  1
  Li  Li14  1  0.59011441  0.28942284  0.17807437  1
  Li  Li15  1  0.59011441  0.21057716  0.67807437  1
  Li  Li16  1  0.53464620  0.53913293  0.82016871  1
  Li  Li17  1  0.53464620  0.96086707  0.32016871  1
  Li  Li18  1  0.96164205  0.29037277  0.91935047  1
  Li  Li19  1  0.96164205  0.20962723  0.41935047  1
  Li  Li20  1  0.93140572  0.96415877  0.05366823  1
  Li  Li21  1  0.93140572  0.53584123  0.55366823  1
  Li  Li22  1  0.93211290  0.85943499  0.24379496  1
  Li  Li23  1  0.93211290  0.64056501  0.74379496  1
  Fe  Fe24  1  0.07352278  0.10300101  0.23712237  1
  Fe  Fe25  1  0.07352278  0.39699899  0.73712237  1
  Fe  Fe26  1  0.44485868  0.14757600  0.99199586  1
  Fe  Fe27  1  0.44485868  0.35242400  0.49199586  1
  Fe  Fe28  1  0.55514132  0.64757600  0.99199586  1
  Fe  Fe29  1  0.55514132  0.85242400  0.49199586  1
  Fe  Fe30  1  0.92647722  0.60300101  0.23712237  1
  Fe  Fe31  1  0.92647722  0.89699899  0.73712237  1
  P  P32  1  0.00191949  0.72343606  0.07987918  1
  P  P33  1  0.00191949  0.77656394  0.57987918  1
  P  P34  1  0.03029539  0.96126576  0.40275361  1
  P  P35  1  0.03029539  0.53873424  0.90275361  1
  P  P36  1  0.45346973  0.71455727  0.32639996  1
  P  P37  1  0.45346973  0.78544273  0.82639996  1
  P  P38  1  0.47833920  0.53019702  0.14919486  1
  P  P39  1  0.47833920  0.96980298  0.64919486  1
  P  P40  1  0.52166080  0.03019702  0.14919486  1
  P  P41  1  0.52166080  0.46980298  0.64919486  1
  P  P42  1  0.54653027  0.21455727  0.32639996  1
  P  P43  1  0.54653027  0.28544273  0.82639996  1
  P  P44  1  0.96970461  0.03873424  0.90275361  1
  P  P45  1  0.96970461  0.46126576  0.40275361  1
  P  P46  1  0.99808051  0.22343606  0.07987918  1
  P  P47  1  0.99808051  0.27656394  0.57987918  1
  O  O48  1  0.01542601  0.47710784  0.31811076  1
  O  O49  1  0.01542601  0.02289216  0.81811076  1
  O  O50  1  0.03553608  0.73658755  0.16562556  1
  O  O51  1  0.03553608  0.76341245  0.66562556  1
  O  O52  1  0.09788281  0.10983910  0.05940554  1
  O  O53  1  0.09788281  0.39016090  0.55940554  1
  O  O54  1  0.08104081  0.55612356  0.44830913  1
  O  O55  1  0.08104081  0.94387644  0.94830913  1
  O  O56  1  0.12648042  0.35587832  0.42093489  1
  O  O57  1  0.12648042  0.14412168  0.92093489  1
  O  O58  1  0.15134788  0.70019598  0.30549419  1
  O  O59  1  0.15134788  0.79980402  0.80549319  1
  O  O60  1  0.19787368  0.30513344  0.04725092  1
  O  O61  1  0.19787368  0.19486656  0.54725092  1
  O  O62  1  0.19934282  0.50700108  0.18458046  1
  O  O63  1  0.19934282  0.99299892  0.68458046  1
  O  O64  1  0.28237842  0.74511057  0.04486781  1
  O  O65  1  0.28237842  0.75488943  0.54486781  1
  O  O66  1  0.31741709  0.55139824  0.67851564  1
  O  O67  1  0.31741709  0.94860176  0.17851564  1
  O  O68  1  0.33430354  0.55394539  0.91937197  1
  O  O69  1  0.33430354  0.94605461  0.41937197  1
  O  O70  1  0.38528412  0.11015030  0.31006933  1
  O  O71  1  0.38528412  0.38984970  0.81006933  1
  O  O72  1  0.43128970  0.18953385  0.78342504  1
  O  O73  1  0.43128970  0.31046615  0.28342504  1
  O  O74  1  0.44051397  0.98093322  0.56288961  1
  O  O75  1  0.44051397  0.51906678  0.06288961  1
  O  O76  1  0.45507900  0.72809885  0.41213708  1
  O  O77  1  0.45507900  0.77190115  0.91213708  1
  O  O78  1  0.42417381  0.14367768  0.17099415  1
  O  O79  1  0.42417381  0.35632232  0.67099415  1
  O  O80  1  0.57582619  0.64367768  0.17099415  1
  O  O81  1  0.57582619  0.85632232  0.67099415  1
  O  O82  1  0.54492100  0.27190115  0.91213708  1
  O  O83  1  0.54492100  0.22809885  0.41213708  1
  O  O84  1  0.55948603  0.48093322  0.56288961  1
  O  O85  1  0.55948603  0.01906678  0.06288961  1
  O  O86  1  0.56871030  0.68953385  0.78342504  1
  O  O87  1  0.56871030  0.81046615  0.28342504  1
  O  O88  1  0.61471588  0.61015030  0.31006933  1
  O  O89  1  0.61471588  0.88984970  0.81006933  1
  O  O90  1  0.66569646  0.05394539  0.91937197  1
  O  O91  1  0.66569646  0.44605461  0.41937197  1
  O  O92  1  0.68258291  0.44860176  0.17851564  1
  O  O93  1  0.68258291  0.05139824  0.67851564  1
  O  O94  1  0.71762158  0.25488943  0.54486781  1
  O  O95  1  0.71762158  0.24511057  0.04486781  1
  O  O96  1  0.80065718  0.49299892  0.68458046  1
  O  O97  1  0.80065718  0.00700108  0.18458046  1
  O  O98  1  0.80212632  0.80513344  0.04725092  1
  O  O99  1  0.80212632  0.69486656  0.54725092  1
  O  O100  1  0.84865212  0.20019598  0.30549419  1
  O  O101  1  0.84865212  0.29980402  0.80549319  1
  O  O102  1  0.87351958  0.64412168  0.92093489  1
  O  O103  1  0.87351958  0.85587832  0.42093489  1
  O  O104  1  0.91895919  0.44387644  0.94830913  1
  O  O105  1  0.91895919  0.05612356  0.44830913  1
  O  O106  1  0.90211719  0.60983910  0.05940554  1
  O  O107  1  0.90211719  0.89016090  0.55940554  1
  O  O108  1  0.96446392  0.23658755  0.16562556  1
  O  O109  1  0.96446392  0.26341245  0.66562556  1
  O  O110  1  0.98457399  0.52289216  0.81811076  1
  O  O111  1  0.98457399  0.97710784  0.31811076  1
