# generated using pymatgen
data_Li3Fe(PO4)2
_symmetry_space_group_name_H-M   'P 1'
_cell_length_a   8.61253836
_cell_length_b   5.30081036
_cell_length_c   7.00782404
_cell_angle_alpha   90.00000000
_cell_angle_beta   94.07487688
_cell_angle_gamma   90.00000000
_symmetry_Int_Tables_number   1
_chemical_formula_structural   Li3Fe(PO4)2
_chemical_formula_sum   'Li6 Fe2 P4 O16'
_cell_volume   319.12244829
_cell_formula_units_Z   2
loop_
 _symmetry_equiv_pos_site_id
 _symmetry_equiv_pos_as_xyz
  1  'x, y, z'
loop_
 _atom_site_type_symbol
 _atom_site_label
 _atom_site_symmetry_multiplicity
 _atom_site_fract_x
 _atom_site_fract_y
 _atom_site_fract_z
 _atom_site_occupancy
  Li  Li0  1  0.00984894  0.75000000  0.34245437  1
  Li  Li1  1  0.26992227  0.25000000  0.52143366  1
  Li  Li2  1  0.34878927  0.75000000  0.71200797  1
  Li  Li3  1  0.65121073  0.25000000  0.28799203  1
  Li  Li4  1  0.73007773  0.75000000  0.47856634  1
  Li  Li5  1  0.99015106  0.25000000  0.65754563  1
  Fe  Fe6  1  0.25109067  0.25000000  0.96314191  1
  Fe  Fe7  1  0.74890933  0.75000000  0.03685809  1
  P  P8  1  0.04908681  0.75000000  0.77261917  1
  P  P9  1  0.39946330  0.75000000  0.23988102  1
  P  P10  1  0.60053670  0.25000000  0.76011898  1
  P  P11  1  0.95091319  0.25000000  0.22738083  1
  O  O12  1  0.96488499  0.75000000  0.95786998  1
  O  O13  1  0.06563280  0.25000000  0.40405496  1
  O  O14  1  0.15870566  0.51504285  0.76135761  1
  O  O15  1  0.15870566  0.98495715  0.76135761  1
  O  O16  1  0.34361546  0.51028402  0.12871454  1
  O  O17  1  0.34361546  0.98971598  0.12871454  1
  O  O18  1  0.33877072  0.75000000  0.44032438  1
  O  O19  1  0.41829260  0.25000000  0.74798609  1
  O  O20  1  0.58170740  0.75000000  0.25201391  1
  O  O21  1  0.66122928  0.25000000  0.55967562  1
  O  O22  1  0.65638454  0.01028402  0.87128546  1
  O  O23  1  0.65638454  0.48971598  0.87128546  1
  O  O24  1  0.84129434  0.01504285  0.23864239  1
  O  O25  1  0.84129434  0.48495715  0.23864239  1
  O  O26  1  0.93436720  0.75000000  0.59594504  1
  O  O27  1  0.03511501  0.25000000  0.04213002  1
