# generated using pymatgen
data_LiCuPO4
_symmetry_space_group_name_H-M   'P 1'
_cell_length_a   10.97190349
_cell_length_b   6.09126602
_cell_length_c   4.95424878
_cell_angle_alpha   90.01001204
_cell_angle_beta   90.00050966
_cell_angle_gamma   89.99380707
_symmetry_Int_Tables_number   1
_chemical_formula_structural   LiCuPO4
_chemical_formula_sum   'Li4 Cu4 P4 O16'
_cell_volume   331.10622609
_cell_formula_units_Z   4
loop_
 _symmetry_equiv_pos_site_id
 _symmetry_equiv_pos_as_xyz
  1  'x, y, z'
loop_
 _atom_site_type_symbol
 _atom_site_label
 _atom_site_symmetry_multiplicity
 _atom_site_fract_x
 _atom_site_fract_y
 _atom_site_fract_z
 _atom_site_occupancy
  Li  Li0  1  0.07009974  0.22535434  0.99177908  1
  Li  Li1  1  0.42987858  0.72536577  0.49179290  1
  Li  Li2  1  0.57018224  0.27465411  0.99180300  1
  Li  Li3  1  0.92982644  0.77459480  0.49182312  1
  Cu  Cu4  1  0.17254009  0.47357495  0.48545889  1
  Cu  Cu5  1  0.32739741  0.97370847  0.98542146  1
  Cu  Cu6  1  0.67261167  0.02634608  0.48536934  1
  Cu  Cu7  1  0.82738928  0.52645482  0.98540083  1
  P  P8  1  0.08591227  0.73085669  0.99705093  1
  P  P9  1  0.41410947  0.23079337  0.49714663  1
  P  P10  1  0.58588164  0.76919254  0.99711210  1
  P  P11  1  0.91407309  0.26916256  0.49714779  1
  O  O12  1  0.04774649  0.24834597  0.39396634  1
  O  O13  1  0.08760473  0.71775334  0.30979893  1
  O  O14  1  0.15348313  0.94302414  0.90829062  1
  O  O15  1  0.14738217  0.51936049  0.88457657  1
  O  O16  1  0.35263274  0.01954260  0.38461556  1
  O  O17  1  0.34653378  0.44313104  0.40823089  1
  O  O18  1  0.41240622  0.21784721  0.80965867  1
  O  O19  1  0.45233802  0.74837056  0.89400384  1
  O  O20  1  0.54764200  0.25168726  0.39401950  1
  O  O21  1  0.58759973  0.78218084  0.30966039  1
  O  O22  1  0.65339613  0.55687151  0.90819192  1
  O  O23  1  0.64736265  0.98043619  0.88465625  1
  O  O24  1  0.85262167  0.48058099  0.38474122  1
  O  O25  1  0.84655652  0.05693173  0.40816103  1
  O  O26  1  0.91244698  0.28211277  0.80974988  1
  O  O27  1  0.95234512  0.75176485  0.89392831  1
