# generated using pymatgen
data_CdCoO3
_symmetry_space_group_name_H-M   'P 1'
_cell_length_a   5.38902365
_cell_length_b   5.31471812
_cell_length_c   7.58912085
_cell_angle_alpha   90.01443399
_cell_angle_beta   89.97862859
_cell_angle_gamma   90.02130757
_symmetry_Int_Tables_number   1
_chemical_formula_structural   CdCoO3
_chemical_formula_sum   'Cd4 Co4 O12'
_cell_volume   217.36104812
_cell_formula_units_Z   4
loop_
 _symmetry_equiv_pos_site_id
 _symmetry_equiv_pos_as_xyz
  1  'x, y, z'
loop_
 _atom_site_type_symbol
 _atom_site_label
 _atom_site_symmetry_multiplicity
 _atom_site_fract_x
 _atom_site_fract_y
 _atom_site_fract_z
 _atom_site_occupancy
  Cd  Cd0  1  0.00628839  0.96037703  0.74994995  1
  Cd  Cd1  1  0.49370076  0.46036951  0.74992582  1
  Cd  Cd2  1  0.50629905  0.53962965  0.25007442  1
  Cd  Cd3  1  0.99371263  0.03962182  0.25004951  1
  Co  Co4  1  0.99999904  0.49999930  -0.00000032  1
  Co  Co5  1  0.99999850  0.49999861  0.49999961  1
  Co  Co6  1  0.50000152  0.99999905  0.00000040  1
  Co  Co7  1  0.50000101  0.99999857  0.49999997  1
  O  O8  1  0.09554795  0.46555708  0.25015969  1
  O  O9  1  0.18633420  0.22846887  0.55039010  1
  O  O10  1  0.18632001  0.22842985  0.94975320  1
  O  O11  1  0.31364895  0.72838518  0.94973051  1
  O  O12  1  0.31360141  0.72845479  0.55033852  1
  O  O13  1  0.40445114  0.96556189  0.25002794  1
  O  O14  1  0.59554823  0.03443944  0.74997199  1
  O  O15  1  0.68640021  0.27154731  0.44966164  1
  O  O16  1  0.68635131  0.27161517  0.05026996  1
  O  O17  1  0.81367910  0.77157111  0.05024640  1
  O  O18  1  0.81366494  0.77153267  0.44961054  1
  O  O19  1  0.90445165  0.53444309  0.74984016  1
