# generated using pymatgen
data_Li2Ni(PO3)4
_symmetry_space_group_name_H-M   'P 1'
_cell_length_a   9.30633171
_cell_length_b   9.32088682
_cell_length_c   4.63260221
_cell_angle_alpha   90.85707955
_cell_angle_beta   89.31318679
_cell_angle_gamma   89.98908137
_symmetry_Int_Tables_number   1
_chemical_formula_structural   Li2Ni(PO3)4
_chemical_formula_sum   'Li4 Ni2 P8 O24'
_cell_volume   401.77318486
_cell_formula_units_Z   2
loop_
 _symmetry_equiv_pos_site_id
 _symmetry_equiv_pos_as_xyz
  1  'x, y, z'
loop_
 _atom_site_type_symbol
 _atom_site_label
 _atom_site_symmetry_multiplicity
 _atom_site_fract_x
 _atom_site_fract_y
 _atom_site_fract_z
 _atom_site_occupancy
  Li  Li0  1  0.00307238  0.99818358  0.49946043  1
  Li  Li1  1  0.99670452  0.50351294  0.49989245  1
  Li  Li2  1  0.50179561  0.49898766  0.50028469  1
  Li  Li3  1  0.49609345  0.00257700  0.50012413  1
  Ni  Ni4  1  0.22086503  0.25249641  0.49898653  1
  Ni  Ni5  1  0.75601121  0.77890249  0.49821137  1
  P  P6  1  0.02607190  0.74801509  0.00237442  1
  P  P7  1  0.25227728  0.52500176  0.99601866  1
  P  P8  1  0.25227218  0.97368996  0.00359679  1
  P  P9  1  0.47533906  0.74788589  0.99683960  1
  P  P10  1  0.52521195  0.25065763  0.00236080  1
  P  P11  1  0.74908677  0.02630789  0.99802958  1
  P  P12  1  0.74859778  0.47427474  0.00319877  1
  P  P13  1  0.97373958  0.25038109  0.99856278  1
  O  O14  1  0.05045528  0.32084054  0.24638592  1
  O  O15  1  0.05298249  0.17655867  0.75352552  1
  O  O16  1  0.13432837  0.86490193  0.85971716  1
  O  O17  1  0.13509915  0.63449591  0.14726173  1
  O  O18  1  0.17905234  0.44673646  0.75227411  1
  O  O19  1  0.17875818  0.05243906  0.24986303  1
  O  O20  1  0.32245913  0.45129252  0.24062556  1
  O  O21  1  0.32312279  0.04710136  0.75659852  1
  O  O22  1  0.36490690  0.86390516  0.14925336  1
  O  O23  1  0.36393842  0.63553705  0.84301869  1
  O  O24  1  0.45079156  0.17638100  0.24469568  1
  O  O25  1  0.45281838  0.32073117  0.75663062  1
  O  O26  1  0.54822872  0.67676371  0.24089975  1
  O  O27  1  0.55349329  0.82029279  0.75331197  1
  O  O28  1  0.63769149  0.13280503  0.85068350  1
  O  O29  1  0.63724308  0.36236677  0.15410096  1
  O  O30  1  0.67834454  0.54546746  0.75702111  1
  O  O31  1  0.67931469  0.94940840  0.24523062  1
  O  O32  1  0.82394061  0.94775562  0.75309110  1
  O  O33  1  0.82319259  0.54971564  0.24548295  1
  O  O34  1  0.86699503  0.13303320  0.14422049  1
  O  O35  1  0.86732722  0.36226218  0.85259532  1
  O  O36  1  0.95072722  0.67734616  0.75570676  1
  O  O37  1  0.94770881  0.82105008  0.24986658  1
