# generated using pymatgen
data_Li2Si6Ni3O16
_symmetry_space_group_name_H-M   'P 1'
_cell_length_a   9.64783093
_cell_length_b   10.04554012
_cell_length_c   6.89854701
_cell_angle_alpha   69.57893243
_cell_angle_beta   98.05080693
_cell_angle_gamma   84.53702817
_symmetry_Int_Tables_number   1
_chemical_formula_structural   Li2Si6Ni3O16
_chemical_formula_sum   'Li4 Si12 Ni6 O32'
_cell_volume   612.87417045
_cell_formula_units_Z   2
loop_
 _symmetry_equiv_pos_site_id
 _symmetry_equiv_pos_as_xyz
  1  'x, y, z'
loop_
 _atom_site_type_symbol
 _atom_site_label
 _atom_site_symmetry_multiplicity
 _atom_site_fract_x
 _atom_site_fract_y
 _atom_site_fract_z
 _atom_site_occupancy
  Li  Li0  1  0.11585066  0.53247420  0.35818635  1
  Li  Li1  1  0.41565586  0.20017723  0.64049985  1
  Li  Li2  1  0.58434414  0.79982277  0.35950015  1
  Li  Li3  1  0.88414934  0.46752580  0.64181365  1
  Si  Si4  1  0.13814075  0.23724996  0.75763901  1
  Si  Si5  1  0.13564748  0.22913573  0.31480658  1
  Si  Si6  1  0.32449904  0.05117232  0.16172612  1
  Si  Si7  1  0.38283157  0.64934416  0.61048990  1
  Si  Si8  1  0.39614539  0.87606182  0.77445716  1
  Si  Si9  1  0.39233319  0.62106314  0.17203737  1
  Si  Si10  1  0.60766681  0.37893686  0.82796263  1
  Si  Si11  1  0.60385461  0.12393818  0.22554284  1
  Si  Si12  1  0.61716843  0.35065584  0.38951010  1
  Si  Si13  1  0.67550096  0.94882768  0.83827388  1
  Si  Si14  1  0.86435252  0.77086427  0.68519342  1
  Si  Si15  1  0.86185925  0.76275004  0.24236099  1
  Ni  Ni16  1  0.13485733  0.52771291  0.89609788  1
  Ni  Ni17  1  0.10885532  0.90233811  0.94636208  1
  Ni  Ni18  1  0.11696425  0.89236774  0.45945205  1
  Ni  Ni19  1  0.88303575  0.10763226  0.54054795  1
  Ni  Ni20  1  0.89114468  0.09766189  0.05363792  1
  Ni  Ni21  1  0.86514267  0.47228709  0.10390212  1
  O  O22  1  0.02295970  0.12505027  0.81446412  1
  O  O23  1  0.02474937  0.11396129  0.32996146  1
  O  O24  1  0.08451111  0.39846601  0.73597868  1
  O  O25  1  0.06984338  0.38570256  0.14677050  1
  O  O26  1  0.19079911  0.25698788  0.53257066  1
  O  O27  1  0.29251999  0.15672181  0.91224259  1
  O  O28  1  0.21587785  0.65437586  0.62166834  1
  O  O29  1  0.28664919  0.15920391  0.28332471  1
  O  O30  1  0.23008129  0.93511920  0.71574507  1
  O  O31  1  0.22682051  0.61574954  0.10466876  1
  O  O32  1  0.23468196  0.92080127  0.20615946  1
  O  O33  1  0.49872915  0.00107373  0.23535999  1
  O  O34  1  0.55421480  0.23983547  0.98692452  1
  O  O35  1  0.43033661  0.64601533  0.39442985  1
  O  O36  1  0.43821791  0.79915692  0.61256544  1
  O  O37  1  0.49192156  0.51868256  0.79786015  1
  O  O38  1  0.50807844  0.48131744  0.20213985  1
  O  O39  1  0.56178209  0.20084308  0.38743456  1
  O  O40  1  0.56966339  0.35398467  0.60557015  1
  O  O41  1  0.44578520  0.76016453  0.01307548  1
  O  O42  1  0.50127085  0.99892627  0.76464001  1
  O  O43  1  0.76531804  0.07919873  0.79384054  1
  O  O44  1  0.77317949  0.38425046  0.89533124  1
  O  O45  1  0.76991871  0.06488080  0.28425493  1
  O  O46  1  0.71335081  0.84079609  0.71667529  1
  O  O47  1  0.78412215  0.34562414  0.37833166  1
  O  O48  1  0.70748001  0.84327819  0.08775741  1
  O  O49  1  0.80920089  0.74301212  0.46742934  1
  O  O50  1  0.93015662  0.61429744  0.85322950  1
  O  O51  1  0.91548889  0.60153399  0.26402132  1
  O  O52  1  0.97525063  0.88603871  0.67003854  1
  O  O53  1  0.97704030  0.87494973  0.18553588  1
