# generated using pymatgen
data_Mg2Bi
_symmetry_space_group_name_H-M   'P 1'
_cell_length_a   3.27466213
_cell_length_b   16.97772953
_cell_length_c   5.62860176
_cell_angle_alpha   90.00000000
_cell_angle_beta   90.00000000
_cell_angle_gamma   90.00000000
_symmetry_Int_Tables_number   1
_chemical_formula_structural   Mg2Bi
_chemical_formula_sum   'Mg8 Bi4'
_cell_volume   312.92958932
_cell_formula_units_Z   4
loop_
 _symmetry_equiv_pos_site_id
 _symmetry_equiv_pos_as_xyz
  1  'x, y, z'
loop_
 _atom_site_type_symbol
 _atom_site_label
 _atom_site_symmetry_multiplicity
 _atom_site_fract_x
 _atom_site_fract_y
 _atom_site_fract_z
 _atom_site_occupancy
  Mg  Mg0  1  0.50000000  0.38487710  0.25000000  1
  Mg  Mg1  1  0.00000000  0.22673766  0.25000000  1
  Mg  Mg2  1  0.50000000  0.27326234  0.75000000  1
  Mg  Mg3  1  -0.00000000  0.11512290  0.75000000  1
  Mg  Mg4  1  -0.00000000  0.88487710  0.25000000  1
  Mg  Mg5  1  0.50000000  0.72673766  0.25000000  1
  Mg  Mg6  1  -0.00000000  0.77326234  0.75000000  1
  Mg  Mg7  1  0.50000000  0.61512290  0.75000000  1
  Bi  Bi8  1  0.50000000  0.06327347  0.25000000  1
  Bi  Bi9  1  0.00000000  0.43672653  0.75000000  1
  Bi  Bi10  1  0.00000000  0.56327347  0.25000000  1
  Bi  Bi11  1  0.50000000  0.93672653  0.75000000  1
