# generated using pymatgen
data_LiCoPO4
_symmetry_space_group_name_H-M   'P 1'
_cell_length_a   5.36943511
_cell_length_b   10.19767883
_cell_length_c   6.19742227
_cell_angle_alpha   90.00000000
_cell_angle_beta   90.00000000
_cell_angle_gamma   80.62196382
_symmetry_Int_Tables_number   1
_chemical_formula_structural   LiCoPO4
_chemical_formula_sum   'Li4 Co4 P4 O16'
_cell_volume   334.80921391
_cell_formula_units_Z   4
loop_
 _symmetry_equiv_pos_site_id
 _symmetry_equiv_pos_as_xyz
  1  'x, y, z'
loop_
 _atom_site_type_symbol
 _atom_site_label
 _atom_site_symmetry_multiplicity
 _atom_site_fract_x
 _atom_site_fract_y
 _atom_site_fract_z
 _atom_site_occupancy
  Li  Li0  1  0.25164280  0.29894545  0.56178985  1
  Li  Li1  1  0.24835720  0.20105455  0.06178985  1
  Li  Li2  1  0.75164280  0.79894545  0.93821015  1
  Li  Li3  1  0.74835720  0.70105455  0.43821015  1
  Co  Co4  1  0.14946905  0.90617420  0.65931380  1
  Co  Co5  1  0.35053095  0.59382580  0.15931380  1
  Co  Co6  1  0.64946905  0.40617420  0.84068620  1
  Co  Co7  1  0.85053095  0.09382580  0.34068620  1
  P  P8  1  0.25030529  0.63862730  0.65003851  1
  P  P9  1  0.24969471  0.86137270  0.15003851  1
  P  P10  1  0.75030529  0.13862730  0.84996149  1
  P  P11  1  0.74969471  0.36137270  0.34996149  1
  O  O12  1  0.99067246  0.73409166  0.67615558  1
  O  O13  1  0.04959544  0.76801758  0.13928317  1
  O  O14  1  0.23840201  0.55029590  0.44939789  1
  O  O15  1  0.30670242  0.54161842  0.84848259  1
  O  O16  1  0.19329758  0.95838158  0.34848259  1
  O  O17  1  0.26159799  0.94970410  0.94939789  1
  O  O18  1  0.49067246  0.23409166  0.82384442  1
  O  O19  1  0.54959544  0.26801758  0.36071683  1
  O  O20  1  0.45040456  0.73198242  0.63928317  1
  O  O21  1  0.50932754  0.76590834  0.17615558  1
  O  O22  1  0.73840201  0.05029590  0.05060211  1
  O  O23  1  0.80670242  0.04161842  0.65151741  1
  O  O24  1  0.69329758  0.45838158  0.15151741  1
  O  O25  1  0.76159799  0.44970410  0.55060211  1
  O  O26  1  0.95040456  0.23198242  0.86071683  1
  O  O27  1  0.00932754  0.26590834  0.32384442  1
