# generated using pymatgen
data_Co6O5F7
_symmetry_space_group_name_H-M   'P 1'
_cell_length_a   4.69037200
_cell_length_b   4.69037200
_cell_length_c   9.06438786
_cell_angle_alpha   89.85653090
_cell_angle_beta   89.85653090
_cell_angle_gamma   94.53787489
_symmetry_Int_Tables_number   1
_chemical_formula_structural   Co6O5F7
_chemical_formula_sum   'Co6 O5 F7'
_cell_volume   198.78634893
_cell_formula_units_Z   1
loop_
 _symmetry_equiv_pos_site_id
 _symmetry_equiv_pos_as_xyz
  1  'x, y, z'
loop_
 _atom_site_type_symbol
 _atom_site_label
 _atom_site_symmetry_multiplicity
 _atom_site_fract_x
 _atom_site_fract_y
 _atom_site_fract_z
 _atom_site_occupancy
  Co  Co0  1  0.00160629  0.99839371  0.00000000  1
  Co  Co1  1  0.97293929  0.95317488  0.34012054  1
  Co  Co2  1  0.04682512  0.02706071  0.65987946  1
  Co  Co3  1  0.50162574  0.49414895  0.15703988  1
  Co  Co4  1  0.50585105  0.49837426  0.84296012  1
  Co  Co5  1  0.47231361  0.52768639  0.50000000  1
  O  O6  1  0.18338933  0.81661067  0.50000000  1
  O  O7  1  0.31234546  0.30319284  0.99891335  1
  O  O8  1  0.31782156  0.32437436  0.67946986  1
  O  O9  1  0.69680716  0.68765454  0.00108665  1
  O  O10  1  0.67562564  0.68217844  0.32053014  1
  F  F11  1  0.18917744  0.79510899  0.16782410  1
  F  F12  1  0.20489101  0.81082256  0.83217590  1
  F  F13  1  0.28607711  0.28910617  0.31760154  1
  F  F14  1  0.71089383  0.71392289  0.68239846  1
  F  F15  1  0.80474091  0.18476571  0.16829724  1
  F  F16  1  0.81523429  0.19525909  0.83170276  1
  F  F17  1  0.80183617  0.19816383  0.50000000  1
