# generated using pymatgen
data_Li2Cr2Si2O9
_symmetry_space_group_name_H-M   'P 1'
_cell_length_a   13.99523791
_cell_length_b   8.39540981
_cell_length_c   5.17085364
_cell_angle_alpha   89.99999156
_cell_angle_beta   90.05542124
_cell_angle_gamma   90.00375997
_symmetry_Int_Tables_number   1
_chemical_formula_structural   Li2Cr2Si2O9
_chemical_formula_sum   'Li8 Cr8 Si8 O36'
_cell_volume   607.55308046
_cell_formula_units_Z   4
loop_
 _symmetry_equiv_pos_site_id
 _symmetry_equiv_pos_as_xyz
  1  'x, y, z'
loop_
 _atom_site_type_symbol
 _atom_site_label
 _atom_site_symmetry_multiplicity
 _atom_site_fract_x
 _atom_site_fract_y
 _atom_site_fract_z
 _atom_site_occupancy
  Li  Li0  1  0.16100507  0.05558022  0.64756622  1
  Li  Li1  1  0.16102600  0.44441202  0.14758608  1
  Li  Li2  1  0.33995398  0.55274489  0.14634329  1
  Li  Li3  1  0.33995941  0.94719708  0.64636237  1
  Li  Li4  1  0.66048303  0.05430430  0.35221011  1
  Li  Li5  1  0.66047985  0.44568438  0.85220038  1
  Li  Li6  1  0.83925369  0.55400867  0.85232539  1
  Li  Li7  1  0.83925498  0.94599500  0.35228984  1
  Cr  Cr8  1  0.17066469  0.65673379  0.63418136  1
  Cr  Cr9  1  0.17068587  0.84324540  0.13425919  1
  Cr  Cr10  1  0.32737059  0.15734946  0.12037201  1
  Cr  Cr11  1  0.32741430  0.34258159  0.62032641  1
  Cr  Cr12  1  0.67121838  0.65669710  0.36803143  1
  Cr  Cr13  1  0.67121142  0.84344770  0.86797324  1
  Cr  Cr14  1  0.82812039  0.15653135  0.87006853  1
  Cr  Cr15  1  0.82810114  0.34349348  0.37020438  1
  Si  Si16  1  0.02669233  0.15412044  0.21343268  1
  Si  Si17  1  0.02669550  0.34593132  0.71344234  1
  Si  Si18  1  0.47302674  0.65270457  0.71390571  1
  Si  Si19  1  0.47301674  0.84721429  0.21387341  1
  Si  Si20  1  0.52670164  0.15389379  0.78658159  1
  Si  Si21  1  0.52670130  0.34619144  0.28658201  1
  Si  Si22  1  0.97305866  0.65335020  0.28646356  1
  Si  Si23  1  0.97305628  0.84659992  0.78647966  1
  O  O24  1  0.07023083  0.26327149  0.45102427  1
  O  O25  1  0.07023121  0.23670451  0.95108595  1
  O  O26  1  0.07216552  0.97954816  0.25657031  1
  O  O27  1  0.07216306  0.52044500  0.75654637  1
  O  O28  1  0.09069263  0.65384234  0.28681247  1
  O  O29  1  0.09069425  0.84614668  0.78682231  1
  O  O30  1  0.23140794  0.82471363  0.44049065  1
  O  O31  1  0.23141491  0.67523506  0.94048713  1
  O  O32  1  0.25067132  0.00047687  0.97721110  1
  O  O33  1  0.25067610  0.49943910  0.47720647  1
  O  O34  1  0.26877248  0.17281402  0.45026330  1
  O  O35  1  0.26878989  0.32712008  0.95026102  1
  O  O36  1  0.40970051  0.15415235  0.78596776  1
  O  O37  1  0.40970252  0.34581733  0.28602783  1
  O  O38  1  0.42764837  0.02104488  0.25946202  1
  O  O39  1  0.42765485  0.47898419  0.75952767  1
  O  O40  1  0.42985182  0.73662206  0.45105020  1
  O  O41  1  0.42984807  0.76346438  0.95112977  1
  O  O42  1  0.57031777  0.23681221  0.04899132  1
  O  O43  1  0.57032893  0.26316265  0.54907763  1
  O  O44  1  0.57226476  0.52077973  0.24294612  1
  O  O45  1  0.57225291  0.97922810  0.74287272  1
  O  O46  1  0.59069476  0.65402355  0.71331731  1
  O  O47  1  0.59068066  0.84603321  0.21329477  1
  O  O48  1  0.73130487  0.67402037  0.05843599  1
  O  O49  1  0.73130664  0.82601646  0.55839252  1
  O  O50  1  0.75017469  0.00027147  0.02410458  1
  O  O51  1  0.75016991  0.49969915  0.52414829  1
  O  O52  1  0.76880989  0.17357743  0.55693377  1
  O  O53  1  0.76880680  0.32642549  0.05690941  1
  O  O54  1  0.90961838  0.15374627  0.21352793  1
  O  O55  1  0.90961903  0.34626102  0.71352271  1
  O  O56  1  0.92810646  0.02086031  0.74240302  1
  O  O57  1  0.92809144  0.47916772  0.24238610  1
  O  O58  1  0.92999236  0.73682259  0.54889840  1
  O  O59  1  0.92999152  0.76323774  0.04882963  1
