# generated using pymatgen
data_LiCoPO4
_symmetry_space_group_name_H-M   'P 1'
_cell_length_a   6.99269057
_cell_length_b   9.62934510
_cell_length_c   4.78507650
_cell_angle_alpha   90.00000000
_cell_angle_beta   92.78727271
_cell_angle_gamma   90.00000000
_symmetry_Int_Tables_number   1
_chemical_formula_structural   LiCoPO4
_chemical_formula_sum   'Li4 Co4 P4 O16'
_cell_volume   321.82209467
_cell_formula_units_Z   4
loop_
 _symmetry_equiv_pos_site_id
 _symmetry_equiv_pos_as_xyz
  1  'x, y, z'
loop_
 _atom_site_type_symbol
 _atom_site_label
 _atom_site_symmetry_multiplicity
 _atom_site_fract_x
 _atom_site_fract_y
 _atom_site_fract_z
 _atom_site_occupancy
  Li  Li0  1  0.26306611  0.31597738  0.22131963  1
  Li  Li1  1  0.27664361  0.72580124  0.72047289  1
  Li  Li2  1  0.72335639  0.22580124  0.27952711  1
  Li  Li3  1  0.73693389  0.81597738  0.77868037  1
  Co  Co4  1  0.05307240  0.01856503  0.24065995  1
  Co  Co5  1  0.42881940  0.07173966  0.71816318  1
  Co  Co6  1  0.57118060  0.57173966  0.28183682  1
  Co  Co7  1  0.94692760  0.51856503  0.75934005  1
  P  P8  1  0.01233156  0.20024048  0.79836201  1
  P  P9  1  0.49144201  0.90600715  0.28156900  1
  P  P10  1  0.50855799  0.40600715  0.71843100  1
  P  P11  1  0.98766844  0.70024048  0.20163799  1
  O  O12  1  0.06571715  0.34930962  0.89958040  1
  O  O13  1  0.00298960  0.18839856  0.47374193  1
  O  O14  1  0.16704847  0.64386593  0.06949818  1
  O  O15  1  0.18670241  0.11021605  0.92538851  1
  O  O16  1  0.28960923  0.92026224  0.41396574  1
  O  O17  1  0.41350791  0.27498037  0.58524781  1
  O  O18  1  0.48192418  0.89382883  0.95681920  1
  O  O19  1  0.40130376  0.53972645  0.61657425  1
  O  O20  1  0.59869624  0.03972645  0.38342575  1
  O  O21  1  0.51807582  0.39382883  0.04318080  1
  O  O22  1  0.58649209  0.77498037  0.41475219  1
  O  O23  1  0.71039077  0.42026224  0.58603426  1
  O  O24  1  0.81329759  0.61021605  0.07461149  1
  O  O25  1  0.83295153  0.14386593  0.93050182  1
  O  O26  1  0.99701040  0.68839856  0.52625807  1
  O  O27  1  0.93428285  0.84930962  0.10041960  1
