# generated using pymatgen
data_Li3Fe(PO4)2
_symmetry_space_group_name_H-M   'P 1'
_cell_length_a   8.74233059
_cell_length_b   9.20292272
_cell_length_c   8.75059836
_cell_angle_alpha   87.82702003
_cell_angle_beta   113.37148502
_cell_angle_gamma   92.65107035
_symmetry_Int_Tables_number   1
_chemical_formula_structural   Li3Fe(PO4)2
_chemical_formula_sum   'Li12 Fe4 P8 O32'
_cell_volume   645.42655963
_cell_formula_units_Z   4
loop_
 _symmetry_equiv_pos_site_id
 _symmetry_equiv_pos_as_xyz
  1  'x, y, z'
loop_
 _atom_site_type_symbol
 _atom_site_label
 _atom_site_symmetry_multiplicity
 _atom_site_fract_x
 _atom_site_fract_y
 _atom_site_fract_z
 _atom_site_occupancy
  Li  Li0  1  0.35182104  0.78411468  0.86606359  1
  Li  Li1  1  0.12213305  0.29137081  0.63540854  1
  Li  Li2  1  0.04396402  0.45144105  0.15490578  1
  Li  Li3  1  0.06879113  0.76897251  0.10464250  1
  Li  Li4  1  0.58192452  0.76031874  0.57919092  1
  Li  Li5  1  0.43573085  0.24683414  0.43665937  1
  Li  Li6  1  0.89578408  0.23488367  0.89505931  1
  Li  Li7  1  0.95995004  0.53762658  0.84230939  1
  Li  Li8  1  0.13663366  0.03440701  0.04489474  1
  Li  Li9  1  0.87856877  0.66723478  0.39711936  1
  Li  Li10  1  0.63181408  0.23505092  0.13973655  1
  Li  Li11  1  0.70973693  0.89113884  0.11088826  1
  Fe  Fe12  1  0.24736355  0.91191327  0.50031023  1
  Fe  Fe13  1  0.50618056  0.40967204  0.76248901  1
  Fe  Fe14  1  0.49257365  0.59495016  0.23343406  1
  Fe  Fe15  1  0.76533311  0.09166937  0.50488915  1
  P  P16  1  0.01328181  0.92904526  0.71139918  1
  P  P17  1  0.28919805  0.43210739  0.98313843  1
  P  P18  1  0.24389633  0.57064108  0.42623382  1
  P  P19  1  0.58234033  0.07202069  0.76770281  1
  P  P20  1  0.42867813  0.92676545  0.23960875  1
  P  P21  1  0.76207226  0.42989463  0.56899721  1
  P  P22  1  0.71619322  0.57601058  0.00983501  1
  P  P23  1  0.98493698  0.07766322  0.27750934  1
  O  O24  1  0.03409721  0.88092269  0.88754733  1
  O  O25  1  0.11343934  0.38921936  0.97419556  1
  O  O26  1  0.15341401  0.86056299  0.67035157  1
  O  O27  1  0.31392303  0.36899439  0.83324827  1
  O  O28  1  0.05678314  0.54752727  0.37709534  1
  O  O29  1  0.63431566  0.05452846  0.95430960  1
  O  O30  1  0.95547892  0.90885755  0.26244170  1
  O  O31  1  0.68579341  0.40739805  0.01882721  1
  O  O32  1  0.57760854  0.62342242  0.83891495  1
  O  O33  1  0.15426246  0.10555842  0.43367816  1
  O  O34  1  0.47826478  0.93695296  0.66812363  1
  O  O35  1  0.34604475  0.43869288  0.52769460  1
  O  O36  1  0.32009830  0.70933270  0.52629098  1
  O  O37  1  0.47158041  0.20549582  0.69139518  1
  O  O38  1  0.26882246  0.58127125  0.25913339  1
  O  O39  1  0.73901440  0.09365007  0.72671819  1
  O  O40  1  0.25700486  0.91502225  0.25689943  1
  O  O41  1  0.73279596  0.41756327  0.73402845  1
  O  O42  1  0.53189605  0.79242079  0.32621210  1
  O  O43  1  0.68357352  0.29429262  0.46391990  1
  O  O44  1  0.66811381  0.56385119  0.46367893  1
  O  O45  1  0.52597421  0.06128265  0.34335902  1
  O  O46  1  0.83966961  0.88064421  0.57337653  1
  O  O47  1  0.43073314  0.38123847  0.15174778  1
  O  O48  1  0.32010423  0.60222342  0.98485971  1
  O  O49  1  0.01770535  0.09941547  0.68722791  1
  O  O50  1  0.40017713  0.93850689  0.05709997  1
  O  O51  1  0.94945142  0.45315566  0.62076087  1
  O  O52  1  0.69034259  0.65555424  0.15340212  1
  O  O53  1  0.83959391  0.14068079  0.31383662  1
  O  O54  1  0.89392057  0.61164778  0.01893136  1
  O  O55  1  0.99972168  0.15313615  0.12408434  1
