# generated using pymatgen
data_LiNiPO4
_symmetry_space_group_name_H-M   'P 1'
_cell_length_a   7.36489705
_cell_length_b   4.78575729
_cell_length_c   17.63229614
_cell_angle_alpha   90.00000000
_cell_angle_beta   87.40151539
_cell_angle_gamma   90.00000000
_symmetry_Int_Tables_number   1
_chemical_formula_structural   LiNiPO4
_chemical_formula_sum   'Li8 Ni8 P8 O32'
_cell_volume   620.83963751
_cell_formula_units_Z   8
loop_
 _symmetry_equiv_pos_site_id
 _symmetry_equiv_pos_as_xyz
  1  'x, y, z'
loop_
 _atom_site_type_symbol
 _atom_site_label
 _atom_site_symmetry_multiplicity
 _atom_site_fract_x
 _atom_site_fract_y
 _atom_site_fract_z
 _atom_site_occupancy
  Li  Li0  1  0.13704300  0.77952979  0.77597144  1
  Li  Li1  1  0.13704300  0.72047021  0.27597144  1
  Li  Li2  1  0.34602528  0.21675498  0.51419037  1
  Li  Li3  1  0.34602528  0.28324502  0.01419037  1
  Li  Li4  1  0.65397472  0.71675498  0.98580963  1
  Li  Li5  1  0.65397472  0.78324502  0.48580963  1
  Li  Li6  1  0.86295700  0.27952979  0.72402856  1
  Li  Li7  1  0.86295700  0.22047021  0.22402856  1
  Ni  Ni8  1  0.04183434  0.71368421  0.60010340  1
  Ni  Ni9  1  0.04183434  0.78631579  0.10010340  1
  Ni  Ni10  1  0.49734822  0.34950608  0.82708541  1
  Ni  Ni11  1  0.49734822  0.15049392  0.32708541  1
  Ni  Ni12  1  0.50265178  0.84950608  0.67291459  1
  Ni  Ni13  1  0.50265178  0.65049392  0.17291459  1
  Ni  Ni14  1  0.95816566  0.21368421  0.89989660  1
  Ni  Ni15  1  0.95816566  0.28631579  0.39989660  1
  P  P16  1  0.25505169  0.35820471  0.67884472  1
  P  P17  1  0.25505169  0.14179529  0.17884472  1
  P  P18  1  0.22456215  0.69144435  0.93073370  1
  P  P19  1  0.22456215  0.80855565  0.43073370  1
  P  P20  1  0.77543785  0.19144435  0.56926630  1
  P  P21  1  0.77543785  0.30855565  0.06926630  1
  P  P22  1  0.74494831  0.85820471  0.82115528  1
  P  P23  1  0.74494831  0.64179529  0.32115528  1
  O  O24  1  0.07306979  0.49358431  0.70650205  1
  O  O25  1  0.07306979  0.00641569  0.20650205  1
  O  O26  1  0.17203752  0.59772486  0.01219357  1
  O  O27  1  0.10817081  0.54995205  0.87077648  1
  O  O28  1  0.27974894  0.45983421  0.59609701  1
  O  O29  1  0.26143383  0.03906045  0.69103753  1
  O  O30  1  0.17203752  0.90227514  0.51219357  1
  O  O31  1  0.10817081  0.95004795  0.37077648  1
  O  O32  1  0.27974894  0.04016579  0.09609701  1
  O  O33  1  0.26143383  0.46093955  0.19103753  1
  O  O34  1  0.21150213  0.01304932  0.92055174  1
  O  O35  1  0.21150213  0.48695068  0.42055174  1
  O  O36  1  0.41170963  0.49393960  0.72537045  1
  O  O37  1  0.41170963  0.00606040  0.22537045  1
  O  O38  1  0.42503592  0.57925925  0.91674648  1
  O  O39  1  0.42503592  0.92074075  0.41674648  1
  O  O40  1  0.57496408  0.07925925  0.58325352  1
  O  O41  1  0.57496408  0.42074075  0.08325352  1
  O  O42  1  0.58829037  0.99393960  0.77462955  1
  O  O43  1  0.58829037  0.50606040  0.27462955  1
  O  O44  1  0.78849787  0.51304932  0.57944826  1
  O  O45  1  0.78849787  0.98695068  0.07944826  1
  O  O46  1  0.73856617  0.53906045  0.80896247  1
  O  O47  1  0.72025106  0.95983421  0.90390299  1
  O  O48  1  0.89182919  0.04995205  0.62922352  1
  O  O49  1  0.82796248  0.09772486  0.48780643  1
  O  O50  1  0.73856617  0.96093955  0.30896247  1
  O  O51  1  0.72025106  0.54016579  0.40390299  1
  O  O52  1  0.89182919  0.45004795  0.12922352  1
  O  O53  1  0.82796248  0.40227514  0.98780643  1
  O  O54  1  0.92693021  0.99358431  0.79349795  1
  O  O55  1  0.92693021  0.50641569  0.29349795  1
