# generated using pymatgen
data_LiCoPO4
_symmetry_space_group_name_H-M   'P 1'
_cell_length_a   4.29468055
_cell_length_b   14.62785191
_cell_length_c   4.76229812
_cell_angle_alpha   89.99960643
_cell_angle_beta   90.00010907
_cell_angle_gamma   89.99982077
_symmetry_Int_Tables_number   1
_chemical_formula_structural   LiCoPO4
_chemical_formula_sum   'Li4 Co4 P4 O16'
_cell_volume   299.17685955
_cell_formula_units_Z   4
loop_
 _symmetry_equiv_pos_site_id
 _symmetry_equiv_pos_as_xyz
  1  'x, y, z'
loop_
 _atom_site_type_symbol
 _atom_site_label
 _atom_site_symmetry_multiplicity
 _atom_site_fract_x
 _atom_site_fract_y
 _atom_site_fract_z
 _atom_site_occupancy
  Li  Li0  1  0.00000005  0.24861832  0.74999988  1
  Li  Li1  1  -0.00000004  0.75138163  0.25000002  1
  Li  Li2  1  0.49999996  0.25138150  0.25000013  1
  Li  Li3  1  0.49999999  0.74861848  0.75000005  1
  Co  Co4  1  -0.00000077  0.06230888  0.24999954  1
  Co  Co5  1  0.00000089  0.93769139  0.75000024  1
  Co  Co6  1  0.50000049  0.56230828  0.24999920  1
  Co  Co7  1  0.49999775  0.43769154  0.75000176  1
  P  P8  1  -0.00000016  0.38705930  0.25000034  1
  P  P9  1  -0.00000109  0.61294108  0.75000130  1
  P  P10  1  0.50000008  0.11294045  0.74999963  1
  P  P11  1  0.49999959  0.88705837  0.24999938  1
  O  O12  1  0.18720931  0.32824567  0.46421914  1
  O  O13  1  0.18721158  0.67175438  0.96422017  1
  O  O14  1  0.26382360  0.05231342  0.58596514  1
  O  O15  1  0.26382164  0.94768702  0.08596052  1
  O  O16  1  0.23617739  0.44768765  0.08596309  1
  O  O17  1  0.23617831  0.55231224  0.58596162  1
  O  O18  1  0.31278841  0.17175514  0.96422125  1
  O  O19  1  0.31278948  0.82824511  0.46421946  1
  O  O20  1  0.68721051  0.17175501  0.53577998  1
  O  O21  1  0.68721112  0.82824488  0.03578026  1
  O  O22  1  0.76382397  0.55231305  0.91403839  1
  O  O23  1  0.76382473  0.44768709  0.41403617  1
  O  O24  1  0.73617669  0.05231314  0.91403553  1
  O  O25  1  0.73617860  0.94768702  0.41403944  1
  O  O26  1  0.81278795  0.32824561  0.03577801  1
  O  O27  1  0.81278997  0.67175438  0.53578037  1
