# generated using pymatgen
data_Li2Mn3O6
_symmetry_space_group_name_H-M   'P 1'
_cell_length_a   7.28573956
_cell_length_b   5.75243580
_cell_length_c   10.46817883
_cell_angle_alpha   92.99554200
_cell_angle_beta   84.39971482
_cell_angle_gamma   88.47866748
_symmetry_Int_Tables_number   1
_chemical_formula_structural   Li2Mn3O6
_chemical_formula_sum   'Li8 Mn12 O24'
_cell_volume   435.81736794
_cell_formula_units_Z   4
loop_
 _symmetry_equiv_pos_site_id
 _symmetry_equiv_pos_as_xyz
  1  'x, y, z'
loop_
 _atom_site_type_symbol
 _atom_site_label
 _atom_site_symmetry_multiplicity
 _atom_site_fract_x
 _atom_site_fract_y
 _atom_site_fract_z
 _atom_site_occupancy
  Li  Li0  1  0.35700790  0.87764129  0.21729473  1
  Li  Li1  1  0.35543327  0.88051298  0.71881515  1
  Li  Li2  1  0.64936663  0.88084344  0.02696366  1
  Li  Li3  1  0.69186410  0.12657099  0.30048549  1
  Li  Li4  1  0.64751721  0.87562323  0.53717385  1
  Li  Li5  1  0.98490561  0.12447994  0.12426842  1
  Li  Li6  1  0.97094252  0.11729124  0.61919469  1
  Li  Li7  1  0.97423505  0.35936471  0.85385538  1
  Mn  Mn8  1  0.00890980  0.61783467  0.11781698  1
  Mn  Mn9  1  0.00883436  0.61774336  0.61242236  1
  Mn  Mn10  1  0.32888162  0.38334174  0.22278332  1
  Mn  Mn11  1  0.33268774  0.11802349  0.46042077  1
  Mn  Mn12  1  0.33428730  0.38195585  0.72124609  1
  Mn  Mn13  1  0.33413673  0.11309113  0.96004756  1
  Mn  Mn14  1  0.66436813  0.36508825  0.03198852  1
  Mn  Mn15  1  0.66278984  0.63031637  0.29763090  1
  Mn  Mn16  1  0.67343073  0.36373893  0.53732342  1
  Mn  Mn17  1  0.65832574  0.63384010  0.79581442  1
  Mn  Mn18  1  0.00379331  0.87990455  0.37530542  1
  Mn  Mn19  1  0.99643147  0.87762553  0.87414992  1
  O  O20  1  0.13143949  0.85846536  0.02439352  1
  O  O21  1  0.18142909  0.35100493  0.07150430  1
  O  O22  1  0.16564370  0.64830699  0.26995310  1
  O  O23  1  0.13513423  0.86285179  0.52481295  1
  O  O24  1  0.19894312  0.13991357  0.30912475  1
  O  O25  1  0.18222997  0.35044929  0.57180594  1
  O  O26  1  0.15685154  0.63487606  0.77300824  1
  O  O27  1  0.19370900  0.14391421  0.81026087  1
  O  O28  1  0.48620524  0.14262369  0.10785098  1
  O  O29  1  0.51690931  0.60534319  0.14584587  1
  O  O30  1  0.50342634  0.38706396  0.36151053  1
  O  O31  1  0.51343081  0.89253974  0.36838675  1
  O  O32  1  0.48337584  0.14382960  0.60700444  1
  O  O33  1  0.51682202  0.60586857  0.64660464  1
  O  O34  1  0.49834542  0.39700030  0.86360594  1
  O  O35  1  0.50922824  0.88736279  0.87114793  1
  O  O36  1  0.82529199  0.40428801  0.19366973  1
  O  O37  1  0.85063205  0.85721804  0.22608360  1
  O  O38  1  0.82446466  0.10685479  0.46550292  1
  O  O39  1  0.80662548  0.61130398  0.45285871  1
  O  O40  1  0.83499569  0.40832072  0.69685092  1
  O  O41  1  0.85105100  0.85179774  0.72288152  1
  O  O42  1  0.84060886  0.12473898  0.96722004  1
  O  O43  1  0.80753081  0.61016589  0.94811375  1
