# generated using pymatgen
data_LiCoPO4
_symmetry_space_group_name_H-M   'P 1'
_cell_length_a   7.58551309
_cell_length_b   4.84683190
_cell_length_c   17.44934371
_cell_angle_alpha   90.00000000
_cell_angle_beta   87.21347612
_cell_angle_gamma   90.00000000
_symmetry_Int_Tables_number   1
_chemical_formula_structural   LiCoPO4
_chemical_formula_sum   'Li8 Co8 P8 O32'
_cell_volume   640.77890069
_cell_formula_units_Z   8
loop_
 _symmetry_equiv_pos_site_id
 _symmetry_equiv_pos_as_xyz
  1  'x, y, z'
loop_
 _atom_site_type_symbol
 _atom_site_label
 _atom_site_symmetry_multiplicity
 _atom_site_fract_x
 _atom_site_fract_y
 _atom_site_fract_z
 _atom_site_occupancy
  Li  Li0  1  0.12576020  0.79800636  0.77476638  1
  Li  Li1  1  0.12576020  0.70199364  0.27476638  1
  Li  Li2  1  0.35223592  0.21527073  0.51052140  1
  Li  Li3  1  0.35223592  0.28472927  0.01052140  1
  Li  Li4  1  0.64776408  0.71527073  0.98947860  1
  Li  Li5  1  0.64776408  0.78472927  0.48947860  1
  Li  Li6  1  0.87423980  0.29800636  0.72523362  1
  Li  Li7  1  0.87423980  0.20199364  0.22523362  1
  Co  Co8  1  0.02648393  0.72489745  0.59731718  1
  Co  Co9  1  0.02648393  0.77510255  0.09731718  1
  Co  Co10  1  0.50740263  0.37505270  0.82353645  1
  Co  Co11  1  0.50740263  0.12494730  0.32353645  1
  Co  Co12  1  0.49259737  0.87505270  0.67646355  1
  Co  Co13  1  0.49259737  0.62494730  0.17646355  1
  Co  Co14  1  0.97351607  0.22489745  0.90268282  1
  Co  Co15  1  0.97351607  0.27510255  0.40268282  1
  P  P16  1  0.25572722  0.37355297  0.67512458  1
  P  P17  1  0.25572722  0.12644703  0.17512458  1
  P  P18  1  0.22847824  0.69193568  0.93068725  1
  P  P19  1  0.22847824  0.80806432  0.43068725  1
  P  P20  1  0.77152176  0.19193568  0.56931275  1
  P  P21  1  0.77152176  0.30806432  0.06931275  1
  P  P22  1  0.74427278  0.87355297  0.82487542  1
  P  P23  1  0.74427278  0.62644703  0.32487542  1
  O  O24  1  0.07811665  0.51469121  0.70105573  1
  O  O25  1  0.07811665  0.98530879  0.20105573  1
  O  O26  1  0.17212808  0.59310179  0.01259843  1
  O  O27  1  0.11685844  0.55544114  0.86877350  1
  O  O28  1  0.28529013  0.45592745  0.59096649  1
  O  O29  1  0.25474794  0.06021657  0.69258575  1
  O  O30  1  0.17212808  0.90689821  0.51259843  1
  O  O31  1  0.11685844  0.94455886  0.36877350  1
  O  O32  1  0.28529013  0.04407255  0.09096649  1
  O  O33  1  0.25474794  0.43978343  0.19258575  1
  O  O34  1  0.21648912  0.00946118  0.92168370  1
  O  O35  1  0.21648912  0.49053882  0.42168370  1
  O  O36  1  0.40871158  0.50749628  0.72239981  1
  O  O37  1  0.40871158  0.99250372  0.22239981  1
  O  O38  1  0.42280590  0.57410518  0.91783185  1
  O  O39  1  0.42280590  0.92589482  0.41783185  1
  O  O40  1  0.57719410  0.07410518  0.58216815  1
  O  O41  1  0.57719410  0.42589482  0.08216815  1
  O  O42  1  0.59128842  0.00749628  0.77760019  1
  O  O43  1  0.59128842  0.49250372  0.27760019  1
  O  O44  1  0.78351088  0.50946118  0.57831630  1
  O  O45  1  0.78351088  0.99053882  0.07831630  1
  O  O46  1  0.74525206  0.56021657  0.80741425  1
  O  O47  1  0.71470987  0.95592745  0.90903351  1
  O  O48  1  0.88314156  0.05544114  0.63122650  1
  O  O49  1  0.82787292  0.09310179  0.48740157  1
  O  O50  1  0.74525206  0.93978343  0.30741425  1
  O  O51  1  0.71470987  0.54407255  0.40903351  1
  O  O52  1  0.88314156  0.44455886  0.13122650  1
  O  O53  1  0.82787292  0.40689821  0.98740157  1
  O  O54  1  0.92188335  0.01469121  0.79894427  1
  O  O55  1  0.92188335  0.48530879  0.29894427  1
