# generated using pymatgen
data_La9Ni5O19
_symmetry_space_group_name_H-M   'P 1'
_cell_length_a   5.44748224
_cell_length_b   6.80831888
_cell_length_c   14.28215582
_cell_angle_alpha   85.62434592
_cell_angle_beta   100.99418584
_cell_angle_gamma   113.58198237
_symmetry_Int_Tables_number   1
_chemical_formula_structural   La9Ni5O19
_chemical_formula_sum   'La9 Ni5 O19'
_cell_volume   476.55351479
_cell_formula_units_Z   1
loop_
 _symmetry_equiv_pos_site_id
 _symmetry_equiv_pos_as_xyz
  1  'x, y, z'
loop_
 _atom_site_type_symbol
 _atom_site_label
 _atom_site_symmetry_multiplicity
 _atom_site_fract_x
 _atom_site_fract_y
 _atom_site_fract_z
 _atom_site_occupancy
  La  La0  1  0.40331802  0.80663703  0.00000000  1
  La  La1  1  0.94437280  0.71075525  0.17798936  1
  La  La2  1  0.83866166  0.27758120  0.39974212  1
  La  La3  1  0.23840553  0.26836804  0.20844201  1
  La  La4  1  0.56217131  0.72108693  0.40325570  1
  La  La5  1  0.43891954  0.27758120  0.60025788  1
  La  La6  1  0.15891561  0.72108693  0.59674430  1
  La  La7  1  0.76638244  0.71075525  0.82201064  1
  La  La8  1  0.02996251  0.26836804  0.79155799  1
  Ni  Ni9  1  0.60977153  0.01888592  0.20065715  1
  Ni  Ni10  1  0.00687415  0.01374731  0.00000000  1
  Ni  Ni11  1  0.19278818  0.98579917  0.39977819  1
  Ni  Ni12  1  0.79300999  0.98579917  0.60022181  1
  Ni  Ni13  1  0.40911438  0.01888592  0.79934285  1
  O  O14  1  0.84418506  0.68837012  0.00000000  1
  O  O15  1  0.82695972  0.02576937  0.10598511  1
  O  O16  1  0.88167827  0.96166749  0.29968279  1
  O  O17  1  0.30479476  0.02576937  0.10598511  1
  O  O18  1  0.79366959  0.35346877  0.23387041  1
  O  O19  1  0.37967201  0.96166749  0.29968279  1
  O  O20  1  0.39722583  0.62771248  0.16673919  1
  O  O21  1  0.50801800  0.01603700  0.50000000  1
  O  O22  1  0.98142778  0.34839799  0.61445756  1
  O  O23  1  0.36697022  0.34839799  0.38554244  1
  O  O24  1  0.00801800  0.01603700  0.50000000  1
  O  O25  1  0.03361031  0.64210832  0.42511130  1
  O  O26  1  0.58199547  0.96166749  0.70031721  1
  O  O27  1  0.60849901  0.64210832  0.57488870  1
  O  O28  1  0.72097462  0.02576937  0.89401489  1
  O  O29  1  0.07998922  0.96166749  0.70031721  1
  O  O30  1  0.55979918  0.35346877  0.76612959  1
  O  O31  1  0.19880965  0.02576937  0.89401489  1
  O  O32  1  0.23048664  0.62771248  0.83326081  1
