# generated using pymatgen
data_Li2Fe(PO3)4
_symmetry_space_group_name_H-M   'P 1'
_cell_length_a   7.82565646
_cell_length_b   12.73383893
_cell_length_c   10.62109240
_cell_angle_alpha   90.00000000
_cell_angle_beta   102.32908210
_cell_angle_gamma   90.00000000
_symmetry_Int_Tables_number   1
_chemical_formula_structural   Li2Fe(PO3)4
_chemical_formula_sum   'Li8 Fe4 P16 O48'
_cell_volume   1033.98923721
_cell_formula_units_Z   4
loop_
 _symmetry_equiv_pos_site_id
 _symmetry_equiv_pos_as_xyz
  1  'x, y, z'
loop_
 _atom_site_type_symbol
 _atom_site_label
 _atom_site_symmetry_multiplicity
 _atom_site_fract_x
 _atom_site_fract_y
 _atom_site_fract_z
 _atom_site_occupancy
  Li  Li0  1  0.10594368  0.79255930  0.66078097  1
  Li  Li1  1  0.14375550  0.41328040  0.07457442  1
  Li  Li2  1  0.39405632  0.29255930  0.83921903  1
  Li  Li3  1  0.35624450  0.91328040  0.42542558  1
  Li  Li4  1  0.64375550  0.08671960  0.57457442  1
  Li  Li5  1  0.60594368  0.70744070  0.16078097  1
  Li  Li6  1  0.85624450  0.58671960  0.92542558  1
  Li  Li7  1  0.89405632  0.20744070  0.33921903  1
  Fe  Fe8  1  0.25139134  0.34551118  0.48834283  1
  Fe  Fe9  1  0.24860866  0.84551118  0.01165717  1
  Fe  Fe10  1  0.75139134  0.15448882  0.98834283  1
  Fe  Fe11  1  0.74860866  0.65448882  0.51165717  1
  P  P12  1  0.05564535  0.16600477  0.64356903  1
  P  P13  1  0.21077316  0.56585144  0.63957750  1
  P  P14  1  0.07712677  0.67995865  0.19115016  1
  P  P15  1  0.28922684  0.06585144  0.86042250  1
  P  P16  1  0.15385080  0.08342881  0.09884389  1
  P  P17  1  0.44435465  0.66600477  0.85643097  1
  P  P18  1  0.34614920  0.58342881  0.40115611  1
  P  P19  1  0.42287323  0.17995865  0.30884984  1
  P  P20  1  0.57712677  0.82004135  0.69115016  1
  P  P21  1  0.65385080  0.41657119  0.59884389  1
  P  P22  1  0.55564535  0.33399523  0.14356903  1
  P  P23  1  0.84614920  0.91657119  0.90115611  1
  P  P24  1  0.71077316  0.93414856  0.13957750  1
  P  P25  1  0.92287323  0.32004135  0.80884984  1
  P  P26  1  0.78922684  0.43414856  0.36042250  1
  P  P27  1  0.94435465  0.83399523  0.35643097  1
  O  O28  1  0.07569205  0.25508547  0.75800116  1
  O  O29  1  0.06862326  0.64310932  0.65070776  1
  O  O30  1  0.18001284  0.11650973  0.95788463  1
  O  O31  1  0.12934892  0.85895472  0.42122774  1
  O  O32  1  0.99006214  0.60101745  0.09364292  1
  O  O33  1  0.16589092  0.45302723  0.60711934  1
  O  O34  1  0.14109648  0.06492996  0.72650952  1
  O  O35  1  0.00764211  0.14967747  0.12891076  1
  O  O36  1  0.32715795  0.70137781  0.94337281  1
  O  O37  1  0.17284205  0.20137781  0.55662719  1
  O  O38  1  0.15879144  0.62024905  0.32069593  1
  O  O39  1  0.35890352  0.56492996  0.77349048  1
  O  O40  1  0.33410908  0.95302723  0.89288066  1
  O  O41  1  0.31998716  0.61650973  0.54211537  1
  O  O42  1  0.15216550  0.96656477  0.11368746  1
  O  O43  1  0.21112713  0.75422745  0.16038963  1
  O  O44  1  0.28887287  0.25422745  0.33961037  1
  O  O45  1  0.34783450  0.46656477  0.38631254  1
  O  O46  1  0.43137674  0.14310932  0.84929224  1
  O  O47  1  0.42430795  0.75508547  0.74199884  1
  O  O48  1  0.34120856  0.12024905  0.17930407  1
  O  O49  1  0.62934892  0.64104528  0.92122774  1
  O  O50  1  0.49006214  0.89898255  0.59364292  1
  O  O51  1  0.50764211  0.35032253  0.62891076  1
  O  O52  1  0.49235789  0.64967747  0.37108924  1
  O  O53  1  0.50993786  0.10101745  0.40635708  1
  O  O54  1  0.37065108  0.35895472  0.07877226  1
  O  O55  1  0.65879144  0.87975095  0.82069593  1
  O  O56  1  0.57569205  0.24491453  0.25800116  1
  O  O57  1  0.56862326  0.85689068  0.15070776  1
  O  O58  1  0.65216550  0.53343523  0.61368746  1
  O  O59  1  0.71112713  0.74577255  0.66038963  1
  O  O60  1  0.78887287  0.24577255  0.83961037  1
  O  O61  1  0.84783450  0.03343523  0.88631254  1
  O  O62  1  0.68001284  0.38349027  0.45788463  1
  O  O63  1  0.66589092  0.04697277  0.10711934  1
  O  O64  1  0.64109648  0.43507004  0.22650952  1
  O  O65  1  0.84120856  0.37975095  0.67930407  1
  O  O66  1  0.82715795  0.79862219  0.44337281  1
  O  O67  1  0.67284205  0.29862219  0.05662719  1
  O  O68  1  0.99235789  0.85032253  0.87108924  1
  O  O69  1  0.85890352  0.93507004  0.27349048  1
  O  O70  1  0.83410908  0.54697277  0.39288066  1
  O  O71  1  0.00993786  0.39898255  0.90635708  1
  O  O72  1  0.87065108  0.14104528  0.57877226  1
  O  O73  1  0.81998716  0.88349027  0.04211537  1
  O  O74  1  0.93137674  0.35689068  0.34929224  1
  O  O75  1  0.92430795  0.74491453  0.24199884  1
