# generated using pymatgen
data_LiCr(PO3)4
_symmetry_space_group_name_H-M   'P 1'
_cell_length_a   6.86935902
_cell_length_b   7.29904357
_cell_length_c   8.68468232
_cell_angle_alpha   90.00000000
_cell_angle_beta   90.00000000
_cell_angle_gamma   96.14543936
_symmetry_Int_Tables_number   1
_chemical_formula_structural   LiCr(PO3)4
_chemical_formula_sum   'Li2 Cr2 P8 O24'
_cell_volume   432.94544385
_cell_formula_units_Z   2
loop_
 _symmetry_equiv_pos_site_id
 _symmetry_equiv_pos_as_xyz
  1  'x, y, z'
loop_
 _atom_site_type_symbol
 _atom_site_label
 _atom_site_symmetry_multiplicity
 _atom_site_fract_x
 _atom_site_fract_y
 _atom_site_fract_z
 _atom_site_occupancy
  Li  Li0  1  0.32662686  0.69351716  0.29776193  1
  Li  Li1  1  0.67337314  0.30648284  0.79776193  1
  Cr  Cr2  1  0.24171739  0.24039144  0.93113092  1
  Cr  Cr3  1  0.75828261  0.75960856  0.43113092  1
  P  P4  1  0.98070589  0.41072803  0.36691934  1
  P  P5  1  0.07945938  0.08893196  0.58316762  1
  P  P6  1  0.40871859  0.60211123  0.72966594  1
  P  P7  1  0.43765275  0.05736833  0.39471138  1
  P  P8  1  0.56234725  0.94263167  0.89471138  1
  P  P9  1  0.59128141  0.39788877  0.22966594  1
  P  P10  1  0.92054062  0.91106804  0.08316762  1
  P  P11  1  0.01929411  0.58927197  0.86691934  1
  O  O12  1  0.00232669  0.77761343  0.95841661  1
  O  O13  1  0.96932667  0.90212712  0.56020519  1
  O  O14  1  0.11023826  0.46098410  0.97559557  1
  O  O15  1  0.07702543  0.17325598  0.74152550  1
  O  O16  1  0.18459213  0.64951225  0.73556883  1
  O  O17  1  0.16965580  0.47258248  0.29293442  1
  O  O18  1  0.30864307  0.07908276  0.54816193  1
  O  O19  1  0.32118955  0.95300271  0.27374710  1
  O  O20  1  0.41533461  0.40165972  0.77802308  1
  O  O21  1  0.51041832  0.72532285  0.86480082  1
  O  O22  1  0.37086268  0.01163222  0.93789050  1
  O  O23  1  0.49541044  0.65731860  0.57648431  1
  O  O24  1  0.50458956  0.34268140  0.07648431  1
  O  O25  1  0.62913732  0.98836778  0.43789050  1
  O  O26  1  0.48958168  0.27467715  0.36480082  1
  O  O27  1  0.58466539  0.59834028  0.27802308  1
  O  O28  1  0.67881045  0.04699729  0.77374710  1
  O  O29  1  0.69135693  0.92091724  0.04816193  1
  O  O30  1  0.83034420  0.52741752  0.79293442  1
  O  O31  1  0.81540787  0.35048775  0.23556883  1
  O  O32  1  0.92297457  0.82674402  0.24152550  1
  O  O33  1  0.88976174  0.53901590  0.47559557  1
  O  O34  1  0.03067333  0.09787288  0.06020519  1
  O  O35  1  0.99767331  0.22238657  0.45841661  1
