# generated using pymatgen
data_Li4Ni5Sn(PO4)6
_symmetry_space_group_name_H-M   'P 1'
_cell_length_a   8.42950971
_cell_length_b   8.84285660
_cell_length_c   8.83493409
_cell_angle_alpha   60.05265665
_cell_angle_beta   58.98271927
_cell_angle_gamma   58.95993263
_symmetry_Int_Tables_number   1
_chemical_formula_structural   Li4Ni5Sn(PO4)6
_chemical_formula_sum   'Li4 Ni5 Sn1 P6 O24'
_cell_volume   458.47910260
_cell_formula_units_Z   1
loop_
 _symmetry_equiv_pos_site_id
 _symmetry_equiv_pos_as_xyz
  1  'x, y, z'
loop_
 _atom_site_type_symbol
 _atom_site_label
 _atom_site_symmetry_multiplicity
 _atom_site_fract_x
 _atom_site_fract_y
 _atom_site_fract_z
 _atom_site_occupancy
  Li  Li0  1  0.24835385  0.85601692  0.64090661  1
  Li  Li1  1  0.77775017  0.15406162  0.36167563  1
  Li  Li2  1  0.77880990  0.70327004  0.14928864  1
  Li  Li3  1  0.78260439  0.36711728  0.70102834  1
  Ni  Ni4  1  0.01791227  0.99729295  0.99604933  1
  Ni  Ni5  1  0.06308199  0.64593676  0.64766181  1
  Ni  Ni6  1  0.48951326  0.50067122  0.50138948  1
  Ni  Ni7  1  0.43624741  0.85267158  0.85347938  1
  Ni  Ni8  1  0.94360358  0.35125002  0.35079544  1
  Sn  Sn9  1  0.55386166  0.15110944  0.14888814  1
  P  P10  1  0.24343558  0.25691097  0.55875618  1
  P  P11  1  0.24337444  0.94520850  0.25015108  1
  P  P12  1  0.24156770  0.55852924  0.94644668  1
  P  P13  1  0.74618622  0.45736722  0.04653288  1
  P  P14  1  0.76043231  0.04401398  0.74795335  1
  P  P15  1  0.73112448  0.75196987  0.46009843  1
  O  O16  1  0.05820377  0.10384332  0.31388980  1
  O  O17  1  0.05671968  0.52140315  0.10459010  1
  O  O18  1  0.05854728  0.32241931  0.51735134  1
  O  O19  1  0.22456159  0.09185638  0.74372842  1
  O  O20  1  0.43692496  0.18916004  0.39783127  1
  O  O21  1  0.27423886  0.40840079  0.56845446  1
  O  O22  1  0.22647059  0.92523339  0.09616982  1
  O  O23  1  0.27565670  0.75996523  0.41302903  1
  O  O24  1  0.55968727  0.59838477  0.00778401  1
  O  O25  1  0.27871740  0.57236497  0.74886930  1
  O  O26  1  0.77493023  0.24437214  0.08559628  1
  O  O27  1  0.59000010  0.98495614  0.82052410  1
  O  O28  1  0.43606554  0.98572425  0.17853817  1
  O  O29  1  0.21850750  0.75433338  0.92469687  1
  O  O30  1  0.72036290  0.44505066  0.24357739  1
  O  O31  1  0.43333511  0.39812998  0.98198405  1
  O  O32  1  0.72773880  0.23885278  0.58888040  1
  O  O33  1  0.77326428  0.08949366  0.89799464  1
  O  O34  1  0.72234453  0.58741870  0.44152563  1
  O  O35  1  0.52875595  0.82628336  0.59697536  1
  O  O36  1  0.76750771  0.89824914  0.24969444  1
  O  O37  1  0.90230397  0.70234245  0.50815010  1
  O  O38  1  0.93482603  0.48411362  0.89424811  1
  O  O39  1  0.96247304  0.89725278  0.69181553  1
