# generated using pymatgen
data_Li2Cr4P4O15
_symmetry_space_group_name_H-M   'P 1'
_cell_length_a   8.93959812
_cell_length_b   8.93959812
_cell_length_c   18.30889755
_cell_angle_alpha   82.83979749
_cell_angle_beta   97.16020251
_cell_angle_gamma   76.22394073
_symmetry_Int_Tables_number   1
_chemical_formula_structural   Li2Cr4P4O15
_chemical_formula_sum   'Li8 Cr16 P16 O60'
_cell_volume   1391.81073430
_cell_formula_units_Z   4
loop_
 _symmetry_equiv_pos_site_id
 _symmetry_equiv_pos_as_xyz
  1  'x, y, z'
loop_
 _atom_site_type_symbol
 _atom_site_label
 _atom_site_symmetry_multiplicity
 _atom_site_fract_x
 _atom_site_fract_y
 _atom_site_fract_z
 _atom_site_occupancy
  Li  Li0  1  0.53031155  0.01121414  0.75160553  1
  Li  Li1  1  0.68991481  0.45472642  0.94611952  1
  Li  Li2  1  0.45472642  0.68991481  0.55388048  1
  Li  Li3  1  0.98878586  0.46968845  0.25160553  1
  Li  Li4  1  0.01121414  0.53031155  0.74839447  1
  Li  Li5  1  0.54527358  0.31008519  0.44611952  1
  Li  Li6  1  0.31008519  0.54527358  0.05388048  1
  Li  Li7  1  0.46968845  0.98878586  0.24839447  1
  Cr  Cr8  1  0.04890615  0.84268331  0.56756734  1
  Cr  Cr9  1  0.09167258  0.28631089  0.93504739  1
  Cr  Cr10  1  0.00000000  0.50000000  0.50000000  1
  Cr  Cr11  1  0.15731669  0.95109385  0.06756734  1
  Cr  Cr12  1  0.18400935  0.18400935  0.75000000  1
  Cr  Cr13  1  0.45937980  0.45937980  0.75000000  1
  Cr  Cr14  1  0.94992643  0.94992643  0.75000000  1
  Cr  Cr15  1  0.71368911  0.90832742  0.43504739  1
  Cr  Cr16  1  0.28631089  0.09167258  0.56495261  1
  Cr  Cr17  1  0.05007357  0.05007357  0.25000000  1
  Cr  Cr18  1  0.81599065  0.81599065  0.25000000  1
  Cr  Cr19  1  0.54062020  0.54062020  0.25000000  1
  Cr  Cr20  1  0.84268331  0.04890615  0.93243266  1
  Cr  Cr21  1  0.90832742  0.71368911  0.06495261  1
  Cr  Cr22  1  0.95109385  0.15731669  0.43243266  1
  Cr  Cr23  1  0.50000000  0.00000000  0.00000000  1
  P  P24  1  0.22200688  0.91206972  0.89928709  1
  P  P25  1  0.02607139  0.69049199  0.89583178  1
  P  P26  1  0.30610801  0.83869880  0.67900298  1
  P  P27  1  0.08793028  0.77799312  0.39928709  1
  P  P28  1  0.30950801  0.97392861  0.39583178  1
  P  P29  1  0.24160976  0.44761845  0.62015767  1
  P  P30  1  0.16130020  0.69389199  0.17900298  1
  P  P31  1  0.44761845  0.24160976  0.87984233  1
  P  P32  1  0.55238155  0.75839024  0.12015767  1
  P  P33  1  0.83869880  0.30610801  0.82099702  1
  P  P34  1  0.75839024  0.55238155  0.37984233  1
  P  P35  1  0.69049199  0.02607139  0.60416822  1
  P  P36  1  0.91206972  0.22200688  0.60071291  1
  P  P37  1  0.69389199  0.16130020  0.32099702  1
  P  P38  1  0.97392861  0.30950801  0.10416822  1
  P  P39  1  0.77799312  0.08793028  0.10071291  1
  O  O40  1  0.15629092  0.97621175  0.81712544  1
  O  O41  1  0.13250811  0.83043914  0.67821120  1
  O  O42  1  0.19314917  0.74044395  0.91549101  1
  O  O43  1  0.39501981  0.89105083  0.92065039  1
  O  O44  1  0.07471365  0.52140159  0.93155411  1
  O  O45  1  0.02378825  0.84370908  0.31712544  1
  O  O46  1  0.32191579  0.84613008  0.59201322  1
  O  O47  1  0.11796940  0.59738132  0.57757139  1
  O  O48  1  0.99748780  0.33278435  0.80439984  1
  O  O49  1  0.16956086  0.86749189  0.17821120  1
  O  O50  1  0.42249568  0.70526514  0.73058964  1
  O  O51  1  0.25955605  0.80685083  0.41549101  1
  O  O52  1  0.10894917  0.60498019  0.42065039  1
  O  O53  1  0.47859841  0.92528635  0.43155411  1
  O  O54  1  0.18925613  0.40530214  0.69666079  1
  O  O55  1  0.72074466  0.97884844  0.68964325  1
  O  O56  1  0.12199538  0.01449642  0.94964666  1
  O  O57  1  0.90852972  0.79378100  0.93467284  1
  O  O58  1  0.32426294  0.23615952  0.93136946  1
  O  O59  1  0.15386992  0.67808421  0.09201322  1
  O  O60  1  0.47642624  0.40629246  0.86610943  1
  O  O61  1  0.40261868  0.88202960  0.07757139  1
  O  O62  1  0.40629246  0.47642624  0.63389057  1
  O  O63  1  0.23615952  0.32426294  0.56863054  1
  O  O64  1  0.79378100  0.90852972  0.56532716  1
  O  O65  1  0.01449642  0.12199538  0.55035334  1
  O  O66  1  0.66721565  0.00251220  0.30439984  1
  O  O67  1  0.29473486  0.57750432  0.23058964  1
  O  O68  1  0.97884844  0.72074466  0.81035675  1
  O  O69  1  0.40530214  0.18925613  0.80333921  1
  O  O70  1  0.59469786  0.81074387  0.19666079  1
  O  O71  1  0.02115156  0.27925534  0.18964325  1
  O  O72  1  0.70526514  0.42249568  0.76941036  1
  O  O73  1  0.33278435  0.99748780  0.69560016  1
  O  O74  1  0.98550358  0.87800462  0.44964666  1
  O  O75  1  0.20621900  0.09147028  0.43467284  1
  O  O76  1  0.76384048  0.67573706  0.43136946  1
  O  O77  1  0.59370754  0.52357376  0.36610943  1
  O  O78  1  0.59738132  0.11796940  0.92242861  1
  O  O79  1  0.52357376  0.59370754  0.13389057  1
  O  O80  1  0.84613008  0.32191579  0.90798678  1
  O  O81  1  0.67573706  0.76384048  0.06863054  1
  O  O82  1  0.09147028  0.20621900  0.06532716  1
  O  O83  1  0.87800462  0.98550358  0.05035334  1
  O  O84  1  0.27925534  0.02115156  0.31035675  1
  O  O85  1  0.81074387  0.59469786  0.30333921  1
  O  O86  1  0.52140159  0.07471365  0.56844589  1
  O  O87  1  0.89105083  0.39501981  0.57934961  1
  O  O88  1  0.74044395  0.19314917  0.58450899  1
  O  O89  1  0.57750432  0.29473486  0.26941036  1
  O  O90  1  0.83043914  0.13250811  0.82178880  1
  O  O91  1  0.00251220  0.66721565  0.19560016  1
  O  O92  1  0.88202960  0.40261868  0.42242861  1
  O  O93  1  0.67808421  0.15386992  0.40798678  1
  O  O94  1  0.97621175  0.15629092  0.68287456  1
  O  O95  1  0.92528635  0.47859841  0.06844589  1
  O  O96  1  0.60498019  0.10894917  0.07934961  1
  O  O97  1  0.80685083  0.25955605  0.08450899  1
  O  O98  1  0.86749189  0.16956086  0.32178880  1
  O  O99  1  0.84370908  0.02378825  0.18287456  1
