# generated using pymatgen
data_Li5V5O12
_symmetry_space_group_name_H-M   'P 1'
_cell_length_a   5.13653183
_cell_length_b   5.09006461
_cell_length_c   19.78077112
_cell_angle_alpha   85.35869434
_cell_angle_beta   88.05936314
_cell_angle_gamma   59.85802213
_symmetry_Int_Tables_number   1
_chemical_formula_structural   Li5V5O12
_chemical_formula_sum   'Li10 V10 O24'
_cell_volume   445.76313869
_cell_formula_units_Z   2
loop_
 _symmetry_equiv_pos_site_id
 _symmetry_equiv_pos_as_xyz
  1  'x, y, z'
loop_
 _atom_site_type_symbol
 _atom_site_label
 _atom_site_symmetry_multiplicity
 _atom_site_fract_x
 _atom_site_fract_y
 _atom_site_fract_z
 _atom_site_occupancy
  Li  Li0  1  0.82227211  0.84044341  0.99852924  1
  Li  Li1  1  0.81899853  0.60319943  0.75165689  1
  Li  Li2  1  0.50026535  0.87809149  0.87549570  1
  Li  Li3  1  0.82718931  0.33275973  0.49830425  1
  Li  Li4  1  0.49914399  0.51709235  0.99833835  1
  Li  Li5  1  0.50381255  0.73028469  0.25137833  1
  Li  Li6  1  0.81648355  0.08942524  0.25131612  1
  Li  Li7  1  0.17023716  0.92777347  0.75146985  1
  Li  Li8  1  0.49924664  0.37497530  0.37484590  1
  Li  Li9  1  0.50570713  0.00837417  0.49843692  1
  V  V10  1  0.83019329  0.96224030  0.62525298  1
  V  V11  1  0.83242652  0.70868874  0.37615670  1
  V  V12  1  0.82470049  0.21328856  0.87293598  1
  V  V13  1  0.83597243  0.45768081  0.12541960  1
  V  V14  1  0.49488574  0.62619013  0.62457383  1
  V  V15  1  0.16989130  0.53414527  0.87624467  1
  V  V16  1  0.49344750  0.12819514  0.12505752  1
  V  V17  1  0.16026174  0.79312911  0.12512869  1
  V  V18  1  0.16526308  0.29614702  0.62478828  1
  V  V19  1  0.17104694  0.03930311  0.37391851  1
  O  O20  1  0.86720128  0.89468385  0.82076483  1
  O  O21  1  0.85003010  0.99762703  0.42727875  1
  O  O22  1  0.85328855  0.49253100  0.92740056  1
  O  O23  1  0.81920278  0.65156760  0.57028214  1
  O  O24  1  0.83118475  0.78012106  0.18044555  1
  O  O25  1  0.84981496  0.40292610  0.32210349  1
  O  O26  1  0.84011019  0.27225829  0.67976478  1
  O  O27  1  0.50291625  0.93494945  0.68069878  1
  O  O28  1  0.52914867  0.71136749  0.43022468  1
  O  O29  1  0.51213705  0.52928823  0.82162825  1
  O  O30  1  0.82612107  0.14112248  0.07026438  1
  O  O31  1  0.49951157  0.80198662  0.06992178  1
  O  O32  1  0.52666133  0.20530786  0.92916421  1
  O  O33  1  0.50117906  0.44589705  0.18091097  1
  O  O34  1  0.51927705  0.28862097  0.56898845  1
  O  O35  1  0.15576737  0.98825147  0.56994219  1
  O  O36  1  0.14276561  0.84054328  0.92816025  1
  O  O37  1  0.52428381  0.01026854  0.31990132  1
  O  O38  1  0.14218059  0.63282670  0.67993637  1
  O  O39  1  0.14706133  0.75722351  0.32310838  1
  O  O40  1  0.16428722  0.50418764  0.06951906  1
  O  O41  1  0.13368281  0.24710269  0.82250296  1
  O  O42  1  0.14725098  0.34311194  0.42754085  1
  O  O43  1  0.16584728  0.08159268  0.18008071  1
