# generated using pymatgen
data_Fe4O5F3
_symmetry_space_group_name_H-M   'P 1'
_cell_length_a   4.69288117
_cell_length_b   10.31736333
_cell_length_c   5.61252302
_cell_angle_alpha   84.70285370
_cell_angle_beta   90.00000000
_cell_angle_gamma   90.00000000
_symmetry_Int_Tables_number   1
_chemical_formula_structural   Fe4O5F3
_chemical_formula_sum   'Fe8 O10 F6'
_cell_volume   270.58748310
_cell_formula_units_Z   2
loop_
 _symmetry_equiv_pos_site_id
 _symmetry_equiv_pos_as_xyz
  1  'x, y, z'
loop_
 _atom_site_type_symbol
 _atom_site_label
 _atom_site_symmetry_multiplicity
 _atom_site_fract_x
 _atom_site_fract_y
 _atom_site_fract_z
 _atom_site_occupancy
  Fe  Fe0  1  0.47738200  0.26396090  0.75398004  1
  Fe  Fe1  1  0.54891533  0.74372210  0.23967308  1
  Fe  Fe2  1  0.52216463  0.98694908  0.50790820  1
  Fe  Fe3  1  0.49313743  0.50391738  0.00008712  1
  Fe  Fe4  1  0.02261800  0.76396090  0.75398004  1
  Fe  Fe5  1  0.97783537  0.48694908  0.50790820  1
  Fe  Fe6  1  0.95108467  0.24372210  0.23967308  1
  Fe  Fe7  1  0.00686257  0.00391738  0.00008712  1
  O  O8  1  0.79598283  0.31969493  0.52312837  1
  O  O9  1  0.80032511  0.06727636  0.26351019  1
  O  O10  1  0.81819676  0.83893194  0.01751208  1
  O  O11  1  0.70401717  0.81969493  0.52312837  1
  O  O12  1  0.69967489  0.56727636  0.26351019  1
  O  O13  1  0.68180324  0.33893194  0.01751208  1
  O  O14  1  0.29402629  0.43561409  0.73792199  1
  O  O15  1  0.31746350  0.66926163  0.97582201  1
  O  O16  1  0.18253650  0.16926163  0.97582201  1
  O  O17  1  0.20597371  0.93561409  0.73792199  1
  F  F18  1  0.81235163  0.58258342  0.76893862  1
  F  F19  1  0.68764837  0.08258342  0.76893862  1
  F  F20  1  0.30550825  0.91618523  0.23837909  1
  F  F21  1  0.30397783  0.17190194  0.47314021  1
  F  F22  1  0.19602217  0.67190194  0.47314021  1
  F  F23  1  0.19449175  0.41618523  0.23837909  1
