# generated using pymatgen
data_K2LiMn2O4
_symmetry_space_group_name_H-M   'P 1'
_cell_length_a   6.51053505
_cell_length_b   6.51053499
_cell_length_c   6.59933073
_cell_angle_alpha   86.99728980
_cell_angle_beta   93.00270834
_cell_angle_gamma   86.11251601
_symmetry_Int_Tables_number   1
_chemical_formula_structural   K2LiMn2O4
_chemical_formula_sum   'K4 Li2 Mn4 O8'
_cell_volume   278.25993990
_cell_formula_units_Z   2
loop_
 _symmetry_equiv_pos_site_id
 _symmetry_equiv_pos_as_xyz
  1  'x, y, z'
loop_
 _atom_site_type_symbol
 _atom_site_label
 _atom_site_symmetry_multiplicity
 _atom_site_fract_x
 _atom_site_fract_y
 _atom_site_fract_z
 _atom_site_occupancy
  K  K0  1  0.97874026  0.97874026  0.25000000  1
  K  K1  1  0.02125974  0.02125974  0.75000000  1
  K  K2  1  0.00000000  0.50000000  0.00000000  1
  K  K3  1  0.50000000  0.00000000  0.50000000  1
  Li  Li4  1  0.35576188  0.35576188  0.25000000  1
  Li  Li5  1  0.64423812  0.64423812  0.75000000  1
  Mn  Mn6  1  0.19109680  0.58263947  0.53338207  1
  Mn  Mn7  1  0.41736053  0.80890320  0.03338207  1
  Mn  Mn8  1  0.58263947  0.19109680  0.96661793  1
  Mn  Mn9  1  0.80890320  0.41736053  0.46661793  1
  O  O10  1  0.11513533  0.31197220  0.44474923  1
  O  O11  1  0.31197220  0.11513533  0.05525077  1
  O  O12  1  0.28991554  0.66631242  0.25612227  1
  O  O13  1  0.33368758  0.71008446  0.75612227  1
  O  O14  1  0.66631242  0.28991554  0.24387773  1
  O  O15  1  0.71008446  0.33368758  0.74387773  1
  O  O16  1  0.68802780  0.88486467  0.94474923  1
  O  O17  1  0.88486467  0.68802780  0.55525077  1
