# generated using pymatgen
data_Li3VFe3O8
_symmetry_space_group_name_H-M   'P 1'
_cell_length_a   6.01208156
_cell_length_b   5.98585411
_cell_length_c   6.00051498
_cell_angle_alpha   120.00805224
_cell_angle_beta   120.98404515
_cell_angle_gamma   89.50810982
_symmetry_Int_Tables_number   1
_chemical_formula_structural   Li3VFe3O8
_chemical_formula_sum   'Li3 V1 Fe3 O8'
_cell_volume   151.03784028
_cell_formula_units_Z   1
loop_
 _symmetry_equiv_pos_site_id
 _symmetry_equiv_pos_as_xyz
  1  'x, y, z'
loop_
 _atom_site_type_symbol
 _atom_site_label
 _atom_site_symmetry_multiplicity
 _atom_site_fract_x
 _atom_site_fract_y
 _atom_site_fract_z
 _atom_site_occupancy
  Li  Li0  1  0.00000000  0.00000000  0.50000000  1
  Li  Li1  1  0.50000000  0.99999900  0.00000000  1
  Li  Li2  1  0.50000000  0.50000000  0.00000000  1
  V  V3  1  0.00000000  0.00000100  0.00000000  1
  Fe  Fe4  1  0.50000000  0.00000000  0.50000000  1
  Fe  Fe5  1  0.50000000  0.50000000  0.50000000  1
  Fe  Fe6  1  0.00000100  0.50000000  0.00000100  1
  O  O7  1  0.76130453  0.23612325  0.98094445  1
  O  O8  1  0.24422542  0.22829259  0.45957861  1
  O  O9  1  0.26857017  0.74590017  0.48317147  1
  O  O10  1  0.76146442  0.75011338  0.99024193  1
  O  O11  1  0.23853558  0.24988662  0.00975807  1
  O  O12  1  0.73142883  0.25409983  0.51682753  1
  O  O13  1  0.75577558  0.77170841  0.54042239  1
  O  O14  1  0.23869447  0.76387775  0.01905555  1
