# generated using pymatgen
data_LiCoSiO4
_symmetry_space_group_name_H-M   'P 1'
_cell_length_a   4.89412047
_cell_length_b   4.89412047
_cell_length_c   6.26044442
_cell_angle_alpha   90.00000000
_cell_angle_beta   90.00000000
_cell_angle_gamma   68.41002591
_symmetry_Int_Tables_number   1
_chemical_formula_structural   LiCoSiO4
_chemical_formula_sum   'Li2 Co2 Si2 O8'
_cell_volume   139.43221117
_cell_formula_units_Z   2
loop_
 _symmetry_equiv_pos_site_id
 _symmetry_equiv_pos_as_xyz
  1  'x, y, z'
loop_
 _atom_site_type_symbol
 _atom_site_label
 _atom_site_symmetry_multiplicity
 _atom_site_fract_x
 _atom_site_fract_y
 _atom_site_fract_z
 _atom_site_occupancy
  Li  Li0  1  0.32655948  0.32655948  0.75000000  1
  Li  Li1  1  0.67344052  0.67344052  0.25000000  1
  Co  Co2  1  0.00000000  0.00000000  0.00000000  1
  Co  Co3  1  0.00000000  0.00000000  0.50000000  1
  Si  Si4  1  0.34769341  0.34769341  0.25000000  1
  Si  Si5  1  0.65230659  0.65230659  0.75000000  1
  O  O6  1  0.28771285  0.76743094  0.75000000  1
  O  O7  1  0.23256906  0.71228715  0.25000000  1
  O  O8  1  0.23076394  0.23076394  0.03698680  1
  O  O9  1  0.23076394  0.23076394  0.46301320  1
  O  O10  1  0.76923606  0.76923606  0.53698680  1
  O  O11  1  0.76923606  0.76923606  0.96301320  1
  O  O12  1  0.71228715  0.23256906  0.25000000  1
  O  O13  1  0.76743094  0.28771285  0.75000000  1
