# generated using pymatgen
data_Na5CrHO4
_symmetry_space_group_name_H-M   'P 1'
_cell_length_a   10.09171859
_cell_length_b   10.13168481
_cell_length_c   12.36299213
_cell_angle_alpha   90.00000000
_cell_angle_beta   90.00000000
_cell_angle_gamma   90.00000000
_symmetry_Int_Tables_number   1
_chemical_formula_structural   Na5CrHO4
_chemical_formula_sum   'Na40 Cr8 H8 O32'
_cell_volume   1264.06787730
_cell_formula_units_Z   8
loop_
 _symmetry_equiv_pos_site_id
 _symmetry_equiv_pos_as_xyz
  1  'x, y, z'
loop_
 _atom_site_type_symbol
 _atom_site_label
 _atom_site_symmetry_multiplicity
 _atom_site_fract_x
 _atom_site_fract_y
 _atom_site_fract_z
 _atom_site_occupancy
  Na  Na0  1  0.99237530  0.59107652  0.20963547  1
  Na  Na1  1  0.99237530  0.90892348  0.20963547  1
  Na  Na2  1  0.07891971  0.07189463  0.41428662  1
  Na  Na3  1  0.07891971  0.42810537  0.41428662  1
  Na  Na4  1  0.08733467  0.75000000  0.44896463  1
  Na  Na5  1  0.11887100  0.25000000  0.98590449  1
  Na  Na6  1  0.12981267  0.56921836  0.98412581  1
  Na  Na7  1  0.12981267  0.93078164  0.98412581  1
  Na  Na8  1  0.22081567  0.58359409  0.68039429  1
  Na  Na9  1  0.22081567  0.91640591  0.68039429  1
  Na  Na10  1  0.27918433  0.08359409  0.18039429  1
  Na  Na11  1  0.27918433  0.41640591  0.18039429  1
  Na  Na12  1  0.37018733  0.06921836  0.48412581  1
  Na  Na13  1  0.37018733  0.43078164  0.48412581  1
  Na  Na14  1  0.38112900  0.75000000  0.48590449  1
  Na  Na15  1  0.41266533  0.25000000  0.94896463  1
  Na  Na16  1  0.42108029  0.57189463  0.91428662  1
  Na  Na17  1  0.42108029  0.92810537  0.91428662  1
  Na  Na18  1  0.50762470  0.09107652  0.70963547  1
  Na  Na19  1  0.50762470  0.40892348  0.70963547  1
  Na  Na20  1  0.49237530  0.59107652  0.29036453  1
  Na  Na21  1  0.49237530  0.90892348  0.29036453  1
  Na  Na22  1  0.57891971  0.07189463  0.08571338  1
  Na  Na23  1  0.57891971  0.42810537  0.08571338  1
  Na  Na24  1  0.58733467  0.75000000  0.05103537  1
  Na  Na25  1  0.61887100  0.25000000  0.51409551  1
  Na  Na26  1  0.62981267  0.56921836  0.51587419  1
  Na  Na27  1  0.62981267  0.93078164  0.51587419  1
  Na  Na28  1  0.72081567  0.58359409  0.81960571  1
  Na  Na29  1  0.72081567  0.91640591  0.81960571  1
  Na  Na30  1  0.77918433  0.08359409  0.31960571  1
  Na  Na31  1  0.77918433  0.41640591  0.31960571  1
  Na  Na32  1  0.87018733  0.06921836  0.01587419  1
  Na  Na33  1  0.87018733  0.43078164  0.01587419  1
  Na  Na34  1  0.88112900  0.75000000  0.01409551  1
  Na  Na35  1  0.91266533  0.25000000  0.55103537  1
  Na  Na36  1  0.92108029  0.92810537  0.58571338  1
  Na  Na37  1  0.92108029  0.57189463  0.58571338  1
  Na  Na38  1  0.00762470  0.09107652  0.79036453  1
  Na  Na39  1  0.00762470  0.40892348  0.79036453  1
  Cr  Cr40  1  0.01064482  0.25000000  0.21056445  1
  Cr  Cr41  1  0.20105803  0.25000000  0.62016513  1
  Cr  Cr42  1  0.29894197  0.75000000  0.12016513  1
  Cr  Cr43  1  0.48935518  0.75000000  0.71056445  1
  Cr  Cr44  1  0.51064482  0.25000000  0.28943555  1
  Cr  Cr45  1  0.70105803  0.25000000  0.87983487  1
  Cr  Cr46  1  0.79894197  0.75000000  0.37983487  1
  Cr  Cr47  1  0.98935518  0.75000000  0.78943555  1
  H  H48  1  0.24442830  0.63361250  0.31827610  1
  H  H49  1  0.24442830  0.86638750  0.31827610  1
  H  H50  1  0.25557170  0.13361250  0.81827610  1
  H  H51  1  0.25557170  0.36638750  0.81827610  1
  H  H52  1  0.74442830  0.63361250  0.18172390  1
  H  H53  1  0.74442830  0.86638750  0.18172390  1
  H  H54  1  0.75557170  0.13361250  0.68172390  1
  H  H55  1  0.75557170  0.36638750  0.68172390  1
  O  O56  1  0.06039411  0.75000000  0.64352095  1
  O  O57  1  0.06203445  0.40364013  0.12143107  1
  O  O58  1  0.06203445  0.09635987  0.12143107  1
  O  O59  1  0.10160935  0.40054988  0.61008858  1
  O  O60  1  0.10160935  0.09945012  0.61008858  1
  O  O61  1  0.11668495  0.75000000  0.11655776  1
  O  O62  1  0.25113342  0.08468858  0.88606874  1
  O  O63  1  0.25113342  0.41531142  0.88606874  1
  O  O64  1  0.24886658  0.58468858  0.38606874  1
  O  O65  1  0.24886658  0.91531142  0.38606874  1
  O  O66  1  0.38331505  0.25000000  0.61655776  1
  O  O67  1  0.39839065  0.59945012  0.11008858  1
  O  O68  1  0.39839065  0.90054988  0.11008858  1
  O  O69  1  0.43796555  0.59635987  0.62143107  1
  O  O70  1  0.43796555  0.90364013  0.62143107  1
  O  O71  1  0.43960589  0.25000000  0.14352095  1
  O  O72  1  0.56039411  0.75000000  0.85647905  1
  O  O73  1  0.56203445  0.09635987  0.37856893  1
  O  O74  1  0.56203445  0.40364013  0.37856893  1
  O  O75  1  0.60160935  0.09945012  0.88991142  1
  O  O76  1  0.60160935  0.40054988  0.88991142  1
  O  O77  1  0.61668495  0.75000000  0.38344224  1
  O  O78  1  0.75113342  0.08468858  0.61393126  1
  O  O79  1  0.75113342  0.41531142  0.61393126  1
  O  O80  1  0.74886658  0.58468858  0.11393126  1
  O  O81  1  0.74886658  0.91531142  0.11393126  1
  O  O82  1  0.88331505  0.25000000  0.88344224  1
  O  O83  1  0.89839065  0.90054988  0.38991142  1
  O  O84  1  0.89839065  0.59945012  0.38991142  1
  O  O85  1  0.93796555  0.90364013  0.87856893  1
  O  O86  1  0.93796555  0.59635987  0.87856893  1
  O  O87  1  0.93960589  0.25000000  0.35647905  1
