# generated using pymatgen
data_RbHfMg30O31
_symmetry_space_group_name_H-M   'P 1'
_cell_length_a   8.60869079
_cell_length_b   8.73323986
_cell_length_c   8.73323986
_cell_angle_alpha   90.00000000
_cell_angle_beta   90.00000000
_cell_angle_gamma   90.00000000
_symmetry_Int_Tables_number   1
_chemical_formula_structural   RbHfMg30O31
_chemical_formula_sum   'Rb1 Hf1 Mg30 O31'
_cell_volume   656.58035671
_cell_formula_units_Z   1
loop_
 _symmetry_equiv_pos_site_id
 _symmetry_equiv_pos_as_xyz
  1  'x, y, z'
loop_
 _atom_site_type_symbol
 _atom_site_label
 _atom_site_symmetry_multiplicity
 _atom_site_fract_x
 _atom_site_fract_y
 _atom_site_fract_z
 _atom_site_occupancy
  Rb  Rb0  1  0.01923909  0.00000000  0.00000000  1
  Hf  Hf1  1  0.99949152  0.50000000  0.50000000  1
  Mg  Mg2  1  0.99819300  0.00000000  0.50000000  1
  Mg  Mg3  1  0.99819300  0.50000000  0.00000000  1
  Mg  Mg4  1  0.49007863  0.00000000  0.00000000  1
  Mg  Mg5  1  0.50225075  0.00000000  0.50000000  1
  Mg  Mg6  1  0.50225075  0.50000000  0.00000000  1
  Mg  Mg7  1  0.50026591  0.50000000  0.50000000  1
  Mg  Mg8  1  0.99964869  0.24540235  0.24540235  1
  Mg  Mg9  1  0.99964869  0.24540235  0.75459765  1
  Mg  Mg10  1  0.99964869  0.75459765  0.24540235  1
  Mg  Mg11  1  0.99964869  0.75459765  0.75459765  1
  Mg  Mg12  1  0.50042641  0.24819754  0.24819754  1
  Mg  Mg13  1  0.50042641  0.24819754  0.75180246  1
  Mg  Mg14  1  0.50042641  0.75180246  0.24819754  1
  Mg  Mg15  1  0.50042641  0.75180246  0.75180246  1
  Mg  Mg16  1  0.25609631  0.00000000  0.25836274  1
  Mg  Mg17  1  0.25609631  0.00000000  0.74163726  1
  Mg  Mg18  1  0.25640195  0.50000000  0.24462208  1
  Mg  Mg19  1  0.25640195  0.50000000  0.75537792  1
  Mg  Mg20  1  0.74712253  0.00000000  0.24944301  1
  Mg  Mg21  1  0.74712253  0.00000000  0.75055699  1
  Mg  Mg22  1  0.74355015  0.50000000  0.24260206  1
  Mg  Mg23  1  0.74355015  0.50000000  0.75739794  1
  Mg  Mg24  1  0.25609631  0.25836274  0.00000000  1
  Mg  Mg25  1  0.25640195  0.24462208  0.50000000  1
  Mg  Mg26  1  0.25609631  0.74163726  0.00000000  1
  Mg  Mg27  1  0.25640195  0.75537792  0.50000000  1
  Mg  Mg28  1  0.74712253  0.24944301  0.00000000  1
  Mg  Mg29  1  0.74355015  0.24260206  0.50000000  1
  Mg  Mg30  1  0.74712253  0.75055699  0.00000000  1
  Mg  Mg31  1  0.74355015  0.75739794  0.50000000  1
  O  O32  1  0.25445687  0.00000000  0.50000000  1
  O  O33  1  0.25445687  0.50000000  0.00000000  1
  O  O34  1  0.24657474  0.50000000  0.50000000  1
  O  O35  1  0.72392210  0.00000000  0.00000000  1
  O  O36  1  0.74645199  0.00000000  0.50000000  1
  O  O37  1  0.74645199  0.50000000  0.00000000  1
  O  O38  1  0.75328252  0.50000000  0.50000000  1
  O  O39  1  0.24820360  0.25274108  0.25274108  1
  O  O40  1  0.24820360  0.25274108  0.74725892  1
  O  O41  1  0.24820360  0.74725892  0.25274108  1
  O  O42  1  0.24820360  0.74725892  0.74725892  1
  O  O43  1  0.75158201  0.25087090  0.25087090  1
  O  O44  1  0.75158201  0.25087090  0.74912910  1
  O  O45  1  0.75158201  0.74912910  0.25087090  1
  O  O46  1  0.75158201  0.74912910  0.74912910  1
  O  O47  1  0.99908206  0.00000000  0.27931522  1
  O  O48  1  0.99908206  0.00000000  0.72068478  1
  O  O49  1  0.99995952  0.50000000  0.25905666  1
  O  O50  1  0.99995952  0.50000000  0.74094334  1
  O  O51  1  0.50158502  0.00000000  0.25848608  1
  O  O52  1  0.50158502  0.00000000  0.74151392  1
  O  O53  1  0.49995180  0.50000000  0.25292055  1
  O  O54  1  0.49995180  0.50000000  0.74707945  1
  O  O55  1  0.99908206  0.27931522  0.00000000  1
  O  O56  1  0.99995952  0.25905666  0.50000000  1
  O  O57  1  0.99908206  0.72068478  0.00000000  1
  O  O58  1  0.99995952  0.74094334  0.50000000  1
  O  O59  1  0.50158502  0.25848608  0.00000000  1
  O  O60  1  0.49995180  0.25292055  0.50000000  1
  O  O61  1  0.50158502  0.74151392  0.00000000  1
  O  O62  1  0.49995180  0.74707945  0.50000000  1
