# generated using pymatgen
data_FeOF
_symmetry_space_group_name_H-M   'P 1'
_cell_length_a   4.80233775
_cell_length_b   14.37248071
_cell_length_c   3.07515400
_cell_angle_alpha   90.00000000
_cell_angle_beta   90.00000000
_cell_angle_gamma   94.51331678
_symmetry_Int_Tables_number   1
_chemical_formula_structural   FeOF
_chemical_formula_sum   'Fe6 O6 F6'
_cell_volume   211.59358485
_cell_formula_units_Z   6
loop_
 _symmetry_equiv_pos_site_id
 _symmetry_equiv_pos_as_xyz
  1  'x, y, z'
loop_
 _atom_site_type_symbol
 _atom_site_label
 _atom_site_symmetry_multiplicity
 _atom_site_fract_x
 _atom_site_fract_y
 _atom_site_fract_z
 _atom_site_occupancy
  Fe  Fe0  1  0.05840383  0.00113182  0.00000000  1
  Fe  Fe1  1  0.00773346  0.33337823  0.00000000  1
  Fe  Fe2  1  0.97357698  0.66531556  0.00000000  1
  Fe  Fe3  1  0.52933030  0.16714193  0.50000000  1
  Fe  Fe4  1  0.49099495  0.49876676  0.50000000  1
  Fe  Fe5  1  0.43453019  0.83418616  0.50000000  1
  O  O6  1  0.19913760  0.93555029  0.50000000  1
  O  O7  1  0.27992252  0.76399648  0.00000000  1
  O  O8  1  0.33020517  0.10505928  0.00000000  1
  O  O9  1  0.29927476  0.43347096  0.00000000  1
  O  O10  1  0.68519986  0.56711301  0.00000000  1
  O  O11  1  0.71924473  0.23512710  0.00000000  1
  F  F12  1  0.20461186  0.27090163  0.50000000  1
  F  F13  1  0.17095611  0.60102176  0.50000000  1
  F  F14  1  0.69054002  0.89627469  0.00000000  1
  F  F15  1  0.81011614  0.39855815  0.50000000  1
  F  F16  1  0.78719594  0.73171477  0.50000000  1
  F  F17  1  0.82902859  0.06129145  0.50000000  1
