# generated using pymatgen
data_LiCoSiO4
_symmetry_space_group_name_H-M   'P 1'
_cell_length_a   5.00828515
_cell_length_b   5.59434269
_cell_length_c   6.04701197
_cell_angle_alpha   89.98563939
_cell_angle_beta   89.59790764
_cell_angle_gamma   89.99188285
_symmetry_Int_Tables_number   1
_chemical_formula_structural   LiCoSiO4
_chemical_formula_sum   'Li2 Co2 Si2 O8'
_cell_volume   169.42138594
_cell_formula_units_Z   2
loop_
 _symmetry_equiv_pos_site_id
 _symmetry_equiv_pos_as_xyz
  1  'x, y, z'
loop_
 _atom_site_type_symbol
 _atom_site_label
 _atom_site_symmetry_multiplicity
 _atom_site_fract_x
 _atom_site_fract_y
 _atom_site_fract_z
 _atom_site_occupancy
  Li  Li0  1  0.02762123  0.33877008  0.25244048  1
  Li  Li1  1  0.52786551  0.66139899  0.75325402  1
  Co  Co2  1  0.52257849  0.16594235  0.99936070  1
  Co  Co3  1  0.02174073  0.83395557  0.50023154  1
  Si  Si4  1  0.01842546  0.84400128  0.00330688  1
  Si  Si5  1  0.51768144  0.15593585  0.50275366  1
  O  O6  1  0.15278057  0.11220056  0.02424077  1
  O  O7  1  0.69203298  0.86832186  0.98517240  1
  O  O8  1  0.08306704  0.68460995  0.22723580  1
  O  O9  1  0.62909182  0.28717945  0.27561817  1
  O  O10  1  0.19138061  0.13122792  0.48518516  1
  O  O11  1  0.65203508  0.88780448  0.52426866  1
  O  O12  1  0.58230710  0.31574996  0.72644651  1
  O  O13  1  0.12992395  0.71289969  0.77622125  1
