# generated using pymatgen
data_Fe2O3F
_symmetry_space_group_name_H-M   'P 1'
_cell_length_a   4.69532774
_cell_length_b   4.69532774
_cell_length_c   9.00497578
_cell_angle_alpha   90.00000000
_cell_angle_beta   90.00000000
_cell_angle_gamma   94.17021203
_symmetry_Int_Tables_number   1
_chemical_formula_structural   Fe2O3F
_chemical_formula_sum   'Fe6 O9 F3'
_cell_volume   197.99901017
_cell_formula_units_Z   3
loop_
 _symmetry_equiv_pos_site_id
 _symmetry_equiv_pos_as_xyz
  1  'x, y, z'
loop_
 _atom_site_type_symbol
 _atom_site_label
 _atom_site_symmetry_multiplicity
 _atom_site_fract_x
 _atom_site_fract_y
 _atom_site_fract_z
 _atom_site_occupancy
  Fe  Fe0  1  0.00303888  0.99696112  0.99929520  1
  Fe  Fe1  1  0.00303888  0.99696112  0.33403780  1
  Fe  Fe2  1  0.01225137  0.98774863  0.66666700  1
  Fe  Fe3  1  0.47259195  0.52740805  0.83348750  1
  Fe  Fe4  1  0.53646794  0.46353206  0.16666700  1
  Fe  Fe5  1  0.47259195  0.52740805  0.49984550  1
  O  O6  1  0.18324027  0.81675973  0.83774414  1
  O  O7  1  0.18324027  0.81675973  0.49558886  1
  O  O8  1  0.29668149  0.31876358  0.66666700  1
  O  O9  1  0.31221962  0.30188985  0.99953690  1
  O  O10  1  0.31221962  0.30188985  0.33379710  1
  O  O11  1  0.68123642  0.70331851  0.66666700  1
  O  O12  1  0.69811015  0.68778038  0.99953690  1
  O  O13  1  0.69811015  0.68778038  0.33379710  1
  O  O14  1  0.82587039  0.17412961  0.16666700  1
  F  F15  1  0.20548987  0.79451013  0.16666700  1
  F  F16  1  0.80179991  0.19820009  0.50219724  1
  F  F17  1  0.80179991  0.19820009  0.83113576  1
