# generated using pymatgen
data_Ti3Mn3(SbO8)2
_symmetry_space_group_name_H-M   'P 1'
_cell_length_a   5.98725479
_cell_length_b   6.03734711
_cell_length_c   9.35798686
_cell_angle_alpha   91.19663819
_cell_angle_beta   89.70872777
_cell_angle_gamma   120.63994436
_symmetry_Int_Tables_number   1
_chemical_formula_structural   Ti3Mn3(SbO8)2
_chemical_formula_sum   'Ti3 Mn3 Sb2 O16'
_cell_volume   290.96873579
_cell_formula_units_Z   1
loop_
 _symmetry_equiv_pos_site_id
 _symmetry_equiv_pos_as_xyz
  1  'x, y, z'
loop_
 _atom_site_type_symbol
 _atom_site_label
 _atom_site_symmetry_multiplicity
 _atom_site_fract_x
 _atom_site_fract_y
 _atom_site_fract_z
 _atom_site_occupancy
  Ti  Ti0  1  0.17504058  0.83708492  0.21379806  1
  Ti  Ti1  1  0.16777429  0.33607099  0.21088578  1
  Ti  Ti2  1  0.32409483  0.17254819  0.71008548  1
  Mn  Mn3  1  0.66468774  0.83167966  0.20505491  1
  Mn  Mn4  1  0.83017609  0.66373453  0.70740194  1
  Mn  Mn5  1  0.82256877  0.16762769  0.71233452  1
  Sb  Sb6  1  0.33269494  0.67052800  0.48983916  1
  Sb  Sb7  1  0.67693330  0.33454347  0.98689940  1
  O  O8  1  0.17428753  0.83710040  0.60425896  1
  O  O9  1  0.04101888  0.52135842  0.33887075  1
  O  O10  1  0.33539671  0.66527173  0.10631577  1
  O  O11  1  0.99707707  0.00059784  0.30014860  1
  O  O12  1  0.99259135  0.00041462  0.80252986  1
  O  O13  1  0.16985419  0.34062990  0.60486192  1
  O  O14  1  0.46185303  0.95518715  0.34291674  1
  O  O15  1  0.46194040  0.51135578  0.34410317  1
  O  O16  1  0.35150056  0.17295413  0.10589715  1
  O  O17  1  0.65925591  0.84421885  0.59901927  1
  O  O18  1  0.51617419  0.46478290  0.84267446  1
  O  O19  1  0.52277712  0.04060020  0.83546915  1
  O  O20  1  0.67019236  0.33046639  0.60971565  1
  O  O21  1  0.84623188  0.65916390  0.09974002  1
  O  O22  1  0.96304779  0.45835635  0.84091911  1
  O  O23  1  0.84283149  0.18392401  0.10198018  1
