# generated using pymatgen
data_Li2CoCO4
_symmetry_space_group_name_H-M   'P 1'
_cell_length_a   6.69865044
_cell_length_b   5.09353787
_cell_length_c   10.81565235
_cell_angle_alpha   90.00000000
_cell_angle_beta   96.82150504
_cell_angle_gamma   90.00000000
_symmetry_Int_Tables_number   1
_chemical_formula_structural   Li2CoCO4
_chemical_formula_sum   'Li8 Co4 C4 O16'
_cell_volume   366.41586414
_cell_formula_units_Z   4
loop_
 _symmetry_equiv_pos_site_id
 _symmetry_equiv_pos_as_xyz
  1  'x, y, z'
loop_
 _atom_site_type_symbol
 _atom_site_label
 _atom_site_symmetry_multiplicity
 _atom_site_fract_x
 _atom_site_fract_y
 _atom_site_fract_z
 _atom_site_occupancy
  Li  Li0  1  0.11695271  0.34726102  0.78889515  1
  Li  Li1  1  0.11695271  0.15273898  0.28889515  1
  Li  Li2  1  0.22849247  0.17936776  0.57114448  1
  Li  Li3  1  0.22849247  0.32063224  0.07114448  1
  Li  Li4  1  0.77150753  0.67936776  0.92885552  1
  Li  Li5  1  0.77150753  0.82063224  0.42885552  1
  Li  Li6  1  0.88304729  0.84726102  0.71110485  1
  Li  Li7  1  0.88304729  0.65273898  0.21110485  1
  Co  Co8  1  0.51163387  0.13392873  0.83959546  1
  Co  Co9  1  0.48836613  0.63392873  0.66040454  1
  Co  Co10  1  0.51163387  0.36607127  0.33959546  1
  Co  Co11  1  0.48836613  0.86607127  0.16040454  1
  C  C12  1  0.19198858  0.81979925  0.93803608  1
  C  C13  1  0.19198858  0.68020075  0.43803608  1
  C  C14  1  0.80801142  0.31979925  0.56196392  1
  C  C15  1  0.80801142  0.18020075  0.06196392  1
  O  O16  1  0.06003386  0.70123515  0.85941296  1
  O  O17  1  0.06003386  0.79876485  0.35941296  1
  O  O18  1  0.22845978  0.07068573  0.92606828  1
  O  O19  1  0.22845978  0.42931427  0.42606828  1
  O  O20  1  0.28667447  0.81246882  0.52985412  1
  O  O21  1  0.35979123  0.33759820  0.71483355  1
  O  O22  1  0.28667447  0.68753118  0.02985412  1
  O  O23  1  0.35979123  0.16240180  0.21483355  1
  O  O24  1  0.64020877  0.83759820  0.78516645  1
  O  O25  1  0.71332553  0.31246882  0.97014588  1
  O  O26  1  0.64020877  0.66240180  0.28516645  1
  O  O27  1  0.71332553  0.18753118  0.47014588  1
  O  O28  1  0.77154022  0.57068573  0.57393172  1
  O  O29  1  0.77154022  0.92931427  0.07393172  1
  O  O30  1  0.93996614  0.20123515  0.64058704  1
  O  O31  1  0.93996614  0.29876485  0.14058704  1
