# generated using pymatgen
data_Li2MnF4
_symmetry_space_group_name_H-M   'P 1'
_cell_length_a   3.34324556
_cell_length_b   8.85788047
_cell_length_c   3.34324525
_cell_angle_alpha   100.87785603
_cell_angle_beta   59.99999695
_cell_angle_gamma   100.87785439
_symmetry_Int_Tables_number   1
_chemical_formula_structural   Li2MnF4
_chemical_formula_sum   'Li2 Mn1 F4'
_cell_volume   83.68215900
_cell_formula_units_Z   1
loop_
 _symmetry_equiv_pos_site_id
 _symmetry_equiv_pos_as_xyz
  1  'x, y, z'
loop_
 _atom_site_type_symbol
 _atom_site_label
 _atom_site_symmetry_multiplicity
 _atom_site_fract_x
 _atom_site_fract_y
 _atom_site_fract_z
 _atom_site_occupancy
  Li  Li0  1  0.20402737  0.61208310  0.20402737  1
  Li  Li1  1  0.79597263  0.38791690  0.79597263  1
  Mn  Mn2  1  0.00000000  0.00000000  0.00000000  1
  F  F3  1  0.12598136  0.37794308  0.12598136  1
  F  F4  1  0.62948099  0.88844197  0.62948099  1
  F  F5  1  0.37051901  0.11155803  0.37051901  1
  F  F6  1  0.87401864  0.62205692  0.87401864  1
