# generated using pymatgen
data_Li4V2Co3Cu3O16
_symmetry_space_group_name_H-M   'P 1'
_cell_length_a   5.79039916
_cell_length_b   5.75961269
_cell_length_c   9.30106183
_cell_angle_alpha   89.98965232
_cell_angle_beta   88.65405079
_cell_angle_gamma   119.80861551
_symmetry_Int_Tables_number   1
_chemical_formula_structural   Li4V2Co3Cu3O16
_chemical_formula_sum   'Li4 V2 Co3 Cu3 O16'
_cell_volume   269.05362471
_cell_formula_units_Z   1
loop_
 _symmetry_equiv_pos_site_id
 _symmetry_equiv_pos_as_xyz
  1  'x, y, z'
loop_
 _atom_site_type_symbol
 _atom_site_label
 _atom_site_symmetry_multiplicity
 _atom_site_fract_x
 _atom_site_fract_y
 _atom_site_fract_z
 _atom_site_occupancy
  Li  Li0  1  0.33388632  0.66760082  0.89651974  1
  Li  Li1  1  0.99282907  0.99573189  0.99425109  1
  Li  Li2  1  0.99362831  0.99654262  0.49559374  1
  Li  Li3  1  0.67408700  0.33658872  0.39960245  1
  V  V4  1  0.33480309  0.66749642  0.50258314  1
  V  V5  1  0.66794271  0.33373426  0.99751453  1
  Co  Co6  1  0.65397896  0.82650221  0.21629732  1
  Co  Co7  1  0.82647385  0.65651056  0.71523980  1
  Co  Co8  1  0.82598571  0.17088655  0.71501261  1
  Cu  Cu9  1  0.17183397  0.83043261  0.21620547  1
  Cu  Cu10  1  0.17201221  0.34032953  0.21627172  1
  Cu  Cu11  1  0.33976621  0.17106945  0.71716096  1
  O  O12  1  0.16389877  0.82011090  0.58947384  1
  O  O13  1  0.05140648  0.52511113  0.35253805  1
  O  O14  1  0.34333745  0.67104905  0.11088887  1
  O  O15  1  0.98638941  0.99279426  0.30342186  1
  O  O16  1  0.98769534  0.99461044  0.80315569  1
  O  O17  1  0.16408946  0.34354391  0.58940495  1
  O  O18  1  0.49380707  0.95930635  0.34369647  1
  O  O19  1  0.49446726  0.53415028  0.34393931  1
  O  O20  1  0.34314592  0.17144879  0.07841658  1
  O  O21  1  0.65360461  0.82726412  0.59970050  1
  O  O22  1  0.53586753  0.49202255  0.84187331  1
  O  O23  1  0.53463508  0.04527123  0.84138407  1
  O  O24  1  0.67476358  0.33826160  0.61143095  1
  O  O25  1  0.81483719  0.65087511  0.09138267  1
  O  O26  1  0.95683052  0.47862348  0.83405397  1
  O  O27  1  0.81399592  0.16243116  0.09082636  1
