# generated using pymatgen
data_Ca2MnAl2Si4BO15
_symmetry_space_group_name_H-M   'P 1'
_cell_length_a   7.32437381
_cell_length_b   8.86563683
_cell_length_c   9.32656399
_cell_angle_alpha   88.00648700
_cell_angle_beta   76.43822806
_cell_angle_gamma   81.48431052
_symmetry_Int_Tables_number   1
_chemical_formula_structural   Ca2MnAl2Si4BO15
_chemical_formula_sum   'Ca4 Mn2 Al4 Si8 B2 O30'
_cell_volume   582.24587122
_cell_formula_units_Z   2
loop_
 _symmetry_equiv_pos_site_id
 _symmetry_equiv_pos_as_xyz
  1  'x, y, z'
loop_
 _atom_site_type_symbol
 _atom_site_label
 _atom_site_symmetry_multiplicity
 _atom_site_fract_x
 _atom_site_fract_y
 _atom_site_fract_z
 _atom_site_occupancy
  Ca  Ca0  1  0.24591721  0.39197427  0.67034314  1
  Ca  Ca1  1  0.75408279  0.60802573  0.32965686  1
  Ca  Ca2  1  0.83368953  0.10520599  0.91008092  1
  Ca  Ca3  1  0.16631047  0.89479401  0.08991908  1
  Mn  Mn4  1  0.23262242  0.11834384  0.40165175  1
  Mn  Mn5  1  0.76737758  0.88165616  0.59834825  1
  Al  Al6  1  0.94985744  0.25868883  0.18041540  1
  Al  Al7  1  0.05014256  0.74131117  0.81958460  1
  Al  Al8  1  0.65651135  0.41735801  0.06052925  1
  Al  Al9  1  0.34348865  0.58264199  0.93947075  1
  Si  Si10  1  0.78439263  0.22335475  0.54704562  1
  Si  Si11  1  0.21560737  0.77664525  0.45295438  1
  Si  Si12  1  0.77750886  0.51828833  0.72553763  1
  Si  Si13  1  0.22249114  0.48171167  0.27446237  1
  Si  Si14  1  0.30304420  0.01331858  0.74072314  1
  Si  Si15  1  0.69695580  0.98668142  0.25927686  1
  Si  Si16  1  0.35932830  0.22921160  0.97977288  1
  Si  Si17  1  0.64067170  0.77078840  0.02022712  1
  B  B18  1  0.53600433  0.28968370  0.36822072  1
  B  B19  1  0.46399567  0.71031630  0.63177928  1
  O  O20  1  0.94694428  0.17073914  0.39936400  1
  O  O21  1  0.05305572  0.82926086  0.60063600  1
  O  O22  1  0.57782203  0.30362466  0.51853440  1
  O  O23  1  0.42217797  0.69637534  0.48146560  1
  O  O24  1  0.85294791  0.34592727  0.64563022  1
  O  O25  1  0.14705209  0.65407273  0.35436978  1
  O  O26  1  0.97471942  0.57171841  0.73816835  1
  O  O27  1  0.02528058  0.42828159  0.26183165  1
  O  O28  1  0.67239791  0.63624816  0.61334944  1
  O  O29  1  0.32760209  0.36375184  0.38665056  1
  O  O30  1  0.61780074  0.49783152  0.87368029  1
  O  O31  1  0.38219926  0.50216848  0.12631971  1
  O  O32  1  0.47074326  0.87594655  0.65717783  1
  O  O33  1  0.52925674  0.12405345  0.34282217  1
  O  O34  1  0.12461131  0.94106269  0.84383673  1
  O  O35  1  0.87538869  0.05893731  0.15616327  1
  O  O36  1  0.23044634  0.13582946  0.62534024  1
  O  O37  1  0.76955366  0.86417054  0.37465976  1
  O  O38  1  0.40830240  0.09561573  0.84808473  1
  O  O39  1  0.59169760  0.90438427  0.15191527  1
  O  O40  1  0.55878357  0.23626374  0.02391691  1
  O  O41  1  0.44121643  0.76373626  0.97608309  1
  O  O42  1  0.29056414  0.38651990  0.89986287  1
  O  O43  1  0.70943586  0.61348010  0.10013713  1
  O  O44  1  0.20547463  0.16629028  0.12204818  1
  O  O45  1  0.79452537  0.83370972  0.87795182  1
  O  O46  1  0.67306614  0.35715723  0.26116941  1
  O  O47  1  0.32693386  0.64284277  0.73883059  1
  O  O48  1  0.89677989  0.31641037  0.00543024  1
  O  O49  1  0.10322011  0.68358963  0.99456976  1
