# generated using pymatgen
data_LiMn5O3F5
_symmetry_space_group_name_H-M   'P 1'
_cell_length_a   6.41137217
_cell_length_b   6.41095854
_cell_length_c   6.41095854
_cell_angle_alpha   59.63307031
_cell_angle_beta   60.14044939
_cell_angle_gamma   60.14044939
_symmetry_Int_Tables_number   1
_chemical_formula_structural   LiMn5O3F5
_chemical_formula_sum   'Li1 Mn5 O3 F5'
_cell_volume   186.19875263
_cell_formula_units_Z   1
loop_
 _symmetry_equiv_pos_site_id
 _symmetry_equiv_pos_as_xyz
  1  'x, y, z'
loop_
 _atom_site_type_symbol
 _atom_site_label
 _atom_site_symmetry_multiplicity
 _atom_site_fract_x
 _atom_site_fract_y
 _atom_site_fract_z
 _atom_site_occupancy
  Li  Li0  1  0.64917893  0.60669417  0.60669417  1
  Mn  Mn1  1  0.99108369  0.97750879  0.97750879  1
  Mn  Mn2  1  0.22523248  0.28407274  0.28407274  1
  Mn  Mn3  1  0.63947818  0.13611874  0.61256117  1
  Mn  Mn4  1  0.63947818  0.61256117  0.13611874  1
  Mn  Mn5  1  0.13051761  0.62379194  0.62379194  1
  O  O6  1  0.38492974  0.39815016  0.39815016  1
  O  O7  1  0.84779028  0.38905577  0.38905577  1
  O  O8  1  0.86227687  0.84974272  0.84974272  1
  F  F9  1  0.38160592  0.87128416  0.39064418  1
  F  F10  1  0.38160592  0.39064418  0.87128416  1
  F  F11  1  0.86463625  0.38089131  0.86179762  1
  F  F12  1  0.86463625  0.86179762  0.38089131  1
  F  F13  1  0.38755069  0.86768653  0.86768653  1
