# generated using pymatgen
data_LiVP2O7
_symmetry_space_group_name_H-M   'P 1'
_cell_length_a   7.93577127
_cell_length_b   6.41110734
_cell_length_c   6.16668005
_cell_angle_alpha   109.39613657
_cell_angle_beta   103.69887022
_cell_angle_gamma   98.96087219
_symmetry_Int_Tables_number   1
_chemical_formula_structural   LiVP2O7
_chemical_formula_sum   'Li2 V2 P4 O14'
_cell_volume   277.95312992
_cell_formula_units_Z   2
loop_
 _symmetry_equiv_pos_site_id
 _symmetry_equiv_pos_as_xyz
  1  'x, y, z'
loop_
 _atom_site_type_symbol
 _atom_site_label
 _atom_site_symmetry_multiplicity
 _atom_site_fract_x
 _atom_site_fract_y
 _atom_site_fract_z
 _atom_site_occupancy
  Li  Li0  1  0.00000000  0.00000000  0.00000000  1
  Li  Li1  1  0.50000000  0.00000000  0.00000000  1
  V  V2  1  0.22828314  0.67976531  0.36828418  1
  V  V3  1  0.77171686  0.32023469  0.63171582  1
  P  P4  1  0.21120426  0.54604280  0.82095278  1
  P  P5  1  0.31702174  0.22980509  0.44775924  1
  P  P6  1  0.68297826  0.77019491  0.55224076  1
  P  P7  1  0.78879574  0.45395720  0.17904722  1
  O  O8  1  0.03729677  0.38378980  0.78544306  1
  O  O9  1  0.19447699  0.71688238  0.69545970  1
  O  O10  1  0.20539608  0.99847108  0.40886242  1
  O  O11  1  0.20814069  0.32471491  0.27568425  1
  O  O12  1  0.34368298  0.39687257  0.72306789  1
  O  O13  1  0.31649138  0.68627635  0.08853669  1
  O  O14  1  0.49628916  0.77332841  0.57899187  1
  O  O15  1  0.50371084  0.22667159  0.42100813  1
  O  O16  1  0.68350862  0.31372365  0.91146331  1
  O  O17  1  0.65631702  0.60312743  0.27693211  1
  O  O18  1  0.79185931  0.67528509  0.72431575  1
  O  O19  1  0.79460392  0.00152892  0.59113758  1
  O  O20  1  0.80552301  0.28311762  0.30454030  1
  O  O21  1  0.96270323  0.61621020  0.21455694  1
