# generated using pymatgen
data_V2PH10NO11
_symmetry_space_group_name_H-M   'P 1'
_cell_length_a   7.13963569
_cell_length_b   10.70418073
_cell_length_c   12.51403436
_cell_angle_alpha   90.00000000
_cell_angle_beta   90.00000000
_cell_angle_gamma   90.00000000
_symmetry_Int_Tables_number   1
_chemical_formula_structural   V2PH10NO11
_chemical_formula_sum   'V8 P4 H40 N4 O44'
_cell_volume   956.37194589
_cell_formula_units_Z   4
loop_
 _symmetry_equiv_pos_site_id
 _symmetry_equiv_pos_as_xyz
  1  'x, y, z'
loop_
 _atom_site_type_symbol
 _atom_site_label
 _atom_site_symmetry_multiplicity
 _atom_site_fract_x
 _atom_site_fract_y
 _atom_site_fract_z
 _atom_site_occupancy
  V  V0  1  0.98787800  0.72913743  0.49063417  1
  V  V1  1  0.51212200  0.27086257  0.99063417  1
  V  V2  1  0.48787800  0.77086257  0.50936583  1
  V  V3  1  0.01212200  0.22913743  0.00936583  1
  V  V4  1  0.30062562  0.46865004  0.41920645  1
  V  V5  1  0.19937438  0.53134996  0.91920645  1
  V  V6  1  0.80062562  0.03134996  0.58079355  1
  V  V7  1  0.69937438  0.96865004  0.08079355  1
  P  P8  1  0.25210606  0.58455245  0.65227216  1
  P  P9  1  0.24789394  0.41544755  0.15227216  1
  P  P10  1  0.75210606  0.91544755  0.34772784  1
  P  P11  1  0.74789394  0.08455245  0.84772784  1
  H  H12  1  0.27746229  0.79930791  0.16227119  1
  H  H13  1  0.22253771  0.20069209  0.66227119  1
  H  H14  1  0.77746229  0.70069209  0.83772881  1
  H  H15  1  0.72253771  0.29930791  0.33772881  1
  H  H16  1  0.36639493  0.79674639  0.28429896  1
  H  H17  1  0.13360507  0.20325361  0.78429896  1
  H  H18  1  0.86639493  0.70325361  0.71570104  1
  H  H19  1  0.63360507  0.29674639  0.21570104  1
  H  H20  1  0.25133593  0.66908791  0.23707394  1
  H  H21  1  0.24866407  0.33091209  0.73707394  1
  H  H22  1  0.75133593  0.83091209  0.76292606  1
  H  H23  1  0.74866407  0.16908791  0.26292606  1
  H  H24  1  0.13126447  0.80115403  0.26744123  1
  H  H25  1  0.36873553  0.19884597  0.76744123  1
  H  H26  1  0.63126447  0.69884597  0.73255877  1
  H  H27  1  0.86873553  0.30115403  0.23255877  1
  H  H28  1  0.06766961  0.27300688  0.46602707  1
  H  H29  1  0.43233039  0.72699312  0.96602707  1
  H  H30  1  0.56766961  0.22699312  0.53397293  1
  H  H31  1  0.93233039  0.77300688  0.03397293  1
  H  H32  1  0.94294861  0.39289022  0.46576803  1
  H  H33  1  0.55705139  0.60710978  0.96576803  1
  H  H34  1  0.44294861  0.10710978  0.53423197  1
  H  H35  1  0.05705139  0.89289022  0.03423197  1
  H  H36  1  0.66007193  0.58158432  0.31328502  1
  H  H37  1  0.83992807  0.41841568  0.81328502  1
  H  H38  1  0.16007193  0.91841568  0.68671498  1
  H  H39  1  0.33992807  0.08158432  0.18671498  1
  H  H40  1  0.73478272  0.57394442  0.19521536  1
  H  H41  1  0.76521728  0.42605558  0.69521536  1
  H  H42  1  0.23478272  0.92605558  0.80478464  1
  H  H43  1  0.26521728  0.07394442  0.30478464  1
  H  H44  1  0.75386458  0.52882401  0.52962458  1
  H  H45  1  0.74613542  0.47117599  0.02962458  1
  H  H46  1  0.25386458  0.97117599  0.47037542  1
  H  H47  1  0.24613542  0.02882401  0.97037542  1
  H  H48  1  0.64189320  0.41096433  0.49471686  1
  H  H49  1  0.85810680  0.58903567  0.99471686  1
  H  H50  1  0.14189320  0.08903567  0.50528314  1
  H  H51  1  0.35810680  0.91096433  0.00528314  1
  N  N52  1  0.25563716  0.76535213  0.23765326  1
  N  N53  1  0.24436284  0.23464787  0.73765326  1
  N  N54  1  0.75563716  0.73464787  0.76234674  1
  N  N55  1  0.74436284  0.26535213  0.26234674  1
  O  O56  1  0.75414421  0.69206649  0.51567651  1
  O  O57  1  0.74585579  0.30793351  0.01567651  1
  O  O58  1  0.25414421  0.80793351  0.48432349  1
  O  O59  1  0.24585579  0.19206649  0.98432349  1
  O  O60  1  0.06468426  0.60326288  0.42541036  1
  O  O61  1  0.43531574  0.39673712  0.92541036  1
  O  O62  1  0.56468426  0.89673712  0.57458964  1
  O  O63  1  0.93531574  0.10326288  0.07458964  1
  O  O64  1  0.07496367  0.66715977  0.63294835  1
  O  O65  1  0.42503633  0.33284023  0.13294835  1
  O  O66  1  0.57496367  0.83284023  0.36705165  1
  O  O67  1  0.92503633  0.16715977  0.86705165  1
  O  O68  1  0.93005046  0.83288009  0.36480261  1
  O  O69  1  0.56994954  0.16711991  0.86480261  1
  O  O70  1  0.43005046  0.66711991  0.63519739  1
  O  O71  1  0.06994954  0.33288009  0.13519739  1
  O  O72  1  0.94167285  0.90300060  0.57708763  1
  O  O73  1  0.55832715  0.09699940  0.07708763  1
  O  O74  1  0.44167285  0.59699940  0.42291237  1
  O  O75  1  0.05832715  0.40300060  0.92291237  1
  O  O76  1  0.44958023  0.34811607  0.42437814  1
  O  O77  1  0.05041977  0.65188393  0.92437814  1
  O  O78  1  0.94958023  0.15188393  0.57562186  1
  O  O79  1  0.55041977  0.84811607  0.07562186  1
  O  O80  1  0.24918801  0.47131684  0.26516226  1
  O  O81  1  0.25081199  0.52868316  0.76516226  1
  O  O82  1  0.74918801  0.02868316  0.73483774  1
  O  O83  1  0.75081199  0.97131684  0.23483774  1
  O  O84  1  0.25448083  0.47197991  0.57452285  1
  O  O85  1  0.24551917  0.52802009  0.07452285  1
  O  O86  1  0.75448083  0.02802009  0.42547715  1
  O  O87  1  0.74551917  0.97197991  0.92547715  1
  O  O88  1  0.05100723  0.35116085  0.42646038  1
  O  O89  1  0.44899277  0.64883915  0.92646038  1
  O  O90  1  0.55100723  0.14883915  0.57353962  1
  O  O91  1  0.94899277  0.85116085  0.07353962  1
  O  O92  1  0.73911805  0.53295223  0.26501893  1
  O  O93  1  0.76088195  0.46704777  0.76501893  1
  O  O94  1  0.23911805  0.96704777  0.73498107  1
  O  O95  1  0.26088195  0.03295223  0.23498107  1
  O  O96  1  0.75718949  0.43586974  0.53333086  1
  O  O97  1  0.74281051  0.56413026  0.03333086  1
  O  O98  1  0.25718949  0.06413026  0.46666914  1
  O  O99  1  0.24281051  0.93586974  0.96666914  1
