# generated using pymatgen
data_Li4Mn3CrCo2(PO4)6
_symmetry_space_group_name_H-M   'P 1'
_cell_length_a   8.41512674
_cell_length_b   8.97717863
_cell_length_c   8.99238124
_cell_angle_alpha   59.66130232
_cell_angle_beta   59.13586347
_cell_angle_gamma   58.29892024
_symmetry_Int_Tables_number   1
_chemical_formula_structural   Li4Mn3CrCo2(PO4)6
_chemical_formula_sum   'Li4 Mn3 Cr1 Co2 P6 O24'
_cell_volume   469.60981948
_cell_formula_units_Z   1
loop_
 _symmetry_equiv_pos_site_id
 _symmetry_equiv_pos_as_xyz
  1  'x, y, z'
loop_
 _atom_site_type_symbol
 _atom_site_label
 _atom_site_symmetry_multiplicity
 _atom_site_fract_x
 _atom_site_fract_y
 _atom_site_fract_z
 _atom_site_occupancy
  Li  Li0  1  0.24925402  0.85039651  0.64138719  1
  Li  Li1  1  0.76605753  0.15140831  0.34776664  1
  Li  Li2  1  0.76118019  0.73783739  0.14540924  1
  Li  Li3  1  0.76580345  0.35286864  0.73656803  1
  Mn  Mn4  1  0.05738059  0.64538428  0.64861401  1
  Mn  Mn5  1  0.43951082  0.85369962  0.85208736  1
  Mn  Mn6  1  0.96250792  0.34750732  0.34585856  1
  Cr  Cr7  1  0.55785691  0.14925788  0.14630761  1
  Co  Co8  1  0.00783972  0.99166847  0.01184337  1
  Co  Co9  1  0.49576616  0.49863766  0.49676829  1
  P  P10  1  0.25779608  0.24906942  0.55482684  1
  P  P11  1  0.24650465  0.94794531  0.24850014  1
  P  P12  1  0.24692455  0.55752608  0.94559276  1
  P  P13  1  0.74418307  0.45211922  0.04923393  1
  P  P14  1  0.75927431  0.04983134  0.75193980  1
  P  P15  1  0.73463655  0.75223588  0.44993033  1
  O  O16  1  0.04983454  0.09692764  0.31662274  1
  O  O17  1  0.04992598  0.53899397  0.09178495  1
  O  O18  1  0.05478868  0.31384624  0.54123985  1
  O  O19  1  0.24516109  0.08001215  0.74216903  1
  O  O20  1  0.43245655  0.18701280  0.39013186  1
  O  O21  1  0.29128030  0.39216529  0.57045630  1
  O  O22  1  0.22456765  0.93002551  0.09602801  1
  O  O23  1  0.28472579  0.75910624  0.40436991  1
  O  O24  1  0.55921598  0.61136950  0.00386183  1
  O  O25  1  0.28433252  0.57649329  0.74882803  1
  O  O26  1  0.76195171  0.25340666  0.07602670  1
  O  O27  1  0.59196184  0.98683066  0.81470785  1
  O  O28  1  0.42899488  0.99909536  0.17666232  1
  O  O29  1  0.22582152  0.75433998  0.92295331  1
  O  O30  1  0.71510389  0.43107746  0.24594396  1
  O  O31  1  0.42933515  0.39530428  0.99353810  1
  O  O32  1  0.72025629  0.24822948  0.60565585  1
  O  O33  1  0.76732821  0.07757756  0.91130191  1
  O  O34  1  0.72093376  0.60201179  0.41920225  1
  O  O35  1  0.53897993  0.81504130  0.59878793  1
  O  O36  1  0.76099535  0.90992624  0.25239915  1
  O  O37  1  0.91484550  0.69168939  0.49250883  1
  O  O38  1  0.93253089  0.47772355  0.90069251  1
  O  O39  1  0.96219547  0.90739737  0.68849067  1
