# generated using pymatgen
data_LiPWO5
_symmetry_space_group_name_H-M   'P 1'
_cell_length_a   7.54117836
_cell_length_b   6.65924608
_cell_length_c   7.61360027
_cell_angle_alpha   90.00000000
_cell_angle_beta   90.00000000
_cell_angle_gamma   90.00000000
_symmetry_Int_Tables_number   1
_chemical_formula_structural   LiPWO5
_chemical_formula_sum   'Li4 P4 W4 O20'
_cell_volume   382.34406049
_cell_formula_units_Z   4
loop_
 _symmetry_equiv_pos_site_id
 _symmetry_equiv_pos_as_xyz
  1  'x, y, z'
loop_
 _atom_site_type_symbol
 _atom_site_label
 _atom_site_symmetry_multiplicity
 _atom_site_fract_x
 _atom_site_fract_y
 _atom_site_fract_z
 _atom_site_occupancy
  Li  Li0  1  0.00000000  0.00000000  0.00000000  1
  Li  Li1  1  0.00000000  0.50000000  0.00000000  1
  Li  Li2  1  0.50000000  0.00000000  0.50000000  1
  Li  Li3  1  0.50000000  0.50000000  0.50000000  1
  P  P4  1  0.12496116  0.75000000  0.63004093  1
  P  P5  1  0.37503884  0.25000000  0.13004093  1
  P  P6  1  0.62496116  0.75000000  0.86995907  1
  P  P7  1  0.87503884  0.25000000  0.36995907  1
  W  W8  1  0.14445396  0.25000000  0.72953166  1
  W  W9  1  0.35554604  0.75000000  0.22953166  1
  W  W10  1  0.64445396  0.25000000  0.77046834  1
  W  W11  1  0.85554604  0.75000000  0.27046834  1
  O  O12  1  0.04789299  0.25000000  0.47576560  1
  O  O13  1  0.10030771  0.75000000  0.17548384  1
  O  O14  1  0.13071222  0.93478720  0.75381695  1
  O  O15  1  0.13071222  0.56521280  0.75381695  1
  O  O16  1  0.20697151  0.25000000  0.00914826  1
  O  O17  1  0.29302849  0.75000000  0.50914826  1
  O  O18  1  0.36928778  0.06521280  0.25381695  1
  O  O19  1  0.36928778  0.43478720  0.25381695  1
  O  O20  1  0.39969229  0.25000000  0.67548384  1
  O  O21  1  0.45210701  0.75000000  0.97576560  1
  O  O22  1  0.54789299  0.25000000  0.02423440  1
  O  O23  1  0.60030771  0.75000000  0.32451616  1
  O  O24  1  0.63071222  0.56521280  0.74618305  1
  O  O25  1  0.63071222  0.93478720  0.74618305  1
  O  O26  1  0.70697151  0.25000000  0.49085174  1
  O  O27  1  0.79302849  0.75000000  0.99085174  1
  O  O28  1  0.86928778  0.06521280  0.24618305  1
  O  O29  1  0.86928778  0.43478720  0.24618305  1
  O  O30  1  0.89969229  0.25000000  0.82451616  1
  O  O31  1  0.95210701  0.75000000  0.52423440  1
