# generated using pymatgen
data_RbMg30BO31
_symmetry_space_group_name_H-M   'P 1'
_cell_length_a   8.59504376
_cell_length_b   8.84210422
_cell_length_c   8.41484746
_cell_angle_alpha   90.00000000
_cell_angle_beta   90.00000000
_cell_angle_gamma   90.00000000
_symmetry_Int_Tables_number   1
_chemical_formula_structural   RbMg30BO31
_chemical_formula_sum   'Rb1 Mg30 B1 O31'
_cell_volume   639.51387201
_cell_formula_units_Z   1
loop_
 _symmetry_equiv_pos_site_id
 _symmetry_equiv_pos_as_xyz
  1  'x, y, z'
loop_
 _atom_site_type_symbol
 _atom_site_label
 _atom_site_symmetry_multiplicity
 _atom_site_fract_x
 _atom_site_fract_y
 _atom_site_fract_z
 _atom_site_occupancy
  Rb  Rb0  1  0.01954943  -0.00000000  -0.00000000  1
  Mg  Mg1  1  0.99857227  0.50000000  -0.00000000  1
  Mg  Mg2  1  0.00334226  0.50000000  0.50000000  1
  Mg  Mg3  1  0.49136813  0.00000000  -0.00000000  1
  Mg  Mg4  1  0.50763246  -0.00000000  0.50000000  1
  Mg  Mg5  1  0.50205226  0.50000000  -0.00000000  1
  Mg  Mg6  1  0.49845360  0.50000000  0.50000000  1
  Mg  Mg7  1  0.99957969  0.26447774  0.25751636  1
  Mg  Mg8  1  0.99957969  0.26447774  0.74248364  1
  Mg  Mg9  1  0.99957969  0.73552226  0.25751636  1
  Mg  Mg10  1  0.99957969  0.73552226  0.74248364  1
  Mg  Mg11  1  0.50126133  0.25023105  0.25050010  1
  Mg  Mg12  1  0.50126133  0.25023105  0.74949990  1
  Mg  Mg13  1  0.50126133  0.74976895  0.25050010  1
  Mg  Mg14  1  0.50126133  0.74976895  0.74949990  1
  Mg  Mg15  1  0.26248878  0.00000000  0.26778741  1
  Mg  Mg16  1  0.26248878  -0.00000000  0.73221259  1
  Mg  Mg17  1  0.25206539  0.50000000  0.25316018  1
  Mg  Mg18  1  0.25206539  0.50000000  0.74683982  1
  Mg  Mg19  1  0.74392170  -0.00000000  0.24506450  1
  Mg  Mg20  1  0.74392170  0.00000000  0.75493550  1
  Mg  Mg21  1  0.74854775  0.50000000  0.24833432  1
  Mg  Mg22  1  0.74854775  0.50000000  0.75166568  1
  Mg  Mg23  1  0.25394865  0.26316912  -0.00000000  1
  Mg  Mg24  1  0.24526452  0.24369648  0.50000000  1
  Mg  Mg25  1  0.25394865  0.73683088  -0.00000000  1
  Mg  Mg26  1  0.24526452  0.75630352  0.50000000  1
  Mg  Mg27  1  0.74938502  0.25347772  -0.00000000  1
  Mg  Mg28  1  0.75228051  0.26384055  0.50000000  1
  Mg  Mg29  1  0.74938502  0.74652228  -0.00000000  1
  Mg  Mg30  1  0.75228051  0.73615945  0.50000000  1
  B  B31  1  0.93336516  0.00000000  0.50000000  1
  O  O32  1  0.27786516  -0.00000000  0.50000000  1
  O  O33  1  0.25579922  0.50000000  -0.00000000  1
  O  O34  1  0.25490597  0.50000000  0.50000000  1
  O  O35  1  0.72826947  0.00000000  -0.00000000  1
  O  O36  1  0.76331005  0.00000000  0.50000000  1
  O  O37  1  0.74573312  0.50000000  -0.00000000  1
  O  O38  1  0.74505293  0.50000000  0.50000000  1
  O  O39  1  0.24724949  0.24804046  0.25140273  1
  O  O40  1  0.24724949  0.24804046  0.74859727  1
  O  O41  1  0.24724949  0.75195954  0.25140273  1
  O  O42  1  0.24724949  0.75195954  0.74859727  1
  O  O43  1  0.75288495  0.24809454  0.25000891  1
  O  O44  1  0.75288495  0.24809454  0.74999109  1
  O  O45  1  0.75288495  0.75190546  0.25000891  1
  O  O46  1  0.75288495  0.75190546  0.74999109  1
  O  O47  1  0.99023066  -0.00000000  0.34004938  1
  O  O48  1  0.99023066  0.00000000  0.65995062  1
  O  O49  1  0.00022759  0.50000000  0.25099723  1
  O  O50  1  0.00022759  0.50000000  0.74900277  1
  O  O51  1  0.50738249  -0.00000000  0.25531221  1
  O  O52  1  0.50738249  0.00000000  0.74468779  1
  O  O53  1  0.50030320  0.50000000  0.25112257  1
  O  O54  1  0.50030320  0.50000000  0.74887743  1
  O  O55  1  0.99949124  0.27614397  -0.00000000  1
  O  O56  1  0.99693449  0.27374087  0.50000000  1
  O  O57  1  0.99949124  0.72385603  -0.00000000  1
  O  O58  1  0.99693449  0.72625913  0.50000000  1
  O  O59  1  0.50138735  0.25746360  -0.00000000  1
  O  O60  1  0.50655498  0.25055455  0.50000000  1
  O  O61  1  0.50138735  0.74253640  -0.00000000  1
  O  O62  1  0.50655498  0.74944545  0.50000000  1
