# generated using pymatgen
data_V(CO3)2
_symmetry_space_group_name_H-M   'P 1'
_cell_length_a   7.60594273
_cell_length_b   9.23795775
_cell_length_c   7.13412587
_cell_angle_alpha   89.99964252
_cell_angle_beta   89.99968645
_cell_angle_gamma   89.99917219
_symmetry_Int_Tables_number   1
_chemical_formula_structural   V(CO3)2
_chemical_formula_sum   'V4 C8 O24'
_cell_volume   501.26777973
_cell_formula_units_Z   4
loop_
 _symmetry_equiv_pos_site_id
 _symmetry_equiv_pos_as_xyz
  1  'x, y, z'
loop_
 _atom_site_type_symbol
 _atom_site_label
 _atom_site_symmetry_multiplicity
 _atom_site_fract_x
 _atom_site_fract_y
 _atom_site_fract_z
 _atom_site_occupancy
  V  V0  1  0.14456017  0.62940935  0.23666754  1
  V  V1  1  0.35545594  0.12940534  0.73667530  1
  V  V2  1  0.64447866  0.62941901  0.26333309  1
  V  V3  1  0.85551123  0.12942418  0.76333219  1
  C  C4  1  0.21950368  0.40513330  0.57501466  1
  C  C5  1  0.24640681  0.90117586  0.42132517  1
  C  C6  1  0.25360406  0.40114180  0.92129311  1
  C  C7  1  0.28051066  0.90517438  0.07499203  1
  C  C8  1  0.71952818  0.40510798  0.92496538  1
  C  C9  1  0.74642912  0.90119872  0.07865651  1
  C  C10  1  0.75362045  0.40112284  0.57872167  1
  C  C11  1  0.78052918  0.90519749  0.42502065  1
  O  O12  1  0.07446894  0.13168267  0.78686727  1
  O  O13  1  0.15431455  0.48379414  0.45232390  1
  O  O14  1  0.15517370  0.78676052  0.42580199  1
  O  O15  1  0.20562500  0.78417290  0.04954934  1
  O  O16  1  0.20730792  0.46707307  0.06537099  1
  O  O17  1  0.19625793  0.46337068  0.75557940  1
  O  O18  1  0.30373365  0.96336791  0.25557595  1
  O  O19  1  0.29268043  0.96707133  0.56534425  1
  O  O20  1  0.29436097  0.28418178  0.54955941  1
  O  O21  1  0.34480980  0.28676930  0.92579538  1
  O  O22  1  0.34566559  0.98378707  0.95234766  1
  O  O23  1  0.42552811  0.63168043  0.28687580  1
  O  O24  1  0.57439864  0.13167757  0.71314548  1
  O  O25  1  0.65430807  0.48380689  0.04769822  1
  O  O26  1  0.65517073  0.78675522  0.07419929  1
  O  O27  1  0.70561584  0.78416775  0.45044795  1
  O  O28  1  0.70729628  0.46708327  0.43460437  1
  O  O29  1  0.69626524  0.46336988  0.74441799  1
  O  O30  1  0.80373064  0.96337057  0.24442196  1
  O  O31  1  0.79269199  0.96706587  0.93466492  1
  O  O32  1  0.79436723  0.28419317  0.95043774  1
  O  O33  1  0.84481209  0.28677732  0.57420107  1
  O  O34  1  0.84567000  0.98378301  0.54763838  1
  O  O35  1  0.92560854  0.63167541  0.21313401  1
