# generated using pymatgen
data_LiV2(CO3)4
_symmetry_space_group_name_H-M   'P 1'
_cell_length_a   7.87205255
_cell_length_b   7.98394987
_cell_length_c   8.58904779
_cell_angle_alpha   102.69827096
_cell_angle_beta   102.02219822
_cell_angle_gamma   106.94923835
_symmetry_Int_Tables_number   1
_chemical_formula_structural   LiV2(CO3)4
_chemical_formula_sum   'Li2 V4 C8 O24'
_cell_volume   481.80879499
_cell_formula_units_Z   2
loop_
 _symmetry_equiv_pos_site_id
 _symmetry_equiv_pos_as_xyz
  1  'x, y, z'
loop_
 _atom_site_type_symbol
 _atom_site_label
 _atom_site_symmetry_multiplicity
 _atom_site_fract_x
 _atom_site_fract_y
 _atom_site_fract_z
 _atom_site_occupancy
  Li  Li0  1  0.20539304  0.01745336  0.81638605  1
  Li  Li1  1  0.79460696  0.98254664  0.18361395  1
  V  V2  1  0.28654663  0.74180636  0.55127764  1
  V  V3  1  0.20566450  0.46386297  0.06114060  1
  V  V4  1  0.79433550  0.53613703  0.93885940  1
  V  V5  1  0.71345337  0.25819364  0.44872236  1
  C  C6  1  0.00555389  0.73335476  0.23309300  1
  C  C7  1  0.05575444  0.33501084  0.31324260  1
  C  C8  1  0.46786536  0.63222935  0.75694674  1
  C  C9  1  0.46200030  0.84901921  0.27987097  1
  C  C10  1  0.53799970  0.15098079  0.72012903  1
  C  C11  1  0.53213464  0.36777065  0.24305326  1
  C  C12  1  0.94424556  0.66498916  0.68675740  1
  C  C13  1  0.99444611  0.26664524  0.76690700  1
  O  O14  1  0.07505624  0.77692790  0.64987182  1
  O  O15  1  0.11307663  0.82493669  0.37604077  1
  O  O16  1  0.01062303  0.57785658  0.14234017  1
  O  O17  1  0.12817644  0.22446130  0.84735368  1
  O  O18  1  0.15639182  0.49250049  0.41794631  1
  O  O19  1  0.08443939  0.28058548  0.17160607  1
  O  O20  1  0.30585959  0.64423824  0.75676013  1
  O  O21  1  0.36047332  0.73248692  0.13924681  1
  O  O22  1  0.44944999  0.81983528  0.41967669  1
  O  O23  1  0.52680041  0.68893843  0.64123778  1
  O  O24  1  0.55056903  0.56976335  0.86085174  1
  O  O25  1  0.41159106  0.00287507  0.71982241  1
  O  O26  1  0.58840894  0.99712493  0.28017759  1
  O  O27  1  0.44943097  0.43023665  0.13914826  1
  O  O28  1  0.47319959  0.31106157  0.35876222  1
  O  O29  1  0.55055001  0.18016472  0.58032231  1
  O  O30  1  0.63952668  0.26751308  0.86075319  1
  O  O31  1  0.69414041  0.35576176  0.24323987  1
  O  O32  1  0.91556061  0.71941452  0.82839393  1
  O  O33  1  0.84360818  0.50749951  0.58205369  1
  O  O34  1  0.87182356  0.77553870  0.15264632  1
  O  O35  1  0.98937697  0.42214342  0.85765983  1
  O  O36  1  0.88692337  0.17506331  0.62395923  1
  O  O37  1  0.92494376  0.22307210  0.35012818  1
