# generated using pymatgen
data_Li4V7(PO4)6
_symmetry_space_group_name_H-M   'P 1'
_cell_length_a   9.04226689
_cell_length_b   9.04226689
_cell_length_c   6.65955135
_cell_angle_alpha   81.57108063
_cell_angle_beta   98.42891937
_cell_angle_gamma   75.38880648
_symmetry_Int_Tables_number   1
_chemical_formula_structural   Li4V7(PO4)6
_chemical_formula_sum   'Li4 V7 P6 O24'
_cell_volume   511.52861983
_cell_formula_units_Z   1
loop_
 _symmetry_equiv_pos_site_id
 _symmetry_equiv_pos_as_xyz
  1  'x, y, z'
loop_
 _atom_site_type_symbol
 _atom_site_label
 _atom_site_symmetry_multiplicity
 _atom_site_fract_x
 _atom_site_fract_y
 _atom_site_fract_z
 _atom_site_occupancy
  Li  Li0  1  0.24287584  0.75712416  0.48921251  1
  Li  Li1  1  0.45130660  0.24222626  0.53040198  1
  Li  Li2  1  0.75777374  0.54869340  0.53040198  1
  Li  Li3  1  0.93792060  0.06207940  0.54921044  1
  V  V4  1  0.02923718  0.36135186  0.19177551  1
  V  V5  1  0.63864814  0.97076282  0.19177551  1
  V  V6  1  0.38259888  0.37568624  0.99742188  1
  V  V7  1  0.62431376  0.61740112  0.99742188  1
  V  V8  1  0.00186579  0.99813421  0.00111365  1
  V  V9  1  0.35446650  0.01827088  0.80941619  1
  V  V10  1  0.98172912  0.64553350  0.80941619  1
  P  P11  1  0.71172843  0.90135709  0.71139752  1
  P  P12  1  0.09864291  0.28827157  0.71139752  1
  P  P13  1  0.31328669  0.68671331  0.04136315  1
  P  P14  1  0.69744130  0.30255870  0.96577394  1
  P  P15  1  0.28295656  0.08812109  0.28367885  1
  P  P16  1  0.91187891  0.71704344  0.28367885  1
  O  O17  1  0.39375477  0.77896806  0.89523094  1
  O  O18  1  0.22103194  0.60624523  0.89523094  1
  O  O19  1  0.21223298  0.78776702  0.16435003  1
  O  O20  1  0.03684274  0.38960672  0.86570101  1
  O  O21  1  0.61039328  0.96315726  0.86570101  1
  O  O22  1  0.88976540  0.89754028  0.76651201  1
  O  O23  1  0.10245972  0.11023460  0.76651201  1
  O  O24  1  0.27913281  0.27705290  0.72776115  1
  O  O25  1  0.72294710  0.72086719  0.72776115  1
  O  O26  1  0.45036549  0.54963451  0.17949327  1
  O  O27  1  0.56327204  0.43672796  0.81223329  1
  O  O28  1  0.88797560  0.89620568  0.21450000  1
  O  O29  1  0.10379432  0.11202440  0.21450000  1
  O  O30  1  0.73840614  0.70485624  0.27883800  1
  O  O31  1  0.29514376  0.26159386  0.27883800  1
  O  O32  1  0.33237235  0.98220919  0.49844439  1
  O  O33  1  0.01779081  0.66762765  0.49844439  1
  O  O34  1  0.80306580  0.19693420  0.85518095  1
  O  O35  1  0.38507354  0.02035616  0.13414192  1
  O  O36  1  0.97964384  0.61492646  0.13414192  1
  O  O37  1  0.60852061  0.21349560  0.10268955  1
  O  O38  1  0.78650440  0.39147939  0.10268955  1
  O  O39  1  0.64559394  0.00975032  0.50028649  1
  O  O40  1  0.99024968  0.35440606  0.50028649  1
