# generated using pymatgen
data_LiVPO5
_symmetry_space_group_name_H-M   'P 1'
_cell_length_a   7.63373293
_cell_length_b   9.69256192
_cell_length_c   5.34874420
_cell_angle_alpha   90.00000000
_cell_angle_beta   111.91293666
_cell_angle_gamma   90.00000000
_symmetry_Int_Tables_number   1
_chemical_formula_structural   LiVPO5
_chemical_formula_sum   'Li4 V4 P4 O20'
_cell_volume   367.16331368
_cell_formula_units_Z   4
loop_
 _symmetry_equiv_pos_site_id
 _symmetry_equiv_pos_as_xyz
  1  'x, y, z'
loop_
 _atom_site_type_symbol
 _atom_site_label
 _atom_site_symmetry_multiplicity
 _atom_site_fract_x
 _atom_site_fract_y
 _atom_site_fract_z
 _atom_site_occupancy
  Li  Li0  1  0.21386362  0.89445784  0.65973690  1
  Li  Li1  1  0.28613638  0.39445784  0.84026310  1
  Li  Li2  1  0.71386362  0.60554216  0.15973690  1
  Li  Li3  1  0.78613638  0.10554216  0.34026310  1
  V  V4  1  0.15441651  0.07901903  0.16892672  1
  V  V5  1  0.34558349  0.57901903  0.33107328  1
  V  V6  1  0.65441651  0.42098097  0.66892672  1
  V  V7  1  0.84558349  0.92098097  0.83107328  1
  P  P8  1  0.04307926  0.34535473  0.20690262  1
  P  P9  1  0.54307926  0.15464527  0.70690262  1
  P  P10  1  0.45692074  0.84535473  0.29309738  1
  P  P11  1  0.95692074  0.65464527  0.79309738  1
  O  O12  1  0.99880368  0.78683525  0.66456416  1
  O  O13  1  0.15991958  0.28191331  0.04637041  1
  O  O14  1  0.01466970  0.95088928  0.22249297  1
  O  O15  1  0.14413395  0.58455226  0.96832750  1
  O  O16  1  0.16567171  0.45093456  0.42224428  1
  O  O17  1  0.35586605  0.08455226  0.53167250  1
  O  O18  1  0.34008042  0.78191331  0.45362959  1
  O  O19  1  0.50119632  0.28683525  0.83543584  1
  O  O20  1  0.33432829  0.95093456  0.07775572  1
  O  O21  1  0.51466970  0.54911072  0.72249297  1
  O  O22  1  0.48533030  0.45088928  0.27750703  1
  O  O23  1  0.66567171  0.04906544  0.92224428  1
  O  O24  1  0.49880368  0.71316475  0.16456416  1
  O  O25  1  0.65991958  0.21808669  0.54637041  1
  O  O26  1  0.64413395  0.91544774  0.46832750  1
  O  O27  1  0.83432829  0.54906544  0.57775572  1
  O  O28  1  0.85586605  0.41544774  0.03167250  1
  O  O29  1  0.98533030  0.04911072  0.77750703  1
  O  O30  1  0.84008042  0.71808669  0.95362959  1
  O  O31  1  0.00119632  0.21316475  0.33543584  1
