# generated using pymatgen
data_Li3Mn3FeO8
_symmetry_space_group_name_H-M   'P 1'
_cell_length_a   5.96198455
_cell_length_b   5.83574242
_cell_length_c   9.53501649
_cell_angle_alpha   89.47824710
_cell_angle_beta   89.90416665
_cell_angle_gamma   60.91366308
_symmetry_Int_Tables_number   1
_chemical_formula_structural   Li3Mn3FeO8
_chemical_formula_sum   'Li6 Mn6 Fe2 O16'
_cell_volume   289.89725745
_cell_formula_units_Z   2
loop_
 _symmetry_equiv_pos_site_id
 _symmetry_equiv_pos_as_xyz
  1  'x, y, z'
loop_
 _atom_site_type_symbol
 _atom_site_label
 _atom_site_symmetry_multiplicity
 _atom_site_fract_x
 _atom_site_fract_y
 _atom_site_fract_z
 _atom_site_occupancy
  Li  Li0  1  0.16166712  0.17934236  0.55618041  1
  Li  Li1  1  0.64595017  0.16855583  0.55665986  1
  Li  Li2  1  0.17078503  0.64859519  0.55962920  1
  Li  Li3  1  0.83564247  0.34026310  0.05538122  1
  Li  Li4  1  0.35566118  0.81417526  0.05696246  1
  Li  Li5  1  0.81874085  0.82544680  0.05872119  1
  Mn  Mn6  1  0.16475823  0.17148509  0.28538670  1
  Mn  Mn7  1  0.66029156  0.17184828  0.28442397  1
  Mn  Mn8  1  0.16637432  0.66850166  0.28558225  1
  Mn  Mn9  1  0.83378085  0.33529419  0.78435221  1
  Mn  Mn10  1  0.33947229  0.83148780  0.78507273  1
  Mn  Mn11  1  0.83430031  0.83187558  0.78661369  1
  Fe  Fe12  1  0.34868656  0.32750032  0.00339690  1
  Fe  Fe13  1  0.65709826  0.67815059  0.50452346  1
  O  O14  1  0.02759548  0.99169644  0.17466032  1
  O  O15  1  0.02450221  0.96864547  0.67611228  1
  O  O16  1  0.16927827  0.15706228  0.89733415  1
  O  O17  1  0.47251705  0.03376109  0.16483577  1
  O  O18  1  0.69467627  0.15052567  0.90293689  1
  O  O19  1  0.29933927  0.35095755  0.40296010  1
  O  O20  1  0.04041648  0.47825379  0.15790891  1
  O  O21  1  0.51023923  0.45915010  0.15018841  1
  O  O22  1  0.84340400  0.32710458  0.39976152  1
  O  O23  1  0.19420783  0.66855480  0.90907152  1
  O  O24  1  0.51628822  0.51530603  0.66153947  1
  O  O25  1  0.95427296  0.52265660  0.66119104  1
  O  O26  1  0.64982332  0.69570393  0.90315376  1
  O  O27  1  0.31219954  0.84722997  0.40170689  1
  O  O28  1  0.49013798  0.97228645  0.65248734  1
  O  O29  1  0.80813567  0.86833621  0.41163039  1
