# generated using pymatgen
data_Li2Ti2FeO6
_symmetry_space_group_name_H-M   'P 1'
_cell_length_a   5.24667312
_cell_length_b   5.24667359
_cell_length_c   10.50481759
_cell_angle_alpha   90.00000000
_cell_angle_beta   90.00000000
_cell_angle_gamma   120.74770856
_symmetry_Int_Tables_number   1
_chemical_formula_structural   Li2Ti2FeO6
_chemical_formula_sum   'Li4 Ti4 Fe2 O12'
_cell_volume   248.52237288
_cell_formula_units_Z   2
loop_
 _symmetry_equiv_pos_site_id
 _symmetry_equiv_pos_as_xyz
  1  'x, y, z'
loop_
 _atom_site_type_symbol
 _atom_site_label
 _atom_site_symmetry_multiplicity
 _atom_site_fract_x
 _atom_site_fract_y
 _atom_site_fract_z
 _atom_site_occupancy
  Li  Li0  1  0.17447608  0.67447608  0.75000000  1
  Li  Li1  1  0.32552392  0.82552392  0.25000000  1
  Li  Li2  1  0.67447608  0.17447608  0.75000000  1
  Li  Li3  1  0.82552392  0.32552392  0.25000000  1
  Ti  Ti4  1  0.16409508  0.83590492  0.50000000  1
  Ti  Ti5  1  0.33590492  0.66409508  0.00000000  1
  Ti  Ti6  1  0.66409508  0.33590492  0.00000000  1
  Ti  Ti7  1  0.83590492  0.16409508  0.50000000  1
  Fe  Fe8  1  0.00000000  0.00000000  0.00000000  1
  Fe  Fe9  1  0.50000000  0.50000000  0.50000000  1
  O  O10  1  0.00238305  0.62416273  0.10850940  1
  O  O11  1  0.99761695  0.37583727  0.89149060  1
  O  O12  1  0.12416273  0.50238305  0.39149060  1
  O  O13  1  0.49761695  0.87583727  0.60850940  1
  O  O14  1  0.15772214  0.15772214  0.59261571  1
  O  O15  1  0.34227786  0.34227786  0.09261571  1
  O  O16  1  0.65772214  0.65772214  0.90738429  1
  O  O17  1  0.37583727  0.99761695  0.89149060  1
  O  O18  1  0.84227786  0.84227786  0.40738429  1
  O  O19  1  0.50238305  0.12416273  0.39149060  1
  O  O20  1  0.87583727  0.49761695  0.60850940  1
  O  O21  1  0.62416273  0.00238305  0.10850940  1
