# generated using pymatgen
data_Li5V3CrO8
_symmetry_space_group_name_H-M   'P 1'
_cell_length_a   5.96925620
_cell_length_b   6.02514404
_cell_length_c   9.92334727
_cell_angle_alpha   89.84096562
_cell_angle_beta   89.68049677
_cell_angle_gamma   60.24755611
_symmetry_Int_Tables_number   1
_chemical_formula_structural   Li5V3CrO8
_chemical_formula_sum   'Li10 V6 Cr2 O16'
_cell_volume   309.84728180
_cell_formula_units_Z   2
loop_
 _symmetry_equiv_pos_site_id
 _symmetry_equiv_pos_as_xyz
  1  'x, y, z'
loop_
 _atom_site_type_symbol
 _atom_site_label
 _atom_site_symmetry_multiplicity
 _atom_site_fract_x
 _atom_site_fract_y
 _atom_site_fract_z
 _atom_site_occupancy
  Li  Li0  1  0.98510863  0.99928659  0.51316771  1
  Li  Li1  1  0.65323717  0.66251652  0.72561689  1
  Li  Li2  1  0.79094658  0.80261822  0.94460288  1
  Li  Li3  1  0.37639479  0.80351949  0.94166798  1
  Li  Li4  1  0.79103642  0.38982349  0.94160707  1
  Li  Li5  1  0.18059116  0.61016701  0.44158666  1
  Li  Li6  1  0.31544336  0.33725463  0.22554542  1
  Li  Li7  1  0.59356061  0.19742763  0.44463696  1
  Li  Li8  1  0.17980140  0.19704281  0.44190829  1
  Li  Li9  1  0.98396767  0.00074560  0.01333997  1
  V  V10  1  0.81165949  0.83320147  0.21337905  1
  V  V11  1  0.64430029  0.16691109  0.71327008  1
  V  V12  1  0.32805020  0.82990520  0.21108052  1
  V  V13  1  0.81351064  0.33950002  0.21303382  1
  V  V14  1  0.15321071  0.66103187  0.71320669  1
  V  V15  1  0.15871195  0.16950179  0.71104457  1
  Cr  Cr16  1  0.65373919  0.66355691  0.47286198  1
  Cr  Cr17  1  0.31669202  0.33628172  0.97279702  1
  O  O18  1  0.81857138  0.83074514  0.58916478  1
  O  O19  1  0.50308294  0.97709674  0.34246021  1
  O  O20  1  0.98228106  0.99383691  0.82310230  1
  O  O21  1  0.31825487  0.82515697  0.58893860  1
  O  O22  1  0.96466939  0.51047710  0.34055742  1
  O  O23  1  0.66757030  0.65737961  0.09335198  1
  O  O24  1  0.50372439  0.50397448  0.34024351  1
  O  O25  1  0.14393979  0.66976532  0.08912388  1
  O  O26  1  0.81467295  0.32987876  0.58917993  1
  O  O27  1  0.47478525  0.48948860  0.84060230  1
  O  O28  1  0.64848535  0.16916317  0.08907905  1
  O  O29  1  0.00743922  0.49629144  0.83993092  1
  O  O30  1  0.32383518  0.34311682  0.59328257  1
  O  O31  1  0.48005177  0.02259016  0.84251951  1
  O  O32  1  0.14322547  0.17429365  0.08890864  1
  O  O33  1  0.97542544  0.00645206  0.32291982  1
