# generated using pymatgen
data_Li3Mn3CrO8
_symmetry_space_group_name_H-M   'P 1'
_cell_length_a   5.96390411
_cell_length_b   5.85895108
_cell_length_c   9.50881992
_cell_angle_alpha   90.42787333
_cell_angle_beta   89.14237615
_cell_angle_gamma   120.55536026
_symmetry_Int_Tables_number   1
_chemical_formula_structural   Li3Mn3CrO8
_chemical_formula_sum   'Li6 Mn6 Cr2 O16'
_cell_volume   286.08917449
_cell_formula_units_Z   2
loop_
 _symmetry_equiv_pos_site_id
 _symmetry_equiv_pos_as_xyz
  1  'x, y, z'
loop_
 _atom_site_type_symbol
 _atom_site_label
 _atom_site_symmetry_multiplicity
 _atom_site_fract_x
 _atom_site_fract_y
 _atom_site_fract_z
 _atom_site_occupancy
  Li  Li0  1  0.82543749  0.17724895  0.44521029  1
  Li  Li1  1  0.34673751  0.18129753  0.44220923  1
  Li  Li2  1  0.83551522  0.66151648  0.44302598  1
  Li  Li3  1  0.17494414  0.33932245  0.94319059  1
  Li  Li4  1  0.64859074  0.82226671  0.94504842  1
  Li  Li5  1  0.16669930  0.81656988  0.94195125  1
  Mn  Mn6  1  0.83439218  0.17251533  0.71548014  1
  Mn  Mn7  1  0.34102593  0.17420472  0.71439741  1
  Mn  Mn8  1  0.83743978  0.67172144  0.71136008  1
  Mn  Mn9  1  0.16483115  0.32849830  0.21158474  1
  Mn  Mn10  1  0.66103172  0.82739896  0.21545816  1
  Mn  Mn11  1  0.16625002  0.82600557  0.21438504  1
  Cr  Cr12  1  0.65773000  0.32002061  0.98980071  1
  Cr  Cr13  1  0.33862625  0.68007096  0.48985537  1
  O  O14  1  0.80966747  0.13218677  0.09177488  1
  O  O15  1  0.51546564  0.02987388  0.83709122  1
  O  O16  1  0.70487857  0.35274206  0.59840356  1
  O  O17  1  0.97076308  0.98946470  0.82458911  1
  O  O18  1  0.98022134  0.01038759  0.32453660  1
  O  O19  1  0.30756698  0.14255716  0.09235867  1
  O  O20  1  0.96643554  0.46469809  0.85249413  1
  O  O21  1  0.52022011  0.47712410  0.84236678  1
  O  O22  1  0.83312505  0.66912922  0.10281055  1
  O  O23  1  0.16460581  0.33135147  0.60302094  1
  O  O24  1  0.50210933  0.53529118  0.35281742  1
  O  O25  1  0.35162401  0.64709187  0.09833518  1
  O  O26  1  0.04340066  0.52296694  0.34262571  1
  O  O27  1  0.67916464  0.86789375  0.59159730  1
  O  O28  1  0.48472584  0.96984744  0.33689579  1
  O  O29  1  0.16654351  0.85849389  0.59193774  1
