# generated using pymatgen
data_Li3NbFe3O8
_symmetry_space_group_name_H-M   'P 1'
_cell_length_a   6.01791710
_cell_length_b   6.09626012
_cell_length_c   6.12930383
_cell_angle_alpha   59.35268612
_cell_angle_beta   119.92167893
_cell_angle_gamma   119.30238699
_symmetry_Int_Tables_number   1
_chemical_formula_structural   Li3NbFe3O8
_chemical_formula_sum   'Li3 Nb1 Fe3 O8'
_cell_volume   159.11386879
_cell_formula_units_Z   1
loop_
 _symmetry_equiv_pos_site_id
 _symmetry_equiv_pos_as_xyz
  1  'x, y, z'
loop_
 _atom_site_type_symbol
 _atom_site_label
 _atom_site_symmetry_multiplicity
 _atom_site_fract_x
 _atom_site_fract_y
 _atom_site_fract_z
 _atom_site_occupancy
  Li  Li0  1  0.00000122  0.50000049  0.00000083  1
  Li  Li1  1  0.00000351  0.00000448  0.49999759  1
  Li  Li2  1  0.50000138  0.50000129  0.50000168  1
  Nb  Nb3  1  0.99999713  0.00000067  -0.00000555  1
  Fe  Fe4  1  0.50000385  0.49999610  0.00000740  1
  Fe  Fe5  1  0.50000384  0.99999385  0.50000898  1
  Fe  Fe6  1  0.00000143  0.50000155  0.50000303  1
  O  O7  1  0.74738184  0.27595921  0.26704858  1
  O  O8  1  0.23608594  0.24695386  0.22290307  1
  O  O9  1  0.76259259  0.75011151  0.23786186  1
  O  O10  1  0.77741036  0.25271922  0.75151162  1
  O  O11  1  0.22258527  0.74728129  0.24848335  1
  O  O12  1  0.23740307  0.24988964  0.76213508  1
  O  O13  1  0.76391259  0.75304283  0.77709342  1
  O  O14  1  0.25261998  0.72404301  0.73294906  1
