# generated using pymatgen
data_LiV2(CO3)4
_symmetry_space_group_name_H-M   'P 1'
_cell_length_a   8.56609500
_cell_length_b   6.37437823
_cell_length_c   5.81565136
_cell_angle_alpha   64.33171328
_cell_angle_beta   66.00990710
_cell_angle_gamma   77.97219048
_symmetry_Int_Tables_number   1
_chemical_formula_structural   LiV2(CO3)4
_chemical_formula_sum   'Li1 V2 C4 O12'
_cell_volume   261.29217041
_cell_formula_units_Z   1
loop_
 _symmetry_equiv_pos_site_id
 _symmetry_equiv_pos_as_xyz
  1  'x, y, z'
loop_
 _atom_site_type_symbol
 _atom_site_label
 _atom_site_symmetry_multiplicity
 _atom_site_fract_x
 _atom_site_fract_y
 _atom_site_fract_z
 _atom_site_occupancy
  Li  Li0  1  0.17527775  0.43076662  0.11340966  1
  V  V1  1  0.50076754  0.51797060  0.36790390  1
  V  V2  1  0.99862609  0.98215753  0.09040461  1
  C  C3  1  0.79226392  0.61192754  0.23471433  1
  C  C4  1  0.71322461  0.11034704  0.29858624  1
  C  C5  1  0.28356775  0.90018417  0.12063824  1
  C  C6  1  0.20213715  0.37001820  0.62956597  1
  O  O7  1  0.95207384  0.66568868  0.17120191  1
  O  O8  1  0.83966688  0.06349126  0.39344876  1
  O  O9  1  0.67810618  0.58089401  0.47474916  1
  O  O10  1  0.75004760  0.58694163  0.06241498  1
  O  O11  1  0.75772180  0.07001754  0.08122965  1
  O  O12  1  0.56702636  0.18766668  0.41429847  1
  O  O13  1  0.42337843  0.83809507  0.16367150  1
  O  O14  1  0.24414831  0.85369606  0.95431880  1
  O  O15  1  0.28496369  0.43082102  0.73416011  1
  O  O16  1  0.27010943  0.41756557  0.37178511  1
  O  O17  1  0.15876221  0.01565214  0.24949969  1
  O  O18  1  0.05559646  0.27003364  0.77583892  1
