# generated using pymatgen
data_Co2OF3
_symmetry_space_group_name_H-M   'P 1'
_cell_length_a   4.73540238
_cell_length_b   4.73540238
_cell_length_c   12.23669556
_cell_angle_alpha   90.00000000
_cell_angle_beta   90.00000000
_cell_angle_gamma   92.90879660
_symmetry_Int_Tables_number   1
_chemical_formula_structural   Co2OF3
_chemical_formula_sum   'Co8 O4 F12'
_cell_volume   274.04255952
_cell_formula_units_Z   4
loop_
 _symmetry_equiv_pos_site_id
 _symmetry_equiv_pos_as_xyz
  1  'x, y, z'
loop_
 _atom_site_type_symbol
 _atom_site_label
 _atom_site_symmetry_multiplicity
 _atom_site_fract_x
 _atom_site_fract_y
 _atom_site_fract_z
 _atom_site_occupancy
  Co  Co0  1  0.95976355  0.95976355  0.00000000  1
  Co  Co1  1  0.02255822  0.02255822  0.24946924  1
  Co  Co2  1  0.02417000  0.02417000  0.50000000  1
  Co  Co3  1  0.02255822  0.02255822  0.75053076  1
  Co  Co4  1  0.49226889  0.49226889  0.12487705  1
  Co  Co5  1  0.48873630  0.48873630  0.62556366  1
  Co  Co6  1  0.48873630  0.48873630  0.37443634  1
  Co  Co7  1  0.49226889  0.49226889  0.87512295  1
  O  O8  1  0.31854722  0.31854722  0.24849372  1
  O  O9  1  0.31854722  0.31854722  0.75150628  1
  O  O10  1  0.31653293  0.31653293  0.50000000  1
  O  O11  1  0.66339364  0.66339364  0.00000000  1
  F  F12  1  0.19366754  0.78980815  0.12529838  1
  F  F13  1  0.20442378  0.81299144  0.62183867  1
  F  F14  1  0.20442378  0.81299144  0.37816133  1
  F  F15  1  0.19366754  0.78980815  0.87470162  1
  F  F16  1  0.27767608  0.27767608  0.00000000  1
  F  F17  1  0.70616646  0.70616646  0.25147876  1
  F  F18  1  0.70012584  0.70012584  0.50000000  1
  F  F19  1  0.70616646  0.70616646  0.74852124  1
  F  F20  1  0.78980815  0.19366754  0.12529838  1
  F  F21  1  0.81299144  0.20442378  0.62183867  1
  F  F22  1  0.81299144  0.20442378  0.37816133  1
  F  F23  1  0.78980815  0.19366754  0.87470162  1
