# generated using pymatgen
data_LiFe(PO3)4
_symmetry_space_group_name_H-M   'P 1'
_cell_length_a   13.04088741
_cell_length_b   8.12030936
_cell_length_c   9.51973826
_cell_angle_alpha   90.00000000
_cell_angle_beta   90.00000000
_cell_angle_gamma   90.00000000
_symmetry_Int_Tables_number   1
_chemical_formula_structural   LiFe(PO3)4
_chemical_formula_sum   'Li4 Fe4 P16 O48'
_cell_volume   1008.10258450
_cell_formula_units_Z   4
loop_
 _symmetry_equiv_pos_site_id
 _symmetry_equiv_pos_as_xyz
  1  'x, y, z'
loop_
 _atom_site_type_symbol
 _atom_site_label
 _atom_site_symmetry_multiplicity
 _atom_site_fract_x
 _atom_site_fract_y
 _atom_site_fract_z
 _atom_site_occupancy
  Li  Li0  1  0.00000000  0.57897685  0.25000000  1
  Li  Li1  1  0.00000000  0.42102315  0.75000000  1
  Li  Li2  1  0.50000000  0.07897685  0.25000000  1
  Li  Li3  1  0.50000000  0.92102315  0.75000000  1
  Fe  Fe4  1  0.00000000  0.01921638  0.75000000  1
  Fe  Fe5  1  0.00000000  0.98078362  0.25000000  1
  Fe  Fe6  1  0.50000000  0.48078362  0.25000000  1
  Fe  Fe7  1  0.50000000  0.51921638  0.75000000  1
  P  P8  1  0.13703321  0.17040130  0.49601590  1
  P  P9  1  0.13703321  0.82959870  0.99601590  1
  P  P10  1  0.14654127  0.45289980  0.00040232  1
  P  P11  1  0.14654127  0.54710020  0.50040232  1
  P  P12  1  0.35345873  0.04710020  0.50040232  1
  P  P13  1  0.35345873  0.95289980  0.00040232  1
  P  P14  1  0.36296679  0.32959870  0.99601590  1
  P  P15  1  0.36296679  0.67040130  0.49601590  1
  P  P16  1  0.63703321  0.32959870  0.50398410  1
  P  P17  1  0.63703321  0.67040130  0.00398410  1
  P  P18  1  0.64654127  0.04710020  0.99959768  1
  P  P19  1  0.64654127  0.95289980  0.49959768  1
  P  P20  1  0.85345873  0.45289980  0.49959768  1
  P  P21  1  0.85345873  0.54710020  0.99959768  1
  P  P22  1  0.86296679  0.17040130  0.00398410  1
  P  P23  1  0.86296679  0.82959870  0.50398410  1
  O  O24  1  0.05936677  0.16185354  0.61589013  1
  O  O25  1  0.05936677  0.83814646  0.11589013  1
  O  O26  1  0.07794607  0.56000385  0.62362255  1
  O  O27  1  0.07794607  0.43999615  0.12362255  1
  O  O28  1  0.09922499  0.91020461  0.86055919  1
  O  O29  1  0.09922499  0.08979539  0.36055919  1
  O  O30  1  0.13010710  0.63952593  0.36791629  1
  O  O31  1  0.13010710  0.36047407  0.86791629  1
  O  O32  1  0.16629910  0.35061879  0.45990118  1
  O  O33  1  0.16629910  0.64938121  0.95990118  1
  O  O34  1  0.23473293  0.08203007  0.55607688  1
  O  O35  1  0.23473293  0.91796993  0.05607688  1
  O  O36  1  0.26526707  0.41796993  0.05607688  1
  O  O37  1  0.26526707  0.58203007  0.55607688  1
  O  O38  1  0.33370090  0.14938121  0.95990118  1
  O  O39  1  0.33370090  0.85061879  0.45990118  1
  O  O40  1  0.36989290  0.13952593  0.36791629  1
  O  O41  1  0.36989290  0.86047407  0.86791629  1
  O  O42  1  0.40077501  0.58979539  0.36055919  1
  O  O43  1  0.40077501  0.41020461  0.86055919  1
  O  O44  1  0.42205393  0.06000385  0.62362255  1
  O  O45  1  0.42205393  0.93999615  0.12362255  1
  O  O46  1  0.44063323  0.66185354  0.61589013  1
  O  O47  1  0.44063323  0.33814646  0.11589013  1
  O  O48  1  0.55936677  0.33814646  0.38410987  1
  O  O49  1  0.55936677  0.66185354  0.88410987  1
  O  O50  1  0.57794607  0.06000385  0.87637745  1
  O  O51  1  0.57794607  0.93999615  0.37637745  1
  O  O52  1  0.59922499  0.41020461  0.63944081  1
  O  O53  1  0.59922499  0.58979539  0.13944081  1
  O  O54  1  0.63010710  0.13952593  0.13208371  1
  O  O55  1  0.63010710  0.86047407  0.63208371  1
  O  O56  1  0.66629910  0.14938121  0.54009882  1
  O  O57  1  0.66629910  0.85061879  0.04009882  1
  O  O58  1  0.73473293  0.41796993  0.44392312  1
  O  O59  1  0.73473293  0.58203007  0.94392312  1
  O  O60  1  0.76526707  0.08203007  0.94392312  1
  O  O61  1  0.76526707  0.91796993  0.44392312  1
  O  O62  1  0.83370090  0.35061879  0.04009882  1
  O  O63  1  0.83370090  0.64938121  0.54009882  1
  O  O64  1  0.86989290  0.36047407  0.63208371  1
  O  O65  1  0.86989290  0.63952593  0.13208371  1
  O  O66  1  0.90077501  0.08979539  0.13944081  1
  O  O67  1  0.90077501  0.91020461  0.63944081  1
  O  O68  1  0.92205393  0.43999615  0.37637745  1
  O  O69  1  0.92205393  0.56000385  0.87637745  1
  O  O70  1  0.94063323  0.16185354  0.88410987  1
  O  O71  1  0.94063323  0.83814646  0.38410987  1
