# generated using pymatgen
data_Li2Fe2OF4
_symmetry_space_group_name_H-M   'P 1'
_cell_length_a   3.00443516
_cell_length_b   5.20398905
_cell_length_c   12.82115115
_cell_angle_alpha   90.00000000
_cell_angle_beta   90.00000000
_cell_angle_gamma   106.77814132
_symmetry_Int_Tables_number   1
_chemical_formula_structural   Li2Fe2OF4
_chemical_formula_sum   'Li4 Fe4 O2 F8'
_cell_volume   191.92569556
_cell_formula_units_Z   2
loop_
 _symmetry_equiv_pos_site_id
 _symmetry_equiv_pos_as_xyz
  1  'x, y, z'
loop_
 _atom_site_type_symbol
 _atom_site_label
 _atom_site_symmetry_multiplicity
 _atom_site_fract_x
 _atom_site_fract_y
 _atom_site_fract_z
 _atom_site_occupancy
  Li  Li0  1  0.22927502  0.45855005  0.88680347  1
  Li  Li1  1  0.77072498  0.54144995  0.38680347  1
  Li  Li2  1  0.49384152  0.98768304  0.99336725  1
  Li  Li3  1  0.50615848  0.01231696  0.49336725  1
  Fe  Fe4  1  0.03772421  0.07544842  0.26104748  1
  Fe  Fe5  1  0.24236306  0.48472613  0.61411633  1
  Fe  Fe6  1  0.96227579  0.92455158  0.76104748  1
  Fe  Fe7  1  0.75763694  0.51527387  0.11411633  1
  O  O8  1  0.32938320  0.65876640  0.75155486  1
  O  O9  1  0.67061680  0.34123360  0.25155486  1
  F  F10  1  0.13387752  0.26775604  0.03160177  1
  F  F11  1  0.14787923  0.29575946  0.46667117  1
  F  F12  1  0.41703315  0.83406630  0.14331454  1
  F  F13  1  0.41942824  0.83885547  0.35152313  1
  F  F14  1  0.58296685  0.16593370  0.64331454  1
  F  F15  1  0.86612248  0.73224396  0.53160177  1
  F  F16  1  0.58057176  0.16114453  0.85152313  1
  F  F17  1  0.85212077  0.70424054  0.96667117  1
