# generated using pymatgen
data_Co3(O2F)2
_symmetry_space_group_name_H-M   'P 1'
_cell_length_a   4.61867297
_cell_length_b   7.44831512
_cell_length_c   5.49562862
_cell_angle_alpha   95.44791755
_cell_angle_beta   96.21771437
_cell_angle_gamma   86.23893218
_symmetry_Int_Tables_number   1
_chemical_formula_structural   Co3(O2F)2
_chemical_formula_sum   'Co6 O8 F4'
_cell_volume   186.80338346
_cell_formula_units_Z   2
loop_
 _symmetry_equiv_pos_site_id
 _symmetry_equiv_pos_as_xyz
  1  'x, y, z'
loop_
 _atom_site_type_symbol
 _atom_site_label
 _atom_site_symmetry_multiplicity
 _atom_site_fract_x
 _atom_site_fract_y
 _atom_site_fract_z
 _atom_site_occupancy
  Co  Co0  1  0.52842143  0.00981323  0.48366799  1
  Co  Co1  1  0.54532523  0.34882764  0.79851054  1
  Co  Co2  1  0.49382914  0.66257938  0.17269523  1
  Co  Co3  1  0.99299418  0.66045593  0.67067416  1
  Co  Co4  1  0.98228783  0.32773348  0.33748215  1
  Co  Co5  1  0.98653196  0.00076255  0.01976567  1
  O  O6  1  0.81740819  0.43210193  0.61083456  1
  O  O7  1  0.80570458  0.11433852  0.30467711  1
  O  O8  1  0.68773177  0.76894479  0.47057633  1
  O  O9  1  0.69555734  0.10248176  0.79251960  1
  O  O10  1  0.69964823  0.43319361  0.12199868  1
  O  O11  1  0.31254613  0.56183699  0.86378405  1
  O  O12  1  0.30578761  0.23251026  0.53335441  1
  O  O13  1  0.30295763  0.90031161  0.21190619  1
  F  F14  1  0.79693835  0.76697741  0.97671020  1
  F  F15  1  0.17959141  0.23603028  0.05572850  1
  F  F16  1  0.17884584  0.89126184  0.71651658  1
  F  F17  1  0.18789418  0.54983879  0.35859807  1
