# generated using pymatgen
data_Mn2CrNi3(PO4)6
_symmetry_space_group_name_H-M   'P 1'
_cell_length_a   8.56250543
_cell_length_b   8.56250572
_cell_length_c   8.56250559
_cell_angle_alpha   60.58376532
_cell_angle_beta   60.58377042
_cell_angle_gamma   60.58376899
_symmetry_Int_Tables_number   1
_chemical_formula_structural   Mn2CrNi3(PO4)6
_chemical_formula_sum   'Mn2 Cr1 Ni3 P6 O24'
_cell_volume   449.75575075
_cell_formula_units_Z   1
loop_
 _symmetry_equiv_pos_site_id
 _symmetry_equiv_pos_as_xyz
  1  'x, y, z'
loop_
 _atom_site_type_symbol
 _atom_site_label
 _atom_site_symmetry_multiplicity
 _atom_site_fract_x
 _atom_site_fract_y
 _atom_site_fract_z
 _atom_site_occupancy
  Mn  Mn0  1  0.00171109  0.00171109  0.00171109  1
  Mn  Mn1  1  0.50025866  0.50025866  0.50025866  1
  Cr  Cr2  1  0.85817860  0.85817860  0.85817860  1
  Ni  Ni3  1  0.14328713  0.14328713  0.14328713  1
  Ni  Ni4  1  0.35775348  0.35775348  0.35775348  1
  Ni  Ni5  1  0.64300242  0.64300242  0.64300242  1
  P  P6  1  0.04322316  0.75026759  0.45861789  1
  P  P7  1  0.45861789  0.04322316  0.75026759  1
  P  P8  1  0.75026759  0.45861789  0.04322316  1
  P  P9  1  0.24946280  0.54279595  0.95573352  1
  P  P10  1  0.54279595  0.95573352  0.24946280  1
  P  P11  1  0.95573352  0.24946280  0.54279595  1
  O  O12  1  0.10905331  0.31057598  0.51395650  1
  O  O13  1  0.31057598  0.51395650  0.10905331  1
  O  O14  1  0.05681652  0.91142438  0.26171977  1
  O  O15  1  0.51395650  0.10905331  0.31057598  1
  O  O16  1  0.99731061  0.81894624  0.61785447  1
  O  O17  1  0.24066685  0.59137927  0.45144301  1
  O  O18  1  0.26171977  0.05681652  0.91142438  1
  O  O19  1  0.45144301  0.24066685  0.59137927  1
  O  O20  1  0.18581811  0.38905846  0.98678348  1
  O  O21  1  0.59137927  0.45144301  0.24066685  1
  O  O22  1  0.08607099  0.74371108  0.93454058  1
  O  O23  1  0.38905846  0.98678348  0.18581811  1
  O  O24  1  0.61785447  0.99731061  0.81894624  1
  O  O25  1  0.91142438  0.26171977  0.05681652  1
  O  O26  1  0.40767811  0.56117916  0.75468142  1
  O  O27  1  0.81894624  0.61785447  0.99731061  1
  O  O28  1  0.56117916  0.75468142  0.40767811  1
  O  O29  1  0.74371108  0.93454058  0.08607099  1
  O  O30  1  0.75468142  0.40767811  0.56117916  1
  O  O31  1  0.98678348  0.18581811  0.38905846  1
  O  O32  1  0.48971610  0.89138870  0.68393362  1
  O  O33  1  0.93454058  0.08607099  0.74371108  1
  O  O34  1  0.68393362  0.48971610  0.89138870  1
  O  O35  1  0.89138870  0.68393362  0.48971610  1
