# generated using pymatgen
data_Li8Co(O2F)2
_symmetry_space_group_name_H-M   'P 1'
_cell_length_a   5.42755042
_cell_length_b   6.12497156
_cell_length_c   5.48041754
_cell_angle_alpha   115.16664347
_cell_angle_beta   62.75972244
_cell_angle_gamma   118.24918203
_symmetry_Int_Tables_number   1
_chemical_formula_structural   Li8Co(O2F)2
_chemical_formula_sum   'Li8 Co1 O4 F2'
_cell_volume   137.53583872
_cell_formula_units_Z   1
loop_
 _symmetry_equiv_pos_site_id
 _symmetry_equiv_pos_as_xyz
  1  'x, y, z'
loop_
 _atom_site_type_symbol
 _atom_site_label
 _atom_site_symmetry_multiplicity
 _atom_site_fract_x
 _atom_site_fract_y
 _atom_site_fract_z
 _atom_site_occupancy
  Li  Li0  1  0.11468740  0.34234758  0.46255324  1
  Li  Li1  1  0.54601710  0.64148586  0.21002109  1
  Li  Li2  1  0.22502972  0.64181930  0.89946910  1
  Li  Li3  1  0.30311845  0.01490944  0.31052486  1
  Li  Li4  1  0.69688155  0.98509056  0.68947514  1
  Li  Li5  1  0.77497028  0.35818070  0.10053090  1
  Li  Li6  1  0.45398290  0.35851414  0.78997891  1
  Li  Li7  1  0.88531260  0.65765242  0.53744676  1
  Co  Co8  1  0.00000000  0.00000000  0.00000000  1
  O  O9  1  0.38416803  0.24206261  0.09368274  1
  O  O10  1  0.07136073  0.23981908  0.76523435  1
  O  O11  1  0.92863927  0.76018092  0.23476565  1
  O  O12  1  0.61583197  0.75793739  0.90631726  1
  F  F13  1  0.25755301  0.72312046  0.56991496  1
  F  F14  1  0.74244699  0.27687954  0.43008504  1
