# generated using pymatgen
data_Co2OF3
_symmetry_space_group_name_H-M   'P 1'
_cell_length_a   5.61390053
_cell_length_b   9.82105056
_cell_length_c   5.61525733
_cell_angle_alpha   76.97167066
_cell_angle_beta   67.69861033
_cell_angle_gamma   97.40257155
_symmetry_Int_Tables_number   1
_chemical_formula_structural   Co2OF3
_chemical_formula_sum   'Co8 O4 F12'
_cell_volume   271.05512156
_cell_formula_units_Z   4
loop_
 _symmetry_equiv_pos_site_id
 _symmetry_equiv_pos_as_xyz
  1  'x, y, z'
loop_
 _atom_site_type_symbol
 _atom_site_label
 _atom_site_symmetry_multiplicity
 _atom_site_fract_x
 _atom_site_fract_y
 _atom_site_fract_z
 _atom_site_occupancy
  Co  Co0  1  0.63212099  0.25359853  0.86271325  1
  Co  Co1  1  0.86686743  0.74632264  0.63502548  1
  Co  Co2  1  0.48802057  0.01822225  0.47199178  1
  Co  Co3  1  0.75005766  0.49999945  0.24853778  1
  Co  Co4  1  0.25024956  0.49968804  0.74815257  1
  Co  Co5  1  0.11692696  0.25399734  0.37673143  1
  Co  Co6  1  0.38188788  0.74594550  0.12048303  1
  Co  Co7  1  0.00801143  0.98189149  0.02785132  1
  O  O8  1  0.82280795  0.35157407  0.47101525  1
  O  O9  1  0.67717467  0.64849813  0.02704291  1
  O  O10  1  0.41843725  0.15527239  0.26248448  1
  O  O11  1  0.07963020  0.84437347  0.23423272  1
  F  F12  1  0.85165337  0.40029228  0.95234081  1
  F  F13  1  0.93052350  0.14173242  0.78780371  1
  F  F14  1  0.32465393  0.34767660  0.97428326  1
  F  F15  1  0.56887268  0.85837748  0.71051513  1
  F  F16  1  0.89107541  0.09684826  0.30059977  1
  F  F17  1  0.64944369  0.59805293  0.54687430  1
  F  F18  1  0.39669151  0.09618033  0.79618055  1
  F  F19  1  0.10080028  0.90370575  0.70242988  1
  F  F20  1  0.35416892  0.40169752  0.44663647  1
  F  F21  1  0.60500782  0.90297084  0.20025568  1
  F  F22  1  0.17520455  0.65205179  0.52261690  1
  F  F23  1  0.14650777  0.59773851  0.04960755  1
