# generated using pymatgen
data_LiMn7O7F
_symmetry_space_group_name_H-M   'P 1'
_cell_length_a   3.48221579
_cell_length_b   3.48203720
_cell_length_c   21.50007363
_cell_angle_alpha   89.99999923
_cell_angle_beta   89.99505419
_cell_angle_gamma   119.99829638
_symmetry_Int_Tables_number   1
_chemical_formula_structural   LiMn7O7F
_chemical_formula_sum   'Li1 Mn7 O7 F1'
_cell_volume   225.77046080
_cell_formula_units_Z   1
loop_
 _symmetry_equiv_pos_site_id
 _symmetry_equiv_pos_as_xyz
  1  'x, y, z'
loop_
 _atom_site_type_symbol
 _atom_site_label
 _atom_site_symmetry_multiplicity
 _atom_site_fract_x
 _atom_site_fract_y
 _atom_site_fract_z
 _atom_site_occupancy
  Li  Li0  1  0.66668782  0.33339391  0.96423410  1
  Mn  Mn1  1  0.33334485  0.66672293  0.34707942  1
  Mn  Mn2  1  0.33333682  0.66671841  0.09661104  1
  Mn  Mn3  1  0.33332400  0.66671200  0.59775637  1
  Mn  Mn4  1  0.33339133  0.66674567  0.84993307  1
  Mn  Mn5  1  0.66669219  0.33339610  0.22178779  1
  Mn  Mn6  1  0.66659170  0.33334535  0.72398540  1
  Mn  Mn7  1  0.66668831  0.33339365  0.47229754  1
  O  O8  1  0.33331678  0.66670839  0.24732556  1
  O  O9  1  0.33318375  0.66664188  0.75020200  1
  O  O10  1  0.33330971  0.66670535  0.49830713  1
  O  O11  1  0.66668939  0.33339470  0.37287206  1
  O  O12  1  0.66668180  0.33339090  0.12130924  1
  O  O13  1  0.66675795  0.33342898  0.87569502  1
  O  O14  1  0.66665695  0.33337898  0.62419782  1
  F  F15  1  0.33334565  0.66672282  0.99726545  1
