# generated using pymatgen
data_LiCoOF
_symmetry_space_group_name_H-M   'P 1'
_cell_length_a   3.02560295
_cell_length_b   3.02560295
_cell_length_c   16.52685665
_cell_angle_alpha   90.00000000
_cell_angle_beta   90.00000000
_cell_angle_gamma   90.09087165
_symmetry_Int_Tables_number   1
_chemical_formula_structural   LiCoOF
_chemical_formula_sum   'Li4 Co4 O4 F4'
_cell_volume   151.29117125
_cell_formula_units_Z   4
loop_
 _symmetry_equiv_pos_site_id
 _symmetry_equiv_pos_as_xyz
  1  'x, y, z'
loop_
 _atom_site_type_symbol
 _atom_site_label
 _atom_site_symmetry_multiplicity
 _atom_site_fract_x
 _atom_site_fract_y
 _atom_site_fract_z
 _atom_site_occupancy
  Li  Li0  1  0.50000000  0.50000000  0.50549680  1
  Li  Li1  1  0.00000000  0.00000000  0.62809868  1
  Li  Li2  1  0.50000000  0.50000000  0.74690132  1
  Li  Li3  1  0.00000000  0.00000000  0.86950320  1
  Co  Co4  1  0.50000000  0.50000000  0.99919597  1
  Co  Co5  1  0.00000000  0.00000000  0.12103805  1
  Co  Co6  1  0.50000000  0.50000000  0.25396195  1
  Co  Co7  1  0.00000000  0.00000000  0.37580403  1
  O  O8  1  0.00000000  0.00000000  0.99379254  1
  O  O9  1  0.50000000  0.50000000  0.12474406  1
  O  O10  1  0.00000000  0.00000000  0.25025594  1
  O  O11  1  0.50000000  0.50000000  0.38120746  1
  F  F12  1  0.00000000  0.00000000  0.50815896  1
  F  F13  1  0.50000000  0.50000000  0.62725475  1
  F  F14  1  0.00000000  0.00000000  0.74774525  1
  F  F15  1  0.50000000  0.50000000  0.86684104  1
