# generated using pymatgen
data_Li2VO3F
_symmetry_space_group_name_H-M   'P 1'
_cell_length_a   7.74323744
_cell_length_b   7.72886124
_cell_length_c   5.15012269
_cell_angle_alpha   76.62131078
_cell_angle_beta   102.65171613
_cell_angle_gamma   81.59160342
_symmetry_Int_Tables_number   1
_chemical_formula_structural   Li2VO3F
_chemical_formula_sum   'Li8 V4 O12 F4'
_cell_volume   286.20753196
_cell_formula_units_Z   4
loop_
 _symmetry_equiv_pos_site_id
 _symmetry_equiv_pos_as_xyz
  1  'x, y, z'
loop_
 _atom_site_type_symbol
 _atom_site_label
 _atom_site_symmetry_multiplicity
 _atom_site_fract_x
 _atom_site_fract_y
 _atom_site_fract_z
 _atom_site_occupancy
  Li  Li0  1  0.11835490  0.62887095  0.51372138  1
  Li  Li1  1  0.25916184  0.26832519  0.49413857  1
  Li  Li2  1  0.38379797  0.87832405  0.54259684  1
  Li  Li3  1  0.49700118  0.49642786  0.50200324  1
  Li  Li4  1  0.61467462  0.62740110  0.00447435  1
  Li  Li5  1  0.60732406  0.12688032  0.45266963  1
  Li  Li6  1  0.74977339  0.73586990  0.51028789  1
  Li  Li7  1  0.88185247  0.36908554  0.49631376  1
  V  V8  1  0.16528008  0.10495160  0.02631172  1
  V  V9  1  0.23035015  0.71780906  0.00094771  1
  V  V10  1  0.76027695  0.27845263  0.00099475  1
  V  V11  1  0.84284852  0.90405512  0.96491220  1
  O  O12  1  0.00526276  0.74867520  0.80109984  1
  O  O13  1  0.12009223  0.88463727  0.20799043  1
  O  O14  1  0.25007233  0.99882047  0.80276370  1
  O  O15  1  0.25144530  0.52710433  0.26441555  1
  O  O16  1  0.35194077  0.65222586  0.78093367  1
  O  O17  1  0.34853522  0.11974806  0.26135849  1
  O  O18  1  0.65478105  0.86677032  0.75162796  1
  O  O19  1  0.65628340  0.35763497  0.22653487  1
  O  O20  1  0.73971981  0.47854107  0.74832760  1
  O  O21  1  0.75329280  0.00468020  0.19277652  1
  O  O22  1  0.87287909  0.11423200  0.76857735  1
  O  O23  1  0.99141521  0.24301665  0.18339338  1
  F  F24  1  0.11862237  0.34188829  0.73156393  1
  F  F25  1  0.52460064  0.25290763  0.72332092  1
  F  F26  1  0.49215729  0.73419785  0.26683025  1
  F  F27  1  0.87133560  0.65184252  0.26305650  1
