# generated using pymatgen
data_VFe2Ni3(PO4)6
_symmetry_space_group_name_H-M   'P 1'
_cell_length_a   8.38459138
_cell_length_b   8.64627875
_cell_length_c   8.64627902
_cell_angle_alpha   59.99999860
_cell_angle_beta   58.96207947
_cell_angle_gamma   58.96207832
_symmetry_Int_Tables_number   1
_chemical_formula_structural   VFe2Ni3(PO4)6
_chemical_formula_sum   'V1 Fe2 Ni3 P6 O24'
_cell_volume   436.14498473
_cell_formula_units_Z   1
loop_
 _symmetry_equiv_pos_site_id
 _symmetry_equiv_pos_as_xyz
  1  'x, y, z'
loop_
 _atom_site_type_symbol
 _atom_site_label
 _atom_site_symmetry_multiplicity
 _atom_site_fract_x
 _atom_site_fract_y
 _atom_site_fract_z
 _atom_site_occupancy
  V  V0  1  0.56367707  0.14544098  0.14544098  1
  Fe  Fe1  1  0.01258472  0.99580476  0.99580476  1
  Fe  Fe2  1  0.50644834  0.49785055  0.49785055  1
  Ni  Ni3  1  0.07206776  0.64264375  0.64264375  1
  Ni  Ni4  1  0.43481546  0.85506151  0.85506151  1
  Ni  Ni5  1  0.92584547  0.35805184  0.35805184  1
  P  P6  1  0.24474105  0.25400915  0.54747739  1
  P  P7  1  0.24474105  0.95377341  0.25400915  1
  P  P8  1  0.24474105  0.54747739  0.95377341  1
  P  P9  1  0.74931726  0.45305288  0.04661479  1
  P  P10  1  0.74931726  0.04661479  0.75101507  1
  P  P11  1  0.74931726  0.75101507  0.45305288  1
  O  O12  1  0.06276421  0.10510745  0.32926144  1
  O  O13  1  0.06276421  0.50286690  0.10510745  1
  O  O14  1  0.06276421  0.32926144  0.50286690  1
  O  O15  1  0.21773112  0.09675004  0.74578466  1
  O  O16  1  0.43070123  0.17385933  0.37947431  1
  O  O17  1  0.29929548  0.39971412  0.54737639  1
  O  O18  1  0.21773112  0.93973518  0.09675004  1
  O  O19  1  0.29929548  0.75361400  0.39971412  1
  O  O20  1  0.56143366  0.60246362  0.00820228  1
  O  O21  1  0.29929548  0.54737639  0.75361400  1
  O  O22  1  0.77430271  0.24510371  0.06807250  1
  O  O23  1  0.56143366  0.00820228  0.82789943  1
  O  O24  1  0.43070123  0.01596413  0.17385933  1
  O  O25  1  0.21773112  0.74578466  0.93973518  1
  O  O26  1  0.71480704  0.43383391  0.25067802  1
  O  O27  1  0.43070123  0.37947431  0.01596413  1
  O  O28  1  0.71480704  0.25067802  0.60068102  1
  O  O29  1  0.77430271  0.06807250  0.91252208  1
  O  O30  1  0.71480704  0.60068102  0.43383391  1
  O  O31  1  0.56143366  0.82789943  0.60246362  1
  O  O32  1  0.77430271  0.91252208  0.24510371  1
  O  O33  1  0.93976164  0.68680241  0.48106534  1
  O  O34  1  0.93976164  0.48106534  0.89237161  1
  O  O35  1  0.93976164  0.89237161  0.68680241  1
