# generated using pymatgen
data_Li7Ni(O2F)2
_symmetry_space_group_name_H-M   'P 1'
_cell_length_a   6.13508520
_cell_length_b   6.18546665
_cell_length_c   5.45772269
_cell_angle_alpha   122.36561761
_cell_angle_beta   124.68112955
_cell_angle_gamma   53.28160052
_symmetry_Int_Tables_number   1
_chemical_formula_structural   Li7Ni(O2F)2
_chemical_formula_sum   'Li7 Ni1 O4 F2'
_cell_volume   130.40308453
_cell_formula_units_Z   1
loop_
 _symmetry_equiv_pos_site_id
 _symmetry_equiv_pos_as_xyz
  1  'x, y, z'
loop_
 _atom_site_type_symbol
 _atom_site_label
 _atom_site_symmetry_multiplicity
 _atom_site_fract_x
 _atom_site_fract_y
 _atom_site_fract_z
 _atom_site_occupancy
  Li  Li0  1  0.27224598  0.32274942  0.46901957  1
  Li  Li1  1  0.05014225  0.70606291  0.23648118  1
  Li  Li2  1  0.47954535  0.64263379  0.92081183  1
  Li  Li3  1  0.33439851  0.98863284  0.65834756  1
  Li  Li4  1  0.54007070  0.35779259  0.13565233  1
  Li  Li5  1  0.87492302  0.28238675  0.70584980  1
  Li  Li6  1  0.77717922  0.68161708  0.52445923  1
  Ni  Ni7  1  0.01077831  0.00343044  0.01476812  1
  O  O8  1  0.09219217  0.76866590  0.63956369  1
  O  O9  1  0.64642748  0.22081740  0.79364062  1
  O  O10  1  0.35336050  0.76751941  0.23962440  1
  O  O11  1  0.95302649  0.25206457  0.39407464  1
  F  F12  1  0.25155802  0.28903829  0.07636848  1
  F  F13  1  0.70675200  0.70856461  0.86493954  1
