# generated using pymatgen
data_LiSb(PO3)4
_symmetry_space_group_name_H-M   'P 1'
_cell_length_a   7.50908641
_cell_length_b   7.50908641
_cell_length_c   17.88539909
_cell_angle_alpha   90.00000000
_cell_angle_beta   90.00000000
_cell_angle_gamma   95.82404091
_symmetry_Int_Tables_number   1
_chemical_formula_structural   LiSb(PO3)4
_chemical_formula_sum   'Li4 Sb4 P16 O48'
_cell_volume   1003.28726745
_cell_formula_units_Z   4
loop_
 _symmetry_equiv_pos_site_id
 _symmetry_equiv_pos_as_xyz
  1  'x, y, z'
loop_
 _atom_site_type_symbol
 _atom_site_label
 _atom_site_symmetry_multiplicity
 _atom_site_fract_x
 _atom_site_fract_y
 _atom_site_fract_z
 _atom_site_occupancy
  Li  Li0  1  0.50902676  0.97225959  0.61441854  1
  Li  Li1  1  0.02774041  0.49097324  0.38558146  1
  Li  Li2  1  0.49097324  0.02774041  0.11441854  1
  Li  Li3  1  0.97225959  0.50902676  0.88558146  1
  Sb  Sb4  1  0.23123721  0.05360915  0.38883631  1
  Sb  Sb5  1  0.94639085  0.76876279  0.61116369  1
  Sb  Sb6  1  0.76876279  0.94639085  0.88883631  1
  Sb  Sb7  1  0.05360915  0.23123721  0.11116369  1
  P  P8  1  0.03549005  0.76853262  0.10075657  1
  P  P9  1  0.23146738  0.96450995  0.89924343  1
  P  P10  1  0.28307086  0.79563629  0.74699133  1
  P  P11  1  0.20436371  0.71692914  0.25300867  1
  P  P12  1  0.34539798  0.65460202  0.50000000  1
  P  P13  1  0.65694188  0.71908587  0.05933312  1
  P  P14  1  0.28091413  0.34305812  0.94066688  1
  P  P15  1  0.35962293  0.35962293  0.25000000  1
  P  P16  1  0.64037707  0.64037707  0.75000000  1
  P  P17  1  0.34305812  0.28091413  0.55933312  1
  P  P18  1  0.71908587  0.65694188  0.44066688  1
  P  P19  1  0.65460202  0.34539798  0.00000000  1
  P  P20  1  0.79563629  0.28307086  0.75300867  1
  P  P21  1  0.71692914  0.20436371  0.24699133  1
  P  P22  1  0.76853262  0.03549005  0.39924343  1
  P  P23  1  0.96450995  0.23146738  0.60075657  1
  O  O24  1  0.10878998  0.97079559  0.10836447  1
  O  O25  1  0.02920441  0.89121002  0.89163553  1
  O  O26  1  0.07083531  0.66445257  0.03430493  1
  O  O27  1  0.33554743  0.92916469  0.96569507  1
  O  O28  1  0.10016591  0.69564965  0.74421643  1
  O  O29  1  0.30435035  0.89983409  0.25578357  1
  O  O30  1  0.10439189  0.67344209  0.17379733  1
  O  O31  1  0.32655791  0.89560811  0.82620267  1
  O  O32  1  0.07687471  0.66441877  0.31372650  1
  O  O33  1  0.33558123  0.92312529  0.68627350  1
  O  O34  1  0.37937124  0.82721898  0.54078974  1
  O  O35  1  0.17278102  0.62062876  0.45921026  1
  O  O36  1  0.49834160  0.78532300  0.09380283  1
  O  O37  1  0.21467700  0.50165840  0.90619717  1
  O  O38  1  0.35201536  0.56696151  0.24715130  1
  O  O39  1  0.43303849  0.64798464  0.75284870  1
  O  O40  1  0.76807720  0.82324158  0.38393684  1
  O  O41  1  0.17675842  0.23192280  0.61606316  1
  O  O42  1  0.50494123  0.63066323  0.44027769  1
  O  O43  1  0.36933677  0.49505877  0.55972231  1
  O  O44  1  0.26934876  0.28240908  0.32205702  1
  O  O45  1  0.71759092  0.73065124  0.67794298  1
  O  O46  1  0.22117499  0.28069817  0.02017989  1
  O  O47  1  0.71930183  0.77882501  0.97982011  1
  O  O48  1  0.28069817  0.22117499  0.47982011  1
  O  O49  1  0.77882501  0.71930183  0.52017989  1
  O  O50  1  0.28240908  0.26934876  0.17794298  1
  O  O51  1  0.73065124  0.71759092  0.82205702  1
  O  O52  1  0.63066323  0.50494123  0.05972231  1
  O  O53  1  0.49505877  0.36933677  0.94027769  1
  O  O54  1  0.23192280  0.17675842  0.88393684  1
  O  O55  1  0.82324158  0.76807720  0.11606316  1
  O  O56  1  0.64798464  0.43303849  0.74715130  1
  O  O57  1  0.56696151  0.35201536  0.25284870  1
  O  O58  1  0.50165840  0.21467700  0.59380283  1
  O  O59  1  0.78532300  0.49834160  0.40619717  1
  O  O60  1  0.82721898  0.37937124  0.95921026  1
  O  O61  1  0.62062876  0.17278102  0.04078974  1
  O  O62  1  0.66441877  0.07687471  0.18627350  1
  O  O63  1  0.92312529  0.33558123  0.81372650  1
  O  O64  1  0.67344209  0.10439189  0.32620267  1
  O  O65  1  0.89560811  0.32655791  0.67379733  1
  O  O66  1  0.89983409  0.30435035  0.24421643  1
  O  O67  1  0.69564965  0.10016591  0.75578357  1
  O  O68  1  0.66445257  0.07083531  0.46569507  1
  O  O69  1  0.92916469  0.33554743  0.53430493  1
  O  O70  1  0.97079559  0.10878998  0.39163553  1
  O  O71  1  0.89121002  0.02920441  0.60836447  1
