# generated using pymatgen
data_FeOF
_symmetry_space_group_name_H-M   'P 1'
_cell_length_a   14.33449097
_cell_length_b   9.64299660
_cell_length_c   3.12805095
_cell_angle_alpha   90.00000000
_cell_angle_beta   90.00000000
_cell_angle_gamma   89.56607314
_symmetry_Int_Tables_number   1
_chemical_formula_structural   FeOF
_chemical_formula_sum   'Fe12 O12 F12'
_cell_volume   432.37009916
_cell_formula_units_Z   12
loop_
 _symmetry_equiv_pos_site_id
 _symmetry_equiv_pos_as_xyz
  1  'x, y, z'
loop_
 _atom_site_type_symbol
 _atom_site_label
 _atom_site_symmetry_multiplicity
 _atom_site_fract_x
 _atom_site_fract_y
 _atom_site_fract_z
 _atom_site_occupancy
  Fe  Fe0  1  0.00503926  0.00561559  0.00000000  1
  Fe  Fe1  1  0.00974108  0.49241120  0.00000000  1
  Fe  Fe2  1  0.15447598  0.24407313  0.50000000  1
  Fe  Fe3  1  0.18746134  0.75848859  0.50000000  1
  Fe  Fe4  1  0.34141422  0.99221189  0.00000000  1
  Fe  Fe5  1  0.33295973  0.51667440  0.00000000  1
  Fe  Fe6  1  0.48649535  0.74747691  0.50000000  1
  Fe  Fe7  1  0.49849131  0.22276274  0.50000000  1
  Fe  Fe8  1  0.66961144  0.00616089  0.00000000  1
  Fe  Fe9  1  0.67762580  0.49805693  0.00000000  1
  Fe  Fe10  1  0.81561186  0.24495994  0.50000000  1
  Fe  Fe11  1  0.81523401  0.75380395  0.50000000  1
  O  O12  1  0.06611433  0.40895413  0.50000000  1
  O  O13  1  0.10265953  0.15336261  0.00000000  1
  O  O14  1  0.23435597  0.85512557  0.00000000  1
  O  O15  1  0.26763401  0.59180729  0.50000000  1
  O  O16  1  0.39955637  0.90375358  0.50000000  1
  O  O17  1  0.43630224  0.14922247  0.00000000  1
  O  O18  1  0.43695839  0.65030505  0.00000000  1
  O  O19  1  0.60347736  0.09312148  0.50000000  1
  O  O20  1  0.72974282  0.40580470  0.50000000  1
  O  O21  1  0.72886642  0.90707965  0.50000000  1
  O  O22  1  0.76912013  0.15281895  0.00000000  1
  O  O23  1  0.76708646  0.65716499  0.00000000  1
  F  F24  1  0.06536947  0.89179302  0.50000000  1
  F  F25  1  0.10035665  0.65986476  0.00000000  1
  F  F26  1  0.23496116  0.34250186  0.00000000  1
  F  F27  1  0.26911596  0.10400363  0.50000000  1
  F  F28  1  0.39928951  0.39831720  0.50000000  1
  F  F29  1  0.56314536  0.34865801  0.00000000  1
  F  F30  1  0.56499595  0.84290121  0.00000000  1
  F  F31  1  0.60155745  0.59851685  0.50000000  1
  F  F32  1  0.89900722  0.34988199  0.00000000  1
  F  F33  1  0.89886455  0.85021322  0.00000000  1
  F  F34  1  0.93071319  0.10197185  0.50000000  1
  F  F35  1  0.93658811  0.60015779  0.50000000  1
