# generated using pymatgen
data_Li2V2OF6
_symmetry_space_group_name_H-M   'P 1'
_cell_length_a   8.76471066
_cell_length_b   6.60969934
_cell_length_c   5.47911483
_cell_angle_alpha   94.20089568
_cell_angle_beta   75.46960916
_cell_angle_gamma   107.99687089
_symmetry_Int_Tables_number   1
_chemical_formula_structural   Li2V2OF6
_chemical_formula_sum   'Li4 V4 O2 F12'
_cell_volume   292.22745573
_cell_formula_units_Z   2
loop_
 _symmetry_equiv_pos_site_id
 _symmetry_equiv_pos_as_xyz
  1  'x, y, z'
loop_
 _atom_site_type_symbol
 _atom_site_label
 _atom_site_symmetry_multiplicity
 _atom_site_fract_x
 _atom_site_fract_y
 _atom_site_fract_z
 _atom_site_occupancy
  Li  Li0  1  0.26340786  0.57544981  0.11430469  1
  Li  Li1  1  0.37205154  0.76562091  0.55615559  1
  Li  Li2  1  0.62794846  0.23437909  0.44384441  1
  Li  Li3  1  0.73659214  0.42455019  0.88569531  1
  V  V4  1  0.18395440  0.99865316  0.32534370  1
  V  V5  1  0.30370848  0.21428982  0.77404914  1
  V  V6  1  0.69629152  0.78571018  0.22595086  1
  V  V7  1  0.81604560  0.00134684  0.67465630  1
  O  O8  1  0.37517234  0.10893859  0.44938931  1
  O  O9  1  0.62482766  0.89106141  0.55061069  1
  F  F10  1  0.15383853  0.70945506  0.40335727  1
  F  F11  1  0.26855418  0.93572138  0.94949965  1
  F  F12  1  0.06884192  0.08131402  0.68957620  1
  F  F13  1  0.19982053  0.26575985  0.15658786  1
  F  F14  1  0.29478719  0.50321064  0.75331417  1
  F  F15  1  0.46281409  0.68328725  0.20514175  1
  F  F16  1  0.53718591  0.31671275  0.79485825  1
  F  F17  1  0.70521281  0.49678936  0.24668583  1
  F  F18  1  0.80017947  0.73424015  0.84341214  1
  F  F19  1  0.93115808  0.91868598  0.31042380  1
  F  F20  1  0.73144582  0.06427862  0.05050035  1
  F  F21  1  0.84616147  0.29054494  0.59664273  1
