# generated using pymatgen
data_Li10Mn2Fe3Ni3O16
_symmetry_space_group_name_H-M   'P 1'
_cell_length_a   5.98396610
_cell_length_b   5.96793515
_cell_length_c   9.78657649
_cell_angle_alpha   89.09141217
_cell_angle_beta   90.37294163
_cell_angle_gamma   120.43950013
_symmetry_Int_Tables_number   1
_chemical_formula_structural   Li10Mn2Fe3Ni3O16
_chemical_formula_sum   'Li10 Mn2 Fe3 Ni3 O16'
_cell_volume   301.28597430
_cell_formula_units_Z   1
loop_
 _symmetry_equiv_pos_site_id
 _symmetry_equiv_pos_as_xyz
  1  'x, y, z'
loop_
 _atom_site_type_symbol
 _atom_site_label
 _atom_site_symmetry_multiplicity
 _atom_site_fract_x
 _atom_site_fract_y
 _atom_site_fract_z
 _atom_site_occupancy
  Li  Li0  1  0.19934061  0.80729052  0.05122994  1
  Li  Li1  1  0.60847340  0.80965941  0.05247081  1
  Li  Li2  1  0.32645450  0.65527501  0.26693761  1
  Li  Li3  1  0.19469624  0.39227910  0.04829416  1
  Li  Li4  1  0.99741847  0.99156997  0.98057246  1
  Li  Li5  1  0.99447714  0.99107295  0.47608796  1
  Li  Li6  1  0.80310214  0.60274355  0.54500886  1
  Li  Li7  1  0.38892872  0.19324927  0.53940016  1
  Li  Li8  1  0.66062327  0.31469628  0.76775480  1
  Li  Li9  1  0.80443450  0.19524422  0.53818574  1
  Mn  Mn10  1  0.32664961  0.65326765  0.52151700  1
  Mn  Mn11  1  0.65998948  0.32162041  0.02393741  1
  Fe  Fe12  1  0.16484310  0.81760786  0.77837074  1
  Fe  Fe13  1  0.65758778  0.81906551  0.77837256  1
  Fe  Fe14  1  0.81884279  0.64497749  0.27608560  1
  Ni  Ni15  1  0.16295805  0.32157095  0.77834226  1
  Ni  Ni16  1  0.33486610  0.16328419  0.27942628  1
  Ni  Ni17  1  0.82535541  0.16287817  0.28004469  1
  O  O18  1  0.16238176  0.81367453  0.40766918  1
  O  O19  1  0.48302773  0.96350576  0.64844838  1
  O  O20  1  0.99062662  0.98578710  0.17287335  1
  O  O21  1  0.02403556  0.50690722  0.64907214  1
  O  O22  1  0.64976287  0.81521883  0.40788973  1
  O  O23  1  0.33188407  0.66139557  0.89629539  1
  O  O24  1  0.99076707  0.97403968  0.66748116  1
  O  O25  1  0.48519030  0.50789771  0.64862426  1
  O  O26  1  0.16605386  0.33607190  0.41416976  1
  O  O27  1  0.50335392  0.49751258  0.15759736  1
  O  O28  1  0.82494908  0.64519560  0.89882034  1
  O  O29  1  0.97969115  0.49211950  0.15286748  1
  O  O30  1  0.66524212  0.33242422  0.39836093  1
  O  O31  1  0.32752155  0.14263590  0.89845707  1
  O  O32  1  0.51076000  0.02527132  0.14791042  1
  O  O33  1  0.82321901  0.13855711  0.89490200  1
