# generated using pymatgen
data_LaHfMg30O32
_symmetry_space_group_name_H-M   'P 1'
_cell_length_a   8.68294410
_cell_length_b   8.72655226
_cell_length_c   8.72655226
_cell_angle_alpha   90.00000000
_cell_angle_beta   90.00000000
_cell_angle_gamma   90.00000000
_symmetry_Int_Tables_number   1
_chemical_formula_structural   LaHfMg30O32
_chemical_formula_sum   'La1 Hf1 Mg30 O32'
_cell_volume   661.22976173
_cell_formula_units_Z   1
loop_
 _symmetry_equiv_pos_site_id
 _symmetry_equiv_pos_as_xyz
  1  'x, y, z'
loop_
 _atom_site_type_symbol
 _atom_site_label
 _atom_site_symmetry_multiplicity
 _atom_site_fract_x
 _atom_site_fract_y
 _atom_site_fract_z
 _atom_site_occupancy
  La  La0  1  0.00000000  0.00000000  0.00000000  1
  Hf  Hf1  1  0.00000000  0.50000000  0.50000000  1
  Mg  Mg2  1  0.00000000  0.00000000  0.50000000  1
  Mg  Mg3  1  0.00000000  0.50000000  0.00000000  1
  Mg  Mg4  1  0.50000000  0.00000000  0.00000000  1
  Mg  Mg5  1  0.50000000  0.00000000  0.50000000  1
  Mg  Mg6  1  0.50000000  0.50000000  0.00000000  1
  Mg  Mg7  1  0.50000000  0.50000000  0.50000000  1
  Mg  Mg8  1  0.00000000  0.25595382  0.25595382  1
  Mg  Mg9  1  0.00000000  0.25595382  0.74404618  1
  Mg  Mg10  1  0.00000000  0.74404618  0.25595382  1
  Mg  Mg11  1  0.00000000  0.74404618  0.74404618  1
  Mg  Mg12  1  0.50000000  0.25040068  0.25040068  1
  Mg  Mg13  1  0.50000000  0.25040068  0.74959932  1
  Mg  Mg14  1  0.50000000  0.74959932  0.25040068  1
  Mg  Mg15  1  0.50000000  0.74959932  0.74959932  1
  Mg  Mg16  1  0.25879309  0.00000000  0.25780256  1
  Mg  Mg17  1  0.25879309  0.00000000  0.74219744  1
  Mg  Mg18  1  0.25485458  0.50000000  0.24530472  1
  Mg  Mg19  1  0.25485458  0.50000000  0.75469528  1
  Mg  Mg20  1  0.74120691  0.00000000  0.25780256  1
  Mg  Mg21  1  0.74120691  0.00000000  0.74219744  1
  Mg  Mg22  1  0.74514542  0.50000000  0.24530472  1
  Mg  Mg23  1  0.74514542  0.50000000  0.75469528  1
  Mg  Mg24  1  0.25879309  0.25780256  0.00000000  1
  Mg  Mg25  1  0.25485458  0.24530472  0.50000000  1
  Mg  Mg26  1  0.25879309  0.74219744  0.00000000  1
  Mg  Mg27  1  0.25485458  0.75469528  0.50000000  1
  Mg  Mg28  1  0.74120691  0.25780256  0.00000000  1
  Mg  Mg29  1  0.74514542  0.24530472  0.50000000  1
  Mg  Mg30  1  0.74120691  0.74219744  0.00000000  1
  Mg  Mg31  1  0.74514542  0.75469528  0.50000000  1
  O  O32  1  0.26785976  0.00000000  0.00000000  1
  O  O33  1  0.25443573  0.00000000  0.50000000  1
  O  O34  1  0.25443573  0.50000000  0.00000000  1
  O  O35  1  0.24819946  0.50000000  0.50000000  1
  O  O36  1  0.73214024  0.00000000  0.00000000  1
  O  O37  1  0.74556427  0.00000000  0.50000000  1
  O  O38  1  0.74556427  0.50000000  0.00000000  1
  O  O39  1  0.75180054  0.50000000  0.50000000  1
  O  O40  1  0.24986260  0.24947079  0.24947079  1
  O  O41  1  0.24986260  0.24947079  0.75052921  1
  O  O42  1  0.24986260  0.75052921  0.24947079  1
  O  O43  1  0.24986260  0.75052921  0.75052921  1
  O  O44  1  0.75013740  0.24947079  0.24947079  1
  O  O45  1  0.75013740  0.24947079  0.75052921  1
  O  O46  1  0.75013740  0.75052921  0.24947079  1
  O  O47  1  0.75013740  0.75052921  0.75052921  1
  O  O48  1  0.00000000  0.00000000  0.26705129  1
  O  O49  1  0.00000000  0.00000000  0.73294871  1
  O  O50  1  0.00000000  0.50000000  0.24350212  1
  O  O51  1  0.00000000  0.50000000  0.75649788  1
  O  O52  1  0.50000000  0.00000000  0.25338992  1
  O  O53  1  0.50000000  0.00000000  0.74661008  1
  O  O54  1  0.50000000  0.50000000  0.25160177  1
  O  O55  1  0.50000000  0.50000000  0.74839823  1
  O  O56  1  0.00000000  0.26705129  0.00000000  1
  O  O57  1  0.00000000  0.24350212  0.50000000  1
  O  O58  1  0.00000000  0.73294871  0.00000000  1
  O  O59  1  0.00000000  0.75649788  0.50000000  1
  O  O60  1  0.50000000  0.25338992  0.00000000  1
  O  O61  1  0.50000000  0.25160177  0.50000000  1
  O  O62  1  0.50000000  0.74661008  0.00000000  1
  O  O63  1  0.50000000  0.74839823  0.50000000  1
