# generated using pymatgen
data_Li2CoSi3O8
_symmetry_space_group_name_H-M   'P 1'
_cell_length_a   6.58009122
_cell_length_b   6.28488931
_cell_length_c   8.54915513
_cell_angle_alpha   90.00000000
_cell_angle_beta   90.00000000
_cell_angle_gamma   104.90156628
_symmetry_Int_Tables_number   1
_chemical_formula_structural   Li2CoSi3O8
_chemical_formula_sum   'Li4 Co2 Si6 O16'
_cell_volume   341.66127521
_cell_formula_units_Z   2
loop_
 _symmetry_equiv_pos_site_id
 _symmetry_equiv_pos_as_xyz
  1  'x, y, z'
loop_
 _atom_site_type_symbol
 _atom_site_label
 _atom_site_symmetry_multiplicity
 _atom_site_fract_x
 _atom_site_fract_y
 _atom_site_fract_z
 _atom_site_occupancy
  Li  Li0  1  0.23676596  0.84839815  0.32455686  1
  Li  Li1  1  0.49211456  0.58880143  0.83840601  1
  Li  Li2  1  0.50788544  0.41119857  0.33840601  1
  Li  Li3  1  0.76323404  0.15160185  0.82455686  1
  Co  Co4  1  0.40160387  0.04287016  0.99900224  1
  Co  Co5  1  0.59839613  0.95712984  0.49900224  1
  Si  Si6  1  0.01066285  0.41769345  0.50484640  1
  Si  Si7  1  0.10827659  0.24563107  0.19004814  1
  Si  Si8  1  0.27001296  0.15918460  0.66742843  1
  Si  Si9  1  0.72998704  0.84081540  0.16742843  1
  Si  Si10  1  0.89172341  0.75436893  0.69004814  1
  Si  Si11  1  0.98933715  0.58230655  0.00484640  1
  O  O12  1  0.04981172  0.99132173  0.74078629  1
  O  O13  1  0.01117639  0.32872675  0.03031774  1
  O  O14  1  0.11378624  0.43225392  0.32738984  1
  O  O15  1  0.21265606  0.75231202  0.02334332  1
  O  O16  1  0.19674463  0.38778699  0.62650827  1
  O  O17  1  0.34686512  0.22596251  0.17193942  1
  O  O18  1  0.33924389  0.06244771  0.50583197  1
  O  O19  1  0.44759819  0.22294013  0.80474706  1
  O  O20  1  0.55240181  0.77705987  0.30474706  1
  O  O21  1  0.66075611  0.93755229  0.00583197  1
  O  O22  1  0.65313488  0.77403749  0.67193942  1
  O  O23  1  0.80325537  0.61221301  0.12650827  1
  O  O24  1  0.78734394  0.24768798  0.52334332  1
  O  O25  1  0.88621376  0.56774608  0.82738984  1
  O  O26  1  0.98882361  0.67127325  0.53031774  1
  O  O27  1  0.95018828  0.00867827  0.24078629  1
