# generated using pymatgen
data_LiCo(CO3)2
_symmetry_space_group_name_H-M   'P 1'
_cell_length_a   9.12443898
_cell_length_b   6.33630428
_cell_length_c   5.69186514
_cell_angle_alpha   63.30249946
_cell_angle_beta   58.94243956
_cell_angle_gamma   76.59659087
_symmetry_Int_Tables_number   1
_chemical_formula_structural   LiCo(CO3)2
_chemical_formula_sum   'Li2 Co2 C4 O12'
_cell_volume   251.84973907
_cell_formula_units_Z   2
loop_
 _symmetry_equiv_pos_site_id
 _symmetry_equiv_pos_as_xyz
  1  'x, y, z'
loop_
 _atom_site_type_symbol
 _atom_site_label
 _atom_site_symmetry_multiplicity
 _atom_site_fract_x
 _atom_site_fract_y
 _atom_site_fract_z
 _atom_site_occupancy
  Li  Li0  1  0.33698105  0.10712273  0.10259641  1
  Li  Li1  1  0.83697461  0.39290613  0.45935909  1
  Co  Co2  1  0.00558926  0.96452400  0.97898280  1
  Co  Co3  1  0.50557474  0.53551883  0.19337624  1
  C  C4  1  0.21666507  0.57237609  0.13000138  1
  C  C5  1  0.29578701  0.10990405  0.61360456  1
  C  C6  1  0.71666519  0.92756807  0.95243612  1
  C  C7  1  0.79573512  0.39014077  0.97319213  1
  O  O8  1  0.05737059  0.64964878  0.17466547  1
  O  O9  1  0.20063576  0.03877838  0.55232599  1
  O  O10  1  0.27277075  0.61993688  0.27061255  1
  O  O11  1  0.23364104  0.07561019  0.88864678  1
  O  O12  1  0.29958836  0.46148780  0.96603704  1
  O  O13  1  0.44298495  0.20473914  0.40894017  1
  O  O14  1  0.55736693  0.85030069  0.07444098  1
  O  O15  1  0.73363820  0.42451325  0.21390377  1
  O  O16  1  0.77282125  0.87995157  0.14058813  1
  O  O17  1  0.70055988  0.46120214  0.84085619  1
  O  O18  1  0.79949362  0.03852782  0.67758247  1
  O  O19  1  0.94291961  0.29524471  0.86351373  1
