# generated using pymatgen
data_Li2V(OF)2
_symmetry_space_group_name_H-M   'P 1'
_cell_length_a   3.86173147
_cell_length_b   6.58174464
_cell_length_c   6.38649982
_cell_angle_alpha   66.34093862
_cell_angle_beta   90.00010190
_cell_angle_gamma   89.99870542
_symmetry_Int_Tables_number   1
_chemical_formula_structural   Li2V(OF)2
_chemical_formula_sum   'Li4 V2 O4 F4'
_cell_volume   148.68171443
_cell_formula_units_Z   2
loop_
 _symmetry_equiv_pos_site_id
 _symmetry_equiv_pos_as_xyz
  1  'x, y, z'
loop_
 _atom_site_type_symbol
 _atom_site_label
 _atom_site_symmetry_multiplicity
 _atom_site_fract_x
 _atom_site_fract_y
 _atom_site_fract_z
 _atom_site_occupancy
  Li  Li0  1  0.24209209  0.75899766  0.79211937  1
  Li  Li1  1  0.74197480  0.61280348  0.58826948  1
  Li  Li2  1  0.24195838  0.38720810  0.41175628  1
  Li  Li3  1  0.74205922  0.24100721  0.20790376  1
  V  V4  1  0.24158014  0.88042937  0.20484357  1
  V  V5  1  0.74159082  0.11963423  0.79505822  1
  O  O6  1  0.74178020  0.93995733  0.14214639  1
  O  O7  1  0.24205065  0.69078989  0.49014762  1
  O  O8  1  0.74204254  0.30918736  0.50990987  1
  O  O9  1  0.24177658  0.06002516  0.85782929  1
  F  F10  1  0.74193756  0.84647038  0.72832317  1
  F  F11  1  0.74074073  0.37940660  0.88306481  1
  F  F12  1  0.24079151  0.62056975  0.11694132  1
  F  F13  1  0.24192178  0.15351348  0.27167884  1
