# generated using pymatgen
data_LiV6F13
_symmetry_space_group_name_H-M   'P 1'
_cell_length_a   8.06771011
_cell_length_b   10.23420166
_cell_length_c   8.11694101
_cell_angle_alpha   104.11466468
_cell_angle_beta   117.56402718
_cell_angle_gamma   75.53344783
_symmetry_Int_Tables_number   1
_chemical_formula_structural   LiV6F13
_chemical_formula_sum   'Li2 V12 F26'
_cell_volume   568.82191306
_cell_formula_units_Z   2
loop_
 _symmetry_equiv_pos_site_id
 _symmetry_equiv_pos_as_xyz
  1  'x, y, z'
loop_
 _atom_site_type_symbol
 _atom_site_label
 _atom_site_symmetry_multiplicity
 _atom_site_fract_x
 _atom_site_fract_y
 _atom_site_fract_z
 _atom_site_occupancy
  Li  Li0  1  0.21922738  0.05549772  0.34052760  1
  Li  Li1  1  0.78077262  0.94450228  0.65947240  1
  V  V2  1  0.06186028  0.23954318  0.94268137  1
  V  V3  1  0.27923496  0.50227183  0.86813784  1
  V  V4  1  0.42183741  0.02152745  0.78484081  1
  V  V5  1  0.15378691  0.50201816  0.41735443  1
  V  V6  1  0.50798640  0.72659025  0.75879611  1
  V  V7  1  0.61252156  0.25481557  0.66748735  1
  V  V8  1  0.38747844  0.74518443  0.33251265  1
  V  V9  1  0.49201360  0.27340975  0.24120389  1
  V  V10  1  0.84621309  0.49798184  0.58264557  1
  V  V11  1  0.57816259  0.97847255  0.21515919  1
  V  V12  1  0.72076504  0.49772817  0.13186216  1
  V  V13  1  0.93813972  0.76045682  0.05731863  1
  F  F14  1  0.01131604  0.62183665  0.83863881  1
  F  F15  1  0.15666037  0.11980064  0.75050963  1
  F  F16  1  0.11846165  0.39936932  0.60012188  1
  F  F17  1  0.29354712  0.61518400  0.68698705  1
  F  F18  1  0.40945813  0.12679192  0.58586549  1
  F  F19  1  0.16231526  0.63653361  0.25835495  1
  F  F20  1  0.54437324  0.38473954  0.88356310  1
  F  F21  1  0.29774348  0.13195492  0.17566543  1
  F  F22  1  0.42782423  0.87858040  0.94549513  1
  F  F23  1  0.41740144  0.38045686  0.45943654  1
  F  F24  1  0.32345805  0.86088926  0.55835250  1
  F  F25  1  0.15950160  0.88431790  0.17198605  1
  F  F26  1  0.26623314  0.37059600  0.02504360  1
  F  F27  1  0.73376686  0.62940400  0.97495640  1
  F  F28  1  0.84049840  0.11568210  0.82801395  1
  F  F29  1  0.67654195  0.13911074  0.44164750  1
  F  F30  1  0.58259856  0.61954314  0.54056346  1
  F  F31  1  0.57217577  0.12141960  0.05450487  1
  F  F32  1  0.70225652  0.86804508  0.82433457  1
  F  F33  1  0.45562676  0.61526046  0.11643690  1
  F  F34  1  0.83768474  0.36346639  0.74164505  1
  F  F35  1  0.59054187  0.87320808  0.41413451  1
  F  F36  1  0.70645288  0.38481600  0.31301295  1
  F  F37  1  0.88153835  0.60063068  0.39987812  1
  F  F38  1  0.84333963  0.88019936  0.24949037  1
  F  F39  1  0.98868396  0.37816335  0.16136119  1
