# generated using pymatgen
data_Li3V2(OF)3
_symmetry_space_group_name_H-M   'P 1'
_cell_length_a   3.28322550
_cell_length_b   13.59394817
_cell_length_c   3.25133571
_cell_angle_alpha   97.30088281
_cell_angle_beta   58.48197830
_cell_angle_gamma   97.20809309
_symmetry_Int_Tables_number   1
_chemical_formula_structural   Li3V2(OF)3
_chemical_formula_sum   'Li3 V2 O3 F3'
_cell_volume   122.40341448
_cell_formula_units_Z   1
loop_
 _symmetry_equiv_pos_site_id
 _symmetry_equiv_pos_as_xyz
  1  'x, y, z'
loop_
 _atom_site_type_symbol
 _atom_site_label
 _atom_site_symmetry_multiplicity
 _atom_site_fract_x
 _atom_site_fract_y
 _atom_site_fract_z
 _atom_site_occupancy
  Li  Li0  1  0.14077414  0.42465461  0.13590007  1
  Li  Li1  1  0.26420573  0.78344407  0.26068902  1
  Li  Li2  1  0.86912381  0.60377267  0.86473465  1
  V  V3  1  -0.00119637  0.99500426  0.00066438  1
  V  V4  1  0.73874316  0.22134097  0.74921125  1
  O  O5  1  0.08264897  0.25016701  0.07247836  1
  O  O6  1  0.31262766  0.93327872  0.32158249  1
  O  O7  1  0.69357559  0.07883069  0.68878827  1
  F  F8  1  0.18845800  0.56667142  0.18037133  1
  F  F9  1  0.79745388  0.39046462  0.79761094  1
  F  F10  1  0.91936943  0.74522296  0.91827622  1
