# generated using pymatgen
data_LiSn10(PO4)7
_symmetry_space_group_name_H-M   'P 1'
_cell_length_a   10.87070041
_cell_length_b   15.26107156
_cell_length_c   10.87070040
_cell_angle_alpha   110.86442208
_cell_angle_beta   59.99999999
_cell_angle_gamma   110.86442208
_symmetry_Int_Tables_number   1
_chemical_formula_structural   LiSn10(PO4)7
_chemical_formula_sum   'Li2 Sn20 P14 O56'
_cell_volume   1423.62936738
_cell_formula_units_Z   2
loop_
 _symmetry_equiv_pos_site_id
 _symmetry_equiv_pos_as_xyz
  1  'x, y, z'
loop_
 _atom_site_type_symbol
 _atom_site_label
 _atom_site_symmetry_multiplicity
 _atom_site_fract_x
 _atom_site_fract_y
 _atom_site_fract_z
 _atom_site_occupancy
  Li  Li0  1  0.17133147  0.51399440  0.17133147  1
  Li  Li1  1  0.67133147  0.01399440  0.67133147  1
  Sn  Sn2  1  0.07656702  0.79325658  0.06757248  1
  Sn  Sn3  1  0.06667698  0.99982821  0.49838821  1
  Sn  Sn4  1  0.43476303  0.99982821  0.06667698  1
  Sn  Sn5  1  0.00125905  0.00377715  0.00125905  1
  Sn  Sn6  1  0.06757248  0.79325658  0.64911608  1
  Sn  Sn7  1  0.49838821  0.99982821  0.43476303  1
  Sn  Sn8  1  0.41964986  0.71977898  0.44950331  1
  Sn  Sn9  1  0.64911608  0.79325658  0.07656702  1
  Sn  Sn10  1  0.14911608  0.29325658  0.56757248  1
  Sn  Sn11  1  0.57656702  0.29325658  0.14911608  1
  Sn  Sn12  1  0.50125905  0.50377715  0.50125905  1
  Sn  Sn13  1  0.44950331  0.71977898  0.85062580  1
  Sn  Sn14  1  0.85062580  0.71977898  0.41964986  1
  Sn  Sn15  1  0.56757248  0.29325658  0.57656702  1
  Sn  Sn16  1  0.35062580  0.21977898  0.94950331  1
  Sn  Sn17  1  0.56667698  0.49982821  0.93476303  1
  Sn  Sn18  1  0.91964986  0.21977898  0.35062580  1
  Sn  Sn19  1  0.99838821  0.49982821  0.56667698  1
  Sn  Sn20  1  0.93476303  0.49982821  0.99838821  1
  Sn  Sn21  1  0.94950331  0.21977898  0.91964986  1
  P  P22  1  0.26976066  0.80928297  0.26976066  1
  P  P23  1  0.25568126  0.39956173  0.29842404  1
  P  P24  1  0.19393290  0.11020094  0.22869812  1
  P  P25  1  0.18756892  0.61020094  0.72869812  1
  P  P26  1  0.34545543  0.89956173  0.79842404  1
  P  P27  1  0.69393290  0.61020094  0.18756892  1
  P  P28  1  0.75568126  0.89956173  0.34545543  1
  P  P29  1  0.29842404  0.39956173  0.84545543  1
  P  P30  1  0.22869812  0.11020094  0.68756892  1
  P  P31  1  0.68756892  0.11020094  0.19393290  1
  P  P32  1  0.79842404  0.89956173  0.75568126  1
  P  P33  1  0.84545543  0.39956173  0.25568126  1
  P  P34  1  0.72869812  0.61020094  0.69393290  1
  P  P35  1  0.76976066  0.30928297  0.76976066  1
  O  O36  1  0.18314352  0.00002230  0.18724973  1
  O  O37  1  0.13730791  0.76982714  0.22819453  1
  O  O38  1  0.30685604  0.92056913  0.30685604  1
  O  O39  1  0.18724973  0.00002230  0.62962905  1
  O  O40  1  0.40432469  0.76982714  0.13730791  1
  O  O41  1  0.22819453  0.76982714  0.40432469  1
  O  O42  1  0.10653353  0.33736102  0.39846278  1
  O  O43  1  0.12910061  0.13990498  0.15269262  1
  O  O44  1  0.12214091  0.65410735  0.66991731  1
  O  O45  1  0.18789976  0.91106284  0.85857438  1
  O  O46  1  0.22135205  0.49527889  0.31790771  1
  O  O47  1  0.62962905  0.00002230  0.18314352  1
  O  O48  1  0.11125362  0.14496953  0.39655574  1
  O  O49  1  0.30979454  0.34615030  0.13652301  1
  O  O50  1  0.12962905  0.50002230  0.68724973  1
  O  O51  1  0.39983376  0.84615030  0.63652301  1
  O  O52  1  0.13716018  0.64496953  0.89655574  1
  O  O53  1  0.61125362  0.64496953  0.13716018  1
  O  O54  1  0.60653353  0.83736102  0.33236471  1
  O  O55  1  0.36458870  0.41106284  0.35857438  1
  O  O56  1  0.36205013  0.15410735  0.16991731  1
  O  O57  1  0.35811176  0.63990498  0.65269262  1
  O  O58  1  0.33236471  0.83736102  0.89846278  1
  O  O59  1  0.13652301  0.34615030  0.89983376  1
  O  O60  1  0.16991731  0.15410735  0.62214091  1
  O  O61  1  0.68314352  0.50002230  0.12962905  1
  O  O62  1  0.62910061  0.63990498  0.35811176  1
  O  O63  1  0.86458870  0.91106284  0.18789976  1
  O  O64  1  0.35857438  0.41106284  0.68789976  1
  O  O65  1  0.15269262  0.13990498  0.85811176  1
  O  O66  1  0.31790771  0.49527889  0.95601912  1
  O  O67  1  0.86205013  0.65410735  0.12214091  1
  O  O68  1  0.80979454  0.84615030  0.39983376  1
  O  O69  1  0.63716018  0.14496953  0.11125362  1
  O  O70  1  0.63652301  0.84615030  0.80979454  1
  O  O71  1  0.65269262  0.63990498  0.62910061  1
  O  O72  1  0.68789976  0.41106284  0.36458870  1
  O  O73  1  0.39846278  0.33736102  0.83236471  1
  O  O74  1  0.39655574  0.14496953  0.63716018  1
  O  O75  1  0.83236471  0.33736102  0.10653353  1
  O  O76  1  0.62214091  0.15410735  0.36205013  1
  O  O77  1  0.95601912  0.49527889  0.22135205  1
  O  O78  1  0.66991731  0.65410735  0.86205013  1
  O  O79  1  0.89846278  0.83736102  0.60653353  1
  O  O80  1  0.68724973  0.50002230  0.68314352  1
  O  O81  1  0.45601912  0.99527889  0.81790771  1
  O  O82  1  0.85857438  0.91106284  0.86458870  1
  O  O83  1  0.85811176  0.13990498  0.12910061  1
  O  O84  1  0.89983376  0.34615030  0.30979454  1
  O  O85  1  0.89655574  0.64496953  0.61125362  1
  O  O86  1  0.63730791  0.26982714  0.90432469  1
  O  O87  1  0.72819453  0.26982714  0.63730791  1
  O  O88  1  0.72135205  0.99527889  0.45601912  1
  O  O89  1  0.80685604  0.42056913  0.80685604  1
  O  O90  1  0.90432469  0.26982714  0.72819453  1
  O  O91  1  0.81790771  0.99527889  0.72135205  1
