# generated using pymatgen
data_Li5NiO3F
_symmetry_space_group_name_H-M   'P 1'
_cell_length_a   6.54526684
_cell_length_b   6.54526684
_cell_length_c   4.72820324
_cell_angle_alpha   80.19204772
_cell_angle_beta   80.19204772
_cell_angle_gamma   89.28217586
_symmetry_Int_Tables_number   1
_chemical_formula_structural   Li5NiO3F
_chemical_formula_sum   'Li10 Ni2 O6 F2'
_cell_volume   196.65249487
_cell_formula_units_Z   2
loop_
 _symmetry_equiv_pos_site_id
 _symmetry_equiv_pos_as_xyz
  1  'x, y, z'
loop_
 _atom_site_type_symbol
 _atom_site_label
 _atom_site_symmetry_multiplicity
 _atom_site_fract_x
 _atom_site_fract_y
 _atom_site_fract_z
 _atom_site_occupancy
  Li  Li0  1  0.96570067  0.54103982  0.24068779  1
  Li  Li1  1  0.70896018  0.28429933  0.00931221  1
  Li  Li2  1  0.54103982  0.96570067  0.24068779  1
  Li  Li3  1  0.28429933  0.70896018  0.00931221  1
  Li  Li4  1  0.79544681  0.19456931  0.49780913  1
  Li  Li5  1  0.48569212  0.48569212  0.50474284  1
  Li  Li6  1  0.76430788  0.76430788  0.74525716  1
  Li  Li7  1  0.19456931  0.79544681  0.49780913  1
  Li  Li8  1  0.45455319  0.05543069  0.75219087  1
  Li  Li9  1  0.05543069  0.45455319  0.75219087  1
  Ni  Ni10  1  0.99773274  0.99773274  0.99919948  1
  Ni  Ni11  1  0.25226726  0.25226726  0.25080052  1
  O  O12  1  0.98512312  0.26487688  0.12500000  1
  O  O13  1  0.26487688  0.98512312  0.12500000  1
  O  O14  1  0.22573504  0.51712748  0.37230131  1
  O  O15  1  0.51712748  0.22573504  0.37230131  1
  O  O16  1  0.73287252  0.02426496  0.87769869  1
  O  O17  1  0.02426496  0.73287252  0.87769869  1
  F  F18  1  0.77155905  0.47844095  0.62500000  1
  F  F19  1  0.47844095  0.77155905  0.62500000  1
