# generated using pymatgen
data_Cr3NiTe2(PO4)6
_symmetry_space_group_name_H-M   'P 1'
_cell_length_a   8.82402916
_cell_length_b   8.82402941
_cell_length_c   8.82402952
_cell_angle_alpha   58.53971372
_cell_angle_beta   58.53971517
_cell_angle_gamma   58.53971669
_symmetry_Int_Tables_number   1
_chemical_formula_structural   Cr3NiTe2(PO4)6
_chemical_formula_sum   'Cr3 Ni1 Te2 P6 O24'
_cell_volume   469.60597025
_cell_formula_units_Z   1
loop_
 _symmetry_equiv_pos_site_id
 _symmetry_equiv_pos_as_xyz
  1  'x, y, z'
loop_
 _atom_site_type_symbol
 _atom_site_label
 _atom_site_symmetry_multiplicity
 _atom_site_fract_x
 _atom_site_fract_y
 _atom_site_fract_z
 _atom_site_occupancy
  Cr  Cr0  1  0.14373275  0.14373275  0.14373275  1
  Cr  Cr1  1  0.35369229  0.35369229  0.35369229  1
  Cr  Cr2  1  0.64726718  0.64726718  0.64726718  1
  Ni  Ni3  1  0.84685727  0.84685727  0.84685727  1
  Te  Te4  1  0.98747150  0.98747150  0.98747150  1
  Te  Te5  1  0.49593146  0.49593146  0.49593146  1
  P  P6  1  0.04091235  0.75151164  0.45852128  1
  P  P7  1  0.45852128  0.04091235  0.75151164  1
  P  P8  1  0.75151164  0.45852128  0.04091235  1
  P  P9  1  0.25435036  0.53732572  0.96370020  1
  P  P10  1  0.53732572  0.96370020  0.25435036  1
  P  P11  1  0.96370020  0.25435036  0.53732572  1
  O  O12  1  0.12082150  0.29866529  0.51180696  1
  O  O13  1  0.29866529  0.51180696  0.12082150  1
  O  O14  1  0.06586300  0.91422817  0.26033868  1
  O  O15  1  0.51180696  0.12082150  0.29866529  1
  O  O16  1  0.23652666  0.57927549  0.43202798  1
  O  O17  1  0.02236630  0.79789479  0.61019034  1
  O  O18  1  0.26033868  0.06586300  0.91422817  1
  O  O19  1  0.43202798  0.23652666  0.57927549  1
  O  O20  1  0.57927549  0.43202798  0.23652666  1
  O  O21  1  0.19363136  0.38925349  0.99375033  1
  O  O22  1  0.08426703  0.74132915  0.93918670  1
  O  O23  1  0.38925349  0.99375033  0.19363136  1
  O  O24  1  0.61019034  0.02236630  0.79789479  1
  O  O25  1  0.91422817  0.26033868  0.06586300  1
  O  O26  1  0.79789479  0.61019034  0.02236630  1
  O  O27  1  0.41826275  0.56531704  0.76970295  1
  O  O28  1  0.56531704  0.76970295  0.41826275  1
  O  O29  1  0.74132915  0.93918670  0.08426703  1
  O  O30  1  0.99375033  0.19363136  0.38925349  1
  O  O31  1  0.76970295  0.41826275  0.56531704  1
  O  O32  1  0.48934496  0.88438475  0.70028834  1
  O  O33  1  0.93918670  0.08426703  0.74132915  1
  O  O34  1  0.70028834  0.48934496  0.88438475  1
  O  O35  1  0.88438475  0.70028834  0.48934496  1
