# generated using pymatgen
data_Li3V4O5F7
_symmetry_space_group_name_H-M   'P 1'
_cell_length_a   5.86359601
_cell_length_b   6.17363143
_cell_length_c   5.77351849
_cell_angle_alpha   98.18051060
_cell_angle_beta   98.08076008
_cell_angle_gamma   100.26414812
_symmetry_Int_Tables_number   1
_chemical_formula_structural   Li3V4O5F7
_chemical_formula_sum   'Li3 V4 O5 F7'
_cell_volume   200.58671856
_cell_formula_units_Z   1
loop_
 _symmetry_equiv_pos_site_id
 _symmetry_equiv_pos_as_xyz
  1  'x, y, z'
loop_
 _atom_site_type_symbol
 _atom_site_label
 _atom_site_symmetry_multiplicity
 _atom_site_fract_x
 _atom_site_fract_y
 _atom_site_fract_z
 _atom_site_occupancy
  Li  Li0  1  0.32495370  0.14114761  0.59263904  1
  Li  Li1  1  0.58976834  0.32095912  0.13376466  1
  Li  Li2  1  0.85152604  0.37664272  0.66390321  1
  V  V3  1  0.14540106  0.62714302  0.29944257  1
  V  V4  1  0.39474904  0.66263495  0.84908726  1
  V  V5  1  0.69163583  0.85902585  0.38125856  1
  V  V6  1  0.99325228  0.98611475  0.02183597  1
  O  O7  1  0.05773576  0.93621154  0.33499260  1
  O  O8  1  0.10117221  0.71077384  0.95037339  1
  O  O9  1  0.42414961  0.79795197  0.59118925  1
  O  O10  1  0.68340476  0.89092590  0.02749923  1
  O  O11  1  0.43631649  0.59914538  0.17517396  1
  F  F12  1  0.17965838  0.41960159  0.58889925  1
  F  F13  1  0.59767857  0.44292479  0.80962234  1
  F  F14  1  0.83068085  0.58627899  0.43633584  1
  F  F15  1  0.28676645  0.12850471  0.94404318  1
  F  F16  1  0.57935733  0.15436440  0.39151736  1
  F  F17  1  0.96021829  0.31472591  0.11409444  1
  F  F18  1  0.87157703  0.04492196  0.69432790  1
