# generated using pymatgen
data_LiNiPO4
_symmetry_space_group_name_H-M   'P 1'
_cell_length_a   4.73069562
_cell_length_b   5.43573134
_cell_length_c   6.49072597
_cell_angle_alpha   78.92764701
_cell_angle_beta   89.99999998
_cell_angle_gamma   64.20528008
_symmetry_Int_Tables_number   1
_chemical_formula_structural   LiNiPO4
_chemical_formula_sum   'Li2 Ni2 P2 O8'
_cell_volume   146.81836525
_cell_formula_units_Z   2
loop_
 _symmetry_equiv_pos_site_id
 _symmetry_equiv_pos_as_xyz
  1  'x, y, z'
loop_
 _atom_site_type_symbol
 _atom_site_label
 _atom_site_symmetry_multiplicity
 _atom_site_fract_x
 _atom_site_fract_y
 _atom_site_fract_z
 _atom_site_occupancy
  Li  Li0  1  0.97660605  1.00000000  0.50000000  1
  Li  Li1  1  0.96630242  1.00000000  0.00000000  1
  Ni  Ni2  1  0.66180729  0.73682558  0.70862542  1
  Ni  Ni3  1  0.39863287  0.26317442  0.29137458  1
  P  P4  1  0.68399431  0.63803603  0.22531238  1
  P  P5  1  0.32203034  0.36196397  0.77468762  1
  O  O6  1  0.26617824  0.67198448  0.69096499  1
  O  O7  1  0.69795022  0.82985264  0.37730192  1
  O  O8  1  0.75956144  0.74051906  0.00555911  1
  O  O9  1  0.34615225  0.66041323  0.22741461  1
  O  O10  1  0.00656548  0.33958677  0.77258539  1
  O  O11  1  0.50008050  0.25948094  0.99444089  1
  O  O12  1  0.52780386  0.17014736  0.62269808  1
  O  O13  1  0.93816272  0.32801552  0.30903501  1
