# generated using pymatgen
data_CrOF4
_symmetry_space_group_name_H-M   'P 1'
_cell_length_a   5.76482245
_cell_length_b   9.98284416
_cell_length_c   14.58682883
_cell_angle_alpha   106.74332645
_cell_angle_beta   101.39686428
_cell_angle_gamma   73.21767434
_symmetry_Int_Tables_number   1
_chemical_formula_structural   CrOF4
_chemical_formula_sum   'Cr8 O8 F32'
_cell_volume   763.61750667
_cell_formula_units_Z   8
loop_
 _symmetry_equiv_pos_site_id
 _symmetry_equiv_pos_as_xyz
  1  'x, y, z'
loop_
 _atom_site_type_symbol
 _atom_site_label
 _atom_site_symmetry_multiplicity
 _atom_site_fract_x
 _atom_site_fract_y
 _atom_site_fract_z
 _atom_site_occupancy
  Cr  Cr0  1  0.53220461  0.95662901  0.17738137  1
  Cr  Cr1  1  0.94682568  0.87856917  0.60744471  1
  Cr  Cr2  1  0.31145226  0.54337099  0.32261863  1
  Cr  Cr3  1  0.78205085  0.37856917  0.10744471  1
  Cr  Cr4  1  0.21794915  0.62143083  0.89255529  1
  Cr  Cr5  1  0.68854774  0.45662901  0.67738137  1
  Cr  Cr6  1  0.05317432  0.12143083  0.39255529  1
  Cr  Cr7  1  0.46779539  0.04337099  0.82261863  1
  O  O8  1  0.74408641  0.85841254  0.11765315  1
  O  O9  1  0.72469123  0.87017694  0.52668496  1
  O  O10  1  0.48484479  0.64158746  0.38234685  1
  O  O11  1  0.93181779  0.37017694  0.02668496  1
  O  O12  1  0.06818221  0.62982306  0.97331504  1
  O  O13  1  0.51515521  0.35841254  0.61765315  1
  O  O14  1  0.27530877  0.12982306  0.47331504  1
  O  O15  1  0.25591359  0.14158746  0.88234685  1
  F  F16  1  0.29149937  0.87172347  0.13048473  1
  F  F17  1  0.08606036  0.93462694  0.34554911  1
  F  F18  1  0.57792970  0.88279949  0.27718460  1
  F  F19  1  0.18140472  0.87899001  0.54664779  1
  F  F20  1  0.33759102  0.90447389  0.74271869  1
  F  F21  1  0.83133242  0.88175773  0.71260453  1
  F  F22  1  0.62088041  0.91500023  0.88904773  1
  F  F23  1  0.18354459  0.61720051  0.22281540  1
  F  F24  1  0.67513819  0.56537306  0.15445089  1
  F  F25  1  0.03273811  0.62827653  0.36951527  1
  F  F26  1  0.18504572  0.80260280  0.89536930  1
  F  F27  1  0.09228022  0.69739720  0.60463070  1
  F  F28  1  0.64683290  0.58499977  0.61095227  1
  F  F29  1  0.48625305  0.37899001  0.04664779  1
  F  F30  1  0.00048462  0.61824227  0.78739547  1
  F  F31  1  0.49934622  0.59552611  0.75728131  1
  F  F32  1  0.50065378  0.40447389  0.24271869  1
  F  F33  1  0.99951538  0.38175773  0.21260453  1
  F  F34  1  0.51374695  0.62100999  0.95335221  1
  F  F35  1  0.35316710  0.41500023  0.38904773  1
  F  F36  1  0.90771978  0.30260280  0.39536930  1
  F  F37  1  0.81495428  0.19739720  0.10463070  1
  F  F38  1  0.96726189  0.37172347  0.63048473  1
  F  F39  1  0.32486181  0.43462694  0.84554911  1
  F  F40  1  0.81645541  0.38279949  0.77718460  1
  F  F41  1  0.37911959  0.08499977  0.11095227  1
  F  F42  1  0.16866758  0.11824227  0.28739547  1
  F  F43  1  0.66240898  0.09552611  0.25728131  1
  F  F44  1  0.81859528  0.12100999  0.45335221  1
  F  F45  1  0.42207030  0.11720051  0.72281540  1
  F  F46  1  0.91393964  0.06537306  0.65445089  1
  F  F47  1  0.70850063  0.12827653  0.86951527  1
