# generated using pymatgen
data_Li3VF6
_symmetry_space_group_name_H-M   'P 1'
_cell_length_a   4.98649830
_cell_length_b   4.98649830
_cell_length_c   4.96191066
_cell_angle_alpha   90.02183469
_cell_angle_beta   89.97816531
_cell_angle_gamma   60.03209050
_symmetry_Int_Tables_number   1
_chemical_formula_structural   Li3VF6
_chemical_formula_sum   'Li3 V1 F6'
_cell_volume   106.88361699
_cell_formula_units_Z   1
loop_
 _symmetry_equiv_pos_site_id
 _symmetry_equiv_pos_as_xyz
  1  'x, y, z'
loop_
 _atom_site_type_symbol
 _atom_site_label
 _atom_site_symmetry_multiplicity
 _atom_site_fract_x
 _atom_site_fract_y
 _atom_site_fract_z
 _atom_site_occupancy
  Li  Li0  1  0.66816039  0.66831932  0.50021249  1
  Li  Li1  1  0.33168068  0.33183961  0.50021249  1
  Li  Li2  1  0.99977721  0.00022279  0.50005299  1
  V  V3  1  0.00010423  0.99989577  -0.00028990  1
  F  F4  1  0.30928985  0.99870310  0.26159545  1
  F  F5  1  0.00129690  0.69071015  0.26159545  1
  F  F6  1  0.30607768  0.69392232  0.74507020  1
  F  F7  1  0.69390392  0.30609608  0.25471009  1
  F  F8  1  0.99878103  0.30917088  0.73842037  1
  F  F9  1  0.69082912  0.00121897  0.73842037  1
