# generated using pymatgen
data_ZnPH5C2N4O3
_symmetry_space_group_name_H-M   'P 1'
_cell_length_a   9.89012364
_cell_length_b   8.40185928
_cell_length_c   9.39193565
_cell_angle_alpha   90.00000000
_cell_angle_beta   104.43144522
_cell_angle_gamma   90.00000000
_symmetry_Int_Tables_number   1
_chemical_formula_structural   ZnPH5C2N4O3
_chemical_formula_sum   'Zn4 P4 H20 C8 N16 O12'
_cell_volume   755.80172567
_cell_formula_units_Z   4
loop_
 _symmetry_equiv_pos_site_id
 _symmetry_equiv_pos_as_xyz
  1  'x, y, z'
loop_
 _atom_site_type_symbol
 _atom_site_label
 _atom_site_symmetry_multiplicity
 _atom_site_fract_x
 _atom_site_fract_y
 _atom_site_fract_z
 _atom_site_occupancy
  Zn  Zn0  1  0.32316969  0.39437989  0.54037911  1
  Zn  Zn1  1  0.32316969  0.10562011  0.04037911  1
  Zn  Zn2  1  0.67683031  0.89437989  0.95962089  1
  Zn  Zn3  1  0.67683031  0.60562011  0.45962089  1
  P  P4  1  0.47977586  0.16372774  0.79006289  1
  P  P5  1  0.52022414  0.66372774  0.70993711  1
  P  P6  1  0.47977586  0.33627226  0.29006289  1
  P  P7  1  0.52022414  0.83627226  0.20993711  1
  H  H8  1  0.09485243  0.83498148  0.67656834  1
  H  H9  1  0.22181036  0.97851964  0.69129294  1
  H  H10  1  0.09485243  0.66501852  0.17656834  1
  H  H11  1  0.27455287  0.58401100  0.83644574  1
  H  H12  1  0.32606927  0.47731854  0.00183085  1
  H  H13  1  0.22181036  0.52148036  0.19129294  1
  H  H14  1  0.27455287  0.91598900  0.33644574  1
  H  H15  1  0.32606927  0.02268146  0.50183085  1
  H  H16  1  0.50354930  0.31163065  0.86163122  1
  H  H17  1  0.49645070  0.81163065  0.63836878  1
  H  H18  1  0.50354930  0.18836935  0.36163122  1
  H  H19  1  0.49645070  0.68836935  0.13836878  1
  H  H20  1  0.67393073  0.97731854  0.49816915  1
  H  H21  1  0.72544713  0.08401100  0.66355426  1
  H  H22  1  0.77818964  0.47851964  0.80870706  1
  H  H23  1  0.67393073  0.52268146  0.99816915  1
  H  H24  1  0.72544713  0.41598900  0.16355426  1
  H  H25  1  0.90514757  0.33498148  0.82343166  1
  H  H26  1  0.77818964  0.02148036  0.30870706  1
  H  H27  1  0.90514757  0.16501852  0.32343166  1
  C  C28  1  0.02736991  0.29580500  0.56095606  1
  C  C29  1  0.16178314  0.62966207  0.98875120  1
  C  C30  1  0.02736991  0.20419500  0.06095606  1
  C  C31  1  0.16178314  0.87033793  0.48875120  1
  C  C32  1  0.83821686  0.12966207  0.51124880  1
  C  C33  1  0.97263009  0.79580500  0.93904394  1
  C  C34  1  0.83821686  0.37033793  0.01124880  1
  C  C35  1  0.97263009  0.70419500  0.43904394  1
  N  N36  1  0.07918346  0.73889684  0.90160807  1
  N  N37  1  0.07918346  0.76110316  0.40160807  1
  N  N38  1  0.12709869  0.35312583  0.53320041  1
  N  N39  1  0.14855109  0.90786737  0.62355488  1
  N  N40  1  0.25755093  0.55434502  0.93595848  1
  N  N41  1  0.12709869  0.14687417  0.03320041  1
  N  N42  1  0.14855109  0.59213263  0.12355488  1
  N  N43  1  0.25755093  0.94565498  0.43595848  1
  N  N44  1  0.74244907  0.05434502  0.56404152  1
  N  N45  1  0.85144891  0.40786737  0.87644512  1
  N  N46  1  0.87290131  0.85312583  0.96679959  1
  N  N47  1  0.74244907  0.44565498  0.06404152  1
  N  N48  1  0.85144891  0.09213263  0.37644512  1
  N  N49  1  0.87290131  0.64687417  0.46679959  1
  N  N50  1  0.92081654  0.23889684  0.59839193  1
  N  N51  1  0.92081654  0.26110316  0.09839193  1
  O  O52  1  0.36676353  0.07622742  0.84842959  1
  O  O53  1  0.37905518  0.57559771  0.67499372  1
  O  O54  1  0.42839896  0.19645321  0.62380618  1
  O  O55  1  0.36676353  0.42377258  0.34842959  1
  O  O56  1  0.37905518  0.92440229  0.17499372  1
  O  O57  1  0.57160104  0.69645321  0.87619382  1
  O  O58  1  0.42839896  0.30354679  0.12380618  1
  O  O59  1  0.62094482  0.07559771  0.82500628  1
  O  O60  1  0.63323647  0.57622742  0.65157041  1
  O  O61  1  0.57160104  0.80354679  0.37619382  1
  O  O62  1  0.62094482  0.42440229  0.32500628  1
  O  O63  1  0.63323647  0.92377258  0.15157041  1
