# generated using pymatgen
data_LiMnPO4
_symmetry_space_group_name_H-M   'P 1'
_cell_length_a   5.12571415
_cell_length_b   5.22496001
_cell_length_c   8.16300656
_cell_angle_alpha   87.23858682
_cell_angle_beta   95.63667022
_cell_angle_gamma   119.37362265
_symmetry_Int_Tables_number   1
_chemical_formula_structural   LiMnPO4
_chemical_formula_sum   'Li2 Mn2 P2 O8'
_cell_volume   189.59192195
_cell_formula_units_Z   2
loop_
 _symmetry_equiv_pos_site_id
 _symmetry_equiv_pos_as_xyz
  1  'x, y, z'
loop_
 _atom_site_type_symbol
 _atom_site_label
 _atom_site_symmetry_multiplicity
 _atom_site_fract_x
 _atom_site_fract_y
 _atom_site_fract_z
 _atom_site_occupancy
  Li  Li0  1  0.99502530  0.17124204  0.98375350  1
  Li  Li1  1  0.82378327  0.82875796  0.48375450  1
  Mn  Mn2  1  0.25796562  0.61156120  0.28926836  1
  Mn  Mn3  1  0.64640442  0.38843880  0.78926836  1
  P  P4  1  0.31593587  0.68619250  0.70342214  1
  P  P5  1  0.62974338  0.31380750  0.20342214  1
  O  O6  1  0.02861675  0.71653422  0.67955854  1
  O  O7  1  0.39569524  0.60288730  0.54046422  1
  O  O8  1  0.26980399  0.43218786  0.82580504  1
  O  O9  1  0.59264487  0.97531117  0.76912820  1
  O  O10  1  0.31208253  0.28346578  0.17955854  1
  O  O11  1  0.79280794  0.39711270  0.04046422  1
  O  O12  1  0.83761613  0.56781214  0.32580504  1
  O  O13  1  0.61733370  0.02468883  0.26912820  1
