# generated using pymatgen
data_TiMn3Te2(PO4)6
_symmetry_space_group_name_H-M   'P 1'
_cell_length_a   8.89045180
_cell_length_b   8.89045141
_cell_length_c   8.89045205
_cell_angle_alpha   59.83387972
_cell_angle_beta   59.83388276
_cell_angle_gamma   59.83387999
_symmetry_Int_Tables_number   1
_chemical_formula_structural   TiMn3Te2(PO4)6
_chemical_formula_sum   'Ti1 Mn3 Te2 P6 O24'
_cell_volume   495.01230590
_cell_formula_units_Z   1
loop_
 _symmetry_equiv_pos_site_id
 _symmetry_equiv_pos_as_xyz
  1  'x, y, z'
loop_
 _atom_site_type_symbol
 _atom_site_label
 _atom_site_symmetry_multiplicity
 _atom_site_fract_x
 _atom_site_fract_y
 _atom_site_fract_z
 _atom_site_occupancy
  Ti  Ti0  1  0.85321220  0.85321220  0.85321220  1
  Mn  Mn1  1  0.16248179  0.16248179  0.16248179  1
  Mn  Mn2  1  0.34893181  0.34893181  0.34893181  1
  Mn  Mn3  1  0.65603005  0.65603005  0.65603005  1
  Te  Te4  1  0.01866632  0.01866632  0.01866632  1
  Te  Te5  1  0.51119935  0.51119935  0.51119935  1
  P  P6  1  0.04431109  0.74838504  0.45634617  1
  P  P7  1  0.45634617  0.04431109  0.74838504  1
  P  P8  1  0.74838504  0.45634617  0.04431109  1
  P  P9  1  0.24405882  0.55350672  0.94305550  1
  P  P10  1  0.55350672  0.94305550  0.24405882  1
  P  P11  1  0.94305550  0.24405882  0.55350672  1
  O  O12  1  0.09166060  0.29963221  0.52793449  1
  O  O13  1  0.29963221  0.52793449  0.09166060  1
  O  O14  1  0.06435394  0.91840430  0.25493496  1
  O  O15  1  0.52793449  0.09166060  0.29963221  1
  O  O16  1  0.23977677  0.60514078  0.44003803  1
  O  O17  1  0.97915383  0.82776105  0.60748431  1
  O  O18  1  0.25493496  0.06435394  0.91840430  1
  O  O19  1  0.44003803  0.23977677  0.60514078  1
  O  O20  1  0.60514078  0.44003803  0.23977677  1
  O  O21  1  0.19701120  0.40051001  0.96752278  1
  O  O22  1  0.08442094  0.74548276  0.91057823  1
  O  O23  1  0.40051001  0.96752278  0.19701120  1
  O  O24  1  0.60748431  0.97915383  0.82776105  1
  O  O25  1  0.91840430  0.25493496  0.06435394  1
  O  O26  1  0.82776105  0.60748431  0.97915383  1
  O  O27  1  0.40772300  0.58007828  0.74354248  1
  O  O28  1  0.58007828  0.74354248  0.40772300  1
  O  O29  1  0.74548276  0.91057823  0.08442094  1
  O  O30  1  0.96752278  0.19701120  0.40051001  1
  O  O31  1  0.74354248  0.40772300  0.58007828  1
  O  O32  1  0.47516960  0.90623464  0.68526792  1
  O  O33  1  0.91057823  0.08442094  0.74548276  1
  O  O34  1  0.68526792  0.47516960  0.90623464  1
  O  O35  1  0.90623464  0.68526792  0.47516960  1
