# generated using pymatgen
data_VF5
_symmetry_space_group_name_H-M   'P 1'
_cell_length_a   5.36141763
_cell_length_b   10.55601126
_cell_length_c   6.22170723
_cell_angle_alpha   90.00000000
_cell_angle_beta   104.16085125
_cell_angle_gamma   90.00000000
_symmetry_Int_Tables_number   1
_chemical_formula_structural   VF5
_chemical_formula_sum   'V4 F20'
_cell_volume   341.41874768
_cell_formula_units_Z   4
loop_
 _symmetry_equiv_pos_site_id
 _symmetry_equiv_pos_as_xyz
  1  'x, y, z'
loop_
 _atom_site_type_symbol
 _atom_site_label
 _atom_site_symmetry_multiplicity
 _atom_site_fract_x
 _atom_site_fract_y
 _atom_site_fract_z
 _atom_site_occupancy
  V  V0  1  0.42466364  0.04687275  0.73410642  1
  V  V1  1  0.57533636  0.54687275  0.76589358  1
  V  V2  1  0.42466364  0.45312725  0.23410642  1
  V  V3  1  0.57533636  0.95312725  0.26589358  1
  F  F4  1  0.18591381  0.92883741  0.68839335  1
  F  F5  1  0.21809907  0.17684399  0.68230687  1
  F  F6  1  0.27781043  0.62693990  0.69931025  1
  F  F7  1  0.38593036  0.41896711  0.91297442  1
  F  F8  1  0.18591381  0.57116259  0.18839335  1
  F  F9  1  0.21809907  0.32315601  0.18230687  1
  F  F10  1  0.27781043  0.87306010  0.19931025  1
  F  F11  1  0.37830643  0.41781554  0.52902936  1
  F  F12  1  0.38593036  0.08103289  0.41297442  1
  F  F13  1  0.62169357  0.91781554  0.97097064  1
  F  F14  1  0.37830643  0.08218446  0.02902936  1
  F  F15  1  0.61406964  0.91896711  0.58702558  1
  F  F16  1  0.62169357  0.58218446  0.47097064  1
  F  F17  1  0.72218957  0.12693990  0.80068975  1
  F  F18  1  0.78190093  0.67684399  0.81769313  1
  F  F19  1  0.81408619  0.42883741  0.81160665  1
  F  F20  1  0.61406964  0.58103289  0.08702558  1
  F  F21  1  0.72218957  0.37306010  0.30068975  1
  F  F22  1  0.78190093  0.82315601  0.31769313  1
  F  F23  1  0.81408619  0.07116259  0.31160665  1
