# generated using pymatgen
data_Li5FeO3F
_symmetry_space_group_name_H-M   'P 1'
_cell_length_a   5.47761639
_cell_length_b   6.68974895
_cell_length_c   5.47498419
_cell_angle_alpha   90.00000000
_cell_angle_beta   94.19267509
_cell_angle_gamma   90.00000000
_symmetry_Int_Tables_number   1
_chemical_formula_structural   Li5FeO3F
_chemical_formula_sum   'Li10 Fe2 O6 F2'
_cell_volume   200.08775006
_cell_formula_units_Z   2
loop_
 _symmetry_equiv_pos_site_id
 _symmetry_equiv_pos_as_xyz
  1  'x, y, z'
loop_
 _atom_site_type_symbol
 _atom_site_label
 _atom_site_symmetry_multiplicity
 _atom_site_fract_x
 _atom_site_fract_y
 _atom_site_fract_z
 _atom_site_occupancy
  Li  Li0  1  0.00707327  0.25000000  0.90612844  1
  Li  Li1  1  0.17001658  0.99953203  0.19436263  1
  Li  Li2  1  0.17001658  0.50046797  0.19436263  1
  Li  Li3  1  0.33982174  0.25000000  0.66205783  1
  Li  Li4  1  0.59292685  0.02345382  0.91647818  1
  Li  Li5  1  0.59292685  0.47654618  0.91647818  1
  Li  Li6  1  0.64027821  0.75000000  0.36628468  1
  Li  Li7  1  0.88944394  0.97738719  0.62193509  1
  Li  Li8  1  0.88944394  0.52261281  0.62193509  1
  Li  Li9  1  0.87975414  0.75000000  0.03176791  1
  Fe  Fe10  1  0.30965698  0.75000000  0.72747615  1
  Fe  Fe11  1  0.70627198  0.25000000  0.33593908  1
  O  O12  1  0.20685580  0.48663314  0.83056267  1
  O  O13  1  0.20685580  0.01336686  0.83056267  1
  O  O14  1  0.69165621  0.75000000  0.72715897  1
  O  O15  1  0.70141719  0.25000000  0.71781754  1
  O  O16  1  0.80729907  0.98662146  0.23237984  1
  O  O17  1  0.80729907  0.51337854  0.23237984  1
  F  F18  1  0.29415712  0.75000000  0.31780840  1
  F  F19  1  0.29480667  0.25000000  0.31554415  1
