# generated using pymatgen
data_LiV2OF5
_symmetry_space_group_name_H-M   'P 1'
_cell_length_a   5.24806896
_cell_length_b   5.24783245
_cell_length_c   13.75690843
_cell_angle_alpha   89.99218731
_cell_angle_beta   90.00347115
_cell_angle_gamma   119.99926775
_symmetry_Int_Tables_number   1
_chemical_formula_structural   LiV2OF5
_chemical_formula_sum   'Li3 V6 O3 F15'
_cell_volume   328.12111052
_cell_formula_units_Z   3
loop_
 _symmetry_equiv_pos_site_id
 _symmetry_equiv_pos_as_xyz
  1  'x, y, z'
loop_
 _atom_site_type_symbol
 _atom_site_label
 _atom_site_symmetry_multiplicity
 _atom_site_fract_x
 _atom_site_fract_y
 _atom_site_fract_z
 _atom_site_occupancy
  Li  Li0  1  0.99961400  0.02050606  0.67091122  1
  Li  Li1  1  0.97952571  0.97912253  0.00423800  1
  Li  Li2  1  0.02090590  0.00043854  0.33757377  1
  V  V3  1  0.33179773  0.68348932  0.49622673  1
  V  V4  1  0.35169474  0.66820747  0.16287790  1
  V  V5  1  0.31654071  0.64833845  0.82955287  1
  V  V6  1  0.64896054  0.31689271  0.49629956  1
  V  V7  1  0.66794714  0.35103863  0.16294396  1
  V  V8  1  0.68304664  0.33204370  0.82963450  1
  O  O9  1  0.99976693  0.35195106  0.75965381  1
  O  O10  1  0.35224770  0.00027362  0.42634533  1
  O  O11  1  0.64799389  0.64780287  0.09301257  1
  F  F12  1  0.00656441  0.65243619  0.24312803  1
  F  F13  1  0.99259921  0.64761941  0.57549275  1
  F  F14  1  0.00093390  0.65990785  0.91337464  1
  F  F15  1  0.00448736  0.34992146  0.08873292  1
  F  F16  1  0.99564188  0.34517584  0.42285888  1
  F  F17  1  0.34744126  0.35400711  0.57647888  1
  F  F18  1  0.34006884  0.34098022  0.24673361  1
  F  F19  1  0.35235578  0.34494055  0.90880003  1
  F  F20  1  0.34547843  0.99555100  0.75535134  1
  F  F21  1  0.34952201  0.00438378  0.08949458  1
  F  F22  1  0.65011098  0.65456821  0.42207550  1
  F  F23  1  0.65487765  0.65056776  0.75615173  1
  F  F24  1  0.64582924  0.99338726  0.90980229  1
  F  F25  1  0.65505836  0.00738163  0.24216863  1
  F  F26  1  0.65895608  0.99906775  0.58008899  1
