# generated using pymatgen
data_Li4SbTe2WO12
_symmetry_space_group_name_H-M   'P 1'
_cell_length_a   5.68942493
_cell_length_b   11.36293856
_cell_length_c   10.05180568
_cell_angle_alpha   27.62625989
_cell_angle_beta   50.00473039
_cell_angle_gamma   55.34984707
_symmetry_Int_Tables_number   1
_chemical_formula_structural   Li4SbTe2WO12
_chemical_formula_sum   'Li4 Sb1 Te2 W1 O12'
_cell_volume   230.84737028
_cell_formula_units_Z   1
loop_
 _symmetry_equiv_pos_site_id
 _symmetry_equiv_pos_as_xyz
  1  'x, y, z'
loop_
 _atom_site_type_symbol
 _atom_site_label
 _atom_site_symmetry_multiplicity
 _atom_site_fract_x
 _atom_site_fract_y
 _atom_site_fract_z
 _atom_site_occupancy
  Li  Li0  1  0.28276668  0.00503414  0.29049450  1
  Li  Li1  1  0.30380624  0.49558865  0.29461214  1
  Li  Li2  1  0.78109140  0.01066296  0.75993007  1
  Li  Li3  1  0.77423989  0.49156114  0.79228979  1
  Sb  Sb4  1  0.00389353  0.50210694  0.00142516  1
  Te  Te5  1  0.49184462  0.00481426  0.50936774  1
  Te  Te6  1  0.53030845  0.49439272  0.51177901  1
  W  W7  1  0.00364128  0.99708104  0.00823991  1
  O  O8  1  0.37794097  0.29335755  0.12887370  1
  O  O9  1  0.21252829  0.13650661  0.61447178  1
  O  O10  1  0.06221978  0.30655282  0.75548502  1
  O  O11  1  0.87743499  0.20409745  0.22034881  1
  O  O12  1  0.37195000  0.85154520  0.05935752  1
  O  O13  1  0.72799824  0.36938811  0.37392030  1
  O  O14  1  0.24644013  0.63580508  0.62536967  1
  O  O15  1  0.61966426  0.15543360  0.89394220  1
  O  O16  1  0.12201600  0.82135397  0.73952102  1
  O  O17  1  0.89906780  0.68329407  0.24127354  1
  O  O18  1  0.76019906  0.85583660  0.37382851  1
  O  O19  1  0.62214841  0.68558710  0.87666662  1
