# generated using pymatgen
data_RbLaMg30O32
_symmetry_space_group_name_H-M   'P 1'
_cell_length_a   8.69458209
_cell_length_b   8.69458209
_cell_length_c   8.82284868
_cell_angle_alpha   90.00000000
_cell_angle_beta   90.00000000
_cell_angle_gamma   90.00000000
_symmetry_Int_Tables_number   1
_chemical_formula_structural   RbLaMg30O32
_chemical_formula_sum   'Rb1 La1 Mg30 O32'
_cell_volume   666.96993121
_cell_formula_units_Z   1
loop_
 _symmetry_equiv_pos_site_id
 _symmetry_equiv_pos_as_xyz
  1  'x, y, z'
loop_
 _atom_site_type_symbol
 _atom_site_label
 _atom_site_symmetry_multiplicity
 _atom_site_fract_x
 _atom_site_fract_y
 _atom_site_fract_z
 _atom_site_occupancy
  Rb  Rb0  1  -0.00000000  0.00000000  0.50000000  1
  La  La1  1  -0.00000000  0.00000000  -0.00000000  1
  Mg  Mg2  1  -0.00000000  0.50000000  -0.00000000  1
  Mg  Mg3  1  -0.00000000  0.50000000  0.50000000  1
  Mg  Mg4  1  0.50000000  0.00000000  -0.00000000  1
  Mg  Mg5  1  0.50000000  0.00000000  0.50000000  1
  Mg  Mg6  1  0.50000000  0.50000000  -0.00000000  1
  Mg  Mg7  1  0.50000000  0.50000000  0.50000000  1
  Mg  Mg8  1  -0.00000000  0.26153451  0.25679450  1
  Mg  Mg9  1  -0.00000000  0.26153451  0.74320550  1
  Mg  Mg10  1  -0.00000000  0.73846549  0.25679450  1
  Mg  Mg11  1  -0.00000000  0.73846549  0.74320550  1
  Mg  Mg12  1  0.50000000  0.25127602  0.25162821  1
  Mg  Mg13  1  0.50000000  0.25127602  0.74837179  1
  Mg  Mg14  1  0.50000000  0.74872398  0.25162821  1
  Mg  Mg15  1  0.50000000  0.74872398  0.74837179  1
  Mg  Mg16  1  0.26153451  0.00000000  0.25679450  1
  Mg  Mg17  1  0.26153451  0.00000000  0.74320550  1
  Mg  Mg18  1  0.25127602  0.50000000  0.25162821  1
  Mg  Mg19  1  0.25127602  0.50000000  0.74837179  1
  Mg  Mg20  1  0.73846549  0.00000000  0.25679450  1
  Mg  Mg21  1  0.73846549  0.00000000  0.74320550  1
  Mg  Mg22  1  0.74872398  0.50000000  0.25162821  1
  Mg  Mg23  1  0.74872398  0.50000000  0.74837179  1
  Mg  Mg24  1  0.25828688  0.25828688  -0.00000000  1
  Mg  Mg25  1  0.25383946  0.25383946  0.50000000  1
  Mg  Mg26  1  0.25828688  0.74171312  -0.00000000  1
  Mg  Mg27  1  0.25383946  0.74616054  0.50000000  1
  Mg  Mg28  1  0.74171312  0.25828688  -0.00000000  1
  Mg  Mg29  1  0.74616054  0.25383946  0.50000000  1
  Mg  Mg30  1  0.74171312  0.74171312  -0.00000000  1
  Mg  Mg31  1  0.74616054  0.74616054  0.50000000  1
  O  O32  1  0.27108586  0.00000000  -0.00000000  1
  O  O33  1  0.28015475  0.00000000  0.50000000  1
  O  O34  1  0.25495000  0.50000000  -0.00000000  1
  O  O35  1  0.25633317  0.50000000  0.50000000  1
  O  O36  1  0.72891414  0.00000000  -0.00000000  1
  O  O37  1  0.71984525  0.00000000  0.50000000  1
  O  O38  1  0.74505000  0.50000000  -0.00000000  1
  O  O39  1  0.74366683  0.50000000  0.50000000  1
  O  O40  1  0.24952634  0.24952634  0.24976030  1
  O  O41  1  0.24952634  0.24952634  0.75023970  1
  O  O42  1  0.24952634  0.75047366  0.24976030  1
  O  O43  1  0.24952634  0.75047366  0.75023970  1
  O  O44  1  0.75047366  0.24952634  0.24976030  1
  O  O45  1  0.75047366  0.24952634  0.75023970  1
  O  O46  1  0.75047366  0.75047366  0.24976030  1
  O  O47  1  0.75047366  0.75047366  0.75023970  1
  O  O48  1  -0.00000000  0.00000000  0.24161177  1
  O  O49  1  -0.00000000  0.00000000  0.75838823  1
  O  O50  1  -0.00000000  0.50000000  0.24734428  1
  O  O51  1  -0.00000000  0.50000000  0.75265572  1
  O  O52  1  0.50000000  0.00000000  0.24734428  1
  O  O53  1  0.50000000  0.00000000  0.75265572  1
  O  O54  1  0.50000000  0.50000000  0.24882047  1
  O  O55  1  0.50000000  0.50000000  0.75117953  1
  O  O56  1  -0.00000000  0.27108586  -0.00000000  1
  O  O57  1  -0.00000000  0.28015475  0.50000000  1
  O  O58  1  -0.00000000  0.72891414  -0.00000000  1
  O  O59  1  -0.00000000  0.71984525  0.50000000  1
  O  O60  1  0.50000000  0.25495000  -0.00000000  1
  O  O61  1  0.50000000  0.25633317  0.50000000  1
  O  O62  1  0.50000000  0.74505000  -0.00000000  1
  O  O63  1  0.50000000  0.74366683  0.50000000  1
