# generated using pymatgen
data_Li3NiOF3
_symmetry_space_group_name_H-M   'P 1'
_cell_length_a   2.95726538
_cell_length_b   5.07046703
_cell_length_c   10.11549783
_cell_angle_alpha   80.15449622
_cell_angle_beta   89.97004880
_cell_angle_gamma   106.94993043
_symmetry_Int_Tables_number   1
_chemical_formula_structural   Li3NiOF3
_chemical_formula_sum   'Li6 Ni2 O2 F6'
_cell_volume   142.74891161
_cell_formula_units_Z   2
loop_
 _symmetry_equiv_pos_site_id
 _symmetry_equiv_pos_as_xyz
  1  'x, y, z'
loop_
 _atom_site_type_symbol
 _atom_site_label
 _atom_site_symmetry_multiplicity
 _atom_site_fract_x
 _atom_site_fract_y
 _atom_site_fract_z
 _atom_site_occupancy
  Li  Li0  1  0.75294247  0.50157922  0.86729449  1
  Li  Li1  1  0.50258396  0.00231105  0.74846974  1
  Li  Li2  1  0.50303718  0.00327919  0.24771211  1
  Li  Li3  1  0.00402649  0.00842487  0.49289100  1
  Li  Li4  1  0.24754696  0.50309910  0.63020271  1
  Li  Li5  1  0.00384085  0.99680205  0.00338777  1
  Ni  Ni6  1  0.74655176  0.49072580  0.36522128  1
  Ni  Ni7  1  0.26066469  0.51477584  0.13171184  1
  O  O8  1  0.87765825  0.74909660  0.18308953  1
  O  O9  1  0.12975322  0.25657899  0.31362879  1
  F  F10  1  0.87427939  0.75159287  0.68784367  1
  F  F11  1  0.62404034  0.25326900  0.56696768  1
  F  F12  1  0.63585741  0.26367206  0.04910716  1
  F  F13  1  0.12694169  0.25212768  0.80976537  1
  F  F14  1  0.37849621  0.75122174  0.93015504  1
  F  F15  1  0.37014213  0.74087096  0.44810283  1
