# generated using pymatgen
data_LiNi7O7F
_symmetry_space_group_name_H-M   'P 1'
_cell_length_a   2.98097872
_cell_length_b   5.19270712
_cell_length_c   9.89749994
_cell_angle_alpha   99.49777294
_cell_angle_beta   90.00038397
_cell_angle_gamma   90.00035791
_symmetry_Int_Tables_number   1
_chemical_formula_structural   LiNi7O7F
_chemical_formula_sum   'Li1 Ni7 O7 F1'
_cell_volume   151.10670276
_cell_formula_units_Z   1
loop_
 _symmetry_equiv_pos_site_id
 _symmetry_equiv_pos_as_xyz
  1  'x, y, z'
loop_
 _atom_site_type_symbol
 _atom_site_label
 _atom_site_symmetry_multiplicity
 _atom_site_fract_x
 _atom_site_fract_y
 _atom_site_fract_z
 _atom_site_occupancy
  Li  Li0  1  0.00002152  0.74798167  0.26877616  1
  Ni  Ni1  1  0.00000403  0.00232578  0.99280523  1
  Ni  Ni2  1  0.49997873  0.99986817  0.49360893  1
  Ni  Ni3  1  0.99994315  0.24972231  0.74405277  1
  Ni  Ni4  1  -0.00000916  0.50445988  0.49668502  1
  Ni  Ni5  1  0.50000778  0.27197199  0.25637918  1
  Ni  Ni6  1  0.50002913  0.48695211  0.99863533  1
  Ni  Ni7  1  0.50000411  0.74712260  0.74526954  1
  O  O8  1  0.99998873  0.13380982  0.37256158  1
  O  O9  1  0.50007245  0.12110284  0.87447411  1
  O  O10  1  0.00001619  0.35492410  0.11857166  1
  O  O11  1  0.99997876  0.62948470  0.88139903  1
  O  O12  1  0.49998584  0.37607044  0.62774011  1
  O  O13  1  0.50001433  0.62701401  0.37871830  1
  O  O14  1  0.99996117  0.87880463  0.62631144  1
  F  F15  1  0.50000221  0.86838494  0.12401260  1
