# generated using pymatgen
data_LiMn2O3F
_symmetry_space_group_name_H-M   'P 1'
_cell_length_a   5.99130517
_cell_length_b   6.03095748
_cell_length_c   6.03083024
_cell_angle_alpha   121.74688006
_cell_angle_beta   61.81806645
_cell_angle_gamma   118.18481508
_symmetry_Int_Tables_number   1
_chemical_formula_structural   LiMn2O3F
_chemical_formula_sum   'Li2 Mn4 O6 F2'
_cell_volume   155.88976166
_cell_formula_units_Z   2
loop_
 _symmetry_equiv_pos_site_id
 _symmetry_equiv_pos_as_xyz
  1  'x, y, z'
loop_
 _atom_site_type_symbol
 _atom_site_label
 _atom_site_symmetry_multiplicity
 _atom_site_fract_x
 _atom_site_fract_y
 _atom_site_fract_z
 _atom_site_occupancy
  Li  Li0  1  0.49000979  0.99379995  0.50623304  1
  Li  Li1  1  0.90910824  0.64184073  0.85815689  1
  Mn  Mn2  1  0.09679310  0.36305271  0.13694215  1
  Mn  Mn3  1  0.01346191  0.99836335  0.50165338  1
  Mn  Mn4  1  0.49243996  0.49655572  0.51421387  1
  Mn  Mn5  1  0.49242153  0.98576359  0.00345272  1
  O  O6  1  0.23464819  0.77166817  0.26956447  1
  O  O7  1  0.30332594  0.75929944  0.74067172  1
  O  O8  1  0.24378298  0.22475851  0.27517526  1
  O  O9  1  0.23469979  0.23051527  0.72834117  1
  O  O10  1  0.69769515  0.24077258  0.25923814  1
  O  O11  1  0.75757711  0.77888850  0.72118107  1
  F  F12  1  0.76697666  0.77451613  0.25980415  1
  F  F13  1  0.76705865  0.24020534  0.72537196  1
