# generated using pymatgen
data_LiFePO4
_symmetry_space_group_name_H-M   'P 1'
_cell_length_a   5.84012602
_cell_length_b   10.33747911
_cell_length_c   10.08007271
_cell_angle_alpha   90.00000000
_cell_angle_beta   93.29984180
_cell_angle_gamma   90.00000000
_symmetry_Int_Tables_number   1
_chemical_formula_structural   LiFePO4
_chemical_formula_sum   'Li8 Fe8 P8 O32'
_cell_volume   607.54697103
_cell_formula_units_Z   8
loop_
 _symmetry_equiv_pos_site_id
 _symmetry_equiv_pos_as_xyz
  1  'x, y, z'
loop_
 _atom_site_type_symbol
 _atom_site_label
 _atom_site_symmetry_multiplicity
 _atom_site_fract_x
 _atom_site_fract_y
 _atom_site_fract_z
 _atom_site_occupancy
  Li  Li0  1  0.12276813  0.91609012  0.73108169  1
  Li  Li1  1  0.12276813  0.58390988  0.23108169  1
  Li  Li2  1  0.35975896  0.39461191  0.01647643  1
  Li  Li3  1  0.35975896  0.10538809  0.51647643  1
  Li  Li4  1  0.64024104  0.89461191  0.48352357  1
  Li  Li5  1  0.64024104  0.60538809  0.98352357  1
  Li  Li6  1  0.87723187  0.41609012  0.76891831  1
  Li  Li7  1  0.87723187  0.08390988  0.26891831  1
  Fe  Fe8  1  0.12871160  0.15426850  0.85047671  1
  Fe  Fe9  1  0.12871160  0.34573150  0.35047671  1
  Fe  Fe10  1  0.37792209  0.66725359  0.63841106  1
  Fe  Fe11  1  0.37792209  0.83274641  0.13841106  1
  Fe  Fe12  1  0.62207791  0.16725359  0.86158894  1
  Fe  Fe13  1  0.62207791  0.33274641  0.36158894  1
  Fe  Fe14  1  0.87128840  0.65426850  0.64952329  1
  Fe  Fe15  1  0.87128840  0.84573150  0.14952329  1
  P  P16  1  0.12671548  0.64919102  0.90529315  1
  P  P17  1  0.12671548  0.85080898  0.40529315  1
  P  P18  1  0.36869367  0.39585001  0.65103616  1
  P  P19  1  0.36869367  0.10414999  0.15103616  1
  P  P20  1  0.63130633  0.89585001  0.84896384  1
  P  P21  1  0.63130633  0.60414999  0.34896384  1
  P  P22  1  0.87328452  0.14919102  0.59470685  1
  P  P23  1  0.87328452  0.35080898  0.09470685  1
  O  O24  1  0.10185130  0.76701945  0.53187520  1
  O  O25  1  0.10329116  0.07981650  0.63512395  1
  O  O26  1  0.10185130  0.73298055  0.03187520  1
  O  O27  1  0.10329116  0.42018350  0.13512395  1
  O  O28  1  0.16160140  0.73845797  0.78171967  1
  O  O29  1  0.15306985  0.48564144  0.63906726  1
  O  O30  1  0.16160140  0.76154203  0.28171967  1
  O  O31  1  0.15306985  0.01435856  0.13906726  1
  O  O32  1  0.33167350  0.55915897  0.92376220  1
  O  O33  1  0.36165745  0.30193646  0.77180080  1
  O  O34  1  0.33167350  0.94084103  0.42376220  1
  O  O35  1  0.37835451  0.31412403  0.51904000  1
  O  O36  1  0.41840616  0.98719516  0.83450263  1
  O  O37  1  0.36165745  0.19806354  0.27180080  1
  O  O38  1  0.37835451  0.18587597  0.01904000  1
  O  O39  1  0.41840616  0.51280484  0.33450263  1
  O  O40  1  0.58159384  0.48719516  0.66549737  1
  O  O41  1  0.62164549  0.81412403  0.98096000  1
  O  O42  1  0.63834255  0.80193646  0.72819920  1
  O  O43  1  0.58159384  0.01280484  0.16549737  1
  O  O44  1  0.62164549  0.68587597  0.48096000  1
  O  O45  1  0.66832650  0.05915897  0.57623780  1
  O  O46  1  0.63834255  0.69806354  0.22819920  1
  O  O47  1  0.66832650  0.44084103  0.07623780  1
  O  O48  1  0.84693015  0.98564144  0.86093274  1
  O  O49  1  0.83839860  0.23845797  0.71828033  1
  O  O50  1  0.84693015  0.51435856  0.36093274  1
  O  O51  1  0.83839860  0.26154203  0.21828033  1
  O  O52  1  0.89670884  0.57981650  0.86487605  1
  O  O53  1  0.89814870  0.26701945  0.96812480  1
  O  O54  1  0.89670884  0.92018350  0.36487605  1
  O  O55  1  0.89814870  0.23298055  0.46812480  1
