# generated using pymatgen
data_Li3Mn2(CoO4)2
_symmetry_space_group_name_H-M   'P 1'
_cell_length_a   2.91369768
_cell_length_b   4.99117095
_cell_length_c   10.06131592
_cell_angle_alpha   91.12704135
_cell_angle_beta   91.30901227
_cell_angle_gamma   90.70871802
_symmetry_Int_Tables_number   1
_chemical_formula_structural   Li3Mn2(CoO4)2
_chemical_formula_sum   'Li3 Mn2 Co2 O8'
_cell_volume   146.24082350
_cell_formula_units_Z   1
loop_
 _symmetry_equiv_pos_site_id
 _symmetry_equiv_pos_as_xyz
  1  'x, y, z'
loop_
 _atom_site_type_symbol
 _atom_site_label
 _atom_site_symmetry_multiplicity
 _atom_site_fract_x
 _atom_site_fract_y
 _atom_site_fract_z
 _atom_site_occupancy
  Li  Li0  1  0.50970188  0.83078227  0.22961791  1
  Li  Li1  1  0.24483315  0.91882512  0.73173107  1
  Li  Li2  1  0.01978466  0.33035097  0.22654439  1
  Mn  Mn3  1  0.51501512  0.49114747  0.99295293  1
  Mn  Mn4  1  0.24095468  0.25861940  0.50240271  1
  Co  Co5  1  0.73947328  0.75616152  0.49492065  1
  Co  Co6  1  0.00506799  0.99558572  0.00558746  1
  O  O7  1  0.98550608  0.66670426  0.11224089  1
  O  O8  1  0.75329730  0.07897505  0.60403894  1
  O  O9  1  0.72216963  0.42157709  0.39301547  1
  O  O10  1  0.49158275  0.84178791  0.90433896  1
  O  O11  1  0.51738153  0.15748132  0.11292389  1
  O  O12  1  0.24566357  0.60205611  0.59405954  1
  O  O13  1  0.22924948  0.92500206  0.39636439  1
  O  O14  1  0.03167891  0.30782273  0.89976081  1
