# generated using pymatgen
data_LiNiPO4
_symmetry_space_group_name_H-M   'P 1'
_cell_length_a   9.88725775
_cell_length_b   9.88725709
_cell_length_c   23.36069811
_cell_angle_alpha   90.00000000
_cell_angle_beta   90.00000000
_cell_angle_gamma   120.00000047
_symmetry_Int_Tables_number   1
_chemical_formula_structural   LiNiPO4
_chemical_formula_sum   'Li24 Ni24 P24 O96'
_cell_volume   1977.73513667
_cell_formula_units_Z   24
loop_
 _symmetry_equiv_pos_site_id
 _symmetry_equiv_pos_as_xyz
  1  'x, y, z'
loop_
 _atom_site_type_symbol
 _atom_site_label
 _atom_site_symmetry_multiplicity
 _atom_site_fract_x
 _atom_site_fract_y
 _atom_site_fract_z
 _atom_site_occupancy
  Li  Li0  1  0.02164843  0.98027053  0.69610116  1
  Li  Li1  1  0.02822857  0.57398720  0.03693572  1
  Li  Li2  1  0.05384177  0.46132982  0.19503677  1
  Li  Li3  1  0.04364980  0.48113852  0.84926097  1
  Li  Li4  1  0.40748805  0.94615823  0.86170377  1
  Li  Li5  1  0.43748772  0.95635020  0.51592797  1
  Li  Li6  1  0.01972947  0.04137790  0.02943516  1
  Li  Li7  1  0.04137790  0.02164843  0.86276816  1
  Li  Li8  1  0.54575863  0.97177143  0.70360172  1
  Li  Li9  1  0.42601280  0.45424137  0.37026872  1
  Li  Li10  1  0.51886148  0.56251228  0.18259497  1
  Li  Li11  1  0.53867018  0.59251195  0.52836977  1
  Li  Li12  1  0.46132982  0.40748805  0.02836977  1
  Li  Li13  1  0.48113852  0.43748772  0.68259497  1
  Li  Li14  1  0.57398720  0.54575863  0.87026872  1
  Li  Li15  1  0.45424137  0.02822857  0.20360172  1
  Li  Li16  1  0.95862210  0.97835157  0.36276816  1
  Li  Li17  1  0.98027053  0.95862210  0.52943516  1
  Li  Li18  1  0.56251228  0.04364980  0.01592797  1
  Li  Li19  1  0.59251195  0.05384177  0.36170377  1
  Li  Li20  1  0.95635020  0.51886148  0.34926097  1
  Li  Li21  1  0.94615823  0.53867018  0.69503677  1
  Li  Li22  1  0.97177143  0.42601280  0.53693572  1
  Li  Li23  1  0.97835157  0.01972947  0.19610116  1
  Ni  Ni24  1  0.11006654  0.82564596  0.27164805  1
  Ni  Ni25  1  0.08770905  0.76198669  0.92310773  1
  Ni  Ni26  1  0.12728616  0.75947420  0.59648642  1
  Ni  Ni27  1  0.31472558  0.66489467  0.75554030  1
  Ni  Ni28  1  0.33510533  0.64983092  0.08887430  1
  Ni  Ni29  1  0.35016908  0.68527442  0.42220730  1
  Ni  Ni30  1  0.17435404  0.28442058  0.60498105  1
  Ni  Ni31  1  0.24052580  0.36781296  0.92981942  1
  Ni  Ni32  1  0.23801331  0.32572236  0.25644073  1
  Ni  Ni33  1  0.63218704  0.87271384  0.26315242  1
  Ni  Ni34  1  0.67427764  0.91229095  0.58977473  1
  Ni  Ni35  1  0.28442058  0.11006654  0.43831505  1
  Ni  Ni36  1  0.71557942  0.88993346  0.93831505  1
  Ni  Ni37  1  0.32572236  0.08770905  0.08977473  1
  Ni  Ni38  1  0.36781296  0.12728616  0.76315242  1
  Ni  Ni39  1  0.76198669  0.67427764  0.75644073  1
  Ni  Ni40  1  0.75947420  0.63218704  0.42981942  1
  Ni  Ni41  1  0.82564596  0.71557942  0.10498105  1
  Ni  Ni42  1  0.64983092  0.31472558  0.92220730  1
  Ni  Ni43  1  0.66489467  0.35016908  0.58887430  1
  Ni  Ni44  1  0.68527442  0.33510533  0.25554030  1
  Ni  Ni45  1  0.87271384  0.24052580  0.09648642  1
  Ni  Ni46  1  0.91229095  0.23801331  0.42310773  1
  Ni  Ni47  1  0.88993346  0.17435404  0.77164805  1
  P  P48  1  0.09501774  0.78731207  0.79092134  1
  P  P49  1  0.08516544  0.75829938  0.46653911  1
  P  P50  1  0.13266822  0.77028797  0.13899379  1
  P  P51  1  0.28402256  0.64523910  0.29383779  1
  P  P52  1  0.36121555  0.71597744  0.96050379  1
  P  P53  1  0.35476090  0.63878445  0.62717079  1
  P  P54  1  0.22971203  0.36237926  0.47232779  1
  P  P55  1  0.21268793  0.30770567  0.12425434  1
  P  P56  1  0.24170062  0.32686506  0.79987311  1
  P  P57  1  0.63762074  0.86733178  0.80566079  1
  P  P58  1  0.67313494  0.91483456  0.13320611  1
  P  P59  1  0.69229433  0.90498126  0.45758834  1
  P  P60  1  0.30770567  0.09501774  0.95758834  1
  P  P61  1  0.32686506  0.08516544  0.63320611  1
  P  P62  1  0.36237926  0.13266822  0.30566079  1
  P  P63  1  0.75829938  0.67313494  0.29987311  1
  P  P64  1  0.78731207  0.69229433  0.62425434  1
  P  P65  1  0.77028797  0.63762074  0.97232779  1
  P  P66  1  0.64523910  0.36121555  0.12717079  1
  P  P67  1  0.63878445  0.28402256  0.46050379  1
  P  P68  1  0.71597744  0.35476090  0.79383779  1
  P  P69  1  0.86733178  0.22971203  0.63899379  1
  P  P70  1  0.91483456  0.24170062  0.96653911  1
  P  P71  1  0.90498126  0.21268793  0.29092134  1
  O  O72  1  0.04233668  0.77564966  0.08523776  1
  O  O73  1  0.09336691  0.92085721  0.46859767  1
  O  O74  1  0.01667780  0.68794439  0.84498231  1
  O  O75  1  0.14600971  0.98400053  0.92896485  1
  O  O76  1  0.03510799  0.75967000  0.19214978  1
  O  O77  1  0.01697182  0.67273428  0.52388182  1
  O  O78  1  0.24355283  0.93964520  0.80990084  1
  O  O79  1  0.13634790  0.65780262  0.30611805  1
  O  O80  1  0.12689962  0.68678704  0.74838402  1
  O  O81  1  0.31597394  0.97203734  0.58448515  1
  O  O82  1  0.29892306  0.91745414  0.14047414  1
  O  O83  1  0.15266211  0.62453232  0.13379733  1
  O  O84  1  0.25438546  0.79175838  0.45861272  1
  O  O85  1  0.18991274  0.60466345  0.60939125  1
  O  O86  1  0.08254586  0.38146892  0.47380714  1
  O  O87  1  0.27837984  0.75164326  0.91111871  1
  O  O88  1  0.02796266  0.34393660  0.91781815  1
  O  O89  1  0.06035480  0.30390763  0.14323384  1
  O  O90  1  0.01599947  0.16200918  0.26229885  1
  O  O91  1  0.07914279  0.17250970  0.80193067  1
  O  O92  1  0.25536221  0.67022552  0.01444046  1
  O  O93  1  0.24835674  0.52673658  0.24445271  1
  O  O94  1  0.32977448  0.58513669  0.34777346  1
  O  O95  1  0.20824162  0.46262707  0.79194572  1
  O  O96  1  0.41486331  0.74463779  0.68110746  1
  O  O97  1  0.41475071  0.81008726  0.27605825  1
  O  O98  1  0.47187021  0.84733789  0.80046433  1
  O  O99  1  0.31321296  0.44011259  0.08171702  1
  O  O100  1  0.34219738  0.47854529  0.63945205  1
  O  O101  1  0.37546768  0.52812979  0.46713033  1
  O  O102  1  0.24033000  0.27543798  0.52548278  1
  O  O103  1  0.39533655  0.58524929  0.94272425  1
  O  O104  1  0.47326342  0.72162016  0.57778571  1
  O  O105  1  0.52145471  0.86365210  0.97278505  1
  O  O106  1  0.55988741  0.87310038  0.41505002  1
  O  O107  1  0.16200918  0.14600971  0.09563185  1
  O  O108  1  0.22435034  0.26668702  0.41857076  1
  O  O109  1  0.31205561  0.32873341  0.17831631  1
  O  O110  1  0.17250970  0.09336691  0.63526467  1
  O  O111  1  0.32726572  0.34423854  0.85721482  1
  O  O112  1  0.53737293  0.74561454  0.12527872  1
  O  O113  1  0.30390763  0.24355283  0.97656784  1
  O  O114  1  0.65576146  0.98302818  0.19054882  1
  O  O115  1  0.34393660  0.31597394  0.75115115  1
  O  O116  1  0.38146892  0.29892306  0.30714114  1
  O  O117  1  0.67126659  0.98332220  0.51164931  1
  O  O118  1  0.72456202  0.96489201  0.85881678  1
  O  O119  1  0.26668702  0.04233668  0.25190376  1
  O  O120  1  0.73331298  0.95766332  0.75190376  1
  O  O121  1  0.27543798  0.03510799  0.35881578  1
  O  O122  1  0.32873341  0.01667780  0.01164931  1
  O  O123  1  0.61853108  0.70107694  0.80714114  1
  O  O124  1  0.65606340  0.68402606  0.25115115  1
  O  O125  1  0.34423854  0.01697182  0.69054882  1
  O  O126  1  0.69609237  0.75644717  0.47656784  1
  O  O127  1  0.46262707  0.25438546  0.62527872  1
  O  O128  1  0.67273428  0.65576146  0.35721482  1
  O  O129  1  0.82749030  0.90663309  0.13526467  1
  O  O130  1  0.68794439  0.67126659  0.67831631  1
  O  O131  1  0.77564966  0.73331298  0.91857076  1
  O  O132  1  0.83799082  0.85399029  0.59563185  1
  O  O133  1  0.44011259  0.12689962  0.91505002  1
  O  O134  1  0.47854529  0.13634790  0.47278505  1
  O  O135  1  0.52673658  0.27837984  0.07778571  1
  O  O136  1  0.60466345  0.41475071  0.44272425  1
  O  O137  1  0.75967000  0.72456202  0.02548278  1
  O  O138  1  0.62453232  0.47187021  0.96713033  1
  O  O139  1  0.65780262  0.52145471  0.13945205  1
  O  O140  1  0.68678704  0.55988741  0.58171702  1
  O  O141  1  0.52812979  0.15266211  0.30046433  1
  O  O142  1  0.58524929  0.18991274  0.77605825  1
  O  O143  1  0.58513669  0.25536221  0.18110746  1
  O  O144  1  0.79175838  0.53737293  0.29194572  1
  O  O145  1  0.67022552  0.41486331  0.84777346  1
  O  O146  1  0.75164326  0.47326342  0.74445271  1
  O  O147  1  0.74463779  0.32977448  0.51444046  1
  O  O148  1  0.92085721  0.82749030  0.30193167  1
  O  O149  1  0.98400053  0.83799082  0.76229885  1
  O  O150  1  0.93964520  0.69609237  0.64323384  1
  O  O151  1  0.97203734  0.65606340  0.41781815  1
  O  O152  1  0.72162016  0.24835674  0.41111871  1
  O  O153  1  0.91745414  0.61853108  0.97380714  1
  O  O154  1  0.81008726  0.39533655  0.10939125  1
  O  O155  1  0.74561454  0.20824162  0.95861272  1
  O  O156  1  0.84733789  0.37546768  0.63379733  1
  O  O157  1  0.70107694  0.08254586  0.64047414  1
  O  O158  1  0.68402606  0.02796266  0.08448515  1
  O  O159  1  0.87310038  0.31321296  0.24838402  1
  O  O160  1  0.86365210  0.34219738  0.80611805  1
  O  O161  1  0.75644717  0.06035480  0.30990084  1
  O  O162  1  0.98302818  0.32726572  0.02388182  1
  O  O163  1  0.96489201  0.24033000  0.69214978  1
  O  O164  1  0.85399029  0.01599947  0.42896485  1
  O  O165  1  0.98332220  0.31205561  0.34498231  1
  O  O166  1  0.90663309  0.07914279  0.96859767  1
  O  O167  1  0.95766332  0.22435034  0.58523776  1
