# generated using pymatgen
data_Co9Cu3O16
_symmetry_space_group_name_H-M   'P 1'
_cell_length_a   5.85860542
_cell_length_b   5.85860541
_cell_length_c   10.18585975
_cell_angle_alpha   106.71344610
_cell_angle_beta   90.00000000
_cell_angle_gamma   60.00000004
_symmetry_Int_Tables_number   1
_chemical_formula_structural   Co9Cu3O16
_chemical_formula_sum   'Co9 Cu3 O16'
_cell_volume   285.59133539
_cell_formula_units_Z   1
loop_
 _symmetry_equiv_pos_site_id
 _symmetry_equiv_pos_as_xyz
  1  'x, y, z'
loop_
 _atom_site_type_symbol
 _atom_site_label
 _atom_site_symmetry_multiplicity
 _atom_site_fract_x
 _atom_site_fract_y
 _atom_site_fract_z
 _atom_site_occupancy
  Co  Co0  1  0.06175391  0.87649219  0.31443133  1
  Co  Co1  1  0.99918987  0.00162026  0.00243039  1
  Co  Co2  1  0.56205986  0.37618524  0.31443133  1
  Co  Co3  1  0.06175391  0.37618524  0.31443133  1
  Co  Co4  1  0.12603818  0.74792264  0.62188446  1
  Co  Co5  1  0.81300082  0.37399835  0.56099753  1
  Co  Co6  1  0.56388586  0.87222828  0.81098793  1
  Co  Co7  1  0.56388586  0.37487379  0.81098793  1
  Co  Co8  1  0.06124035  0.37487379  0.81098793  1
  Cu  Cu9  1  0.62371533  0.75256934  0.12885501  1
  Cu  Cu10  1  0.31257135  0.37485730  0.06228595  1
  Cu  Cu11  1  0.50061394  0.99877212  0.49815818  1
  O  O12  1  0.95885299  0.62080080  0.20045460  1
  O  O13  1  0.42034620  0.62080080  0.20045460  1
  O  O14  1  0.42034620  0.15930759  0.20045460  1
  O  O15  1  0.19464218  0.61071464  0.41607246  1
  O  O16  1  0.70578558  0.58842885  0.43384976  1
  O  O17  1  0.92977736  0.14044629  0.21066893  1
  O  O18  1  0.15457908  0.13963534  0.43384976  1
  O  O19  1  0.70578558  0.13963534  0.43384976  1
  O  O20  1  0.47145015  0.60578972  0.68302959  1
  O  O21  1  0.92276013  0.60578972  0.68302959  1
  O  O22  1  0.92276013  0.15447974  0.68302959  1
  O  O23  1  0.69160985  0.61678029  0.92517044  1
  O  O24  1  0.19938196  0.60123609  0.93201401  1
  O  O25  1  0.43360833  0.13278434  0.69917601  1
  O  O26  1  0.19938196  0.13139597  0.93201401  1
  O  O27  1  0.66922208  0.13139597  0.93201401  1
