# generated using pymatgen
data_Li3V3O5F3
_symmetry_space_group_name_H-M   'P 1'
_cell_length_a   6.03176442
_cell_length_b   5.97065618
_cell_length_c   6.02746617
_cell_angle_alpha   60.61796926
_cell_angle_beta   61.17851538
_cell_angle_gamma   58.68102645
_symmetry_Int_Tables_number   1
_chemical_formula_structural   Li3V3O5F3
_chemical_formula_sum   'Li3 V3 O5 F3'
_cell_volume   153.88703171
_cell_formula_units_Z   1
loop_
 _symmetry_equiv_pos_site_id
 _symmetry_equiv_pos_as_xyz
  1  'x, y, z'
loop_
 _atom_site_type_symbol
 _atom_site_label
 _atom_site_symmetry_multiplicity
 _atom_site_fract_x
 _atom_site_fract_y
 _atom_site_fract_z
 _atom_site_occupancy
  Li  Li0  1  0.98840136  0.97795439  0.02355601  1
  Li  Li1  1  0.25273823  0.26888903  0.23271918  1
  Li  Li2  1  0.62926564  0.62192763  0.62407905  1
  V  V3  1  0.64278769  0.14402487  0.60489485  1
  V  V4  1  0.63608976  0.62075179  0.13148957  1
  V  V5  1  0.12319794  0.62451627  0.62435143  1
  O  O6  1  0.84547312  0.37860486  0.38123144  1
  O  O7  1  0.39313265  0.40424853  0.36951767  1
  O  O8  1  0.39027851  0.36057376  0.82966666  1
  O  O9  1  0.84617013  0.88043438  0.42826210  1
  O  O10  1  0.85754306  0.85647789  0.86874423  1
  F  F11  1  0.37204927  0.86064670  0.38399167  1
  F  F12  1  0.87640813  0.38714089  0.87230776  1
  F  F13  1  0.39646451  0.86380800  0.87518737  1
