# generated using pymatgen
data_Cr3(OF)2
_symmetry_space_group_name_H-M   'P 1'
_cell_length_a   6.00770888
_cell_length_b   6.50479856
_cell_length_c   5.58134802
_cell_angle_alpha   90.00000000
_cell_angle_beta   116.87502575
_cell_angle_gamma   90.00000000
_symmetry_Int_Tables_number   1
_chemical_formula_structural   Cr3(OF)2
_chemical_formula_sum   'Cr6 O4 F4'
_cell_volume   194.55575686
_cell_formula_units_Z   2
loop_
 _symmetry_equiv_pos_site_id
 _symmetry_equiv_pos_as_xyz
  1  'x, y, z'
loop_
 _atom_site_type_symbol
 _atom_site_label
 _atom_site_symmetry_multiplicity
 _atom_site_fract_x
 _atom_site_fract_y
 _atom_site_fract_z
 _atom_site_occupancy
  Cr  Cr0  1  0.00000000  0.50000000  0.50000000  1
  Cr  Cr1  1  0.00000000  0.00000000  0.00000000  1
  Cr  Cr2  1  0.46349186  0.12054756  0.75395246  1
  Cr  Cr3  1  0.53650814  0.62054756  0.74604754  1
  Cr  Cr4  1  0.46349186  0.37945244  0.25395246  1
  Cr  Cr5  1  0.53650814  0.87945244  0.24604754  1
  O  O6  1  0.31949763  0.37521186  0.52269122  1
  O  O7  1  0.68050237  0.87521186  0.97730878  1
  O  O8  1  0.31949763  0.12478814  0.02269122  1
  O  O9  1  0.68050237  0.62478814  0.47730878  1
  F  F10  1  0.24354032  0.61748128  0.87052622  1
  F  F11  1  0.24354032  0.88251872  0.37052622  1
  F  F12  1  0.75645968  0.11748128  0.62947378  1
  F  F13  1  0.75645968  0.38251872  0.12947378  1
