# generated using pymatgen
data_LiFePO4
_symmetry_space_group_name_H-M   'P 1'
_cell_length_a   7.65733161
_cell_length_b   7.65299038
_cell_length_c   9.85071934
_cell_angle_alpha   89.94483513
_cell_angle_beta   89.91604484
_cell_angle_gamma   119.76980611
_symmetry_Int_Tables_number   1
_chemical_formula_structural   LiFePO4
_chemical_formula_sum   'Li6 Fe6 P6 O24'
_cell_volume   501.08179882
_cell_formula_units_Z   6
loop_
 _symmetry_equiv_pos_site_id
 _symmetry_equiv_pos_as_xyz
  1  'x, y, z'
loop_
 _atom_site_type_symbol
 _atom_site_label
 _atom_site_symmetry_multiplicity
 _atom_site_fract_x
 _atom_site_fract_y
 _atom_site_fract_z
 _atom_site_occupancy
  Li  Li0  1  0.04606724  0.59295507  0.48360512  1
  Li  Li1  1  0.54692463  0.95430019  0.48377019  1
  Li  Li2  1  0.40660984  0.45283507  0.48369322  1
  Li  Li3  1  0.45289618  0.40661015  0.98342651  1
  Li  Li4  1  0.59293127  0.04611678  0.98354281  1
  Li  Li5  1  0.95426346  0.54690847  0.98379360  1
  Fe  Fe6  1  0.22768160  0.94435466  0.26000642  1
  Fe  Fe7  1  0.05679610  0.28321588  0.25973117  1
  Fe  Fe8  1  0.28272199  0.05647481  0.75961636  1
  Fe  Fe9  1  0.71655378  0.77329676  0.26011747  1
  Fe  Fe10  1  0.77319212  0.71671084  0.76027424  1
  Fe  Fe11  1  0.94400925  0.22759844  0.76004005  1
  P  P12  1  0.33327304  0.66664387  0.17042799  1
  P  P13  1  0.00007618  0.00001643  0.99553744  1
  P  P14  1  0.99996737  0.00005080  0.49545605  1
  P  P15  1  0.33340256  0.66658557  0.76438888  1
  P  P16  1  0.66666619  0.33330707  0.67057807  1
  P  P17  1  0.66651353  0.33337633  0.26442460  1
  O  O18  1  0.08732985  0.86790268  0.44453733  1
  O  O19  1  0.18682398  0.73815639  0.11797066  1
  O  O20  1  0.38411926  0.87704553  0.82230321  1
  O  O21  1  0.12283160  0.50724963  0.82242959  1
  O  O22  1  0.26287912  0.44939615  0.11796877  1
  O  O23  1  0.33287694  0.66653349  0.32760728  1
  O  O24  1  0.99968748  0.99967976  0.15816484  1
  O  O25  1  0.99971153  0.99965377  0.65815221  1
  O  O26  1  0.33355293  0.66670077  0.60817085  1
  O  O27  1  0.13163547  0.21847143  0.44454825  1
  O  O28  1  0.55044805  0.81276266  0.11783334  1
  O  O29  1  0.21831282  0.13159808  0.94445945  1
  O  O30  1  0.49277590  0.61494983  0.82249877  1
  O  O31  1  0.78176557  0.91371464  0.44441140  1
  O  O32  1  0.44953136  0.26273905  0.61811717  1
  O  O33  1  0.50725710  0.12264431  0.32247383  1
  O  O34  1  0.61490787  0.49275433  0.32257222  1
  O  O35  1  0.81274515  0.55061592  0.61783824  1
  O  O36  1  0.66679650  0.33322765  0.82766272  1
  O  O37  1  0.66678340  0.33340637  0.10822661  1
  O  O38  1  0.91373106  0.78148835  0.94442648  1
  O  O39  1  0.73813681  0.18675854  0.61800800  1
  O  O40  1  0.87688021  0.38398397  0.32235534  1
  O  O41  1  0.86793473  0.08720752  0.94461226  1
