# generated using pymatgen
data_LiNiPO4
_symmetry_space_group_name_H-M   'P 1'
_cell_length_a   8.27695034
_cell_length_b   5.05217963
_cell_length_c   7.94703001
_cell_angle_alpha   90.00000000
_cell_angle_beta   90.00000000
_cell_angle_gamma   90.00000000
_symmetry_Int_Tables_number   1
_chemical_formula_structural   LiNiPO4
_chemical_formula_sum   'Li4 Ni4 P4 O16'
_cell_volume   332.31809225
_cell_formula_units_Z   4
loop_
 _symmetry_equiv_pos_site_id
 _symmetry_equiv_pos_as_xyz
  1  'x, y, z'
loop_
 _atom_site_type_symbol
 _atom_site_label
 _atom_site_symmetry_multiplicity
 _atom_site_fract_x
 _atom_site_fract_y
 _atom_site_fract_z
 _atom_site_occupancy
  Li  Li0  1  0.19299515  0.36622228  0.52791362  1
  Li  Li1  1  0.30700485  0.36622228  0.02791362  1
  Li  Li2  1  0.69299515  0.86622228  0.97208638  1
  Li  Li3  1  0.80700485  0.86622228  0.47208638  1
  Ni  Ni4  1  0.05306333  0.96120970  0.83957123  1
  Ni  Ni5  1  0.44693667  0.96120970  0.33957123  1
  Ni  Ni6  1  0.55306333  0.46120970  0.66042877  1
  Ni  Ni7  1  0.94693667  0.46120970  0.16042877  1
  P  P8  1  0.07481682  0.00090074  0.25301430  1
  P  P9  1  0.42518318  0.00090074  0.75301430  1
  P  P10  1  0.57481682  0.50090074  0.24698570  1
  P  P11  1  0.92518318  0.50090074  0.74698570  1
  O  O12  1  0.04483216  0.24880566  0.36243263  1
  O  O13  1  0.07516710  0.31904780  0.74096388  1
  O  O14  1  0.08617810  0.13466803  0.07035424  1
  O  O15  1  0.22468454  0.83850879  0.29514101  1
  O  O16  1  0.27531546  0.83850879  0.79514101  1
  O  O17  1  0.41382190  0.13466803  0.57035424  1
  O  O18  1  0.42483290  0.31904780  0.24096388  1
  O  O19  1  0.45516784  0.24880566  0.86243263  1
  O  O20  1  0.54483216  0.74880566  0.13756737  1
  O  O21  1  0.57516710  0.81904780  0.75903612  1
  O  O22  1  0.58617810  0.63466803  0.42964576  1
  O  O23  1  0.72468454  0.33850879  0.20485899  1
  O  O24  1  0.77531546  0.33850879  0.70485899  1
  O  O25  1  0.91382190  0.63466803  0.92964576  1
  O  O26  1  0.92483290  0.81904780  0.25903612  1
  O  O27  1  0.95516784  0.74880566  0.63756737  1
