# generated using pymatgen
data_LiCo2(PO4)2
_symmetry_space_group_name_H-M   'P 1'
_cell_length_a   8.58448927
_cell_length_b   5.43952400
_cell_length_c   7.84655341
_cell_angle_alpha   90.00000000
_cell_angle_beta   103.51001350
_cell_angle_gamma   90.00000000
_symmetry_Int_Tables_number   1
_chemical_formula_structural   LiCo2(PO4)2
_chemical_formula_sum   'Li2 Co4 P4 O16'
_cell_volume   356.26042443
_cell_formula_units_Z   2
loop_
 _symmetry_equiv_pos_site_id
 _symmetry_equiv_pos_as_xyz
  1  'x, y, z'
loop_
 _atom_site_type_symbol
 _atom_site_label
 _atom_site_symmetry_multiplicity
 _atom_site_fract_x
 _atom_site_fract_y
 _atom_site_fract_z
 _atom_site_occupancy
  Li  Li0  1  0.39577455  0.83262757  0.37034565  1
  Li  Li1  1  0.89577455  0.16737243  0.37034565  1
  Co  Co2  1  0.06818277  0.83666370  0.97000603  1
  Co  Co3  1  0.27605241  0.34467897  0.49287616  1
  Co  Co4  1  0.56818277  0.16333630  0.97000603  1
  Co  Co5  1  0.77605241  0.65532103  0.49287616  1
  P  P6  1  0.02119147  0.66338652  0.25468771  1
  P  P7  1  0.31831907  0.84572545  0.73549088  1
  P  P8  1  0.52119147  0.33661348  0.25468771  1
  P  P9  1  0.81831907  0.15427455  0.73549088  1
  O  O10  1  0.97504187  0.13519557  0.88446877  1
  O  O11  1  0.05974508  0.40086291  0.32671874  1
  O  O12  1  0.18563551  0.72963673  0.81525990  1
  O  O13  1  0.17503275  0.79466522  0.22187554  1
  O  O14  1  0.26901336  0.10529629  0.66853702  1
  O  O15  1  0.34736624  0.67196321  0.58954867  1
  O  O16  1  0.47504187  0.86480443  0.88446877  1
  O  O17  1  0.43874465  0.19238313  0.37778054  1
  O  O18  1  0.41480427  0.32596020  0.06149738  1
  O  O19  1  0.55974508  0.59913709  0.32671874  1
  O  O20  1  0.68563551  0.27036327  0.81525990  1
  O  O21  1  0.67503275  0.20533478  0.22187554  1
  O  O22  1  0.76901336  0.89470371  0.66853702  1
  O  O23  1  0.84736624  0.32803679  0.58954867  1
  O  O24  1  0.93874465  0.80761687  0.37778054  1
  O  O25  1  0.91480427  0.67403980  0.06149738  1
