# generated using pymatgen
data_Li2Fe(Si2O5)3
_symmetry_space_group_name_H-M   'P 1'
_cell_length_a   6.99776202
_cell_length_b   12.70088218
_cell_length_c   7.53827435
_cell_angle_alpha   90.00000000
_cell_angle_beta   111.90856215
_cell_angle_gamma   90.00000000
_symmetry_Int_Tables_number   1
_chemical_formula_structural   Li2Fe(Si2O5)3
_chemical_formula_sum   'Li4 Fe2 Si12 O30'
_cell_volume   621.59890169
_cell_formula_units_Z   2
loop_
 _symmetry_equiv_pos_site_id
 _symmetry_equiv_pos_as_xyz
  1  'x, y, z'
loop_
 _atom_site_type_symbol
 _atom_site_label
 _atom_site_symmetry_multiplicity
 _atom_site_fract_x
 _atom_site_fract_y
 _atom_site_fract_z
 _atom_site_occupancy
  Li  Li0  1  0.14688712  0.33864018  0.45810218  1
  Li  Li1  1  0.17265683  0.17006409  0.16265774  1
  Li  Li2  1  0.82734317  0.67006409  0.83734226  1
  Li  Li3  1  0.85311288  0.83864018  0.54189782  1
  Fe  Fe4  1  0.26292619  0.74992169  0.75187134  1
  Fe  Fe5  1  0.73707381  0.24992169  0.24812866  1
  Si  Si6  1  0.03480874  0.66704787  0.31276805  1
  Si  Si7  1  0.00164446  0.84581616  0.02490859  1
  Si  Si8  1  0.30390054  0.51190155  0.91055613  1
  Si  Si9  1  0.30733178  0.01009673  0.70591229  1
  Si  Si10  1  0.53750468  0.34147481  0.80776531  1
  Si  Si11  1  0.49372549  0.66312930  0.47597578  1
  Si  Si12  1  0.50627451  0.16312930  0.52402422  1
  Si  Si13  1  0.46249532  0.84147481  0.19223469  1
  Si  Si14  1  0.69266822  0.51009673  0.29408771  1
  Si  Si15  1  0.69609946  0.01190155  0.08944387  1
  Si  Si16  1  0.99835554  0.34581616  0.97509141  1
  Si  Si17  1  0.96519126  0.16704787  0.68723195  1
  O  O18  1  0.98237830  0.80801276  0.81404431  1
  O  O19  1  0.06868280  0.23856167  0.88429105  1
  O  O20  1  0.14781172  0.44460125  0.98172276  1
  O  O21  1  0.04166352  0.73634706  0.49510752  1
  O  O22  1  0.09233149  0.05690857  0.71246406  1
  O  O23  1  0.17481531  0.61589986  0.80956949  1
  O  O24  1  0.29153319  0.88560667  0.66201160  1
  O  O25  1  0.26398881  0.63224219  0.32718887  1
  O  O26  1  0.44786640  0.77588751  0.00378041  1
  O  O27  1  0.36634122  0.43763027  0.75906416  1
  O  O28  1  0.23316749  0.88356064  0.16791771  1
  O  O29  1  0.48602392  0.04021630  0.91046817  1
  O  O30  1  0.35004494  0.06810847  0.52908817  1
  O  O31  1  0.51255466  0.68440765  0.69238654  1
  O  O32  1  0.43266394  0.27034776  0.61093734  1
  O  O33  1  0.56733606  0.77034776  0.38906266  1
  O  O34  1  0.48744534  0.18440765  0.30761346  1
  O  O35  1  0.64995506  0.56810847  0.47091183  1
  O  O36  1  0.51397608  0.54021630  0.08953183  1
  O  O37  1  0.76683251  0.38356064  0.83208229  1
  O  O38  1  0.63365878  0.93763027  0.24093584  1
  O  O39  1  0.55213360  0.27588751  0.99621959  1
  O  O40  1  0.73601119  0.13224219  0.67281113  1
  O  O41  1  0.70846681  0.38560667  0.33798840  1
  O  O42  1  0.82518469  0.11589986  0.19043051  1
  O  O43  1  0.90766851  0.55690857  0.28753594  1
  O  O44  1  0.95833648  0.23634706  0.50489248  1
  O  O45  1  0.85218828  0.94460125  0.01827724  1
  O  O46  1  0.93131720  0.73856167  0.11570895  1
  O  O47  1  0.01762170  0.30801276  0.18595569  1
