# generated using pymatgen
data_Li2Mn(SiO3)2
_symmetry_space_group_name_H-M   'P 1'
_cell_length_a   5.41005080
_cell_length_b   7.17997184
_cell_length_c   7.17997162
_cell_angle_alpha   95.32774811
_cell_angle_beta   108.30689310
_cell_angle_gamma   71.69310978
_symmetry_Int_Tables_number   1
_chemical_formula_structural   Li2Mn(SiO3)2
_chemical_formula_sum   'Li4 Mn2 Si4 O12'
_cell_volume   251.37668418
_cell_formula_units_Z   2
loop_
 _symmetry_equiv_pos_site_id
 _symmetry_equiv_pos_as_xyz
  1  'x, y, z'
loop_
 _atom_site_type_symbol
 _atom_site_label
 _atom_site_symmetry_multiplicity
 _atom_site_fract_x
 _atom_site_fract_y
 _atom_site_fract_z
 _atom_site_occupancy
  Li  Li0  1  0.35985432  0.84548807  0.51451504  1
  Li  Li1  1  0.25000000  0.80424996  0.80424996  1
  Li  Li2  1  0.14014768  0.51451604  0.84548907  1
  Li  Li3  1  0.75000000  0.21222330  0.21222330  1
  Mn  Mn4  1  0.75000000  0.89621957  0.89621957  1
  Mn  Mn5  1  0.25000000  0.13030000  0.13030000  1
  Si  Si6  1  0.80187220  0.79209356  0.38192801  1
  Si  Si7  1  0.30134361  0.61165081  0.20829725  1
  Si  Si8  1  0.69812780  0.38192801  0.79209356  1
  Si  Si9  1  0.19865639  0.20829725  0.61165081  1
  O  O10  1  0.66081785  0.96214701  0.21052675  1
  O  O11  1  0.86610230  0.85030661  0.61168848  1
  O  O12  1  0.15930334  0.76063631  0.02127919  1
  O  O13  1  0.58149234  0.66158147  0.34837029  1
  O  O14  1  0.63389770  0.61168848  0.85030661  1
  O  O15  1  0.10511074  0.66447995  0.35525750  1
  O  O16  1  0.91850766  0.34837029  0.66158147  1
  O  O17  1  0.35811302  0.38938435  0.12802653  1
  O  O18  1  0.39488926  0.35525750  0.66447995  1
  O  O19  1  0.83918215  0.21052675  0.96214701  1
  O  O20  1  0.14188698  0.12802653  0.38938435  1
  O  O21  1  0.34069666  0.02127919  0.76063631  1
