# generated using pymatgen
data_LiMn2(PO4)2
_symmetry_space_group_name_H-M   'P 1'
_cell_length_a   8.58860975
_cell_length_b   5.32621868
_cell_length_c   8.25558804
_cell_angle_alpha   90.00000000
_cell_angle_beta   106.58377521
_cell_angle_gamma   90.00000000
_symmetry_Int_Tables_number   1
_chemical_formula_structural   LiMn2(PO4)2
_chemical_formula_sum   'Li2 Mn4 P4 O16'
_cell_volume   361.94138019
_cell_formula_units_Z   2
loop_
 _symmetry_equiv_pos_site_id
 _symmetry_equiv_pos_as_xyz
  1  'x, y, z'
loop_
 _atom_site_type_symbol
 _atom_site_label
 _atom_site_symmetry_multiplicity
 _atom_site_fract_x
 _atom_site_fract_y
 _atom_site_fract_z
 _atom_site_occupancy
  Li  Li0  1  0.28752270  0.33592357  0.50486890  1
  Li  Li1  1  0.78752270  0.66407643  0.50486890  1
  Mn  Mn2  1  0.19827741  0.33075720  0.87296774  1
  Mn  Mn3  1  0.38924963  0.82880687  0.36864959  1
  Mn  Mn4  1  0.69827741  0.66924280  0.87296774  1
  Mn  Mn5  1  0.88924963  0.17119313  0.36864959  1
  P  P6  1  0.01460775  0.66303105  0.24858093  1
  P  P7  1  0.32631085  0.83145628  0.73726791  1
  P  P8  1  0.51460775  0.33696895  0.24858093  1
  P  P9  1  0.82631085  0.16854372  0.73726791  1
  O  O10  1  0.06368609  0.39533074  0.32183236  1
  O  O11  1  0.19502815  0.68698005  0.79292233  1
  O  O12  1  0.26770898  0.10558633  0.68907327  1
  O  O13  1  0.16634201  0.80317630  0.22763961  1
  O  O14  1  0.35232360  0.69113232  0.57798770  1
  O  O15  1  0.48920498  0.82663819  0.87722309  1
  O  O16  1  0.43993078  0.19776878  0.37566415  1
  O  O17  1  0.39269308  0.34099212  0.07332143  1
  O  O18  1  0.56368609  0.60466926  0.32183236  1
  O  O19  1  0.69502815  0.31301995  0.79292233  1
  O  O20  1  0.76770898  0.89441367  0.68907327  1
  O  O21  1  0.66634201  0.19682370  0.22763961  1
  O  O22  1  0.85232360  0.30886768  0.57798770  1
  O  O23  1  0.98920498  0.17336181  0.87722309  1
  O  O24  1  0.93993078  0.80223122  0.37566415  1
  O  O25  1  0.89269308  0.65900788  0.07332143  1
