# generated using pymatgen
data_Li8Cr3SbO12
_symmetry_space_group_name_H-M   'P 1'
_cell_length_a   5.01695881
_cell_length_b   5.04783199
_cell_length_c   8.54451811
_cell_angle_alpha   89.79586406
_cell_angle_beta   90.24777337
_cell_angle_gamma   89.43660981
_symmetry_Int_Tables_number   1
_chemical_formula_structural   Li8Cr3SbO12
_chemical_formula_sum   'Li8 Cr3 Sb1 O12'
_cell_volume   216.37402402
_cell_formula_units_Z   1
loop_
 _symmetry_equiv_pos_site_id
 _symmetry_equiv_pos_as_xyz
  1  'x, y, z'
loop_
 _atom_site_type_symbol
 _atom_site_label
 _atom_site_symmetry_multiplicity
 _atom_site_fract_x
 _atom_site_fract_y
 _atom_site_fract_z
 _atom_site_occupancy
  Li  Li0  1  0.49925074  0.00000795  0.92337440  1
  Li  Li1  1  0.49892038  0.49658959  0.75333330  1
  Li  Li2  1  0.50051256  0.50048136  0.06794047  1
  Li  Li3  1  0.99790570  0.50061902  0.72233168  1
  Li  Li4  1  0.00420286  0.50282303  0.42097361  1
  Li  Li5  1  0.49984918  0.99643142  0.23134046  1
  Li  Li6  1  0.99964798  0.99605121  0.25887106  1
  Li  Li7  1  0.99602494  0.00643176  0.55922962  1
  Cr  Cr8  1  0.50670400  0.49669183  0.39841903  1
  Cr  Cr9  1  0.49715375  0.99367735  0.57122683  1
  Cr  Cr10  1  0.00123519  0.50056654  0.09247279  1
  Sb  Sb11  1  0.99965000  0.00177717  0.90269329  1
  O  O12  1  0.74559221  0.85507727  0.74118009  1
  O  O13  1  0.77625438  0.83155597  0.07250051  1
  O  O14  1  0.72133691  0.82524462  0.41899158  1
  O  O15  1  0.28915357  0.67547309  0.56453694  1
  O  O16  1  0.22183633  0.67111136  0.91699654  1
  O  O17  1  0.25885066  0.64883441  0.24992056  1
  O  O18  1  0.74326124  0.35155693  0.24795210  1
  O  O19  1  0.77649487  0.33126765  0.91756123  1
  O  O20  1  0.71193776  0.32553168  0.56575490  1
  O  O21  1  0.28260124  0.17219693  0.42216430  1
  O  O22  1  0.22487794  0.16940821  0.07321621  1
  O  O23  1  0.24670362  0.15043366  0.74093250  1
