# generated using pymatgen
data_Li4Fe2Co3Te3O16
_symmetry_space_group_name_H-M   'P 1'
_cell_length_a   6.18392063
_cell_length_b   6.19817685
_cell_length_c   9.72331077
_cell_angle_alpha   89.45008917
_cell_angle_beta   91.24133280
_cell_angle_gamma   119.88415072
_symmetry_Int_Tables_number   1
_chemical_formula_structural   Li4Fe2Co3Te3O16
_chemical_formula_sum   'Li4 Fe2 Co3 Te3 O16'
_cell_volume   323.05474381
_cell_formula_units_Z   1
loop_
 _symmetry_equiv_pos_site_id
 _symmetry_equiv_pos_as_xyz
  1  'x, y, z'
loop_
 _atom_site_type_symbol
 _atom_site_label
 _atom_site_symmetry_multiplicity
 _atom_site_fract_x
 _atom_site_fract_y
 _atom_site_fract_z
 _atom_site_occupancy
  Li  Li0  1  0.32462548  0.66441546  0.87908762  1
  Li  Li1  1  0.96858631  0.98497337  0.98742483  1
  Li  Li2  1  0.97955914  0.98212548  0.50783942  1
  Li  Li3  1  0.64942501  0.33505229  0.40223950  1
  Fe  Fe4  1  0.36573366  0.68565513  0.50948833  1
  Fe  Fe5  1  0.70400593  0.33246038  0.97084570  1
  Co  Co6  1  0.66218894  0.84077126  0.21239605  1
  Co  Co7  1  0.83899462  0.66316628  0.71567222  1
  Co  Co8  1  0.83877512  0.17519337  0.71179584  1
  Te  Te9  1  0.16450288  0.82962627  0.21650176  1
  Te  Te10  1  0.17445992  0.34080451  0.21882295  1
  Te  Te11  1  0.34679187  0.17407682  0.71430189  1
  O  O12  1  0.19467516  0.86581496  0.59870691  1
  O  O13  1  0.02930695  0.53869543  0.34326206  1
  O  O14  1  0.31746141  0.68286226  0.10096614  1
  O  O15  1  0.00594953  0.97726647  0.32151433  1
  O  O16  1  0.02669595  0.01196581  0.80491569  1
  O  O17  1  0.19060469  0.32885456  0.59555221  1
  O  O18  1  0.46200021  0.96326157  0.33436512  1
  O  O19  1  0.47897480  0.52567741  0.34231258  1
  O  O20  1  0.30929604  0.13008206  0.10225650  1
  O  O21  1  0.67421899  0.83988210  0.59854918  1
  O  O22  1  0.49963803  0.45702653  0.84472415  1
  O  O23  1  0.50194718  0.03485897  0.83761603  1
  O  O24  1  0.64912075  0.32896176  0.60601460  1
  O  O25  1  0.85779109  0.67952769  0.10358985  1
  O  O26  1  0.96689845  0.48019332  0.83974394  1
  O  O27  1  0.81777285  0.14704848  0.08733561  1
