# generated using pymatgen
data_LiVSiO4
_symmetry_space_group_name_H-M   'P 1'
_cell_length_a   5.23340619
_cell_length_b   5.23311597
_cell_length_c   9.55708491
_cell_angle_alpha   89.97218347
_cell_angle_beta   89.99774048
_cell_angle_gamma   119.99463769
_symmetry_Int_Tables_number   1
_chemical_formula_structural   LiVSiO4
_chemical_formula_sum   'Li2 V2 Si2 O8'
_cell_volume   226.68577553
_cell_formula_units_Z   2
loop_
 _symmetry_equiv_pos_site_id
 _symmetry_equiv_pos_as_xyz
  1  'x, y, z'
loop_
 _atom_site_type_symbol
 _atom_site_label
 _atom_site_symmetry_multiplicity
 _atom_site_fract_x
 _atom_site_fract_y
 _atom_site_fract_z
 _atom_site_occupancy
  Li  Li0  1  0.00002400  0.99993371  0.21813372  1
  Li  Li1  1  0.99961837  0.99987971  0.71770893  1
  V  V2  1  0.33353074  0.66672037  0.12582814  1
  V  V3  1  0.66659154  0.33333784  0.62585123  1
  Si  Si4  1  0.33316022  0.66665646  0.76188375  1
  Si  Si5  1  0.66681750  0.33331556  0.26187063  1
  O  O6  1  0.03013799  0.37472993  0.70444924  1
  O  O7  1  0.34384769  0.96930383  0.70392647  1
  O  O8  1  0.33420586  0.66698372  0.93167963  1
  O  O9  1  0.37482872  0.34423072  0.20427995  1
  O  O10  1  0.62478710  0.65576100  0.70369676  1
  O  O11  1  0.66771711  0.33357890  0.43169962  1
  O  O12  1  0.65573555  0.03049580  0.20409518  1
  O  O13  1  0.96929760  0.62507245  0.20371674  1
