# generated using pymatgen
data_Nb4VO12
_symmetry_space_group_name_H-M   'P 1'
_cell_length_a   5.65434177
_cell_length_b   11.30889553
_cell_length_c   10.02552844
_cell_angle_alpha   27.19745842
_cell_angle_beta   50.54449475
_cell_angle_gamma   55.50756355
_symmetry_Int_Tables_number   1
_chemical_formula_structural   Nb4VO12
_chemical_formula_sum   'Nb4 V1 O12'
_cell_volume   226.23672678
_cell_formula_units_Z   1
loop_
 _symmetry_equiv_pos_site_id
 _symmetry_equiv_pos_as_xyz
  1  'x, y, z'
loop_
 _atom_site_type_symbol
 _atom_site_label
 _atom_site_symmetry_multiplicity
 _atom_site_fract_x
 _atom_site_fract_y
 _atom_site_fract_z
 _atom_site_occupancy
  Nb  Nb0  1  0.02447037  0.01886529  0.96361982  1
  Nb  Nb1  1  0.96337713  0.49569218  0.01361563  1
  Nb  Nb2  1  0.50210367  0.99692728  0.50523093  1
  Nb  Nb3  1  0.51591796  0.51246685  0.46623821  1
  V  V4  1  0.32043873  0.98599866  0.29525201  1
  O  O5  1  0.32034290  0.26731786  0.15319254  1
  O  O6  1  0.23525671  0.11417227  0.61566455  1
  O  O7  1  0.12317963  0.30919304  0.73184105  1
  O  O8  1  0.89004999  0.17013981  0.23592795  1
  O  O9  1  0.33274255  0.80114418  0.13679795  1
  O  O10  1  0.73775079  0.38802934  0.35023495  1
  O  O11  1  0.23055420  0.67582863  0.56403519  1
  O  O12  1  0.56363161  0.18866860  0.88511188  1
  O  O13  1  0.14641344  0.80018693  0.71703253  1
  O  O14  1  0.83456818  0.69615374  0.23696473  1
  O  O15  1  0.69875186  0.90343240  0.32889303  1
  O  O16  1  0.61974930  0.67578194  0.85964606  1
