# generated using pymatgen
data_Li3VPCO7
_symmetry_space_group_name_H-M   'P 1'
_cell_length_a   8.52531410
_cell_length_b   9.96286363
_cell_length_c   6.62183024
_cell_angle_alpha   89.64270959
_cell_angle_beta   90.34608439
_cell_angle_gamma   84.59616035
_symmetry_Int_Tables_number   1
_chemical_formula_structural   Li3VPCO7
_chemical_formula_sum   'Li12 V4 P4 C4 O28'
_cell_volume   559.91240988
_cell_formula_units_Z   4
loop_
 _symmetry_equiv_pos_site_id
 _symmetry_equiv_pos_as_xyz
  1  'x, y, z'
loop_
 _atom_site_type_symbol
 _atom_site_label
 _atom_site_symmetry_multiplicity
 _atom_site_fract_x
 _atom_site_fract_y
 _atom_site_fract_z
 _atom_site_occupancy
  Li  Li0  1  0.10210891  0.39252767  0.26001518  1
  Li  Li1  1  0.09559026  0.88102358  0.25550466  1
  Li  Li2  1  0.28012665  0.13378524  0.48314119  1
  Li  Li3  1  0.27772989  0.61173373  0.00998100  1
  Li  Li4  1  0.27930652  0.61257132  0.48521630  1
  Li  Li5  1  0.34575579  0.40023436  0.74463907  1
  Li  Li6  1  0.71636597  0.37737589  0.53580624  1
  Li  Li7  1  0.71625750  0.37666257  0.96482588  1
  Li  Li8  1  0.71848753  0.87265346  0.53043065  1
  Li  Li9  1  0.72057758  0.87226531  0.97097659  1
  Li  Li10  1  0.90322635  0.11541457  0.74856437  1
  Li  Li11  1  0.89774194  0.61312833  0.74915016  1
  V  V12  1  0.27397114  0.14563998  0.00809823  1
  V  V13  1  0.32991160  0.89208997  0.74547930  1
  V  V14  1  0.67255727  0.10273800  0.25079481  1
  V  V15  1  0.67081007  0.60375990  0.24925298  1
  P  P16  1  0.40907431  0.36092692  0.25080341  1
  P  P17  1  0.41102994  0.86191925  0.24931606  1
  P  P18  1  0.59274007  0.14060726  0.74981251  1
  P  P19  1  0.58598736  0.63896951  0.74954152  1
  C  C20  1  0.03602928  0.34973806  0.75365414  1
  C  C21  1  0.03517450  0.84684336  0.75114384  1
  C  C22  1  0.96327754  0.15450689  0.25215970  1
  C  C23  1  0.96497233  0.65217379  0.24964612  1
  O  O24  1  0.06891737  0.47175766  0.74833643  1
  O  O25  1  0.10928524  0.18603115  0.25371281  1
  O  O26  1  0.07411255  0.97078904  0.74981214  1
  O  O27  1  0.15007210  0.25066600  0.75985787  1
  O  O28  1  0.11141306  0.67800659  0.24903683  1
  O  O29  1  0.14959384  0.75054783  0.75128740  1
  O  O30  1  0.30777859  0.40371169  0.06091763  1
  O  O31  1  0.30963745  0.40761411  0.43569371  1
  O  O32  1  0.31058779  0.92244531  0.06440948  1
  O  O33  1  0.30614456  0.91437858  0.42923995  1
  O  O34  1  0.42477970  0.08831232  0.74931892  1
  O  O35  1  0.43188901  0.19991752  0.24952189  1
  O  O36  1  0.42145265  0.58904321  0.74899316  1
  O  O37  1  0.42927361  0.70543360  0.24266136  1
  O  O38  1  0.57131256  0.29570207  0.74973951  1
  O  O39  1  0.57538560  0.41001726  0.24965158  1
  O  O40  1  0.56948537  0.79754545  0.74915642  1
  O  O41  1  0.57730413  0.91136616  0.25328158  1
  O  O42  1  0.69308090  0.08326863  0.93350870  1
  O  O43  1  0.69149263  0.08362614  0.56781630  1
  O  O44  1  0.68997259  0.58768327  0.56758460  1
  O  O45  1  0.69130107  0.58648028  0.93211718  1
  O  O46  1  0.84872934  0.24915193  0.25319138  1
  O  O47  1  0.89042703  0.31727999  0.75078573  1
  O  O48  1  0.85164626  0.75007114  0.24876690  1
  O  O49  1  0.93053433  0.03039261  0.25093384  1
  O  O50  1  0.89008959  0.81995059  0.75128537  1
  O  O51  1  0.92549178  0.52952394  0.25142441  1
