# generated using pymatgen
data_Mn3CrTe2(PO4)6
_symmetry_space_group_name_H-M   'P 1'
_cell_length_a   8.78284288
_cell_length_b   8.78284328
_cell_length_c   8.78284261
_cell_angle_alpha   60.29346770
_cell_angle_beta   60.29347010
_cell_angle_gamma   60.29347185
_symmetry_Int_Tables_number   1
_chemical_formula_structural   Mn3CrTe2(PO4)6
_chemical_formula_sum   'Mn3 Cr1 Te2 P6 O24'
_cell_volume   482.24205655
_cell_formula_units_Z   1
loop_
 _symmetry_equiv_pos_site_id
 _symmetry_equiv_pos_as_xyz
  1  'x, y, z'
loop_
 _atom_site_type_symbol
 _atom_site_label
 _atom_site_symmetry_multiplicity
 _atom_site_fract_x
 _atom_site_fract_y
 _atom_site_fract_z
 _atom_site_occupancy
  Mn  Mn0  1  0.15502051  0.15502051  0.15502051  1
  Mn  Mn1  1  0.34621581  0.34621581  0.34621581  1
  Mn  Mn2  1  0.65068779  0.65068779  0.65068779  1
  Cr  Cr3  1  0.85433835  0.85433835  0.85433835  1
  Te  Te4  1  0.00732575  0.00732575  0.00732575  1
  Te  Te5  1  0.50065910  0.50065910  0.50065910  1
  P  P6  1  0.04373692  0.75003170  0.45815195  1
  P  P7  1  0.45815195  0.04373692  0.75003170  1
  P  P8  1  0.75003170  0.45815195  0.04373692  1
  P  P9  1  0.24677809  0.55290764  0.94685238  1
  P  P10  1  0.55290764  0.94685238  0.24677809  1
  P  P11  1  0.94685238  0.24677809  0.55290764  1
  O  O12  1  0.09419282  0.30756632  0.52576984  1
  O  O13  1  0.30756632  0.52576984  0.09419282  1
  O  O14  1  0.06466964  0.91195438  0.25556179  1
  O  O15  1  0.52576984  0.09419282  0.30756632  1
  O  O16  1  0.24387789  0.59875376  0.43431469  1
  O  O17  1  0.99951595  0.82000349  0.60678366  1
  O  O18  1  0.25556179  0.06466964  0.91195438  1
  O  O19  1  0.43431469  0.24387789  0.59875376  1
  O  O20  1  0.59875376  0.43431469  0.24387789  1
  O  O21  1  0.18939769  0.39969751  0.97955441  1
  O  O22  1  0.08709497  0.74870318  0.92242536  1
  O  O23  1  0.39969751  0.97955441  0.18939769  1
  O  O24  1  0.60678366  0.99951595  0.82000349  1
  O  O25  1  0.91195438  0.25556179  0.06466964  1
  O  O26  1  0.82000349  0.60678366  0.99951595  1
  O  O27  1  0.40539966  0.57527389  0.74765619  1
  O  O28  1  0.57527389  0.74765619  0.40539966  1
  O  O29  1  0.74870318  0.92242536  0.08709497  1
  O  O30  1  0.97955441  0.18939769  0.39969751  1
  O  O31  1  0.74765619  0.40539966  0.57527389  1
  O  O32  1  0.48506033  0.90042740  0.68363818  1
  O  O33  1  0.92242536  0.08709497  0.74870318  1
  O  O34  1  0.68363818  0.48506033  0.90042740  1
  O  O35  1  0.90042740  0.68363818  0.48506033  1
