# generated using pymatgen
data_Li2Mn(BO3)2
_symmetry_space_group_name_H-M   'P 1'
_cell_length_a   5.22209519
_cell_length_b   8.49218682
_cell_length_c   9.87861428
_cell_angle_alpha   90.00000000
_cell_angle_beta   94.17664753
_cell_angle_gamma   90.00000000
_symmetry_Int_Tables_number   1
_chemical_formula_structural   Li2Mn(BO3)2
_chemical_formula_sum   'Li8 Mn4 B8 O24'
_cell_volume   436.92353428
_cell_formula_units_Z   4
loop_
 _symmetry_equiv_pos_site_id
 _symmetry_equiv_pos_as_xyz
  1  'x, y, z'
loop_
 _atom_site_type_symbol
 _atom_site_label
 _atom_site_symmetry_multiplicity
 _atom_site_fract_x
 _atom_site_fract_y
 _atom_site_fract_z
 _atom_site_occupancy
  Li  Li0  1  0.18743124  0.67010949  0.62381452  1
  Li  Li1  1  0.17856442  0.96240158  0.12351985  1
  Li  Li2  1  0.31256876  0.17010949  0.87618548  1
  Li  Li3  1  0.32143558  0.46240158  0.37648015  1
  Li  Li4  1  0.67856442  0.53759842  0.62351985  1
  Li  Li5  1  0.68743124  0.82989051  0.12381452  1
  Li  Li6  1  0.82143558  0.03759842  0.87648015  1
  Li  Li7  1  0.81256876  0.32989051  0.37618548  1
  Mn  Mn8  1  0.09185307  0.28623313  0.12862762  1
  Mn  Mn9  1  0.40814693  0.78623313  0.37137238  1
  Mn  Mn10  1  0.59185307  0.21376687  0.62862762  1
  Mn  Mn11  1  0.90814693  0.71376687  0.87137238  1
  B  B12  1  0.15699124  0.30629197  0.61988818  1
  B  B13  1  0.17613897  0.63357706  0.13054647  1
  B  B14  1  0.34300876  0.80629197  0.88011182  1
  B  B15  1  0.32386103  0.13357706  0.36945353  1
  B  B16  1  0.67613897  0.86642294  0.63054647  1
  B  B17  1  0.65699124  0.19370803  0.11988818  1
  B  B18  1  0.82386103  0.36642294  0.86945353  1
  B  B19  1  0.84300876  0.69370803  0.38011182  1
  O  O20  1  0.05239619  0.32001658  0.93786082  1
  O  O21  1  0.09719504  0.65740723  0.40544745  1
  O  O22  1  0.14276904  0.90928442  0.90328095  1
  O  O23  1  0.25117445  0.65978605  0.83642429  1
  O  O24  1  0.15584669  0.25414599  0.32392822  1
  O  O25  1  0.25523646  0.98396779  0.33480964  1
  O  O26  1  0.24882555  0.15978605  0.66357571  1
  O  O27  1  0.35723096  0.40928442  0.59671905  1
  O  O28  1  0.24476354  0.48396779  0.16519036  1
  O  O29  1  0.34415331  0.75414599  0.17607178  1
  O  O30  1  0.44760381  0.82001658  0.56213918  1
  O  O31  1  0.40280496  0.15740723  0.09455255  1
  O  O32  1  0.59719504  0.84259277  0.90544745  1
  O  O33  1  0.55239619  0.17998342  0.43786082  1
  O  O34  1  0.65584669  0.24585401  0.82392822  1
  O  O35  1  0.75523646  0.51603221  0.83480964  1
  O  O36  1  0.64276904  0.59071558  0.40328095  1
  O  O37  1  0.75117445  0.84021395  0.33642429  1
  O  O38  1  0.74476354  0.01603221  0.66519036  1
  O  O39  1  0.84415331  0.74585401  0.67607178  1
  O  O40  1  0.74882555  0.34021395  0.16357571  1
  O  O41  1  0.85723096  0.09071558  0.09671905  1
  O  O42  1  0.90280496  0.34259277  0.59455255  1
  O  O43  1  0.94760381  0.67998342  0.06213918  1
