# generated using pymatgen
data_Li2MnF5
_symmetry_space_group_name_H-M   'P 1'
_cell_length_a   6.13986269
_cell_length_b   5.72811716
_cell_length_c   11.44669622
_cell_angle_alpha   90.00000000
_cell_angle_beta   90.00000000
_cell_angle_gamma   84.12900663
_symmetry_Int_Tables_number   1
_chemical_formula_structural   Li2MnF5
_chemical_formula_sum   'Li8 Mn4 F20'
_cell_volume   400.46698772
_cell_formula_units_Z   4
loop_
 _symmetry_equiv_pos_site_id
 _symmetry_equiv_pos_as_xyz
  1  'x, y, z'
loop_
 _atom_site_type_symbol
 _atom_site_label
 _atom_site_symmetry_multiplicity
 _atom_site_fract_x
 _atom_site_fract_y
 _atom_site_fract_z
 _atom_site_occupancy
  Li  Li0  1  0.00592870  0.13275053  0.32627220  1
  Li  Li1  1  0.18245645  0.33820790  0.85521026  1
  Li  Li2  1  0.33415616  0.50492981  0.63447151  1
  Li  Li3  1  0.32720613  0.97050237  0.58727134  1
  Li  Li4  1  0.67279387  0.02949763  0.08727134  1
  Li  Li5  1  0.66584384  0.49507119  0.13447151  1
  Li  Li6  1  0.81754355  0.66179210  0.35521026  1
  Li  Li7  1  0.99407130  0.86724947  0.82627220  1
  Mn  Mn8  1  0.14021308  0.44864744  0.12592272  1
  Mn  Mn9  1  0.50375360  0.84736164  0.86807125  1
  Mn  Mn10  1  0.49624640  0.15263836  0.36807125  1
  Mn  Mn11  1  0.85978692  0.55135256  0.62592272  1
  F  F12  1  0.92404851  0.68097933  0.18781583  1
  F  F13  1  0.09593259  0.78239910  0.64137052  1
  F  F14  1  0.04940763  0.53362874  0.97714216  1
  F  F15  1  0.21238170  0.36774471  0.28177985  1
  F  F16  1  0.26606191  0.97191304  0.41462992  1
  F  F17  1  0.20313999  0.02489692  0.90216740  1
  F  F18  1  0.35903802  0.58471166  0.80721143  1
  F  F19  1  0.51554416  0.97944688  0.23068007  1
  F  F20  1  0.58268932  0.68342659  0.57468875  1
  F  F21  1  0.53210167  0.73199713  0.02226280  1
  F  F22  1  0.46789833  0.26800287  0.52226280  1
  F  F23  1  0.41731068  0.31657341  0.07468875  1
  F  F24  1  0.48445584  0.02055312  0.73068007  1
  F  F25  1  0.64096198  0.41528834  0.30721143  1
  F  F26  1  0.79686001  0.97510308  0.40216740  1
  F  F27  1  0.73393809  0.02808696  0.91462992  1
  F  F28  1  0.78761830  0.63225529  0.78177985  1
  F  F29  1  0.95059237  0.46637126  0.47714216  1
  F  F30  1  0.90406741  0.21760090  0.14137052  1
  F  F31  1  0.07595149  0.31902067  0.68781583  1
