# generated using pymatgen
data_Li2MnFe3O8
_symmetry_space_group_name_H-M   'P 1'
_cell_length_a   5.91143868
_cell_length_b   5.91143780
_cell_length_c   5.96384502
_cell_angle_alpha   60.71833123
_cell_angle_beta   90.14997897
_cell_angle_gamma   120.61063511
_symmetry_Int_Tables_number   1
_chemical_formula_structural   Li2MnFe3O8
_chemical_formula_sum   'Li2 Mn1 Fe3 O8'
_cell_volume   147.77655878
_cell_formula_units_Z   1
loop_
 _symmetry_equiv_pos_site_id
 _symmetry_equiv_pos_as_xyz
  1  'x, y, z'
loop_
 _atom_site_type_symbol
 _atom_site_label
 _atom_site_symmetry_multiplicity
 _atom_site_fract_x
 _atom_site_fract_y
 _atom_site_fract_z
 _atom_site_occupancy
  Li  Li0  1  0.50000000  0.50000000  0.50000000  1
  Li  Li1  1  0.00000000  0.00000000  0.50000000  1
  Mn  Mn2  1  0.99999900  0.00000000  0.00000000  1
  Fe  Fe3  1  0.00000000  0.50000000  0.00000000  1
  Fe  Fe4  1  0.50000000  0.50000100  0.00000000  1
  Fe  Fe5  1  0.50000100  0.00000000  0.99999900  1
  O  O6  1  0.75294665  0.53672413  0.20693439  1
  O  O7  1  0.27043135  0.51710421  0.21246444  1
  O  O8  1  0.25634248  0.04011896  0.20693539  1
  O  O9  1  0.77082239  0.01594571  0.21323190  1
  O  O10  1  0.22917761  0.98405429  0.78676810  1
  O  O11  1  0.74365752  0.95988004  0.79306461  1
  O  O12  1  0.72956965  0.48289579  0.78753556  1
  O  O13  1  0.24705335  0.46327687  0.79306561  1
