# generated using pymatgen
data_Li4FeNi5(PO4)6
_symmetry_space_group_name_H-M   'P 1'
_cell_length_a   8.33095680
_cell_length_b   8.81228352
_cell_length_c   8.80264899
_cell_angle_alpha   60.03924244
_cell_angle_beta   58.71870857
_cell_angle_gamma   58.56852706
_symmetry_Int_Tables_number   1
_chemical_formula_structural   Li4FeNi5(PO4)6
_chemical_formula_sum   'Li4 Fe1 Ni5 P6 O24'
_cell_volume   447.49519469
_cell_formula_units_Z   1
loop_
 _symmetry_equiv_pos_site_id
 _symmetry_equiv_pos_as_xyz
  1  'x, y, z'
loop_
 _atom_site_type_symbol
 _atom_site_label
 _atom_site_symmetry_multiplicity
 _atom_site_fract_x
 _atom_site_fract_y
 _atom_site_fract_z
 _atom_site_occupancy
  Li  Li0  1  0.24916295  0.85442013  0.64386318  1
  Li  Li1  1  0.76402909  0.14576251  0.35471060  1
  Li  Li2  1  0.76319485  0.73626623  0.14515929  1
  Li  Li3  1  0.76441158  0.35539033  0.73494430  1
  Fe  Fe4  1  0.55211468  0.15056830  0.14831891  1
  Ni  Ni5  1  0.00726963  0.99756772  0.00301171  1
  Ni  Ni6  1  0.07109596  0.64363286  0.64322982  1
  Ni  Ni7  1  0.49489280  0.49749625  0.50114094  1
  Ni  Ni8  1  0.43201528  0.85553908  0.85501591  1
  Ni  Ni9  1  0.94044696  0.35350741  0.35153972  1
  P  P10  1  0.24868047  0.25312994  0.55416191  1
  P  P11  1  0.24606982  0.94792877  0.24854587  1
  P  P12  1  0.24597918  0.55523285  0.94800545  1
  P  P13  1  0.75024717  0.45231189  0.04678396  1
  P  P14  1  0.75703034  0.04568515  0.74968019  1
  P  P15  1  0.74274623  0.75127606  0.45390995  1
  O  O16  1  0.05260258  0.10409596  0.31596328  1
  O  O17  1  0.05257359  0.52531143  0.10221512  1
  O  O18  1  0.05290460  0.32150137  0.52374976  1
  O  O19  1  0.22367265  0.08800473  0.74198558  1
  O  O20  1  0.43665586  0.18421811  0.39208577  1
  O  O21  1  0.28053464  0.40169767  0.56857954  1
  O  O22  1  0.22464300  0.92764261  0.09634398  1
  O  O23  1  0.28129979  0.75938084  0.41036948  1
  O  O24  1  0.56046022  0.60786693  0.01151832  1
  O  O25  1  0.28358401  0.57120802  0.74825825  1
  O  O26  1  0.77504439  0.25087127  0.07062544  1
  O  O27  1  0.57762930  0.99945303  0.81241252  1
  O  O28  1  0.43627318  0.99191744  0.17730575  1
  O  O29  1  0.21932111  0.75373077  0.92563662  1
  O  O30  1  0.72196879  0.43193939  0.24687344  1
  O  O31  1  0.43624692  0.39553339  0.98878120  1
  O  O32  1  0.72536454  0.24596614  0.59705714  1
  O  O33  1  0.77351503  0.07471363  0.90551483  1
  O  O34  1  0.72403146  0.59682216  0.42783908  1
  O  O35  1  0.54241041  0.81698825  0.60377442  1
  O  O36  1  0.77195030  0.90542979  0.25198008  1
  O  O37  1  0.92258283  0.69024574  0.49876277  1
  O  O38  1  0.93777538  0.48775843  0.89112467  1
  O  O39  1  0.95756543  0.89498840  0.68622225  1
