# generated using pymatgen
data_KRbMg30O31
_symmetry_space_group_name_H-M   'P 1'
_cell_length_a   8.54488396
_cell_length_b   8.71697041
_cell_length_c   8.73772403
_cell_angle_alpha   90.00000000
_cell_angle_beta   90.00000000
_cell_angle_gamma   90.00000000
_symmetry_Int_Tables_number   1
_chemical_formula_structural   KRbMg30O31
_chemical_formula_sum   'K1 Rb1 Mg30 O31'
_cell_volume   650.83374880
_cell_formula_units_Z   1
loop_
 _symmetry_equiv_pos_site_id
 _symmetry_equiv_pos_as_xyz
  1  'x, y, z'
loop_
 _atom_site_type_symbol
 _atom_site_label
 _atom_site_symmetry_multiplicity
 _atom_site_fract_x
 _atom_site_fract_y
 _atom_site_fract_z
 _atom_site_occupancy
  K  K0  1  0.99294835  -0.00000000  -0.00000000  1
  Rb  Rb1  1  0.12023876  -0.00000000  0.50000000  1
  Mg  Mg2  1  0.99280516  0.50000000  -0.00000000  1
  Mg  Mg3  1  0.98974921  0.50000000  0.50000000  1
  Mg  Mg4  1  0.49999074  -0.00000000  -0.00000000  1
  Mg  Mg5  1  0.51738056  -0.00000000  0.50000000  1
  Mg  Mg6  1  0.50049317  0.50000000  -0.00000000  1
  Mg  Mg7  1  0.50525776  0.50000000  0.50000000  1
  Mg  Mg8  1  0.99644147  0.25195362  0.25115604  1
  Mg  Mg9  1  0.99644147  0.25195362  0.74884396  1
  Mg  Mg10  1  0.99644147  0.74804638  0.25115604  1
  Mg  Mg11  1  0.99644147  0.74804638  0.74884396  1
  Mg  Mg12  1  0.49820101  0.24807603  0.25200379  1
  Mg  Mg13  1  0.49820101  0.24807603  0.74799621  1
  Mg  Mg14  1  0.49820101  0.75192397  0.25200379  1
  Mg  Mg15  1  0.49820101  0.75192397  0.74799621  1
  Mg  Mg16  1  0.24752623  -0.00000000  0.21867567  1
  Mg  Mg17  1  0.24752623  -0.00000000  0.78132433  1
  Mg  Mg18  1  0.24706225  0.50000000  0.24478730  1
  Mg  Mg19  1  0.24706225  0.50000000  0.75521270  1
  Mg  Mg20  1  0.75698212  -0.00000000  0.25734348  1
  Mg  Mg21  1  0.75698212  -0.00000000  0.74265652  1
  Mg  Mg22  1  0.74751083  0.50000000  0.25008130  1
  Mg  Mg23  1  0.74751083  0.50000000  0.74991870  1
  Mg  Mg24  1  0.24778613  0.25860409  -0.00000000  1
  Mg  Mg25  1  0.24954238  0.28188937  0.50000000  1
  Mg  Mg26  1  0.24778613  0.74139591  -0.00000000  1
  Mg  Mg27  1  0.24954238  0.71811063  0.50000000  1
  Mg  Mg28  1  0.74604097  0.24958992  -0.00000000  1
  Mg  Mg29  1  0.75894903  0.24314561  0.50000000  1
  Mg  Mg30  1  0.74604097  0.75041008  -0.00000000  1
  Mg  Mg31  1  0.75894903  0.75685439  0.50000000  1
  O  O32  1  0.27339528  -0.00000000  -0.00000000  1
  O  O33  1  0.25410281  0.50000000  -0.00000000  1
  O  O34  1  0.25738484  0.50000000  0.50000000  1
  O  O35  1  0.72195777  -0.00000000  -0.00000000  1
  O  O36  1  0.74376218  -0.00000000  0.50000000  1
  O  O37  1  0.74244722  0.50000000  -0.00000000  1
  O  O38  1  0.74356598  0.50000000  0.50000000  1
  O  O39  1  0.24722866  0.24616525  0.25454437  1
  O  O40  1  0.24722866  0.24616525  0.74545563  1
  O  O41  1  0.24722866  0.75383475  0.25454437  1
  O  O42  1  0.24722866  0.75383475  0.74545563  1
  O  O43  1  0.74679125  0.24907493  0.25183024  1
  O  O44  1  0.74679125  0.24907493  0.74816976  1
  O  O45  1  0.74679125  0.75092507  0.25183024  1
  O  O46  1  0.74679125  0.75092507  0.74816976  1
  O  O47  1  0.99872207  -0.00000000  0.26095924  1
  O  O48  1  0.99872207  -0.00000000  0.73904076  1
  O  O49  1  0.99888332  0.50000000  0.25166009  1
  O  O50  1  0.99888332  0.50000000  0.74833991  1
  O  O51  1  0.48637892  -0.00000000  0.26291342  1
  O  O52  1  0.48637892  -0.00000000  0.73708658  1
  O  O53  1  0.49633261  0.50000000  0.25269926  1
  O  O54  1  0.49633261  0.50000000  0.74730074  1
  O  O55  1  0.00012740  0.27448062  -0.00000000  1
  O  O56  1  0.00320409  0.27133368  0.50000000  1
  O  O57  1  0.00012740  0.72551938  -0.00000000  1
  O  O58  1  0.00320409  0.72866632  0.50000000  1
  O  O59  1  0.49536244  0.25362866  -0.00000000  1
  O  O60  1  0.48952353  0.24442102  0.50000000  1
  O  O61  1  0.49536244  0.74637134  -0.00000000  1
  O  O62  1  0.48952353  0.75557898  0.50000000  1
