# generated using pymatgen
data_Li4Ti3Ni2Sn3O16
_symmetry_space_group_name_H-M   'P 1'
_cell_length_a   6.11114946
_cell_length_b   6.08838554
_cell_length_c   9.74967684
_cell_angle_alpha   89.99946508
_cell_angle_beta   89.57919711
_cell_angle_gamma   119.87693601
_symmetry_Int_Tables_number   1
_chemical_formula_structural   Li4Ti3Ni2Sn3O16
_chemical_formula_sum   'Li4 Ti3 Ni2 Sn3 O16'
_cell_volume   314.53394919
_cell_formula_units_Z   1
loop_
 _symmetry_equiv_pos_site_id
 _symmetry_equiv_pos_as_xyz
  1  'x, y, z'
loop_
 _atom_site_type_symbol
 _atom_site_label
 _atom_site_symmetry_multiplicity
 _atom_site_fract_x
 _atom_site_fract_y
 _atom_site_fract_z
 _atom_site_occupancy
  Li  Li0  1  0.33696007  0.66849604  0.88482338  1
  Li  Li1  1  0.98351605  0.99176773  0.99666546  1
  Li  Li2  1  0.98679448  0.99340404  0.50213414  1
  Li  Li3  1  0.66977781  0.33490310  0.38977042  1
  Ti  Ti4  1  0.66193030  0.83097254  0.21533365  1
  Ti  Ti5  1  0.83134668  0.66187143  0.71517047  1
  Ti  Ti6  1  0.83132425  0.16943802  0.71514162  1
  Ni  Ni7  1  0.33796649  0.66899717  0.49134744  1
  Ni  Ni8  1  0.67124400  0.33562848  0.98743494  1
  Sn  Sn9  1  0.17086420  0.83217243  0.21476169  1
  Sn  Sn10  1  0.17085055  0.33872238  0.21475913  1
  Sn  Sn11  1  0.34000650  0.17000569  0.71407665  1
  O  O12  1  0.14957317  0.83303564  0.60367009  1
  O  O13  1  0.03583281  0.51793135  0.34113853  1
  O  O14  1  0.34895833  0.67449541  0.09670721  1
  O  O15  1  0.98818639  0.99410781  0.31939254  1
  O  O16  1  0.98686154  0.99342481  0.81430931  1
  O  O17  1  0.14957593  0.31656112  0.60367633  1
  O  O18  1  0.49407700  0.96578380  0.33591920  1
  O  O19  1  0.49407382  0.52830613  0.33591657  1
  O  O20  1  0.31515231  0.15759199  0.09543352  1
  O  O21  1  0.68076343  0.84041823  0.61140520  1
  O  O22  1  0.52889374  0.49131106  0.83491758  1
  O  O23  1  0.52891511  0.03761484  0.83492288  1
  O  O24  1  0.68662899  0.34332507  0.60150599  1
  O  O25  1  0.82972414  0.67981048  0.10470157  1
  O  O26  1  0.96047972  0.48026263  0.82810764  1
  O  O27  1  0.82972217  0.14993759  0.10469783  1
