# generated using pymatgen
data_Li2Fe3NiO8
_symmetry_space_group_name_H-M   'P 1'
_cell_length_a   5.97287449
_cell_length_b   5.90392011
_cell_length_c   5.95373563
_cell_angle_alpha   120.06800099
_cell_angle_beta   60.55482443
_cell_angle_gamma   90.18672267
_symmetry_Int_Tables_number   1
_chemical_formula_structural   Li2Fe3NiO8
_chemical_formula_sum   'Li2 Fe3 Ni1 O8'
_cell_volume   149.77238455
_cell_formula_units_Z   1
loop_
 _symmetry_equiv_pos_site_id
 _symmetry_equiv_pos_as_xyz
  1  'x, y, z'
loop_
 _atom_site_type_symbol
 _atom_site_label
 _atom_site_symmetry_multiplicity
 _atom_site_fract_x
 _atom_site_fract_y
 _atom_site_fract_z
 _atom_site_occupancy
  Li  Li0  1  0.50001396  -0.00002137  0.49998079  1
  Li  Li1  1  0.50001315  0.49997748  -0.00001379  1
  Fe  Fe2  1  -0.00002811  0.00006069  0.50003888  1
  Fe  Fe3  1  -0.00001754  0.49995366  0.49999135  1
  Fe  Fe4  1  0.00002065  0.49998426  -0.00004460  1
  Ni  Ni5  1  -0.00008876  0.00016869  0.00014767  1
  O  O6  1  0.20936111  0.28253256  0.02031244  1
  O  O7  1  0.21706483  0.23770486  0.51099843  1
  O  O8  1  0.21631695  0.77031836  0.50671544  1
  O  O9  1  0.20552078  0.76092399  0.05044315  1
  O  O10  1  0.79449409  0.23905426  0.94953129  1
  O  O11  1  0.78369261  0.22965045  0.49328058  1
  O  O12  1  0.78295169  0.76225215  0.48897466  1
  O  O13  1  0.79068458  0.71743996  0.97964671  1
