# generated using pymatgen
data_Li2MnSi3O8
_symmetry_space_group_name_H-M   'P 1'
_cell_length_a   6.71192721
_cell_length_b   6.36199782
_cell_length_c   8.62356569
_cell_angle_alpha   90.00000000
_cell_angle_beta   90.00000000
_cell_angle_gamma   105.30319358
_symmetry_Int_Tables_number   1
_chemical_formula_structural   Li2MnSi3O8
_chemical_formula_sum   'Li4 Mn2 Si6 O16'
_cell_volume   355.18048242
_cell_formula_units_Z   2
loop_
 _symmetry_equiv_pos_site_id
 _symmetry_equiv_pos_as_xyz
  1  'x, y, z'
loop_
 _atom_site_type_symbol
 _atom_site_label
 _atom_site_symmetry_multiplicity
 _atom_site_fract_x
 _atom_site_fract_y
 _atom_site_fract_z
 _atom_site_occupancy
  Li  Li0  1  0.22155417  0.84627825  0.32128748  1
  Li  Li1  1  0.49503929  0.58077839  0.83592657  1
  Li  Li2  1  0.50496071  0.41922161  0.33592657  1
  Li  Li3  1  0.77844583  0.15372175  0.82128748  1
  Mn  Mn4  1  0.40138194  0.04562380  0.99773635  1
  Mn  Mn5  1  0.59861806  0.95437620  0.49773635  1
  Si  Si6  1  0.01049911  0.41912937  0.50713990  1
  Si  Si7  1  0.10343310  0.24796037  0.19295935  1
  Si  Si8  1  0.26726017  0.15913474  0.66327722  1
  Si  Si9  1  0.73273983  0.84086526  0.16327722  1
  Si  Si10  1  0.89656690  0.75203963  0.69295935  1
  Si  Si11  1  0.98950089  0.58087163  0.00713990  1
  O  O12  1  0.05343651  0.98951650  0.74052472  1
  O  O13  1  0.00701059  0.32897583  0.03413153  1
  O  O14  1  0.10516273  0.43211735  0.32906343  1
  O  O15  1  0.20796293  0.74840644  0.03125730  1
  O  O16  1  0.19427080  0.38450049  0.62409926  1
  O  O17  1  0.33760934  0.23154120  0.17675317  1
  O  O18  1  0.33282512  0.06001181  0.50397827  1
  O  O19  1  0.44433976  0.22916518  0.79701645  1
  O  O20  1  0.55566024  0.77083482  0.29701645  1
  O  O21  1  0.66717488  0.93998819  0.00397827  1
  O  O22  1  0.66239066  0.76845880  0.67675317  1
  O  O23  1  0.80572920  0.61549951  0.12409926  1
  O  O24  1  0.79203707  0.25159356  0.53125730  1
  O  O25  1  0.89483727  0.56788265  0.82906343  1
  O  O26  1  0.99298941  0.67102417  0.53413153  1
  O  O27  1  0.94656349  0.01048350  0.24052472  1
