# generated using pymatgen
data_Na2Bi2C4SO16
_symmetry_space_group_name_H-M   'P 1'
_cell_length_a   10.53536418
_cell_length_b   10.39471473
_cell_length_c   10.39471494
_cell_angle_alpha   88.26865399
_cell_angle_beta   61.41773802
_cell_angle_gamma   118.58226303
_symmetry_Int_Tables_number   1
_chemical_formula_structural   Na2Bi2C4SO16
_chemical_formula_sum   'Na4 Bi4 C8 S2 O32'
_cell_volume   826.76061550
_cell_formula_units_Z   2
loop_
 _symmetry_equiv_pos_site_id
 _symmetry_equiv_pos_as_xyz
  1  'x, y, z'
loop_
 _atom_site_type_symbol
 _atom_site_label
 _atom_site_symmetry_multiplicity
 _atom_site_fract_x
 _atom_site_fract_y
 _atom_site_fract_z
 _atom_site_occupancy
  Na  Na0  1  0.25000000  0.91552663  0.83447337  1
  Na  Na1  1  0.25000000  0.33447337  0.41552663  1
  Na  Na2  1  0.75000000  0.66552663  0.58447337  1
  Na  Na3  1  0.75000000  0.08447337  0.16552663  1
  Bi  Bi4  1  0.00000000  0.50000000  0.00000000  1
  Bi  Bi5  1  0.00000000  0.50000000  0.50000000  1
  Bi  Bi6  1  0.50000000  0.50000000  0.00000000  1
  Bi  Bi7  1  0.50000000  0.00000000  0.00000000  1
  C  C8  1  0.07101349  0.72520750  0.21288123  1
  C  C9  1  0.07101349  0.34580599  0.21610528  1
  C  C10  1  0.42898651  0.71288123  0.22520750  1
  C  C11  1  0.42898651  0.71610528  0.84580599  1
  C  C12  1  0.57101349  0.28389472  0.15419401  1
  C  C13  1  0.57101349  0.28711877  0.77479250  1
  C  C14  1  0.92898651  0.65419401  0.78389472  1
  C  C15  1  0.92898651  0.27479250  0.78711877  1
  S  S16  1  0.25000000  0.12500000  0.62500000  1
  S  S17  1  0.75000000  0.87500000  0.37500000  1
  O  O18  1  0.06280592  0.71162870  0.09275575  1
  O  O19  1  0.19984475  0.84757383  0.20037189  1
  O  O20  1  0.06280592  0.35117722  0.34443833  1
  O  O21  1  0.19984475  0.35227191  0.09978336  1
  O  O22  1  0.05297016  0.66761839  0.79451434  1
  O  O23  1  0.30015525  0.70037189  0.34757383  1
  O  O24  1  0.05297016  0.38535177  0.65251449  1
  O  O25  1  0.55297016  0.84748551  0.11464823  1
  O  O26  1  0.43719408  0.59275575  0.21162870  1
  O  O27  1  0.13756019  0.07209879  0.56439668  1
  O  O28  1  0.44702984  0.29451434  0.16761839  1
  O  O29  1  0.63756019  0.93560332  0.42790121  1
  O  O30  1  0.30015525  0.59978336  0.85227191  1
  O  O31  1  0.43719408  0.84443833  0.85117722  1
  O  O32  1  0.13756019  0.06546039  0.79804313  1
  O  O33  1  0.36243981  0.29804313  0.56546039  1
  O  O34  1  0.63756019  0.70195687  0.43453961  1
  O  O35  1  0.86243981  0.93453961  0.20195687  1
  O  O36  1  0.56280592  0.15556167  0.14882278  1
  O  O37  1  0.69984475  0.40021664  0.14772809  1
  O  O38  1  0.36243981  0.06439668  0.57209879  1
  O  O39  1  0.55297016  0.70548566  0.83238161  1
  O  O40  1  0.86243981  0.92790121  0.43560332  1
  O  O41  1  0.56280592  0.40724425  0.78837130  1
  O  O42  1  0.44702984  0.15251449  0.88535177  1
  O  O43  1  0.94702984  0.61464823  0.34748551  1
  O  O44  1  0.69984475  0.29962811  0.65242617  1
  O  O45  1  0.94702984  0.33238161  0.20548566  1
  O  O46  1  0.80015525  0.64772809  0.90021664  1
  O  O47  1  0.93719408  0.64882278  0.65556167  1
  O  O48  1  0.80015525  0.15242617  0.79962811  1
  O  O49  1  0.93719408  0.28837130  0.90724425  1
