# generated using pymatgen
data_Li6Bi5O14
_symmetry_space_group_name_H-M   'P 1'
_cell_length_a   8.20265857
_cell_length_b   8.20265857
_cell_length_c   10.66687213
_cell_angle_alpha   90.00000000
_cell_angle_beta   90.00000000
_cell_angle_gamma   84.66367158
_symmetry_Int_Tables_number   1
_chemical_formula_structural   Li6Bi5O14
_chemical_formula_sum   'Li12 Bi10 O28'
_cell_volume   714.59505251
_cell_formula_units_Z   2
loop_
 _symmetry_equiv_pos_site_id
 _symmetry_equiv_pos_as_xyz
  1  'x, y, z'
loop_
 _atom_site_type_symbol
 _atom_site_label
 _atom_site_symmetry_multiplicity
 _atom_site_fract_x
 _atom_site_fract_y
 _atom_site_fract_z
 _atom_site_occupancy
  Li  Li0  1  0.35369485  0.81516796  0.97644034  1
  Li  Li1  1  0.18483204  0.64630515  0.47644034  1
  Li  Li2  1  0.50489710  0.79561168  0.51058906  1
  Li  Li3  1  0.20438832  0.49510290  0.01058906  1
  Li  Li4  1  0.00639891  0.00639891  0.95557705  1
  Li  Li5  1  0.27231442  0.27231442  0.43306885  1
  Li  Li6  1  0.72768558  0.72768558  0.93306885  1
  Li  Li7  1  0.99360109  0.99360109  0.45557705  1
  Li  Li8  1  0.49510290  0.20438832  0.01058906  1
  Li  Li9  1  0.79561168  0.50489710  0.51058906  1
  Li  Li10  1  0.81516796  0.35369485  0.97644034  1
  Li  Li11  1  0.64630515  0.18483204  0.47644034  1
  Bi  Bi12  1  0.23837206  0.93483236  0.23538188  1
  Bi  Bi13  1  0.06516764  0.76162794  0.73538188  1
  Bi  Bi14  1  0.62828235  0.99920814  0.23018378  1
  Bi  Bi15  1  0.00079186  0.37171765  0.73018378  1
  Bi  Bi16  1  0.46247587  0.46247587  0.24690113  1
  Bi  Bi17  1  0.53752413  0.53752413  0.74690113  1
  Bi  Bi18  1  0.99920814  0.62828235  0.23018378  1
  Bi  Bi19  1  0.37171765  0.00079186  0.73018378  1
  Bi  Bi20  1  0.76162794  0.06516764  0.73538188  1
  Bi  Bi21  1  0.93483236  0.23837206  0.23538188  1
  O  O22  1  0.08078021  0.80768368  0.35914682  1
  O  O23  1  0.19231632  0.91921979  0.85914682  1
  O  O24  1  0.27539763  0.80036467  0.61787547  1
  O  O25  1  0.19963533  0.72460237  0.11787547  1
  O  O26  1  0.99443435  0.42435191  0.09743575  1
  O  O27  1  0.57564809  0.00556565  0.59743575  1
  O  O28  1  0.45795727  0.85385096  0.33576208  1
  O  O29  1  0.14614904  0.54204273  0.83576208  1
  O  O30  1  0.21479299  0.48665964  0.33267853  1
  O  O31  1  0.51334036  0.78520701  0.83267853  1
  O  O32  1  0.86572729  0.86572729  0.85608535  1
  O  O33  1  0.41090922  0.41090922  0.06259419  1
  O  O34  1  0.77777960  0.77777960  0.16039971  1
  O  O35  1  0.13427271  0.13427271  0.35608535  1
  O  O36  1  0.94037161  0.94037161  0.61850731  1
  O  O37  1  0.22222040  0.22222040  0.66039971  1
  O  O38  1  0.58909078  0.58909078  0.56259419  1
  O  O39  1  0.05962839  0.05962839  0.11850731  1
  O  O40  1  0.48665964  0.21479299  0.33267853  1
  O  O41  1  0.78520701  0.51334036  0.83267853  1
  O  O42  1  0.54204273  0.14614904  0.83576208  1
  O  O43  1  0.85385096  0.45795727  0.33576208  1
  O  O44  1  0.42435191  0.99443435  0.09743575  1
  O  O45  1  0.00556565  0.57564809  0.59743575  1
  O  O46  1  0.72460237  0.19963533  0.11787547  1
  O  O47  1  0.80036467  0.27539763  0.61787547  1
  O  O48  1  0.80768368  0.08078021  0.35914682  1
  O  O49  1  0.91921979  0.19231632  0.85914682  1
