# generated using pymatgen
data_LiBiB2O5
_symmetry_space_group_name_H-M   'P 1'
_cell_length_a   7.65538061
_cell_length_b   7.65538061
_cell_length_c   10.70523985
_cell_angle_alpha   68.60162356
_cell_angle_beta   111.39837644
_cell_angle_gamma   89.80691362
_symmetry_Int_Tables_number   1
_chemical_formula_structural   LiBiB2O5
_chemical_formula_sum   'Li4 Bi4 B8 O20'
_cell_volume   537.08179585
_cell_formula_units_Z   4
loop_
 _symmetry_equiv_pos_site_id
 _symmetry_equiv_pos_as_xyz
  1  'x, y, z'
loop_
 _atom_site_type_symbol
 _atom_site_label
 _atom_site_symmetry_multiplicity
 _atom_site_fract_x
 _atom_site_fract_y
 _atom_site_fract_z
 _atom_site_occupancy
  Li  Li0  1  0.14115643  0.14115643  0.75000000  1
  Li  Li1  1  0.60677209  0.60677209  0.75000000  1
  Li  Li2  1  0.39322791  0.39322791  0.25000000  1
  Li  Li3  1  0.85884357  0.85884357  0.25000000  1
  Bi  Bi4  1  0.03179605  0.60072396  0.64298284  1
  Bi  Bi5  1  0.39927604  0.96820395  0.14298284  1
  Bi  Bi6  1  0.60072396  0.03179605  0.85701716  1
  Bi  Bi7  1  0.96820395  0.39927604  0.35701716  1
  B  B8  1  0.23287811  0.77190995  0.87877544  1
  B  B9  1  0.27311807  0.40695464  0.98674825  1
  B  B10  1  0.22809005  0.76712189  0.37877544  1
  B  B11  1  0.59304536  0.72688193  0.48674825  1
  B  B12  1  0.40695464  0.27311807  0.51325175  1
  B  B13  1  0.77190995  0.23287811  0.62122456  1
  B  B14  1  0.72688193  0.59304536  0.01325175  1
  B  B15  1  0.76712189  0.22809005  0.12122456  1
  O  O16  1  0.29842266  0.92095852  0.91624474  1
  O  O17  1  0.13409667  0.80994064  0.73439876  1
  O  O18  1  0.07904148  0.70157734  0.41624474  1
  O  O19  1  0.21158190  0.37061914  0.86285949  1
  O  O20  1  0.65330010  0.73533513  0.87507096  1
  O  O21  1  0.19005936  0.86590333  0.23439876  1
  O  O22  1  0.41033371  0.72712263  0.49167360  1
  O  O23  1  0.72712263  0.41033371  0.00832640  1
  O  O24  1  0.62938086  0.78841810  0.36285949  1
  O  O25  1  0.26466487  0.34669990  0.37507096  1
  O  O26  1  0.73533513  0.65330010  0.62492904  1
  O  O27  1  0.37061914  0.21158190  0.63714051  1
  O  O28  1  0.27287737  0.58966629  0.99167360  1
  O  O29  1  0.58966629  0.27287737  0.50832640  1
  O  O30  1  0.80994064  0.13409667  0.76560124  1
  O  O31  1  0.34669990  0.26466487  0.12492904  1
  O  O32  1  0.78841810  0.62938086  0.13714051  1
  O  O33  1  0.92095852  0.29842266  0.58375526  1
  O  O34  1  0.86590333  0.19005936  0.26560124  1
  O  O35  1  0.70157734  0.07904148  0.08375526  1
