# generated using pymatgen
data_Sr4Br6O
_symmetry_space_group_name_H-M   'P 1'
_cell_length_a   9.74649722
_cell_length_b   9.74649722
_cell_length_c   7.35794347
_cell_angle_alpha   90.00000000
_cell_angle_beta   90.00000000
_cell_angle_gamma   90.00000000
_symmetry_Int_Tables_number   1
_chemical_formula_structural   Sr4Br6O
_chemical_formula_sum   'Sr8 Br12 O2'
_cell_volume   698.96201288
_cell_formula_units_Z   2
loop_
 _symmetry_equiv_pos_site_id
 _symmetry_equiv_pos_as_xyz
  1  'x, y, z'
loop_
 _atom_site_type_symbol
 _atom_site_label
 _atom_site_symmetry_multiplicity
 _atom_site_fract_x
 _atom_site_fract_y
 _atom_site_fract_z
 _atom_site_occupancy
  Sr  Sr0  1  0.98154206  0.25000000  0.59333513  1
  Sr  Sr1  1  0.25000000  0.98154206  0.09333513  1
  Sr  Sr2  1  0.25000000  0.51845794  0.09333513  1
  Sr  Sr3  1  0.51845794  0.25000000  0.59333513  1
  Sr  Sr4  1  0.48154206  0.75000000  0.40666487  1
  Sr  Sr5  1  0.75000000  0.48154206  0.90666487  1
  Sr  Sr6  1  0.75000000  0.01845794  0.90666487  1
  Sr  Sr7  1  0.01845794  0.75000000  0.40666487  1
  Br  Br8  1  0.04667114  0.95332886  0.75000000  1
  Br  Br9  1  0.04667114  0.54667114  0.75000000  1
  Br  Br10  1  0.25000000  0.25000000  0.86145570  1
  Br  Br11  1  0.25000000  0.25000000  0.36145570  1
  Br  Br12  1  0.45332886  0.54667114  0.75000000  1
  Br  Br13  1  0.45332886  0.95332886  0.75000000  1
  Br  Br14  1  0.54667114  0.04667114  0.25000000  1
  Br  Br15  1  0.54667114  0.45332886  0.25000000  1
  Br  Br16  1  0.75000000  0.75000000  0.13854430  1
  Br  Br17  1  0.75000000  0.75000000  0.63854430  1
  Br  Br18  1  0.95332886  0.04667114  0.25000000  1
  Br  Br19  1  0.95332886  0.45332886  0.25000000  1
  O  O20  1  0.25000000  0.75000000  0.25000000  1
  O  O21  1  0.75000000  0.25000000  0.75000000  1
