# generated using pymatgen
data_Li5Fe6(BO3)6
_symmetry_space_group_name_H-M   'P 1'
_cell_length_a   9.05999646
_cell_length_b   9.05999666
_cell_length_c   11.33445102
_cell_angle_alpha   111.92071052
_cell_angle_beta   111.92071124
_cell_angle_gamma   59.79824701
_symmetry_Int_Tables_number   1
_chemical_formula_structural   Li5Fe6(BO3)6
_chemical_formula_sum   'Li10 Fe12 B12 O36'
_cell_volume   725.70393475
_cell_formula_units_Z   2
loop_
 _symmetry_equiv_pos_site_id
 _symmetry_equiv_pos_as_xyz
  1  'x, y, z'
loop_
 _atom_site_type_symbol
 _atom_site_label
 _atom_site_symmetry_multiplicity
 _atom_site_fract_x
 _atom_site_fract_y
 _atom_site_fract_z
 _atom_site_occupancy
  Li  Li0  1  0.00544556  0.99219627  0.83428100  1
  Li  Li1  1  0.13352235  0.14894805  0.58611897  1
  Li  Li2  1  0.14688962  0.17492406  0.33104191  1
  Li  Li3  1  0.34046133  0.32901314  0.83948203  1
  Li  Li4  1  0.31635909  0.31205638  0.10562456  1
  Li  Li5  1  0.49219627  0.50544556  0.33428100  1
  Li  Li6  1  0.67492406  0.64688962  0.83104191  1
  Li  Li7  1  0.64894805  0.63352235  0.08611897  1
  Li  Li8  1  0.81205638  0.81635909  0.60562456  1
  Li  Li9  1  0.82901314  0.84046133  0.33948203  1
  Fe  Fe10  1  0.02108372  0.34059183  0.87418089  1
  Fe  Fe11  1  0.16810688  0.48251581  0.61345077  1
  Fe  Fe12  1  0.17002204  0.84163104  0.36219260  1
  Fe  Fe13  1  0.34163104  0.67002204  0.86219260  1
  Fe  Fe14  1  0.30397051  0.97829348  0.11511933  1
  Fe  Fe15  1  0.47829348  0.80397051  0.61511933  1
  Fe  Fe16  1  0.50840231  0.16666977  0.36892253  1
  Fe  Fe17  1  0.66666977  0.00840231  0.86892253  1
  Fe  Fe18  1  0.67333157  0.30739965  0.12177839  1
  Fe  Fe19  1  0.80739965  0.17333157  0.62177839  1
  Fe  Fe20  1  0.84059183  0.52108372  0.37418089  1
  Fe  Fe21  1  0.98251581  0.66810688  0.11345077  1
  B  B22  1  0.00215169  0.68334040  0.86714842  1
  B  B23  1  0.14401326  0.83106854  0.62459378  1
  B  B24  1  0.18334040  0.50215169  0.36714842  1
  B  B25  1  0.34961992  0.01348762  0.87822803  1
  B  B26  1  0.33106854  0.64401326  0.12459378  1
  B  B27  1  0.48685227  0.14265016  0.62377965  1
  B  B28  1  0.51348762  0.84961992  0.37822803  1
  B  B29  1  0.68555901  0.34086150  0.87378931  1
  B  B30  1  0.64265016  0.98685227  0.12377965  1
  B  B31  1  0.83103009  0.48888184  0.62827787  1
  B  B32  1  0.84086150  0.18555901  0.37378831  1
  B  B33  1  0.98888184  0.33103009  0.12827787  1
  O  O34  1  0.02012356  0.10658270  0.39065350  1
  O  O35  1  0.16858548  0.57651982  0.83931402  1
  O  O36  1  0.07651982  0.66858548  0.33931402  1
  O  O37  1  0.26704276  0.94108849  0.90662058  1
  O  O38  1  0.11201236  0.42560884  0.40414950  1
  O  O39  1  0.28037720  0.19189718  0.89064600  1
  O  O40  1  0.07716206  0.16418098  0.14589661  1
  O  O41  1  0.21670792  0.90551313  0.58613470  1
  O  O42  1  0.05777825  0.40098175  0.08279482  1
  O  O43  1  0.24868144  0.67052931  0.65924096  1
  O  O44  1  0.17052931  0.74868144  0.15924096  1
  O  O45  1  0.31851802  0.23493523  0.64024419  1
  O  O46  1  0.35628559  0.41175375  0.35587229  1
  O  O47  1  0.51039738  0.90259257  0.84023977  1
  O  O48  1  0.40259257  0.01039738  0.34023977  1
  O  O49  1  0.44108849  0.76704276  0.40662058  1
  O  O50  1  0.60918744  0.25754064  0.90188293  1
  O  O51  1  0.60658270  0.52012356  0.89065350  1
  O  O52  1  0.41921343  0.47052733  0.13317723  1
  O  O53  1  0.40551313  0.71670792  0.08613470  1
  O  O54  1  0.55249764  0.19419721  0.55926980  1
  O  O55  1  0.60067330  0.99063344  0.67551088  1
  O  O56  1  0.49063344  0.10067330  0.17551088  1
  O  O57  1  0.66418098  0.57716206  0.64589661  1
  O  O58  1  0.69189718  0.78037720  0.39064600  1
  O  O59  1  0.84124954  0.23808966  0.83337063  1
  O  O60  1  0.73808966  0.34124954  0.33337063  1
  O  O61  1  0.92560884  0.61201236  0.90414950  1
  O  O62  1  0.75754064  0.10918744  0.40188293  1
  O  O63  1  0.91175375  0.85628559  0.85587229  1
  O  O64  1  0.73493523  0.81851802  0.14024419  1
  O  O65  1  0.90098175  0.55777825  0.58279482  1
  O  O66  1  0.69419721  0.05249764  0.05926980  1
  O  O67  1  0.93494318  0.32253167  0.65839757  1
  O  O68  1  0.82253167  0.43494318  0.15839757  1
  O  O69  1  0.97052733  0.91921343  0.63317723  1
