# generated using pymatgen
data_BaYBr5
_symmetry_space_group_name_H-M   'P 1'
_cell_length_a   14.53561219
_cell_length_b   9.87375520
_cell_length_c   15.84512556
_cell_angle_alpha   90.00000000
_cell_angle_beta   89.35914622
_cell_angle_gamma   90.00000000
_symmetry_Int_Tables_number   1
_chemical_formula_structural   BaYBr5
_chemical_formula_sum   'Ba8 Y8 Br40'
_cell_volume   2273.96722850
_cell_formula_units_Z   8
loop_
 _symmetry_equiv_pos_site_id
 _symmetry_equiv_pos_as_xyz
  1  'x, y, z'
loop_
 _atom_site_type_symbol
 _atom_site_label
 _atom_site_symmetry_multiplicity
 _atom_site_fract_x
 _atom_site_fract_y
 _atom_site_fract_z
 _atom_site_occupancy
  Ba  Ba0  1  0.03894476  0.25204609  0.80033784  1
  Ba  Ba1  1  0.10926897  0.23555297  0.40970710  1
  Ba  Ba2  1  0.39073103  0.73555297  0.09029290  1
  Ba  Ba3  1  0.46105524  0.75204609  0.69966216  1
  Ba  Ba4  1  0.53894476  0.24795391  0.30033784  1
  Ba  Ba5  1  0.60926897  0.26444703  0.90970710  1
  Ba  Ba6  1  0.89073103  0.76444703  0.59029290  1
  Ba  Ba7  1  0.96105524  0.74795391  0.19966216  1
  Y  Y8  1  0.06806941  0.74924951  0.82373685  1
  Y  Y9  1  0.29180561  0.73785668  0.37317941  1
  Y  Y10  1  0.43193059  0.24924951  0.67626315  1
  Y  Y11  1  0.20819439  0.23785668  0.12682059  1
  Y  Y12  1  0.79180561  0.76214332  0.87317941  1
  Y  Y13  1  0.56806941  0.75075049  0.32373685  1
  Y  Y14  1  0.70819439  0.26214332  0.62682059  1
  Y  Y15  1  0.93193059  0.25075049  0.17626315  1
  Br  Br16  1  0.07432136  0.23548882  0.60806884  1
  Br  Br17  1  0.95637153  0.77517957  0.98098599  1
  Br  Br18  1  0.09940881  0.72524355  0.65465776  1
  Br  Br19  1  0.16102250  0.52035135  0.86616590  1
  Br  Br20  1  0.08516387  0.43204750  0.20694710  1
  Br  Br21  1  0.07997090  0.06325788  0.22279193  1
  Br  Br22  1  0.16717750  0.98017780  0.84649088  1
  Br  Br23  1  0.19593762  0.53233777  0.44349693  1
  Br  Br24  1  0.18667396  0.93081189  0.44578115  1
  Br  Br25  1  0.20188436  0.74551075  0.21819284  1
  Br  Br26  1  0.33282250  0.48017780  0.65350912  1
  Br  Br27  1  0.29811564  0.24551075  0.28180716  1
  Br  Br28  1  0.31332604  0.43081189  0.05421885  1
  Br  Br29  1  0.30406238  0.03233777  0.05650307  1
  Br  Br30  1  0.33897750  0.02035135  0.63383410  1
  Br  Br31  1  0.40059119  0.22524355  0.84534224  1
  Br  Br32  1  0.42002910  0.56325788  0.27720807  1
  Br  Br33  1  0.41483613  0.93204750  0.29305290  1
  Br  Br34  1  0.42567864  0.73548882  0.89193116  1
  Br  Br35  1  0.54362847  0.27517957  0.51901401  1
  Br  Br36  1  0.45637153  0.72482043  0.48098599  1
  Br  Br37  1  0.57432136  0.26451118  0.10806884  1
  Br  Br38  1  0.58516387  0.06795250  0.70694710  1
  Br  Br39  1  0.57997090  0.43674212  0.72279193  1
  Br  Br40  1  0.59940881  0.77475645  0.15465776  1
  Br  Br41  1  0.66102250  0.97964865  0.36616590  1
  Br  Br42  1  0.69593762  0.96766223  0.94349693  1
  Br  Br43  1  0.68667396  0.56918811  0.94578115  1
  Br  Br44  1  0.70188436  0.75448925  0.71819284  1
  Br  Br45  1  0.66717750  0.51982220  0.34649088  1
  Br  Br46  1  0.79811564  0.25448925  0.78180716  1
  Br  Br47  1  0.81332604  0.06918811  0.55421885  1
  Br  Br48  1  0.80406238  0.46766223  0.55650307  1
  Br  Br49  1  0.83282250  0.01982220  0.15350912  1
  Br  Br50  1  0.92002910  0.93674212  0.77720807  1
  Br  Br51  1  0.91483613  0.56795250  0.79305290  1
  Br  Br52  1  0.83897750  0.47964865  0.13383410  1
  Br  Br53  1  0.90059119  0.27475645  0.34534224  1
  Br  Br54  1  0.04362847  0.22482043  0.01901401  1
  Br  Br55  1  0.92567864  0.76451118  0.39193116  1
