# generated using pymatgen
data_RbLi2B3Sb2O9
_symmetry_space_group_name_H-M   'P 1'
_cell_length_a   6.38121066
_cell_length_b   5.62402602
_cell_length_c   13.13650803
_cell_angle_alpha   90.00000000
_cell_angle_beta   92.42598698
_cell_angle_gamma   90.00000000
_symmetry_Int_Tables_number   1
_chemical_formula_structural   RbLi2B3Sb2O9
_chemical_formula_sum   'Rb2 Li4 B6 Sb4 O18'
_cell_volume   471.02170604
_cell_formula_units_Z   2
loop_
 _symmetry_equiv_pos_site_id
 _symmetry_equiv_pos_as_xyz
  1  'x, y, z'
loop_
 _atom_site_type_symbol
 _atom_site_label
 _atom_site_symmetry_multiplicity
 _atom_site_fract_x
 _atom_site_fract_y
 _atom_site_fract_z
 _atom_site_occupancy
  Rb  Rb0  1  0.00000000  0.21513064  0.75000000  1
  Rb  Rb1  1  0.00000000  0.78486936  0.25000000  1
  Li  Li2  1  0.51406067  0.11470721  0.85572738  1
  Li  Li3  1  0.48593933  0.11470721  0.64427262  1
  Li  Li4  1  0.51406067  0.88529279  0.35572738  1
  Li  Li5  1  0.48593933  0.88529279  0.14427262  1
  B  B6  1  0.17169921  0.83785978  0.97224815  1
  B  B7  1  0.17169921  0.16214022  0.47224815  1
  B  B8  1  0.50000000  0.60977765  0.75000000  1
  B  B9  1  0.50000000  0.39022235  0.25000000  1
  B  B10  1  0.82830079  0.83785978  0.52775185  1
  B  B11  1  0.82830079  0.16214022  0.02775185  1
  Sb  Sb12  1  0.27002280  0.63213663  0.53868096  1
  Sb  Sb13  1  0.27002280  0.36786337  0.03868096  1
  Sb  Sb14  1  0.72997720  0.63213663  0.96131904  1
  Sb  Sb15  1  0.72997720  0.36786337  0.46131904  1
  O  O16  1  0.02216336  0.70255001  0.91417989  1
  O  O17  1  0.02216336  0.29744999  0.41417989  1
  O  O18  1  0.25299886  0.04157490  0.93318096  1
  O  O19  1  0.25299886  0.95842510  0.43318096  1
  O  O20  1  0.24010961  0.24775588  0.56689070  1
  O  O21  1  0.24010961  0.75224412  0.06689070  1
  O  O22  1  0.39679203  0.75568209  0.67445811  1
  O  O23  1  0.39679203  0.24431791  0.17445811  1
  O  O24  1  0.50000000  0.37072238  0.75000000  1
  O  O25  1  0.50000000  0.62927762  0.25000000  1
  O  O26  1  0.60320797  0.75568209  0.82554189  1
  O  O27  1  0.60320797  0.24431791  0.32554189  1
  O  O28  1  0.75989039  0.24775588  0.93310930  1
  O  O29  1  0.75989039  0.75224412  0.43310930  1
  O  O30  1  0.74700114  0.04157490  0.56681904  1
  O  O31  1  0.74700114  0.95842510  0.06681904  1
  O  O32  1  0.97783664  0.70255001  0.58582011  1
  O  O33  1  0.97783664  0.29744999  0.08582011  1
