# generated using pymatgen
data_TmTaO4
_symmetry_space_group_name_H-M   'P 1'
_cell_length_a   3.86360164
_cell_length_b   7.91822892
_cell_length_c   5.39936491
_cell_angle_alpha   90.00000000
_cell_angle_beta   90.00000000
_cell_angle_gamma   104.12090504
_symmetry_Int_Tables_number   1
_chemical_formula_structural   TmTaO4
_chemical_formula_sum   'Tm2 Ta2 O8'
_cell_volume   160.19083701
_cell_formula_units_Z   2
loop_
 _symmetry_equiv_pos_site_id
 _symmetry_equiv_pos_as_xyz
  1  'x, y, z'
loop_
 _atom_site_type_symbol
 _atom_site_label
 _atom_site_symmetry_multiplicity
 _atom_site_fract_x
 _atom_site_fract_y
 _atom_site_fract_z
 _atom_site_occupancy
  Tm  Tm0  1  0.19823255  0.39646611  0.12044905  1
  Tm  Tm1  1  0.80176745  0.60353389  0.62044905  1
  Ta  Ta2  1  0.41430743  0.82861585  0.19173783  1
  Ta  Ta3  1  0.58569257  0.17138415  0.69173783  1
  O  O4  1  0.10086737  0.20173474  0.75132166  1
  O  O5  1  0.29780444  0.59560989  0.41300711  1
  O  O6  1  0.33154191  0.66308281  0.91280220  1
  O  O7  1  0.47772934  0.95545868  0.52588115  1
  O  O8  1  0.52227066  0.04454132  0.02588115  1
  O  O9  1  0.66845809  0.33691719  0.41280220  1
  O  O10  1  0.70219556  0.40439011  0.91300711  1
  O  O11  1  0.89913263  0.79826526  0.25132166  1
