# generated using pymatgen
data_Na4Bi2As(CO4)4
_symmetry_space_group_name_H-M   'P 1'
_cell_length_a   10.60430919
_cell_length_b   10.32361831
_cell_length_c   10.60430861
_cell_angle_alpha   61.50695734
_cell_angle_beta   94.08007930
_cell_angle_gamma   61.50696142
_symmetry_Int_Tables_number   1
_chemical_formula_structural   Na4Bi2As(CO4)4
_chemical_formula_sum   'Na8 Bi4 As2 C8 O32'
_cell_volume   826.93244344
_cell_formula_units_Z   2
loop_
 _symmetry_equiv_pos_site_id
 _symmetry_equiv_pos_as_xyz
  1  'x, y, z'
loop_
 _atom_site_type_symbol
 _atom_site_label
 _atom_site_symmetry_multiplicity
 _atom_site_fract_x
 _atom_site_fract_y
 _atom_site_fract_z
 _atom_site_occupancy
  Na  Na0  1  0.07930814  0.84138373  0.82930814  1
  Na  Na1  1  0.08066500  0.25000000  0.83066500  1
  Na  Na2  1  0.33066500  0.75000000  0.58066500  1
  Na  Na3  1  0.32930814  0.34138373  0.57930814  1
  Na  Na4  1  0.67069186  0.65861627  0.42069186  1
  Na  Na5  1  0.66933500  0.25000000  0.41933500  1
  Na  Na6  1  0.91933500  0.75000000  0.16933500  1
  Na  Na7  1  0.92069186  0.15861627  0.17069186  1
  Bi  Bi8  1  0.00000000  0.50000000  0.00000000  1
  Bi  Bi9  1  0.50000000  0.00000000  0.50000000  1
  Bi  Bi10  1  0.50000000  0.50000000  0.00000000  1
  Bi  Bi11  1  0.50000000  0.00000000  0.00000000  1
  As  As12  1  0.12500000  0.75000000  0.37500000  1
  As  As13  1  0.87500000  0.25000000  0.62500000  1
  C  C14  1  0.34177727  0.94083202  0.77069245  1
  C  C15  1  0.27069245  0.44083202  0.84177727  1
  C  C16  1  0.71739171  0.94083202  0.78847652  1
  C  C17  1  0.71152348  0.55916798  0.78260829  1
  C  C18  1  0.28847652  0.44083202  0.21739171  1
  C  C19  1  0.28260829  0.05916798  0.21152348  1
  C  C20  1  0.72930755  0.55916798  0.15822273  1
  C  C21  1  0.65822273  0.05916798  0.22930755  1
  O  O22  1  0.33378033  0.81808049  0.88123294  1
  O  O23  1  0.06641207  0.89233452  0.43320148  1
  O  O24  1  0.35318472  0.94229240  0.64922782  1
  O  O25  1  0.14922782  0.44229240  0.85318472  1
  O  O26  1  0.70452288  0.94229240  0.90848077  1
  O  O27  1  0.28155229  0.56447207  0.83622069  1
  O  O28  1  0.04125341  0.89233452  0.17446400  1
  O  O29  1  0.06679852  0.60766548  0.43358793  1
  O  O30  1  0.40069275  0.93552793  0.34602436  1
  O  O31  1  0.59151923  0.55770760  0.79547712  1
  O  O32  1  0.38123294  0.31808049  0.83378033  1
  O  O33  1  0.32553600  0.60766548  0.45874659  1
  O  O34  1  0.84813918  0.81808049  0.80068657  1
  O  O35  1  0.69931343  0.68191951  0.65186082  1
  O  O36  1  0.33622069  0.06447207  0.78155229  1
  O  O37  1  0.15397564  0.56447207  0.09930725  1
  O  O38  1  0.84602436  0.43552793  0.90069275  1
  O  O39  1  0.66377931  0.93552793  0.21844771  1
  O  O40  1  0.30068657  0.31808049  0.34813918  1
  O  O41  1  0.15186082  0.18191951  0.19931343  1
  O  O42  1  0.67446400  0.39233452  0.54125341  1
  O  O43  1  0.61876706  0.68191951  0.16621967  1
  O  O44  1  0.40848077  0.44229240  0.20452288  1
  O  O45  1  0.59930725  0.06447207  0.65397564  1
  O  O46  1  0.93320148  0.39233452  0.56641207  1
  O  O47  1  0.95874659  0.10766548  0.82553600  1
  O  O48  1  0.71844771  0.43552793  0.16377931  1
  O  O49  1  0.29547712  0.05770760  0.09151923  1
  O  O50  1  0.85077218  0.55770760  0.14681528  1
  O  O51  1  0.64681528  0.05770760  0.35077218  1
  O  O52  1  0.93358793  0.10766548  0.56679852  1
  O  O53  1  0.66621967  0.18191951  0.11876706  1
