# generated using pymatgen
data_La(HO)3
_symmetry_space_group_name_H-M   'P 1'
_cell_length_a   6.88333151
_cell_length_b   11.30189648
_cell_length_c   5.47594269
_cell_angle_alpha   90.00000000
_cell_angle_beta   84.08654620
_cell_angle_gamma   90.00000000
_symmetry_Int_Tables_number   1
_chemical_formula_structural   La(HO)3
_chemical_formula_sum   'La4 H12 O12'
_cell_volume   423.73242916
_cell_formula_units_Z   4
loop_
 _symmetry_equiv_pos_site_id
 _symmetry_equiv_pos_as_xyz
  1  'x, y, z'
loop_
 _atom_site_type_symbol
 _atom_site_label
 _atom_site_symmetry_multiplicity
 _atom_site_fract_x
 _atom_site_fract_y
 _atom_site_fract_z
 _atom_site_occupancy
  La  La0  1  0.04126097  0.32965933  0.01061387  1
  La  La1  1  0.45873903  0.82965933  0.98938613  1
  La  La2  1  0.54126097  0.17034067  0.01061387  1
  La  La3  1  0.95873903  0.67034067  0.98938613  1
  H  H4  1  0.18481575  0.80538342  0.58697817  1
  H  H5  1  0.20759960  0.02542905  0.23839120  1
  H  H6  1  0.27034702  0.61907895  0.31132789  1
  H  H7  1  0.22965298  0.11907895  0.68867211  1
  H  H8  1  0.29240040  0.52542905  0.76160880  1
  H  H9  1  0.31518425  0.30538342  0.41302183  1
  H  H10  1  0.68481575  0.69461658  0.58697817  1
  H  H11  1  0.70759960  0.47457095  0.23839120  1
  H  H12  1  0.77034702  0.88092105  0.31132789  1
  H  H13  1  0.72965298  0.38092105  0.68867211  1
  H  H14  1  0.79240040  0.97457095  0.76160880  1
  H  H15  1  0.81518425  0.19461658  0.41302183  1
  O  O16  1  0.15438500  0.50734579  0.79556918  1
  O  O17  1  0.17336233  0.81285273  0.76587560  1
  O  O18  1  0.25490386  0.19279571  0.77217662  1
  O  O19  1  0.24509614  0.69279571  0.22782338  1
  O  O20  1  0.32663767  0.31285273  0.23412440  1
  O  O21  1  0.34561500  0.00734579  0.20443082  1
  O  O22  1  0.65438500  0.99265421  0.79556918  1
  O  O23  1  0.67336233  0.68714727  0.76587560  1
  O  O24  1  0.75490386  0.30720429  0.77217662  1
  O  O25  1  0.74509614  0.80720429  0.22782338  1
  O  O26  1  0.82663767  0.18714727  0.23412440  1
  O  O27  1  0.84561500  0.49265421  0.20443082  1
