# generated using pymatgen
data_Mg6ZrGa
_symmetry_space_group_name_H-M   'P 1'
_cell_length_a   6.39658964
_cell_length_b   6.07730083
_cell_length_c   5.01379481
_cell_angle_alpha   90.00000000
_cell_angle_beta   90.00000000
_cell_angle_gamma   118.36210698
_symmetry_Int_Tables_number   1
_chemical_formula_structural   Mg6ZrGa
_chemical_formula_sum   'Mg6 Zr1 Ga1'
_cell_volume   171.51028277
_cell_formula_units_Z   1
loop_
 _symmetry_equiv_pos_site_id
 _symmetry_equiv_pos_as_xyz
  1  'x, y, z'
loop_
 _atom_site_type_symbol
 _atom_site_label
 _atom_site_symmetry_multiplicity
 _atom_site_fract_x
 _atom_site_fract_y
 _atom_site_fract_z
 _atom_site_occupancy
  Mg  Mg0  1  0.65642956  0.32780333  0.25000000  1
  Mg  Mg1  1  0.65642956  0.82862524  0.25000000  1
  Mg  Mg2  1  0.33894879  0.17241145  0.75000000  1
  Mg  Mg3  1  0.33894879  0.66653834  0.75000000  1
  Mg  Mg4  1  0.83876026  0.16938063  0.75000000  1
  Mg  Mg5  1  0.85234028  0.67617064  0.75000000  1
  Zr  Zr6  1  0.15175178  0.32587539  0.25000000  1
  Ga  Ga7  1  0.16639096  0.83319498  0.25000000  1
