# generated using pymatgen
data_SrU2Se5
_symmetry_space_group_name_H-M   'P 1'
_cell_length_a   7.74247966
_cell_length_b   8.21560411
_cell_length_c   12.86298194
_cell_angle_alpha   90.00000000
_cell_angle_beta   90.00000000
_cell_angle_gamma   90.00000000
_symmetry_Int_Tables_number   1
_chemical_formula_structural   SrU2Se5
_chemical_formula_sum   'Sr4 U8 Se20'
_cell_volume   818.20331829
_cell_formula_units_Z   4
loop_
 _symmetry_equiv_pos_site_id
 _symmetry_equiv_pos_as_xyz
  1  'x, y, z'
loop_
 _atom_site_type_symbol
 _atom_site_label
 _atom_site_symmetry_multiplicity
 _atom_site_fract_x
 _atom_site_fract_y
 _atom_site_fract_z
 _atom_site_occupancy
  Sr  Sr0  1  0.41915595  0.75000000  0.00620289  1
  Sr  Sr1  1  0.08084405  0.75000000  0.50620289  1
  Sr  Sr2  1  0.58084405  0.25000000  0.99379711  1
  Sr  Sr3  1  0.91915595  0.25000000  0.49379711  1
  U  U4  1  0.98804886  0.99948437  0.18201113  1
  U  U5  1  0.51195114  0.50051563  0.68201113  1
  U  U6  1  0.01195114  0.49948437  0.81798887  1
  U  U7  1  0.48804886  0.00051563  0.31798887  1
  U  U8  1  0.01195114  0.00051563  0.81798887  1
  U  U9  1  0.48804886  0.49948437  0.31798887  1
  U  U10  1  0.98804886  0.50051563  0.18201113  1
  U  U11  1  0.51195114  0.99948437  0.68201113  1
  Se  Se12  1  0.66925653  0.54837945  0.88053841  1
  Se  Se13  1  0.83074347  0.95162055  0.38053841  1
  Se  Se14  1  0.33074347  0.04837945  0.11946159  1
  Se  Se15  1  0.16925653  0.45162055  0.61946159  1
  Se  Se16  1  0.33074347  0.45162055  0.11946159  1
  Se  Se17  1  0.16925653  0.04837945  0.61946159  1
  Se  Se18  1  0.66925653  0.95162055  0.88053841  1
  Se  Se19  1  0.83074347  0.54837945  0.38053841  1
  Se  Se20  1  0.67801115  0.75000000  0.18514317  1
  Se  Se21  1  0.82198885  0.75000000  0.68514317  1
  Se  Se22  1  0.32198885  0.25000000  0.81485683  1
  Se  Se23  1  0.17801115  0.25000000  0.31485683  1
  Se  Se24  1  0.01939176  0.75000000  0.00149371  1
  Se  Se25  1  0.48060824  0.75000000  0.50149371  1
  Se  Se26  1  0.98060824  0.25000000  0.99850629  1
  Se  Se27  1  0.51939176  0.25000000  0.49850629  1
  Se  Se28  1  0.29129358  0.75000000  0.78288147  1
  Se  Se29  1  0.20870642  0.75000000  0.28288147  1
  Se  Se30  1  0.70870642  0.25000000  0.21711853  1
  Se  Se31  1  0.79129358  0.25000000  0.71711853  1
