# generated using pymatgen
data_MnP2O7
_symmetry_space_group_name_H-M   'P 1'
_cell_length_a   5.20685628
_cell_length_b   6.27307036
_cell_length_c   9.40262106
_cell_angle_alpha   109.03305308
_cell_angle_beta   100.51736351
_cell_angle_gamma   103.85475571
_symmetry_Int_Tables_number   1
_chemical_formula_structural   MnP2O7
_chemical_formula_sum   'Mn2 P4 O14'
_cell_volume   270.27761241
_cell_formula_units_Z   2
loop_
 _symmetry_equiv_pos_site_id
 _symmetry_equiv_pos_as_xyz
  1  'x, y, z'
loop_
 _atom_site_type_symbol
 _atom_site_label
 _atom_site_symmetry_multiplicity
 _atom_site_fract_x
 _atom_site_fract_y
 _atom_site_fract_z
 _atom_site_occupancy
  Mn  Mn0  1  0.10498772  0.60457697  0.35732228  1
  Mn  Mn1  1  0.89501228  0.39542303  0.64267772  1
  P  P2  1  0.26336048  0.15172904  0.38464076  1
  P  P3  1  0.56572930  0.68042433  0.85419648  1
  P  P4  1  0.43427070  0.31957567  0.14580352  1
  P  P5  1  0.73663952  0.84827096  0.61535924  1
  O  O6  1  0.07946471  0.90267488  0.35272804  1
  O  O7  1  0.08371896  0.31973999  0.41027123  1
  O  O8  1  0.26431796  0.53291741  0.77710964  1
  O  O9  1  0.23291471  0.46325772  0.16331438  1
  O  O10  1  0.36082382  0.17598139  0.97063389  1
  O  O11  1  0.48228172  0.75346261  0.47480453  1
  O  O12  1  0.63930989  0.86448860  0.76803086  1
  O  O13  1  0.36069011  0.13551140  0.23196914  1
  O  O14  1  0.51771828  0.24653739  0.52519547  1
  O  O15  1  0.63917618  0.82401861  0.02936611  1
  O  O16  1  0.76708529  0.53674228  0.83668562  1
  O  O17  1  0.73568204  0.46708259  0.22289036  1
  O  O18  1  0.91628104  0.68026001  0.58972877  1
  O  O19  1  0.92053529  0.09732512  0.64727196  1
