# generated using pymatgen
data_LaTaCrO6
_symmetry_space_group_name_H-M   'P 1'
_cell_length_a   5.49889183
_cell_length_b   5.49592897
_cell_length_c   5.49541729
_cell_angle_alpha   60.23397471
_cell_angle_beta   119.85235670
_cell_angle_gamma   89.72633311
_symmetry_Int_Tables_number   1
_chemical_formula_structural   LaTaCrO6
_chemical_formula_sum   'La1 Ta1 Cr1 O6'
_cell_volume   117.83163427
_cell_formula_units_Z   1
loop_
 _symmetry_equiv_pos_site_id
 _symmetry_equiv_pos_as_xyz
  1  'x, y, z'
loop_
 _atom_site_type_symbol
 _atom_site_label
 _atom_site_symmetry_multiplicity
 _atom_site_fract_x
 _atom_site_fract_y
 _atom_site_fract_z
 _atom_site_occupancy
  La  La0  1  0.75641218  0.26186904  0.49583790  1
  Ta  Ta1  1  0.50596126  0.01053269  0.00007860  1
  Cr  Cr2  1  0.00299222  0.51320209  0.99446819  1
  O  O3  1  0.31282794  0.25606955  0.49956075  1
  O  O4  1  0.21336518  0.29036759  0.94342854  1
  O  O5  1  0.77331212  0.71048689  0.06480869  1
  O  O6  1  0.20857051  0.79283393  0.94939338  1
  O  O7  1  0.77663170  0.24023382  0.05019159  1
  O  O8  1  0.71016490  0.76581540  0.50264536  1
