# generated using pymatgen
data_Ca3W2O9
_symmetry_space_group_name_H-M   'P 1'
_cell_length_a   8.57187922
_cell_length_b   7.79125208
_cell_length_c   9.31314051
_cell_angle_alpha   90.00000000
_cell_angle_beta   117.71465385
_cell_angle_gamma   90.00000000
_symmetry_Int_Tables_number   1
_chemical_formula_structural   Ca3W2O9
_chemical_formula_sum   'Ca6 W4 O18'
_cell_volume   550.62701071
_cell_formula_units_Z   2
loop_
 _symmetry_equiv_pos_site_id
 _symmetry_equiv_pos_as_xyz
  1  'x, y, z'
loop_
 _atom_site_type_symbol
 _atom_site_label
 _atom_site_symmetry_multiplicity
 _atom_site_fract_x
 _atom_site_fract_y
 _atom_site_fract_z
 _atom_site_occupancy
  Ca  Ca0  1  0.10771929  0.25000000  0.75025651  1
  Ca  Ca1  1  0.00000000  0.00000000  0.00000000  1
  Ca  Ca2  1  0.00000000  0.50000000  0.00000000  1
  Ca  Ca3  1  0.37150233  0.25000000  0.21546239  1
  Ca  Ca4  1  0.62849767  0.75000000  0.78453761  1
  Ca  Ca5  1  0.89228071  0.75000000  0.24974349  1
  W  W6  1  0.16255427  0.75000000  0.72689843  1
  W  W7  1  0.55609945  0.25000000  0.70753395  1
  W  W8  1  0.44390055  0.75000000  0.29246605  1
  W  W9  1  0.83744573  0.25000000  0.27310157  1
  O  O10  1  0.11756573  0.25000000  0.99153210  1
  O  O11  1  0.07383621  0.55796917  0.77594233  1
  O  O12  1  0.07383621  0.94203083  0.77594233  1
  O  O13  1  0.10848574  0.75000000  0.51494564  1
  O  O14  1  0.36695793  0.25000000  0.74321426  1
  O  O15  1  0.39915746  0.75000000  0.84223207  1
  O  O16  1  0.30972811  0.55799614  0.20401010  1
  O  O17  1  0.30972811  0.94200386  0.20401010  1
  O  O18  1  0.47609520  0.25000000  0.49133925  1
  O  O19  1  0.52390480  0.75000000  0.50866075  1
  O  O20  1  0.69027189  0.05799614  0.79598990  1
  O  O21  1  0.69027189  0.44200386  0.79598990  1
  O  O22  1  0.60084254  0.25000000  0.15776793  1
  O  O23  1  0.63304207  0.75000000  0.25678574  1
  O  O24  1  0.89151426  0.25000000  0.48505436  1
  O  O25  1  0.92616379  0.05796917  0.22405767  1
  O  O26  1  0.92616379  0.44203083  0.22405767  1
  O  O27  1  0.88243427  0.75000000  0.00846790  1
