# generated using pymatgen
data_Li2VSO4F3
_symmetry_space_group_name_H-M   'P 1'
_cell_length_a   7.09079382
_cell_length_b   10.04175269
_cell_length_c   7.88716475
_cell_angle_alpha   90.00000000
_cell_angle_beta   89.11210836
_cell_angle_gamma   90.00000000
_symmetry_Int_Tables_number   1
_chemical_formula_structural   Li2VSO4F3
_chemical_formula_sum   'Li8 V4 S4 O16 F12'
_cell_volume   561.53023117
_cell_formula_units_Z   4
loop_
 _symmetry_equiv_pos_site_id
 _symmetry_equiv_pos_as_xyz
  1  'x, y, z'
loop_
 _atom_site_type_symbol
 _atom_site_label
 _atom_site_symmetry_multiplicity
 _atom_site_fract_x
 _atom_site_fract_y
 _atom_site_fract_z
 _atom_site_occupancy
  Li  Li0  1  0.24043030  0.27675214  0.89322495  1
  Li  Li1  1  0.24043030  0.22324786  0.39322495  1
  Li  Li2  1  0.26682042  0.72376539  0.88498198  1
  Li  Li3  1  0.26682042  0.77623461  0.38498198  1
  Li  Li4  1  0.73317958  0.22376539  0.61501802  1
  Li  Li5  1  0.73317958  0.27623461  0.11501802  1
  Li  Li6  1  0.75956970  0.77675214  0.60677505  1
  Li  Li7  1  0.75956970  0.72324786  0.10677505  1
  V  V8  1  0.00000000  0.50000000  0.50000000  1
  V  V9  1  0.00000000  0.00000000  0.00000000  1
  V  V10  1  0.50000000  0.50000000  0.50000000  1
  V  V11  1  0.50000000  0.00000000  0.00000000  1
  S  S12  1  0.25391111  0.99898525  0.66636956  1
  S  S13  1  0.25391111  0.50101475  0.16636956  1
  S  S14  1  0.74608889  0.49898525  0.83363044  1
  S  S15  1  0.74608889  0.00101475  0.33363044  1
  O  O16  1  0.11576691  0.07469354  0.78196489  1
  O  O17  1  0.11576691  0.42530646  0.28196489  1
  O  O18  1  0.15757227  0.90184874  0.56109031  1
  O  O19  1  0.15757227  0.59815126  0.06109031  1
  O  O20  1  0.35560615  0.10097196  0.56767985  1
  O  O21  1  0.35560615  0.39902804  0.06767985  1
  O  O22  1  0.38312116  0.92136007  0.78276137  1
  O  O23  1  0.38312116  0.57863993  0.28276137  1
  O  O24  1  0.61687884  0.42136007  0.71723863  1
  O  O25  1  0.61687884  0.07863993  0.21723863  1
  O  O26  1  0.64439385  0.60097196  0.93232015  1
  O  O27  1  0.64439385  0.89902804  0.43232015  1
  O  O28  1  0.84242773  0.40184874  0.93890969  1
  O  O29  1  0.84242773  0.09815126  0.43890969  1
  O  O30  1  0.88423309  0.57469354  0.71803511  1
  O  O31  1  0.88423309  0.92530646  0.21803511  1
  F  F32  1  0.02766093  0.81908609  0.92197746  1
  F  F33  1  0.02766093  0.68091391  0.42197746  1
  F  F34  1  0.25122493  0.49730351  0.61679750  1
  F  F35  1  0.25122493  0.00269649  0.11679750  1
  F  F36  1  0.47360629  0.17935039  0.91802370  1
  F  F37  1  0.47360629  0.32064961  0.41802370  1
  F  F38  1  0.52639371  0.67935039  0.58197630  1
  F  F39  1  0.52639371  0.82064961  0.08197630  1
  F  F40  1  0.74877507  0.99730351  0.88320250  1
  F  F41  1  0.74877507  0.50269649  0.38320250  1
  F  F42  1  0.97233907  0.31908609  0.57802254  1
  F  F43  1  0.97233907  0.18091391  0.07802254  1
