# generated using pymatgen
data_Li3MnPCO7
_symmetry_space_group_name_H-M   'P 1'
_cell_length_a   5.28065769
_cell_length_b   6.71092898
_cell_length_c   8.33001354
_cell_angle_alpha   90.11385525
_cell_angle_beta   90.10536013
_cell_angle_gamma   90.00523318
_symmetry_Int_Tables_number   1
_chemical_formula_structural   Li3MnPCO7
_chemical_formula_sum   'Li6 Mn2 P2 C2 O14'
_cell_volume   295.19892525
_cell_formula_units_Z   2
loop_
 _symmetry_equiv_pos_site_id
 _symmetry_equiv_pos_as_xyz
  1  'x, y, z'
loop_
 _atom_site_type_symbol
 _atom_site_label
 _atom_site_symmetry_multiplicity
 _atom_site_fract_x
 _atom_site_fract_y
 _atom_site_fract_z
 _atom_site_occupancy
  Li  Li0  1  0.40019864  0.27471541  0.03337102  1
  Li  Li1  1  0.40078051  0.72581514  0.03426623  1
  Li  Li2  1  0.46654847  0.00048884  0.39642350  1
  Li  Li3  1  0.89904373  0.22540744  0.59958708  1
  Li  Li4  1  0.90003140  0.77403292  0.59884870  1
  Li  Li5  1  0.96573994  0.49943069  0.23623861  1
  Mn  Mn6  1  0.47673770  0.49993502  0.64238200  1
  Mn  Mn7  1  0.97728058  0.00009834  0.99035329  1
  P  P8  1  0.03263072  0.50011550  0.90735179  1
  P  P9  1  0.53143097  0.99990590  0.72546980  1
  C  C10  1  0.49133267  0.49987163  0.32649054  1
  C  C11  1  0.98917187  0.00008908  0.30627533  1
  O  O12  1  0.99677599  0.99995123  0.46046846  1
  O  O13  1  0.20164393  0.99938813  0.22410612  1
  O  O14  1  0.27526178  0.49894813  0.40149092  1
  O  O15  1  0.32295096  0.50110050  0.86968923  1
  O  O16  1  0.38440469  0.00110250  0.88704926  1
  O  O17  1  0.48108979  0.81610299  0.61641805  1
  O  O18  1  0.48379022  0.18373961  0.61640362  1
  O  O19  1  0.50111145  0.50004016  0.17239946  1
  O  O20  1  0.70283337  0.50058860  0.41014822  1
  O  O21  1  0.77404642  0.00098087  0.22981505  1
  O  O22  1  0.82193257  0.99887196  0.76318998  1
  O  O23  1  0.88476243  0.49898810  0.74579279  1
  O  O24  1  0.98306572  0.68397142  0.01639264  1
  O  O25  1  0.98543249  0.31630788  0.01643130  1
