# generated using pymatgen
data_Li5Fe2Co3O10
_symmetry_space_group_name_H-M   'P 1'
_cell_length_a   5.16593627
_cell_length_b   5.15702449
_cell_length_c   7.78243400
_cell_angle_alpha   108.44907031
_cell_angle_beta   103.92324599
_cell_angle_gamma   99.06327895
_symmetry_Int_Tables_number   1
_chemical_formula_structural   Li5Fe2Co3O10
_chemical_formula_sum   'Li5 Fe2 Co3 O10'
_cell_volume   184.64646034
_cell_formula_units_Z   1
loop_
 _symmetry_equiv_pos_site_id
 _symmetry_equiv_pos_as_xyz
  1  'x, y, z'
loop_
 _atom_site_type_symbol
 _atom_site_label
 _atom_site_symmetry_multiplicity
 _atom_site_fract_x
 _atom_site_fract_y
 _atom_site_fract_z
 _atom_site_occupancy
  Li  Li0  1  0.20890297  0.91983689  0.41253379  1
  Li  Li1  1  0.39861320  0.29620597  0.78815275  1
  Li  Li2  1  0.50000000  0.50000000  0.50000000  1
  Li  Li3  1  0.60138680  0.70379403  0.21184725  1
  Li  Li4  1  0.79109703  0.08016311  0.58746621  1
  Fe  Fe5  1  0.09881121  0.69249757  0.69163611  1
  Fe  Fe6  1  0.90118879  0.30750243  0.30836389  1
  Co  Co7  1  0.00000000  0.50000000  0.00000000  1
  Co  Co8  1  0.69272053  0.89916024  0.89041748  1
  Co  Co9  1  0.30727947  0.10083976  0.10958252  1
  O  O10  1  0.05266896  0.09225548  0.86003983  1
  O  O11  1  0.34237244  0.71208554  0.95036208  1
  O  O12  1  0.14301604  0.31381321  0.54790929  1
  O  O13  1  0.22627570  0.48570645  0.23017460  1
  O  O14  1  0.45834950  0.89731161  0.66708326  1
  O  O15  1  0.54165050  0.10268839  0.33291674  1
  O  O16  1  0.77372430  0.51429355  0.76982540  1
  O  O17  1  0.85698396  0.68618679  0.45209071  1
  O  O18  1  0.65762756  0.28791446  0.04963792  1
  O  O19  1  0.94733104  0.90774452  0.13996017  1
