# generated using pymatgen
data_Li4Fe5SnO12
_symmetry_space_group_name_H-M   'P 1'
_cell_length_a   5.28828162
_cell_length_b   5.24623853
_cell_length_c   10.36223910
_cell_angle_alpha   90.71147138
_cell_angle_beta   91.41174440
_cell_angle_gamma   59.73455029
_symmetry_Int_Tables_number   1
_chemical_formula_structural   Li4Fe5SnO12
_chemical_formula_sum   'Li4 Fe5 Sn1 O12'
_cell_volume   248.22590654
_cell_formula_units_Z   1
loop_
 _symmetry_equiv_pos_site_id
 _symmetry_equiv_pos_as_xyz
  1  'x, y, z'
loop_
 _atom_site_type_symbol
 _atom_site_label
 _atom_site_symmetry_multiplicity
 _atom_site_fract_x
 _atom_site_fract_y
 _atom_site_fract_z
 _atom_site_occupancy
  Li  Li0  1  0.14277187  0.47266430  0.74600303  1
  Li  Li1  1  0.38456483  0.47266430  0.25399697  1
  Li  Li2  1  0.61543517  0.52733570  0.74600303  1
  Li  Li3  1  0.85722813  0.52733570  0.25399697  1
  Fe  Fe4  1  0.16438256  0.67123389  0.50000000  1
  Fe  Fe5  1  0.66287223  0.67425654  1.00000000  1
  Fe  Fe6  1  0.33712777  0.32574346  0.00000000  1
  Fe  Fe7  1  0.83561744  0.32876611  0.50000000  1
  Fe  Fe8  1  0.50000000  0.00000000  0.50000000  1
  Sn  Sn9  1  0.00000000  0.00000000  0.00000000  1
  O  O10  1  0.01888929  0.64983937  0.10905950  1
  O  O11  1  0.33127034  0.64983937  0.89094050  1
  O  O12  1  0.16663638  0.35363611  0.39290822  1
  O  O13  1  0.52027249  0.64636389  0.39290822  1
  O  O14  1  0.47972751  0.35363611  0.60709178  1
  O  O15  1  0.17165043  0.00000000  0.59317465  1
  O  O16  1  0.83336362  0.64636389  0.60709178  1
  O  O17  1  0.66872966  0.35016063  0.10905950  1
  O  O18  1  0.34024863  1.00000000  0.10048075  1
  O  O19  1  0.98111071  0.35016063  0.89094050  1
  O  O20  1  0.65975137  0.00000000  0.89951925  1
  O  O21  1  0.82834957  1.00000000  0.40682535  1
