# generated using pymatgen
data_Li2TiFeO4
_symmetry_space_group_name_H-M   'P 1'
_cell_length_a   4.20642769
_cell_length_b   4.07942874
_cell_length_c   9.30807883
_cell_angle_alpha   77.59508427
_cell_angle_beta   76.74332722
_cell_angle_gamma   90.13832910
_symmetry_Int_Tables_number   1
_chemical_formula_structural   Li2TiFeO4
_chemical_formula_sum   'Li4 Ti2 Fe2 O8'
_cell_volume   151.61461719
_cell_formula_units_Z   2
loop_
 _symmetry_equiv_pos_site_id
 _symmetry_equiv_pos_as_xyz
  1  'x, y, z'
loop_
 _atom_site_type_symbol
 _atom_site_label
 _atom_site_symmetry_multiplicity
 _atom_site_fract_x
 _atom_site_fract_y
 _atom_site_fract_z
 _atom_site_occupancy
  Li  Li0  1  0.87166841  0.37376261  0.25281835  1
  Li  Li1  1  0.63067970  0.12402152  0.74656887  1
  Li  Li2  1  0.49058731  0.47969659  0.03415678  1
  Li  Li3  1  0.25893881  0.26781042  0.47100390  1
  Ti  Ti4  1  0.72687625  0.78516921  0.49346747  1
  Ti  Ti5  1  0.03501135  0.99252116  0.00438054  1
  Fe  Fe6  1  0.37258973  0.87188696  0.25250496  1
  Fe  Fe7  1  0.12474155  0.61848613  0.75397574  1
  O  O8  1  0.87073589  0.86786570  0.25742175  1
  O  O9  1  0.64540717  0.63597227  0.71149043  1
  O  O10  1  0.75452084  0.23398197  0.49534847  1
  O  O11  1  0.26599276  0.74639402  0.50248832  1
  O  O12  1  0.37308674  0.37201578  0.25206641  1
  O  O13  1  0.09663405  0.09990625  0.79306548  1
  O  O14  1  0.47545671  0.99584332  0.00281590  1
  O  O15  1  0.99208473  0.49377907  0.00836562  1
