# generated using pymatgen
data_Na3Fe2P(CO4)4
_symmetry_space_group_name_H-M   'P 1'
_cell_length_a   9.84270685
_cell_length_b   9.92614210
_cell_length_c   9.84270685
_cell_angle_alpha   60.30074027
_cell_angle_beta   89.95958178
_cell_angle_gamma   119.69925973
_symmetry_Int_Tables_number   1
_chemical_formula_structural   Na3Fe2P(CO4)4
_chemical_formula_sum   'Na6 Fe4 P2 C8 O32'
_cell_volume   685.87922046
_cell_formula_units_Z   2
loop_
 _symmetry_equiv_pos_site_id
 _symmetry_equiv_pos_as_xyz
  1  'x, y, z'
loop_
 _atom_site_type_symbol
 _atom_site_label
 _atom_site_symmetry_multiplicity
 _atom_site_fract_x
 _atom_site_fract_y
 _atom_site_fract_z
 _atom_site_occupancy
  Na  Na0  1  0.34847970  0.26382382  0.33199071  1
  Na  Na1  1  0.90418548  0.23617618  0.91534412  1
  Na  Na2  1  0.08465588  0.73617618  0.09581452  1
  Na  Na3  1  0.66800929  0.76382382  0.65152030  1
  Na  Na4  1  0.34002882  0.25000000  0.90997118  1
  Na  Na5  1  0.09002882  0.75000000  0.65997118  1
  Fe  Fe6  1  0.50035759  0.99324815  0.00212391  1
  Fe  Fe7  1  0.50710944  0.00675185  0.49537206  1
  Fe  Fe8  1  0.50462794  0.50675185  0.49289056  1
  Fe  Fe9  1  0.99787609  0.49324815  0.49964241  1
  P  P10  1  0.12522919  0.25000000  0.12477081  1
  P  P11  1  0.87522919  0.75000000  0.87477081  1
  C  C12  1  0.71517551  0.07575792  0.71118022  1
  C  C13  1  0.71306185  0.42424208  0.36058341  1
  C  C14  1  0.35821654  0.07553814  0.71360014  1
  C  C15  1  0.71086172  0.42446186  0.71732161  1
  C  C16  1  0.63941659  0.92424208  0.28693815  1
  C  C17  1  0.28881978  0.57575792  0.28482449  1
  C  C18  1  0.28639986  0.57553814  0.64178346  1
  C  C19  1  0.28267839  0.92446186  0.28913828  1
  O  O20  1  0.64650233  0.04237716  0.14139235  1
  O  O21  1  0.85606259  0.21877398  0.59773295  1
  O  O22  1  0.68349307  0.28122602  0.36271139  1
  O  O23  1  0.39290253  0.04329640  0.31674315  1
  O  O24  1  0.85860765  0.54237716  0.35349767  1
  O  O25  1  0.31645622  0.37380643  0.06453186  1
  O  O26  1  0.06166171  0.12619357  0.05734921  1
  O  O27  1  0.59761665  0.45230209  0.36082861  1
  O  O28  1  0.68686930  0.04769791  0.85468644  1
  O  O29  1  0.35259837  0.04204616  0.60016142  1
  O  O30  1  0.85779242  0.45795384  0.68944779  1
  O  O31  1  0.06499498  0.38015213  0.05735189  1
  O  O32  1  0.06249598  0.11984787  0.31515615  1
  O  O33  1  0.63728861  0.78122602  0.31650693  1
  O  O34  1  0.40226705  0.71877398  0.14393741  1
  O  O35  1  0.68325685  0.54329540  0.60709747  1
  O  O36  1  0.31623049  0.45762284  0.39587483  1
  O  O37  1  0.36557424  0.22210778  0.68255487  1
  O  O38  1  0.59533735  0.27789222  0.85653354  1
  O  O39  1  0.93546814  0.87380643  0.68354378  1
  O  O40  1  0.94265079  0.62619357  0.93833829  1
  O  O41  1  0.14531356  0.54769791  0.31313070  1
  O  O42  1  0.63917139  0.95230209  0.40238335  1
  O  O43  1  0.31055221  0.95795384  0.14220758  1
  O  O44  1  0.39983858  0.54204616  0.64740163  1
  O  O45  1  0.94264811  0.88015213  0.93500502  1
  O  O46  1  0.68484385  0.61984787  0.93750402  1
  O  O47  1  0.13996145  0.45670460  0.65039287  1
  O  O48  1  0.60412517  0.95762284  0.68376951  1
  O  O49  1  0.31744513  0.72210778  0.63442576  1
  O  O50  1  0.14346646  0.77789222  0.40466265  1
  O  O51  1  0.34960713  0.95670460  0.86003855  1
