# generated using pymatgen
data_Li6CrO6
_symmetry_space_group_name_H-M   'P 1'
_cell_length_a   5.61539105
_cell_length_b   5.65940279
_cell_length_c   10.90349278
_cell_angle_alpha   89.07134357
_cell_angle_beta   89.95985646
_cell_angle_gamma   60.24854693
_symmetry_Int_Tables_number   1
_chemical_formula_structural   Li6CrO6
_chemical_formula_sum   'Li12 Cr2 O12'
_cell_volume   300.78526798
_cell_formula_units_Z   2
loop_
 _symmetry_equiv_pos_site_id
 _symmetry_equiv_pos_as_xyz
  1  'x, y, z'
loop_
 _atom_site_type_symbol
 _atom_site_label
 _atom_site_symmetry_multiplicity
 _atom_site_fract_x
 _atom_site_fract_y
 _atom_site_fract_z
 _atom_site_occupancy
  Li  Li0  1  0.97289223  0.64257804  0.73366113  1
  Li  Li1  1  0.99759516  0.61712783  0.14770420  1
  Li  Li2  1  0.38505393  0.64244991  0.23286202  1
  Li  Li3  1  0.99644622  0.29634188  0.25785645  1
  Li  Li4  1  0.38568597  0.61704800  0.64742918  1
  Li  Li5  1  0.32492218  0.34581997  0.40980966  1
  Li  Li6  1  0.64481328  0.67196582  0.91003791  1
  Li  Li7  1  0.32934084  0.34613868  0.90960829  1
  Li  Li8  1  0.68348038  0.67174174  0.41013948  1
  Li  Li9  1  0.36159282  0.02922560  0.73133096  1
  Li  Li10  1  0.70680438  0.29723793  0.75811420  1
  Li  Li11  1  0.60902172  0.02943608  0.23042315  1
  Cr  Cr12  1  0.99971595  0.99880241  0.50158884  1
  Cr  Cr13  1  0.00084675  0.99915263  0.00099201  1
  O  O14  1  0.99607918  0.71526314  0.95764445  1
  O  O15  1  0.28822475  0.71550661  0.45826675  1
  O  O16  1  0.00254135  0.27736381  0.44922395  1
  O  O17  1  0.30064496  0.36169014  0.23769840  1
  O  O18  1  0.63937625  0.66416458  0.73796791  1
  O  O19  1  0.00367963  0.98656975  0.15513759  1
  O  O20  1  0.00935554  0.98721919  0.65570722  1
  O  O21  1  0.33798554  0.36163361  0.73767859  1
  O  O22  1  0.69663031  0.66425251  0.23794389  1
  O  O23  1  0.27666415  0.00427443  0.94788953  1
  O  O24  1  0.71960577  0.27734268  0.94915763  1
  O  O25  1  0.71870077  0.00405503  0.44894760  1
