# generated using pymatgen
data_LiCrB2O5
_symmetry_space_group_name_H-M   'P 1'
_cell_length_a   12.03099870
_cell_length_b   5.40538635
_cell_length_c   10.67555494
_cell_angle_alpha   90.00000000
_cell_angle_beta   90.00000000
_cell_angle_gamma   79.53632385
_symmetry_Int_Tables_number   1
_chemical_formula_structural   LiCrB2O5
_chemical_formula_sum   'Li8 Cr8 B16 O40'
_cell_volume   682.70949461
_cell_formula_units_Z   8
loop_
 _symmetry_equiv_pos_site_id
 _symmetry_equiv_pos_as_xyz
  1  'x, y, z'
loop_
 _atom_site_type_symbol
 _atom_site_label
 _atom_site_symmetry_multiplicity
 _atom_site_fract_x
 _atom_site_fract_y
 _atom_site_fract_z
 _atom_site_occupancy
  Li  Li0  1  0.06297827  0.38020902  0.36898031  1
  Li  Li1  1  0.06297827  0.88020902  0.13101969  1
  Li  Li2  1  0.43800515  0.11864791  0.87984948  1
  Li  Li3  1  0.43800515  0.61864791  0.62015052  1
  Li  Li4  1  0.56199485  0.38135209  0.37984948  1
  Li  Li5  1  0.56199485  0.88135209  0.12015052  1
  Li  Li6  1  0.93702173  0.11979098  0.86898031  1
  Li  Li7  1  0.93702173  0.61979098  0.63101969  1
  Cr  Cr8  1  0.23851375  0.26950554  0.62346297  1
  Cr  Cr9  1  0.25894687  0.25469716  0.12426000  1
  Cr  Cr10  1  0.23851375  0.76950554  0.87653703  1
  Cr  Cr11  1  0.25894687  0.75469716  0.37574000  1
  Cr  Cr12  1  0.74105313  0.24530284  0.62426000  1
  Cr  Cr13  1  0.76148625  0.23049446  0.12346297  1
  Cr  Cr14  1  0.74105313  0.74530284  0.87574000  1
  Cr  Cr15  1  0.76148625  0.73049446  0.37653703  1
  B  B16  1  0.00548713  0.14546621  0.62914025  1
  B  B17  1  0.00548713  0.64546621  0.87085975  1
  B  B18  1  0.16634389  0.30591664  0.88018437  1
  B  B19  1  0.16634389  0.80591664  0.61981563  1
  B  B20  1  0.33425850  0.20575228  0.37116759  1
  B  B21  1  0.33425850  0.70575228  0.12883241  1
  B  B22  1  0.50901709  0.15749013  0.61326389  1
  B  B23  1  0.49098291  0.34250987  0.11326389  1
  B  B24  1  0.50901709  0.65749013  0.88673611  1
  B  B25  1  0.49098291  0.84250987  0.38673611  1
  B  B26  1  0.66574150  0.29424772  0.87116759  1
  B  B27  1  0.66574150  0.79424772  0.62883241  1
  B  B28  1  0.83365611  0.19408336  0.38018437  1
  B  B29  1  0.83365611  0.69408336  0.11981563  1
  B  B30  1  0.99451287  0.35453379  0.12914025  1
  B  B31  1  0.99451287  0.85453379  0.37085975  1
  O  O32  1  0.07097339  0.32141635  0.60483819  1
  O  O33  1  0.05045576  0.38353041  0.89029885  1
  O  O34  1  0.09970507  0.28608307  0.17730897  1
  O  O35  1  0.07097339  0.82141635  0.89516181  1
  O  O36  1  0.05045576  0.88353041  0.60970115  1
  O  O37  1  0.09970507  0.78608307  0.32269103  1
  O  O38  1  0.22303961  0.11634476  0.95516743  1
  O  O39  1  0.25583242  0.11255850  0.44595531  1
  O  O40  1  0.22719701  0.42998046  0.79854170  1
  O  O41  1  0.22303961  0.61634476  0.54483257  1
  O  O42  1  0.29482527  0.40610417  0.29297589  1
  O  O43  1  0.25583242  0.61255850  0.05404469  1
  O  O44  1  0.22719701  0.92998046  0.70145830  1
  O  O45  1  0.29482527  0.90610417  0.20702411  1
  O  O46  1  0.40218921  0.25670482  0.64697347  1
  O  O47  1  0.44977364  0.10660258  0.37138027  1
  O  O48  1  0.41998072  0.18749096  0.07297181  1
  O  O49  1  0.40218921  0.75670482  0.85302653  1
  O  O50  1  0.44977364  0.60660258  0.12861973  1
  O  O51  1  0.41998072  0.68749096  0.42702819  1
  O  O52  1  0.58001928  0.31250904  0.57297181  1
  O  O53  1  0.55022636  0.39339742  0.87138027  1
  O  O54  1  0.59781079  0.24329518  0.14697347  1
  O  O55  1  0.58001928  0.81250904  0.92702819  1
  O  O56  1  0.55022636  0.89339742  0.62861973  1
  O  O57  1  0.59781079  0.74329518  0.35302653  1
  O  O58  1  0.70517473  0.09389583  0.79297589  1
  O  O59  1  0.77280299  0.07001954  0.29854170  1
  O  O60  1  0.74416758  0.38744150  0.94595531  1
  O  O61  1  0.70517473  0.59389583  0.70702411  1
  O  O62  1  0.77696039  0.38365524  0.45516743  1
  O  O63  1  0.77280299  0.57001954  0.20145830  1
  O  O64  1  0.74416758  0.88744150  0.55404469  1
  O  O65  1  0.77696039  0.88365524  0.04483257  1
  O  O66  1  0.90029493  0.21391693  0.67730897  1
  O  O67  1  0.94954424  0.11646959  0.39029885  1
  O  O68  1  0.92902661  0.17858365  0.10483819  1
  O  O69  1  0.90029493  0.71391693  0.82269103  1
  O  O70  1  0.94954424  0.61646959  0.10970115  1
  O  O71  1  0.92902661  0.67858365  0.39516181  1
