# generated using pymatgen
data_Li3V(BO3)2
_symmetry_space_group_name_H-M   'P 1'
_cell_length_a   5.97130990
_cell_length_b   8.76463351
_cell_length_c   8.60857454
_cell_angle_alpha   90.00000000
_cell_angle_beta   90.48610881
_cell_angle_gamma   90.00000000
_symmetry_Int_Tables_number   1
_chemical_formula_structural   Li3V(BO3)2
_chemical_formula_sum   'Li12 V4 B8 O24'
_cell_volume   450.52509339
_cell_formula_units_Z   4
loop_
 _symmetry_equiv_pos_site_id
 _symmetry_equiv_pos_as_xyz
  1  'x, y, z'
loop_
 _atom_site_type_symbol
 _atom_site_label
 _atom_site_symmetry_multiplicity
 _atom_site_fract_x
 _atom_site_fract_y
 _atom_site_fract_z
 _atom_site_occupancy
  Li  Li0  1  0.99010467  0.24154235  0.15296065  1
  Li  Li1  1  0.02418916  0.77040738  0.39693326  1
  Li  Li2  1  0.28351574  0.41739127  0.40199335  1
  Li  Li3  1  0.21648426  0.91739127  0.09800665  1
  Li  Li4  1  0.47581084  0.27040738  0.10306674  1
  Li  Li5  1  0.50989533  0.74154235  0.34703935  1
  Li  Li6  1  0.49010467  0.25845765  0.65296065  1
  Li  Li7  1  0.52418916  0.72959262  0.89693326  1
  Li  Li8  1  0.78351574  0.08260873  0.90199335  1
  Li  Li9  1  0.71648426  0.58260873  0.59800665  1
  Li  Li10  1  0.97581084  0.22959262  0.60306674  1
  Li  Li11  1  0.00989533  0.75845765  0.84703935  1
  V  V12  1  0.16139887  0.40106191  0.86897718  1
  V  V13  1  0.33860113  0.90106191  0.63102282  1
  V  V14  1  0.66139887  0.09893809  0.36897718  1
  V  V15  1  0.83860113  0.59893809  0.13102282  1
  B  B16  1  0.21872821  0.10629680  0.36402073  1
  B  B17  1  0.24987768  0.56516124  0.63650075  1
  B  B18  1  0.25012232  0.06516124  0.86349925  1
  B  B19  1  0.28127179  0.60629680  0.13597927  1
  B  B20  1  0.71872821  0.39370320  0.86402073  1
  B  B21  1  0.74987768  0.93483876  0.13650075  1
  B  B22  1  0.75012232  0.43483876  0.36349925  1
  B  B23  1  0.78127179  0.89370320  0.63597927  1
  O  O24  1  0.99762048  0.14030881  0.37311677  1
  O  O25  1  0.17589320  0.46687272  0.10317808  1
  O  O26  1  0.13306693  0.71804416  0.18364148  1
  O  O27  1  0.19137344  0.41199783  0.61733453  1
  O  O28  1  0.18648200  0.15530758  0.98613443  1
  O  O29  1  0.24567627  0.61226891  0.79118058  1
  O  O30  1  0.25432373  0.11226891  0.70881942  1
  O  O31  1  0.31351800  0.65530758  0.51386557  1
  O  O32  1  0.36693307  0.21804416  0.31635852  1
  O  O33  1  0.30862656  0.91199783  0.88266547  1
  O  O34  1  0.32410680  0.96687272  0.39682192  1
  O  O35  1  0.50237952  0.64030881  0.12688323  1
  O  O36  1  0.49762048  0.35969119  0.87311677  1
  O  O37  1  0.67589320  0.03312728  0.60317808  1
  O  O38  1  0.69137344  0.08800217  0.11733453  1
  O  O39  1  0.63306693  0.78195584  0.68364148  1
  O  O40  1  0.68648200  0.34469242  0.48613443  1
  O  O41  1  0.74567627  0.88773109  0.29118058  1
  O  O42  1  0.75432373  0.38773109  0.20881942  1
  O  O43  1  0.81351800  0.84469242  0.01386557  1
  O  O44  1  0.80862656  0.58800217  0.38266547  1
  O  O45  1  0.86693307  0.28195584  0.81635852  1
  O  O46  1  0.82410680  0.53312728  0.89682192  1
  O  O47  1  0.00237952  0.85969119  0.62688323  1
