# generated using pymatgen
data_MnCSO7
_symmetry_space_group_name_H-M   'P 1'
_cell_length_a   8.71139768
_cell_length_b   6.22093442
_cell_length_c   5.14138943
_cell_angle_alpha   90.00000000
_cell_angle_beta   86.51477085
_cell_angle_gamma   90.00000000
_symmetry_Int_Tables_number   1
_chemical_formula_structural   MnCSO7
_chemical_formula_sum   'Mn2 C2 S2 O14'
_cell_volume   278.11217006
_cell_formula_units_Z   2
loop_
 _symmetry_equiv_pos_site_id
 _symmetry_equiv_pos_as_xyz
  1  'x, y, z'
loop_
 _atom_site_type_symbol
 _atom_site_label
 _atom_site_symmetry_multiplicity
 _atom_site_fract_x
 _atom_site_fract_y
 _atom_site_fract_z
 _atom_site_occupancy
  Mn  Mn0  1  0.33014140  0.75000000  0.78224041  1
  Mn  Mn1  1  0.66985860  0.25000000  0.21775959  1
  C  C2  1  0.05793314  0.75000000  0.73173850  1
  C  C3  1  0.94206686  0.25000000  0.26826150  1
  S  S4  1  0.42467525  0.25000000  0.71758225  1
  S  S5  1  0.57532475  0.75000000  0.28241775  1
  O  O6  1  0.08078312  0.25000000  0.29876104  1
  O  O7  1  0.12379854  0.75000000  0.95653696  1
  O  O8  1  0.16266153  0.75000000  0.53538943  1
  O  O9  1  0.32342972  0.06311868  0.78681710  1
  O  O10  1  0.32342972  0.43688132  0.78681710  1
  O  O11  1  0.43523174  0.75000000  0.13825663  1
  O  O12  1  0.46716803  0.25000000  0.43216526  1
  O  O13  1  0.53283197  0.75000000  0.56783474  1
  O  O14  1  0.56476826  0.25000000  0.86174337  1
  O  O15  1  0.67657028  0.56311868  0.21318290  1
  O  O16  1  0.67657028  0.93688132  0.21318290  1
  O  O17  1  0.83733847  0.25000000  0.46461057  1
  O  O18  1  0.87620146  0.25000000  0.04346304  1
  O  O19  1  0.91921688  0.75000000  0.70123896  1
