# generated using pymatgen
data_Rb2PrO3
_symmetry_space_group_name_H-M   'P 1'
_cell_length_a   6.79889055
_cell_length_b   6.79889055
_cell_length_c   12.20921918
_cell_angle_alpha   78.90767081
_cell_angle_beta   101.09232919
_cell_angle_gamma   71.47600589
_symmetry_Int_Tables_number   1
_chemical_formula_structural   Rb2PrO3
_chemical_formula_sum   'Rb8 Pr4 O12'
_cell_volume   505.26677152
_cell_formula_units_Z   4
loop_
 _symmetry_equiv_pos_site_id
 _symmetry_equiv_pos_as_xyz
  1  'x, y, z'
loop_
 _atom_site_type_symbol
 _atom_site_label
 _atom_site_symmetry_multiplicity
 _atom_site_fract_x
 _atom_site_fract_y
 _atom_site_fract_z
 _atom_site_occupancy
  Rb  Rb0  1  0.12005191  0.63340094  0.74271071  1
  Rb  Rb1  1  0.36659906  0.87994809  0.24271071  1
  Rb  Rb2  1  0.05004320  0.20616755  0.59474135  1
  Rb  Rb3  1  0.20616755  0.05004320  0.90525865  1
  Rb  Rb4  1  0.79383245  0.94995680  0.09474135  1
  Rb  Rb5  1  0.94995680  0.79383245  0.40525865  1
  Rb  Rb6  1  0.63340094  0.12005191  0.75728929  1
  Rb  Rb7  1  0.87994809  0.36659906  0.25728929  1
  Pr  Pr8  1  0.71123934  0.53848987  0.92219006  1
  Pr  Pr9  1  0.53848987  0.71123934  0.57780994  1
  Pr  Pr10  1  0.46151013  0.28876066  0.42219006  1
  Pr  Pr11  1  0.28876066  0.46151013  0.07780994  1
  O  O12  1  0.44796686  0.80475114  0.75014766  1
  O  O13  1  0.72647057  0.96271630  0.55388282  1
  O  O14  1  0.48177893  0.32814320  0.94544461  1
  O  O15  1  0.32814320  0.48177893  0.55455539  1
  O  O16  1  0.96271630  0.72647057  0.94611718  1
  O  O17  1  0.19524886  0.55203314  0.25014766  1
  O  O18  1  0.80475114  0.44796686  0.74985234  1
  O  O19  1  0.03728370  0.27352943  0.05388282  1
  O  O20  1  0.67185680  0.51822107  0.44544461  1
  O  O21  1  0.51822107  0.67185680  0.05455539  1
  O  O22  1  0.27352943  0.03728370  0.44611718  1
  O  O23  1  0.55203314  0.19524886  0.24985234  1
