# generated using pymatgen
data_Ti2Zn(CuO4)2
_symmetry_space_group_name_H-M   'P 1'
_cell_length_a   6.45439344
_cell_length_b   8.39809326
_cell_length_c   12.01013801
_cell_angle_alpha   90.00000000
_cell_angle_beta   91.50207531
_cell_angle_gamma   90.00000000
_symmetry_Int_Tables_number   1
_chemical_formula_structural   Ti2Zn(CuO4)2
_chemical_formula_sum   'Ti8 Zn4 Cu8 O32'
_cell_volume   650.78100314
_cell_formula_units_Z   4
loop_
 _symmetry_equiv_pos_site_id
 _symmetry_equiv_pos_as_xyz
  1  'x, y, z'
loop_
 _atom_site_type_symbol
 _atom_site_label
 _atom_site_symmetry_multiplicity
 _atom_site_fract_x
 _atom_site_fract_y
 _atom_site_fract_z
 _atom_site_occupancy
  Ti  Ti0  1  0.09946693  0.45703337  0.84147516  1
  Ti  Ti1  1  0.09946693  0.04296663  0.34147516  1
  Ti  Ti2  1  0.60888800  0.08964530  0.13639480  1
  Ti  Ti3  1  0.90053307  0.95703337  0.65852484  1
  Ti  Ti4  1  0.39111200  0.91035470  0.86360520  1
  Ti  Ti5  1  0.39111200  0.58964530  0.36360520  1
  Ti  Ti6  1  0.60888800  0.41035470  0.63639480  1
  Ti  Ti7  1  0.90053307  0.54296663  0.15852484  1
  Zn  Zn8  1  0.11019233  0.15894159  0.05052924  1
  Zn  Zn9  1  0.88980767  0.84105841  0.94947076  1
  Zn  Zn10  1  0.88980767  0.65894159  0.44947076  1
  Zn  Zn11  1  0.11019233  0.34105841  0.55052924  1
  Cu  Cu12  1  0.76275231  0.18373798  0.87563639  1
  Cu  Cu13  1  0.37549307  0.05953799  0.62808852  1
  Cu  Cu14  1  0.62450693  0.94046201  0.37191148  1
  Cu  Cu15  1  0.23724769  0.81626202  0.12436361  1
  Cu  Cu16  1  0.76275231  0.31626202  0.37563639  1
  Cu  Cu17  1  0.37549307  0.44046201  0.12808852  1
  Cu  Cu18  1  0.23724769  0.68373798  0.62436361  1
  Cu  Cu19  1  0.62450693  0.55953799  0.87191148  1
  O  O20  1  0.02879442  0.24320402  0.39836436  1
  O  O21  1  0.65103206  0.01510793  0.60255973  1
  O  O22  1  0.19609825  0.57799649  0.47650067  1
  O  O23  1  0.80390175  0.07799649  0.02349933  1
  O  O24  1  0.02879442  0.25679598  0.89836436  1
  O  O25  1  0.97120558  0.75679598  0.60163564  1
  O  O26  1  0.09550645  0.10789748  0.61435607  1
  O  O27  1  0.49958334  0.89675906  0.14146789  1
  O  O28  1  0.49958334  0.60324094  0.64146789  1
  O  O29  1  0.30834170  0.87380329  0.70975579  1
  O  O30  1  0.69165830  0.37380329  0.79024421  1
  O  O31  1  0.50041666  0.10324094  0.85853211  1
  O  O32  1  0.90449355  0.89210252  0.38564393  1
  O  O33  1  0.88073132  0.53370445  0.30707457  1
  O  O34  1  0.41655547  0.26905848  0.58586827  1
  O  O35  1  0.41655547  0.23094152  0.08586827  1
  O  O36  1  0.11926868  0.03370445  0.19292543  1
  O  O37  1  0.50041666  0.39675906  0.35853211  1
  O  O38  1  0.11926868  0.46629555  0.69292543  1
  O  O39  1  0.80390175  0.42200351  0.52349933  1
  O  O40  1  0.65103206  0.48489207  0.10255973  1
  O  O41  1  0.69165830  0.12619671  0.29024421  1
  O  O42  1  0.97120558  0.74320402  0.10163564  1
  O  O43  1  0.09550645  0.39210252  0.11435607  1
  O  O44  1  0.19609825  0.92200351  0.97650067  1
  O  O45  1  0.58344453  0.76905848  0.91413173  1
  O  O46  1  0.34896794  0.98489207  0.39744027  1
  O  O47  1  0.34896794  0.51510793  0.89744027  1
  O  O48  1  0.90449355  0.60789748  0.88564393  1
  O  O49  1  0.58344453  0.73094152  0.41413173  1
  O  O50  1  0.30834170  0.62619671  0.20975579  1
  O  O51  1  0.88073132  0.96629555  0.80707457  1
