# generated using pymatgen
data_La2Ti3O9
_symmetry_space_group_name_H-M   'P 1'
_cell_length_a   7.01014321
_cell_length_b   7.01011571
_cell_length_c   10.69716883
_cell_angle_alpha   90.00103906
_cell_angle_beta   90.00006275
_cell_angle_gamma   120.00052452
_symmetry_Int_Tables_number   1
_chemical_formula_structural   La2Ti3O9
_chemical_formula_sum   'La4 Ti6 O18'
_cell_volume   455.24927531
_cell_formula_units_Z   2
loop_
 _symmetry_equiv_pos_site_id
 _symmetry_equiv_pos_as_xyz
  1  'x, y, z'
loop_
 _atom_site_type_symbol
 _atom_site_label
 _atom_site_symmetry_multiplicity
 _atom_site_fract_x
 _atom_site_fract_y
 _atom_site_fract_z
 _atom_site_occupancy
  La  La0  1  0.33332732  0.66664999  0.95934155  1
  La  La1  1  0.33334579  0.66667442  0.54065338  1
  La  La2  1  0.66666415  0.33331924  0.45934582  1
  La  La3  1  0.66666954  0.33331854  0.04065886  1
  Ti  Ti4  1  0.23062321  0.92523826  0.25000098  1
  Ti  Ti5  1  0.07476047  0.30536470  0.24999781  1
  Ti  Ti6  1  0.30536739  0.23062213  0.75000080  1
  Ti  Ti7  1  0.69463102  0.76938319  0.25000173  1
  Ti  Ti8  1  0.92525143  0.69461465  0.74999988  1
  Ti  Ti9  1  0.76939736  0.07477164  0.75000322  1
  O  O10  1  0.20929979  0.92702396  0.74999479  1
  O  O11  1  0.37591922  0.93634232  0.10829689  1
  O  O12  1  0.37592876  0.93634991  0.39169781  1
  O  O13  1  0.06364938  0.43959010  0.39167918  1
  O  O14  1  0.06365882  0.43957326  0.10830036  1
  O  O15  1  0.07300137  0.28231021  0.75003372  1
  O  O16  1  0.28228070  0.20927449  0.25000882  1
  O  O17  1  0.56041127  0.62406552  0.10830943  1
  O  O18  1  0.56042291  0.62408894  0.39169513  1
  O  O19  1  0.43955855  0.37591875  0.60830609  1
  O  O20  1  0.43961378  0.37596348  0.89168110  1
  O  O21  1  0.71777999  0.79074974  0.74998643  1
  O  O22  1  0.92701846  0.71772682  0.24999752  1
  O  O23  1  0.93633335  0.56038681  0.60830693  1
  O  O24  1  0.93633220  0.56041658  0.89170956  1
  O  O25  1  0.62408337  0.06365553  0.60831057  1
  O  O26  1  0.62406469  0.06363163  0.89169750  1
  O  O27  1  0.79070672  0.07297617  0.24998615  1
