# generated using pymatgen
data_Li2SiSnCO7
_symmetry_space_group_name_H-M   'P 1'
_cell_length_a   8.66751657
_cell_length_b   6.56807887
_cell_length_c   5.11357946
_cell_angle_alpha   90.00000000
_cell_angle_beta   87.83705792
_cell_angle_gamma   90.00000000
_symmetry_Int_Tables_number   1
_chemical_formula_structural   Li2SiSnCO7
_chemical_formula_sum   'Li4 Si2 Sn2 C2 O14'
_cell_volume   290.90321334
_cell_formula_units_Z   2
loop_
 _symmetry_equiv_pos_site_id
 _symmetry_equiv_pos_as_xyz
  1  'x, y, z'
loop_
 _atom_site_type_symbol
 _atom_site_label
 _atom_site_symmetry_multiplicity
 _atom_site_fract_x
 _atom_site_fract_y
 _atom_site_fract_z
 _atom_site_occupancy
  Li  Li0  1  0.21702114  0.49734828  0.22025734  1
  Li  Li1  1  0.21702114  0.00265172  0.22025734  1
  Li  Li2  1  0.78297886  0.50265172  0.77974266  1
  Li  Li3  1  0.78297886  0.99734828  0.77974266  1
  Si  Si4  1  0.41983705  0.25000000  0.71286201  1
  Si  Si5  1  0.58016195  0.75000000  0.28713799  1
  Sn  Sn6  1  0.35366539  0.75000000  0.79448940  1
  Sn  Sn7  1  0.64633461  0.25000000  0.20551060  1
  C  C8  1  0.05420564  0.75000000  0.73427921  1
  C  C9  1  0.94579436  0.25000000  0.26572079  1
  O  O10  1  0.08877011  0.25000000  0.30272895  1
  O  O11  1  0.11322636  0.75000000  0.96723740  1
  O  O12  1  0.15917746  0.75000000  0.53598412  1
  O  O13  1  0.32349398  0.05379013  0.82636461  1
  O  O14  1  0.32349398  0.44620987  0.82636461  1
  O  O15  1  0.40061247  0.75000000  0.18794412  1
  O  O16  1  0.43386813  0.25000000  0.38859138  1
  O  O17  1  0.56613187  0.75000000  0.61140862  1
  O  O18  1  0.59938753  0.25000000  0.81205588  1
  O  O19  1  0.67650602  0.55379013  0.17363539  1
  O  O20  1  0.67650602  0.94620987  0.17363539  1
  O  O21  1  0.84082254  0.25000000  0.46401588  1
  O  O22  1  0.88677364  0.25000000  0.03276260  1
  O  O23  1  0.91122989  0.75000000  0.69727105  1
