# generated using pymatgen
data_La2Ti3O9
_symmetry_space_group_name_H-M   'P 1'
_cell_length_a   7.49684044
_cell_length_b   14.70064763
_cell_length_c   7.96320674
_cell_angle_alpha   90.00000000
_cell_angle_beta   90.00000000
_cell_angle_gamma   90.00000000
_symmetry_Int_Tables_number   1
_chemical_formula_structural   La2Ti3O9
_chemical_formula_sum   'La8 Ti12 O36'
_cell_volume   877.61235050
_cell_formula_units_Z   4
loop_
 _symmetry_equiv_pos_site_id
 _symmetry_equiv_pos_as_xyz
  1  'x, y, z'
loop_
 _atom_site_type_symbol
 _atom_site_label
 _atom_site_symmetry_multiplicity
 _atom_site_fract_x
 _atom_site_fract_y
 _atom_site_fract_z
 _atom_site_occupancy
  La  La0  1  0.16446422  0.41598493  0.75000000  1
  La  La1  1  0.35339371  0.68015902  0.75000000  1
  La  La2  1  0.14660629  0.18015902  0.25000000  1
  La  La3  1  0.33553578  0.91598493  0.25000000  1
  La  La4  1  0.66446422  0.08401507  0.75000000  1
  La  La5  1  0.85339371  0.81984098  0.75000000  1
  La  La6  1  0.64660629  0.31984098  0.25000000  1
  La  La7  1  0.83553578  0.58401507  0.25000000  1
  Ti  Ti8  1  0.00000000  0.00000000  0.00000000  1
  Ti  Ti9  1  0.00000000  0.00000000  0.50000000  1
  Ti  Ti10  1  0.17288827  0.14858861  0.75000000  1
  Ti  Ti11  1  0.18535622  0.42513624  0.25000000  1
  Ti  Ti12  1  0.31464378  0.92513624  0.75000000  1
  Ti  Ti13  1  0.32711173  0.64858861  0.25000000  1
  Ti  Ti14  1  0.50000000  0.50000000  0.00000000  1
  Ti  Ti15  1  0.50000000  0.50000000  0.50000000  1
  Ti  Ti16  1  0.67288827  0.35141139  0.75000000  1
  Ti  Ti17  1  0.68535622  0.07486376  0.25000000  1
  Ti  Ti18  1  0.81464378  0.57486376  0.75000000  1
  Ti  Ti19  1  0.82711173  0.85141139  0.25000000  1
  O  O20  1  0.96491570  0.99333099  0.75000000  1
  O  O21  1  0.04802762  0.60145192  0.75000000  1
  O  O22  1  0.13885130  0.57012301  0.25000000  1
  O  O23  1  0.08633231  0.12629133  0.97135753  1
  O  O24  1  0.08633231  0.12629133  0.52864247  1
  O  O25  1  0.24267741  0.26301398  0.75000000  1
  O  O26  1  0.19132807  0.81276054  0.75000000  1
  O  O27  1  0.25876781  0.45171167  0.02169715  1
  O  O28  1  0.25876781  0.45171167  0.47830285  1
  O  O29  1  0.24123219  0.95171167  0.97830285  1
  O  O30  1  0.24123219  0.95171167  0.52169715  1
  O  O31  1  0.30867193  0.31276054  0.25000000  1
  O  O32  1  0.25732259  0.76301398  0.25000000  1
  O  O33  1  0.41366769  0.62629133  0.47135753  1
  O  O34  1  0.41366769  0.62629133  0.02864247  1
  O  O35  1  0.36114870  0.07012301  0.75000000  1
  O  O36  1  0.45197238  0.10145192  0.25000000  1
  O  O37  1  0.53508430  0.49333099  0.25000000  1
  O  O38  1  0.46491570  0.50666901  0.75000000  1
  O  O39  1  0.54802762  0.89854808  0.75000000  1
  O  O40  1  0.63885130  0.92987699  0.25000000  1
  O  O41  1  0.58633231  0.37370867  0.97135753  1
  O  O42  1  0.58633231  0.37370867  0.52864247  1
  O  O43  1  0.74267741  0.23698602  0.75000000  1
  O  O44  1  0.69132807  0.68723946  0.75000000  1
  O  O45  1  0.75876781  0.04828833  0.47830285  1
  O  O46  1  0.75876781  0.04828833  0.02169715  1
  O  O47  1  0.74123219  0.54828833  0.97830285  1
  O  O48  1  0.74123219  0.54828833  0.52169715  1
  O  O49  1  0.80867193  0.18723946  0.25000000  1
  O  O50  1  0.75732259  0.73698602  0.25000000  1
  O  O51  1  0.91366769  0.87370867  0.47135753  1
  O  O52  1  0.91366769  0.87370867  0.02864247  1
  O  O53  1  0.86114870  0.42987699  0.75000000  1
  O  O54  1  0.95197238  0.39854808  0.25000000  1
  O  O55  1  0.03508430  0.00666901  0.25000000  1
