# generated using pymatgen
data_Li4Ti2Cr3Ni3O16
_symmetry_space_group_name_H-M   'P 1'
_cell_length_a   5.87897010
_cell_length_b   5.80181070
_cell_length_c   9.45267848
_cell_angle_alpha   90.11171160
_cell_angle_beta   91.86688536
_cell_angle_gamma   119.51168787
_symmetry_Int_Tables_number   1
_chemical_formula_structural   Li4Ti2Cr3Ni3O16
_chemical_formula_sum   'Li4 Ti2 Cr3 Ni3 O16'
_cell_volume   280.37724427
_cell_formula_units_Z   1
loop_
 _symmetry_equiv_pos_site_id
 _symmetry_equiv_pos_as_xyz
  1  'x, y, z'
loop_
 _atom_site_type_symbol
 _atom_site_label
 _atom_site_symmetry_multiplicity
 _atom_site_fract_x
 _atom_site_fract_y
 _atom_site_fract_z
 _atom_site_occupancy
  Li  Li0  1  0.32315831  0.66202258  0.89179695  1
  Li  Li1  1  0.99744619  0.99694415  0.99279774  1
  Li  Li2  1  0.99616519  0.99866757  0.49519998  1
  Li  Li3  1  0.67525594  0.33816722  0.39603266  1
  Ti  Ti4  1  0.32807547  0.66501964  0.50017386  1
  Ti  Ti5  1  0.66602462  0.33040000  -0.00187659  1
  Cr  Cr6  1  0.18456872  0.83803709  0.21958135  1
  Cr  Cr7  1  0.18486254  0.34634115  0.21932715  1
  Cr  Cr8  1  0.34359536  0.17405062  0.72146298  1
  Ni  Ni9  1  0.66117015  0.83066998  0.20893746  1
  Ni  Ni10  1  0.82624758  0.65907994  0.71194113  1
  Ni  Ni11  1  0.82389436  0.16453874  0.71256645  1
  O  O12  1  0.18424385  0.84698597  0.59554391  1
  O  O13  1  0.04303462  0.52235489  0.34207592  1
  O  O14  1  0.29952101  0.64916256  0.10338528  1
  O  O15  1  0.01710334  0.00907251  0.30393608  1
  O  O16  1  0.00245800  0.00203371  0.80390408  1
  O  O17  1  0.18524574  0.33968202  0.59571108  1
  O  O18  1  0.47334016  0.96357811  0.34178472  1
  O  O19  1  0.47420519  0.51183443  0.34236445  1
  O  O20  1  0.33938507  0.16896045  0.10000055  1
  O  O21  1  0.67465946  0.83857226  0.59566511  1
  O  O22  1  0.50222725  0.46991096  0.84349827  1
  O  O23  1  0.50036252  0.03201033  0.84391184  1
  O  O24  1  0.65745262  0.32781316  0.61080766  1
  O  O25  1  0.84324575  0.66608390  0.09179266  1
  O  O26  1  0.94989861  0.47323452  0.83303688  1
  O  O27  1  0.84315136  0.17507052  0.09248140  1
