# generated using pymatgen
data_La4FeO8
_symmetry_space_group_name_H-M   'P 1'
_cell_length_a   5.33888377
_cell_length_b   7.01033154
_cell_length_c   5.35578316
_cell_angle_alpha   90.00034970
_cell_angle_beta   89.99993650
_cell_angle_gamma   112.37729433
_symmetry_Int_Tables_number   1
_chemical_formula_structural   La4FeO8
_chemical_formula_sum   'La4 Fe1 O8'
_cell_volume   185.35804720
_cell_formula_units_Z   1
loop_
 _symmetry_equiv_pos_site_id
 _symmetry_equiv_pos_as_xyz
  1  'x, y, z'
loop_
 _atom_site_type_symbol
 _atom_site_label
 _atom_site_symmetry_multiplicity
 _atom_site_fract_x
 _atom_site_fract_y
 _atom_site_fract_z
 _atom_site_occupancy
  La  La0  1  0.13622766  0.27247629  0.49998530  1
  La  La1  1  0.63782388  0.27538062  0.00000269  1
  La  La2  1  0.36216436  0.72461770  0.99999684  1
  La  La3  1  0.86377800  0.72752162  0.50000173  1
  Fe  Fe4  1  0.50001063  0.00000356  0.50000522  1
  O  O5  1  0.25522455  0.00010629  0.26034626  1
  O  O6  1  0.25522510  0.00010882  0.73965879  1
  O  O7  1  0.74477410  0.99989377  0.26034359  1
  O  O8  1  0.74477490  0.99989544  0.73965893  1
  O  O9  1  0.18682753  0.37389081  0.00001081  1
  O  O10  1  0.67489210  0.34958157  0.49999421  1
  O  O11  1  0.32510185  0.65041650  0.49999985  1
  O  O12  1  0.81317334  0.62610603  0.99999577  1
