# generated using pymatgen
data_Li2MnSO4F3
_symmetry_space_group_name_H-M   'P 1'
_cell_length_a   7.29394296
_cell_length_b   9.54927907
_cell_length_c   7.48034155
_cell_angle_alpha   90.00000000
_cell_angle_beta   90.09631887
_cell_angle_gamma   90.00000000
_symmetry_Int_Tables_number   1
_chemical_formula_structural   Li2MnSO4F3
_chemical_formula_sum   'Li8 Mn4 S4 O16 F12'
_cell_volume   521.01924191
_cell_formula_units_Z   4
loop_
 _symmetry_equiv_pos_site_id
 _symmetry_equiv_pos_as_xyz
  1  'x, y, z'
loop_
 _atom_site_type_symbol
 _atom_site_label
 _atom_site_symmetry_multiplicity
 _atom_site_fract_x
 _atom_site_fract_y
 _atom_site_fract_z
 _atom_site_occupancy
  Li  Li0  1  0.22596076  0.30143723  0.84194645  1
  Li  Li1  1  0.22596076  0.19856277  0.34194645  1
  Li  Li2  1  0.28582011  0.69494669  0.84113335  1
  Li  Li3  1  0.28582011  0.80505331  0.34113335  1
  Li  Li4  1  0.71417989  0.19494669  0.65886665  1
  Li  Li5  1  0.71417989  0.30505331  0.15886665  1
  Li  Li6  1  0.77403924  0.80143723  0.65805355  1
  Li  Li7  1  0.77403924  0.69856277  0.15805355  1
  Mn  Mn8  1  0.00000000  0.50000000  0.50000000  1
  Mn  Mn9  1  0.00000000  0.00000000  0.00000000  1
  Mn  Mn10  1  0.50000000  0.50000000  0.50000000  1
  Mn  Mn11  1  0.50000000  0.00000000  0.00000000  1
  S  S12  1  0.25067576  0.00035845  0.66666159  1
  S  S13  1  0.25067576  0.49964155  0.16666159  1
  S  S14  1  0.74932424  0.50035845  0.83333841  1
  S  S15  1  0.74932424  0.99964155  0.33333841  1
  O  O16  1  0.12414508  0.08358681  0.78920414  1
  O  O17  1  0.12414508  0.41641319  0.28920414  1
  O  O18  1  0.15435382  0.89754307  0.55839110  1
  O  O19  1  0.15435382  0.60245693  0.05839110  1
  O  O20  1  0.34964893  0.10412305  0.56178240  1
  O  O21  1  0.34964893  0.39587695  0.06178240  1
  O  O22  1  0.37631479  0.91622298  0.79021153  1
  O  O23  1  0.37631479  0.58377702  0.29021153  1
  O  O24  1  0.62368521  0.41622298  0.70978847  1
  O  O25  1  0.62368521  0.08377702  0.20978847  1
  O  O26  1  0.65035107  0.60412305  0.93821760  1
  O  O27  1  0.65035107  0.89587695  0.43821760  1
  O  O28  1  0.84564618  0.39754307  0.94160890  1
  O  O29  1  0.84564618  0.10245693  0.44160890  1
  O  O30  1  0.87585492  0.58358681  0.71079586  1
  O  O31  1  0.87585492  0.91641319  0.21079586  1
  F  F32  1  0.02454688  0.82082150  0.90799409  1
  F  F33  1  0.02454688  0.67917850  0.40799409  1
  F  F34  1  0.25063393  0.49904011  0.66398011  1
  F  F35  1  0.25063393  0.00095989  0.16398011  1
  F  F36  1  0.47724592  0.17969493  0.90598847  1
  F  F37  1  0.47724592  0.32030507  0.40598847  1
  F  F38  1  0.52275408  0.67969493  0.59401153  1
  F  F39  1  0.52275408  0.82030507  0.09401153  1
  F  F40  1  0.74936607  0.99904011  0.83601989  1
  F  F41  1  0.74936607  0.50095989  0.33601989  1
  F  F42  1  0.97545312  0.32082150  0.59200591  1
  F  F43  1  0.97545312  0.17917850  0.09200591  1
