# generated using pymatgen
data_MgBi3P3O13
_symmetry_space_group_name_H-M   'P 1'
_cell_length_a   7.11563348
_cell_length_b   8.47175770
_cell_length_c   10.94178166
_cell_angle_alpha   100.64026102
_cell_angle_beta   90.00000000
_cell_angle_gamma   90.00000000
_symmetry_Int_Tables_number   1
_chemical_formula_structural   MgBi3P3O13
_chemical_formula_sum   'Mg2 Bi6 P6 O26'
_cell_volume   648.25051618
_cell_formula_units_Z   2
loop_
 _symmetry_equiv_pos_site_id
 _symmetry_equiv_pos_as_xyz
  1  'x, y, z'
loop_
 _atom_site_type_symbol
 _atom_site_label
 _atom_site_symmetry_multiplicity
 _atom_site_fract_x
 _atom_site_fract_y
 _atom_site_fract_z
 _atom_site_occupancy
  Mg  Mg0  1  0.75000000  0.57523196  0.16446024  1
  Mg  Mg1  1  0.25000000  0.42476804  0.83553976  1
  Bi  Bi2  1  0.25000000  0.35663280  0.23168148  1
  Bi  Bi3  1  0.75000000  0.64336720  0.76831852  1
  Bi  Bi4  1  0.25000000  0.80075466  0.43411529  1
  Bi  Bi5  1  0.50000000  -0.00000000  -0.00000000  1
  Bi  Bi6  1  0.75000000  0.19924534  0.56588471  1
  Bi  Bi7  1  0.00000000  -0.00000000  -0.00000000  1
  P  P8  1  0.25000000  0.22947812  0.52495750  1
  P  P9  1  0.75000000  0.77052188  0.47504250  1
  P  P10  1  0.25000000  0.71800979  0.76239474  1
  P  P11  1  0.75000000  0.28199021  0.23760526  1
  P  P12  1  0.75000000  0.32645774  0.89958795  1
  P  P13  1  0.25000000  0.67354226  0.10041205  1
  O  O14  1  0.75000000  0.35840155  0.76160453  1
  O  O15  1  0.57557647  0.75041390  0.38775421  1
  O  O16  1  0.25000000  0.76565237  0.63526196  1
  O  O17  1  0.56508829  0.23538172  0.91507891  1
  O  O18  1  0.75000000  0.64283071  0.56049029  1
  O  O19  1  0.75000000  0.87727536  0.89012858  1
  O  O20  1  0.25000000  0.35716929  0.43950971  1
  O  O21  1  0.06508829  0.76461828  0.08492109  1
  O  O22  1  0.25000000  0.06119843  0.43593686  1
  O  O23  1  0.75000000  0.93880157  0.56406314  1
  O  O24  1  0.08209684  0.60661124  0.78372080  1
  O  O25  1  0.25000000  0.12272464  0.10987142  1
  O  O26  1  0.58209684  0.39338876  0.21627920  1
  O  O27  1  0.75000000  0.49777974  0.98131204  1
  O  O28  1  0.75000000  0.23434763  0.36473804  1
  O  O29  1  0.43491171  0.76461828  0.08492109  1
  O  O30  1  0.92442353  0.75041390  0.38775421  1
  O  O31  1  0.42442353  0.24958610  0.61224579  1
  O  O32  1  0.41790316  0.60661124  0.78372080  1
  O  O33  1  0.25000000  0.64159845  0.23839547  1
  O  O34  1  0.75000000  0.12383355  0.13751720  1
  O  O35  1  0.25000000  0.87616645  0.86248280  1
  O  O36  1  0.91790316  0.39338876  0.21627920  1
  O  O37  1  0.93491171  0.23538172  0.91507891  1
  O  O38  1  0.07557747  0.24958610  0.61224579  1
  O  O39  1  0.25000000  0.50222026  0.01868796  1
