# generated using pymatgen
data_Li4V2Si(PO6)2
_symmetry_space_group_name_H-M   'P 1'
_cell_length_a   9.00337916
_cell_length_b   9.00337916
_cell_length_c   8.49177658
_cell_angle_alpha   57.88692411
_cell_angle_beta   122.11307589
_cell_angle_gamma   119.77718376
_symmetry_Int_Tables_number   1
_chemical_formula_structural   Li4V2Si(PO6)2
_chemical_formula_sum   'Li8 V4 Si2 P4 O24'
_cell_volume   471.33905797
_cell_formula_units_Z   2
loop_
 _symmetry_equiv_pos_site_id
 _symmetry_equiv_pos_as_xyz
  1  'x, y, z'
loop_
 _atom_site_type_symbol
 _atom_site_label
 _atom_site_symmetry_multiplicity
 _atom_site_fract_x
 _atom_site_fract_y
 _atom_site_fract_z
 _atom_site_occupancy
  Li  Li0  1  0.25378043  0.83861106  0.75531263  1
  Li  Li1  1  0.16810979  0.73856479  0.27270670  1
  Li  Li2  1  0.99788308  0.50151656  0.98602525  1
  Li  Li3  1  0.65789404  0.65789404  0.75000000  1
  Li  Li4  1  0.33867760  0.33867760  0.25000000  1
  Li  Li5  1  0.83861106  0.25378043  0.74468737  1
  Li  Li6  1  0.50151656  0.99788308  0.51397475  1
  Li  Li7  1  0.73856479  0.16810979  0.22729330  1
  V  V8  1  0.64243788  0.86003738  0.92343758  1
  V  V9  1  0.14532410  0.35883834  0.42651646  1
  V  V10  1  0.86003738  0.64243788  0.57656242  1
  V  V11  1  0.35883834  0.14532410  0.07348354  1
  Si  Si12  1  0.25093746  0.54681088  0.74919394  1
  Si  Si13  1  0.54681088  0.25093746  0.75080606  1
  P  P14  1  0.95503814  0.95503814  0.75000000  1
  P  P15  1  0.44899900  0.75048285  0.24407365  1
  P  P16  1  0.04556890  0.04556890  0.25000000  1
  P  P17  1  0.75048285  0.44899900  0.25592635  1
  O  O18  1  0.11367032  0.98326498  0.94032555  1
  O  O19  1  0.01021747  0.88980403  0.43954697  1
  O  O20  1  0.09353669  0.57807864  0.76523446  1
  O  O21  1  0.41533718  0.74649595  0.73193935  1
  O  O22  1  0.30517272  0.37395677  0.95237022  1
  O  O23  1  0.19520806  0.51900013  0.54747968  1
  O  O24  1  0.76284165  0.93291286  0.73144165  1
  O  O25  1  0.42804805  0.89864017  0.26995704  1
  O  O26  1  0.25973323  0.59660429  0.22227560  1
  O  O27  1  0.61135239  0.68899850  0.43287664  1
  O  O28  1  0.47968436  0.82020307  0.05181833  1
  O  O29  1  0.93291286  0.76284165  0.76855835  1
  O  O30  1  0.06013423  0.23759195  0.22408480  1
  O  O31  1  0.51900013  0.19520806  0.95252032  1
  O  O32  1  0.37395677  0.30517272  0.54762978  1
  O  O33  1  0.74649595  0.41533718  0.76806065  1
  O  O34  1  0.57807864  0.09353669  0.73476554  1
  O  O35  1  0.23759195  0.06013423  0.27591520  1
  O  O36  1  0.82020307  0.47968436  0.44818167  1
  O  O37  1  0.68899850  0.61135239  0.06712336  1
  O  O38  1  0.59660429  0.25973323  0.27772440  1
  O  O39  1  0.89864017  0.42804805  0.23004296  1
  O  O40  1  0.98326498  0.11367032  0.55967445  1
  O  O41  1  0.88980403  0.01021747  0.06045303  1
