# generated using pymatgen
data_Li4V2Si(PO6)2
_symmetry_space_group_name_H-M   'P 1'
_cell_length_a   9.00667018
_cell_length_b   8.48671431
_cell_length_c   12.38991512
_cell_angle_alpha   94.92204564
_cell_angle_beta   90.03854067
_cell_angle_gamma   89.99436712
_symmetry_Int_Tables_number   1
_chemical_formula_structural   Li4V2Si(PO6)2
_chemical_formula_sum   'Li16 V8 Si4 P8 O48'
_cell_volume   943.55580537
_cell_formula_units_Z   4
loop_
 _symmetry_equiv_pos_site_id
 _symmetry_equiv_pos_as_xyz
  1  'x, y, z'
loop_
 _atom_site_type_symbol
 _atom_site_label
 _atom_site_symmetry_multiplicity
 _atom_site_fract_x
 _atom_site_fract_y
 _atom_site_fract_z
 _atom_site_occupancy
  Li  Li0  1  0.96483025  0.44394313  0.29980527  1
  Li  Li1  1  0.74047762  0.75720457  0.24983966  1
  Li  Li2  1  0.65403566  0.76192163  0.49131576  1
  Li  Li3  1  0.75993306  0.75760035  0.75018812  1
  Li  Li4  1  0.45106120  0.54392483  0.20701241  1
  Li  Li5  1  0.96503182  0.04366058  0.70216246  1
  Li  Li6  1  0.84527790  0.76036070  0.99286312  1
  Li  Li7  1  0.53560615  0.04367302  0.20259571  1
  Li  Li8  1  0.44220174  0.97950782  0.80352472  1
  Li  Li9  1  0.16600869  0.22981825  0.99701098  1
  Li  Li10  1  0.53482242  0.44648792  0.80039774  1
  Li  Li11  1  0.05827063  0.97851496  0.30244070  1
  Li  Li12  1  0.25719926  0.24161948  0.25098309  1
  Li  Li13  1  0.33415579  0.22907100  0.49676682  1
  Li  Li14  1  0.24258653  0.24160724  0.75107839  1
  Li  Li15  1  0.04891036  0.54290846  0.70684723  1
  V  V16  1  0.74799492  0.46512119  0.10877782  1
  V  V17  1  0.24944903  0.96796820  0.10771559  1
  V  V18  1  0.75205947  0.46467955  0.60921432  1
  V  V19  1  0.75166580  0.03715073  0.38868274  1
  V  V20  1  0.25041598  0.96790416  0.60765849  1
  V  V21  1  0.74766637  0.03591834  0.88918457  1
  V  V22  1  0.25341686  0.53250908  0.39305085  1
  V  V23  1  0.24660145  0.53262563  0.89228685  1
  Si  Si24  1  0.45406804  0.25201584  0.00098350  1
  Si  Si25  1  0.39778476  0.89589375  0.35177227  1
  Si  Si26  1  0.10237107  0.89677881  0.85198444  1
  Si  Si27  1  0.04598794  0.25218788  0.50075923  1
  P  P28  1  0.94993158  0.75076523  0.50091054  1
  P  P29  1  0.89661786  0.09956247  0.14760650  1
  P  P30  1  0.54980834  0.75069883  0.00036316  1
  P  P31  1  0.60308075  0.39941596  0.35121218  1
  P  P32  1  0.89706500  0.39965507  0.85145595  1
  P  P33  1  0.60314786  0.09996455  0.64750122  1
  P  P34  1  0.10071740  0.60015828  0.14841081  1
  P  P35  1  0.39938217  0.60048157  0.64814586  1
  O  O36  1  0.92874027  0.59558464  0.16836502  1
  O  O37  1  0.84752346  0.27379461  0.16514690  1
  O  O38  1  0.84570845  0.81900079  0.41456871  1
  O  O39  1  0.66008383  0.68623785  0.08512634  1
  O  O40  1  0.84953777  0.02193802  0.03641174  1
  O  O41  1  0.94613610  0.12442752  0.42630622  1
  O  O42  1  0.83981383  0.68607804  0.58560680  1
  O  O43  1  0.45708697  0.87637612  0.06622329  1
  O  O44  1  0.94600065  0.38371425  0.57171779  1
  O  O45  1  0.92084186  0.90193878  0.83077650  1
  O  O46  1  0.83029220  0.99171436  0.23156867  1
  O  O47  1  0.67097014  0.50784093  0.26727294  1
  O  O48  1  0.57969935  0.90026475  0.33094808  1
  O  O49  1  0.55442437  0.38370633  0.07146151  1
  O  O50  1  0.65004728  0.47691444  0.46218628  1
  O  O51  1  0.82990728  0.50900817  0.76765663  1
  O  O52  1  0.32321704  0.00601457  0.26232584  1
  O  O53  1  0.65057323  0.22493067  0.33384569  1
  O  O54  1  0.35632030  0.70874357  0.33685700  1
  O  O55  1  0.84825544  0.22634100  0.83365102  1
  O  O56  1  0.34459816  0.18048108  0.09182732  1
  O  O57  1  0.85024243  0.47750795  0.96258072  1
  O  O58  1  0.34283391  0.98085710  0.46755627  1
  O  O59  1  0.43185701  0.39564960  0.32983302  1
  O  O60  1  0.57111910  0.59472263  0.66831940  1
  O  O61  1  0.64754203  0.02273577  0.53592058  1
  O  O62  1  0.14850874  0.52013043  0.03789374  1
  O  O63  1  0.65422836  0.81712103  0.91349053  1
  O  O64  1  0.65251960  0.27443989  0.66448457  1
  O  O65  1  0.14418355  0.77552283  0.16144854  1
  O  O66  1  0.35660440  0.77570266  0.66161815  1
  O  O67  1  0.16868292  0.49614914  0.23485552  1
  O  O68  1  0.67107962  0.99264021  0.73139456  1
  O  O69  1  0.35138577  0.52105979  0.53746044  1
  O  O70  1  0.45406246  0.62454039  0.93712022  1
  O  O71  1  0.43210213  0.10371637  0.66937242  1
  O  O72  1  0.33078859  0.49638782  0.73423901  1
  O  O73  1  0.17752164  0.00576937  0.76222212  1
  O  O74  1  0.06787965  0.10326807  0.16868838  1
  O  O75  1  0.04506661  0.62444407  0.43757795  1
  O  O76  1  0.55363768  0.12305706  0.92731072  1
  O  O77  1  0.15934461  0.32158401  0.41016127  1
  O  O78  1  0.04352096  0.87612216  0.56674530  1
  O  O79  1  0.15728770  0.98185028  0.96768552  1
  O  O80  1  0.34179481  0.32172671  0.90990955  1
  O  O81  1  0.15517455  0.18045234  0.59175833  1
  O  O82  1  0.14298308  0.70926283  0.83770852  1
  O  O83  1  0.06863141  0.39524791  0.83028524  1
