# generated using pymatgen
data_Na4Cr2As(CO4)4
_symmetry_space_group_name_H-M   'P 1'
_cell_length_a   9.96208564
_cell_length_b   9.82297666
_cell_length_c   9.96208534
_cell_angle_alpha   60.75998342
_cell_angle_beta   92.10342171
_cell_angle_gamma   60.75998396
_symmetry_Int_Tables_number   1
_chemical_formula_structural   Na4Cr2As(CO4)4
_chemical_formula_sum   'Na8 Cr4 As2 C8 O32'
_cell_volume   692.03851369
_cell_formula_units_Z   2
loop_
 _symmetry_equiv_pos_site_id
 _symmetry_equiv_pos_as_xyz
  1  'x, y, z'
loop_
 _atom_site_type_symbol
 _atom_site_label
 _atom_site_symmetry_multiplicity
 _atom_site_fract_x
 _atom_site_fract_y
 _atom_site_fract_z
 _atom_site_occupancy
  Na  Na0  1  0.08855148  0.82289703  0.83855148  1
  Na  Na1  1  0.08844557  0.25000000  0.83844557  1
  Na  Na2  1  0.33844557  0.75000000  0.58844557  1
  Na  Na3  1  0.33855148  0.32289703  0.58855148  1
  Na  Na4  1  0.66144852  0.67710297  0.41144852  1
  Na  Na5  1  0.66155443  0.25000000  0.41155443  1
  Na  Na6  1  0.91155443  0.75000000  0.16155443  1
  Na  Na7  1  0.91144852  0.17710297  0.16144852  1
  Cr  Cr8  1  0.00000000  0.50000000  0.00000000  1
  Cr  Cr9  1  0.50000000  0.00000000  0.50000000  1
  Cr  Cr10  1  0.50000000  0.50000000  0.00000000  1
  Cr  Cr11  1  0.50000000  0.00000000  0.00000000  1
  As  As12  1  0.12500000  0.75000000  0.37500000  1
  As  As13  1  0.87500000  0.25000000  0.62500000  1
  C  C14  1  0.36504192  0.92420475  0.78298942  1
  C  C15  1  0.28298942  0.42420475  0.86504192  1
  C  C16  1  0.71075333  0.92420475  0.79280583  1
  C  C17  1  0.70719417  0.57579525  0.78924667  1
  C  C18  1  0.29280583  0.42420475  0.21075333  1
  C  C19  1  0.28924667  0.07579525  0.20719417  1
  C  C20  1  0.71701058  0.57579525  0.13495808  1
  C  C21  1  0.63495808  0.07579525  0.21701058  1
  O  O22  1  0.35907813  0.78629170  0.89315726  1
  O  O23  1  0.06007811  0.89791186  0.43957182  1
  O  O24  1  0.36752936  0.95000442  0.64322254  1
  O  O25  1  0.14322254  0.45000442  0.86752936  1
  O  O26  1  0.68246622  0.95000442  0.90677304  1
  O  O27  1  0.30965569  0.54428304  0.85917060  1
  O  O28  1  0.04201003  0.89791186  0.16251632  1
  O  O29  1  0.06042818  0.60208814  0.43992189  1
  O  O30  1  0.40345364  0.95571696  0.35393873  1
  O  O31  1  0.59322696  0.54999558  0.81753378  1
  O  O32  1  0.39315726  0.28629170  0.85907813  1
  O  O33  1  0.33748368  0.60208814  0.45798997  1
  O  O34  1  0.85463017  0.78629170  0.82055004  1
  O  O35  1  0.67944996  0.71370830  0.64536983  1
  O  O36  1  0.35917060  0.04428304  0.80965569  1
  O  O37  1  0.14606127  0.54428304  0.09654636  1
  O  O38  1  0.85393873  0.45571696  0.90345364  1
  O  O39  1  0.64082940  0.95571696  0.19034431  1
  O  O40  1  0.32055004  0.28629170  0.35463017  1
  O  O41  1  0.14536983  0.21370830  0.17944996  1
  O  O42  1  0.66251632  0.39791186  0.54201003  1
  O  O43  1  0.60684274  0.71370830  0.14092187  1
  O  O44  1  0.40677304  0.45000442  0.18246622  1
  O  O45  1  0.59654636  0.04428304  0.64606127  1
  O  O46  1  0.93957182  0.39791186  0.56007811  1
  O  O47  1  0.95798997  0.10208814  0.83748368  1
  O  O48  1  0.69034431  0.45571696  0.14082940  1
  O  O49  1  0.31753378  0.04999558  0.09322696  1
  O  O50  1  0.85677746  0.54999558  0.13247064  1
  O  O51  1  0.63247064  0.04999558  0.35677746  1
  O  O52  1  0.93992189  0.10208814  0.56042818  1
  O  O53  1  0.64092187  0.21370830  0.10684274  1
