# generated using pymatgen
data_RbLi2Mn2(BO3)3
_symmetry_space_group_name_H-M   'P 1'
_cell_length_a   6.60934282
_cell_length_b   5.21608509
_cell_length_c   12.57364929
_cell_angle_alpha   90.00000000
_cell_angle_beta   89.98933567
_cell_angle_gamma   90.00000000
_symmetry_Int_Tables_number   1
_chemical_formula_structural   RbLi2Mn2(BO3)3
_chemical_formula_sum   'Rb2 Li4 Mn4 B6 O18'
_cell_volume   433.47522574
_cell_formula_units_Z   2
loop_
 _symmetry_equiv_pos_site_id
 _symmetry_equiv_pos_as_xyz
  1  'x, y, z'
loop_
 _atom_site_type_symbol
 _atom_site_label
 _atom_site_symmetry_multiplicity
 _atom_site_fract_x
 _atom_site_fract_y
 _atom_site_fract_z
 _atom_site_occupancy
  Rb  Rb0  1  0.00000000  0.20996447  0.75000000  1
  Rb  Rb1  1  0.00000000  0.79003553  0.25000000  1
  Li  Li2  1  0.49703788  0.15453691  0.86540973  1
  Li  Li3  1  0.50296212  0.15453691  0.63459027  1
  Li  Li4  1  0.49703788  0.84546309  0.36540973  1
  Li  Li5  1  0.50296212  0.84546309  0.13459027  1
  Mn  Mn6  1  0.23244178  0.67323785  0.56120197  1
  Mn  Mn7  1  0.23244178  0.32676215  0.06120197  1
  Mn  Mn8  1  0.76755822  0.67323785  0.93879803  1
  Mn  Mn9  1  0.76755822  0.32676215  0.43879803  1
  B  B10  1  0.19399457  0.81069974  0.96587028  1
  B  B11  1  0.19399457  0.18930026  0.46587028  1
  B  B12  1  0.50000000  0.64698879  0.75000000  1
  B  B13  1  0.50000000  0.35301121  0.25000000  1
  B  B14  1  0.80600543  0.81069974  0.53412972  1
  B  B15  1  0.80600543  0.18930026  0.03412972  1
  O  O16  1  0.05433166  0.68533444  0.90395565  1
  O  O17  1  0.05433166  0.31466556  0.40395565  1
  O  O18  1  0.24129803  0.06630135  0.95018046  1
  O  O19  1  0.24129803  0.93369865  0.45018046  1
  O  O20  1  0.29198385  0.31446615  0.54883231  1
  O  O21  1  0.29198385  0.68553385  0.04883231  1
  O  O22  1  0.41558234  0.79749319  0.66817997  1
  O  O23  1  0.41558234  0.20250681  0.16817997  1
  O  O24  1  0.50000000  0.38936424  0.75000000  1
  O  O25  1  0.50000000  0.61063576  0.25000000  1
  O  O26  1  0.58441766  0.79749319  0.83182003  1
  O  O27  1  0.58441766  0.20250681  0.33182003  1
  O  O28  1  0.70801615  0.31446615  0.95116769  1
  O  O29  1  0.70801615  0.68553385  0.45116769  1
  O  O30  1  0.75870197  0.06630135  0.54981954  1
  O  O31  1  0.75870197  0.93369865  0.04981954  1
  O  O32  1  0.94566834  0.68533444  0.59604435  1
  O  O33  1  0.94566834  0.31466556  0.09604435  1
