# generated using pymatgen
data_Li2AlNiO4
_symmetry_space_group_name_H-M   'P 1'
_cell_length_a   6.37084554
_cell_length_b   10.72899887
_cell_length_c   5.09823390
_cell_angle_alpha   90.00000000
_cell_angle_beta   89.80706513
_cell_angle_gamma   90.00000000
_symmetry_Int_Tables_number   1
_chemical_formula_structural   Li2AlNiO4
_chemical_formula_sum   'Li8 Al4 Ni4 O16'
_cell_volume   348.47655875
_cell_formula_units_Z   4
loop_
 _symmetry_equiv_pos_site_id
 _symmetry_equiv_pos_as_xyz
  1  'x, y, z'
loop_
 _atom_site_type_symbol
 _atom_site_label
 _atom_site_symmetry_multiplicity
 _atom_site_fract_x
 _atom_site_fract_y
 _atom_site_fract_z
 _atom_site_occupancy
  Li  Li0  1  0.01107323  0.83412218  0.68888238  1
  Li  Li1  1  0.24191880  0.08015277  0.70262569  1
  Li  Li2  1  0.25808120  0.58015277  0.79737431  1
  Li  Li3  1  0.48892677  0.33412218  0.81111762  1
  Li  Li4  1  0.51107323  0.66587782  0.18888238  1
  Li  Li5  1  0.74191880  0.41984723  0.20262569  1
  Li  Li6  1  0.75808120  0.91984723  0.29737431  1
  Li  Li7  1  0.98892677  0.16587782  0.31111762  1
  Al  Al8  1  0.24022891  0.41243847  0.31584706  1
  Al  Al9  1  0.25977109  0.91243847  0.18415294  1
  Al  Al10  1  0.74022891  0.08756153  0.81584706  1
  Al  Al11  1  0.75977109  0.58756153  0.68415294  1
  Ni  Ni12  1  0.00770052  0.66677715  0.18184975  1
  Ni  Ni13  1  0.49229948  0.16677715  0.31815025  1
  Ni  Ni14  1  0.50770052  0.83322285  0.68184975  1
  Ni  Ni15  1  0.99229948  0.33322285  0.81815025  1
  O  O16  1  0.01669057  0.33578579  0.18469660  1
  O  O17  1  0.02952889  0.83153283  0.29113216  1
  O  O18  1  0.24989666  0.07029970  0.28783499  1
  O  O19  1  0.22790918  0.40769761  0.66559618  1
  O  O20  1  0.27209082  0.90769761  0.83440382  1
  O  O21  1  0.25010334  0.57029970  0.21216501  1
  O  O22  1  0.47047111  0.33153283  0.20886784  1
  O  O23  1  0.48330943  0.83578579  0.31530340  1
  O  O24  1  0.51669057  0.16421421  0.68469660  1
  O  O25  1  0.52952889  0.66846717  0.79113216  1
  O  O26  1  0.74989666  0.42970030  0.78783499  1
  O  O27  1  0.72790918  0.09230239  0.16559618  1
  O  O28  1  0.77209082  0.59230239  0.33440382  1
  O  O29  1  0.75010334  0.92970030  0.71216501  1
  O  O30  1  0.97047111  0.16846717  0.70886784  1
  O  O31  1  0.98330943  0.66421421  0.81530340  1
