# generated using pymatgen
data_Li4Ti3V2(Fe2O9)2
_symmetry_space_group_name_H-M   'P 1'
_cell_length_a   9.17777954
_cell_length_b   25.50941798
_cell_length_c   2.95529824
_cell_angle_alpha   90.00004680
_cell_angle_beta   89.99996824
_cell_angle_gamma   89.97837578
_symmetry_Int_Tables_number   1
_chemical_formula_structural   Li4Ti3V2(Fe2O9)2
_chemical_formula_sum   'Li8 Ti6 V4 Fe8 O36'
_cell_volume   691.89382639
_cell_formula_units_Z   2
loop_
 _symmetry_equiv_pos_site_id
 _symmetry_equiv_pos_as_xyz
  1  'x, y, z'
loop_
 _atom_site_type_symbol
 _atom_site_label
 _atom_site_symmetry_multiplicity
 _atom_site_fract_x
 _atom_site_fract_y
 _atom_site_fract_z
 _atom_site_occupancy
  Li  Li0  1  0.19970610  0.98937440  0.99999890  1
  Li  Li1  1  0.19793648  0.18309823  0.99999979  1
  Li  Li2  1  0.30294005  0.68372320  0.99999884  1
  Li  Li3  1  0.29984151  0.48894464  0.99999992  1
  Li  Li4  1  0.69439501  0.50935076  0.99999940  1
  Li  Li5  1  0.68813309  0.31129774  0.99999960  1
  Li  Li6  1  0.81002782  0.81245919  0.99999881  1
  Li  Li7  1  0.80485140  0.00969853  0.00000120  1
  Ti  Ti8  1  0.00053745  0.09915636  0.99999939  1
  Ti  Ti9  1  0.49886237  0.59917790  -0.00000049  1
  Ti  Ti10  1  0.49411147  0.40032208  0.00000127  1
  Ti  Ti11  1  0.65347850  0.69031526  0.50000195  1
  Ti  Ti12  1  0.84676599  0.19047124  0.49999957  1
  Ti  Ti13  1  0.00675890  0.90027324  0.00000088  1
  V  V14  1  0.99792072  0.49992166  0.99999877  1
  V  V15  1  0.15432783  0.80935648  0.50000215  1
  V  V16  1  0.34556238  0.30959996  0.50000129  1
  V  V17  1  0.50188193  0.99981731  -0.00000012  1
  Fe  Fe18  1  0.00329298  0.30599020  0.00000125  1
  Fe  Fe19  1  0.14634719  0.58724847  0.50000043  1
  Fe  Fe20  1  0.35354978  0.08721039  0.49999807  1
  Fe  Fe21  1  0.49669763  0.80585703  0.00000079  1
  Fe  Fe22  1  0.50359139  0.19624698  0.99999874  1
  Fe  Fe23  1  0.65329992  0.91308719  0.50000069  1
  Fe  Fe24  1  0.84726369  0.41305573  0.49999950  1
  Fe  Fe25  1  0.99664107  0.69605154  -0.00000144  1
  O  O26  1  0.99267814  0.42572098  0.99999824  1
  O  O27  1  0.00269763  0.57453247  0.00000174  1
  O  O28  1  0.06213700  0.94357470  0.50000002  1
  O  O29  1  0.04556527  0.15525066  0.49999929  1
  O  O30  1  0.12338992  0.66607645  0.49999937  1
  O  O31  1  0.09539524  0.76329128  0.00000025  1
  O  O32  1  0.14667649  0.50393625  0.49999886  1
  O  O33  1  0.14675901  0.29129719  0.50000117  1
  O  O34  1  0.18757174  0.85931102  -0.00000170  1
  O  O35  1  0.20257219  0.08398543  0.99999916  1
  O  O36  1  0.29698055  0.58400079  0.00000149  1
  O  O37  1  0.31267790  0.35949193  0.99999996  1
  O  O38  1  0.35334815  0.79109022  0.50000006  1
  O  O39  1  0.35314097  0.00397968  0.50000205  1
  O  O40  1  0.40497105  0.26347975  0.00000209  1
  O  O41  1  0.37715866  0.16604230  0.49999722  1
  O  O42  1  0.45425279  0.65536424  0.50000161  1
  O  O43  1  0.43823775  0.44357814  0.50000020  1
  O  O44  1  0.49712064  0.07445671  -0.00000005  1
  O  O45  1  0.50767714  0.92572197  0.00000183  1
  O  O46  1  0.55842618  0.55629618  0.50000010  1
  O  O47  1  0.54126263  0.34310735  0.50000034  1
  O  O48  1  0.62274473  0.83454312  0.50000113  1
  O  O49  1  0.59475927  0.73827053  0.00000327  1
  O  O50  1  0.65071569  0.99618640  0.49999991  1
  O  O51  1  0.64436428  0.21154384  0.49999899  1
  O  O52  1  0.68557895  0.64178880  -0.00000132  1
  O  O53  1  0.69805911  0.41591005  0.99999971  1
  O  O54  1  0.80224587  0.91561007  0.00000005  1
  O  O55  1  0.81416689  0.14193393  0.99999793  1
  O  O56  1  0.85588211  0.71109298  0.49999944  1
  O  O57  1  0.84930805  0.49620294  0.50000124  1
  O  O58  1  0.90553897  0.23830359  0.99999775  1
  O  O59  1  0.87727271  0.33453064  0.49999986  1
  O  O60  1  0.95912562  0.84309482  0.50000096  1
  O  O61  1  0.94081805  0.05629690  0.49999864  1
