# generated using pymatgen
data_Li2V3O8
_symmetry_space_group_name_H-M   'P 1'
_cell_length_a   8.95256466
_cell_length_b   8.95256466
_cell_length_c   5.27918623
_cell_angle_alpha   90.00000000
_cell_angle_beta   90.00000000
_cell_angle_gamma   90.00000000
_symmetry_Int_Tables_number   1
_chemical_formula_structural   Li2V3O8
_chemical_formula_sum   'Li4 V6 O16'
_cell_volume   423.11840350
_cell_formula_units_Z   2
loop_
 _symmetry_equiv_pos_site_id
 _symmetry_equiv_pos_as_xyz
  1  'x, y, z'
loop_
 _atom_site_type_symbol
 _atom_site_label
 _atom_site_symmetry_multiplicity
 _atom_site_fract_x
 _atom_site_fract_y
 _atom_site_fract_z
 _atom_site_occupancy
  Li  Li0  1  0.24210472  0.25789528  0.89736692  1
  Li  Li1  1  0.25789528  0.75789528  0.89736692  1
  Li  Li2  1  0.74210472  0.24210472  0.89736692  1
  Li  Li3  1  0.75789528  0.74210472  0.89736692  1
  V  V4  1  0.00000000  0.00000000  0.52902893  1
  V  V5  1  0.13953409  0.63953409  0.48317771  1
  V  V6  1  0.36046591  0.13953409  0.48317771  1
  V  V7  1  0.50000000  0.50000000  0.52902893  1
  V  V8  1  0.63953409  0.86046591  0.48317771  1
  V  V9  1  0.86046591  0.36046591  0.48317771  1
  O  O10  1  0.00000000  0.00000000  0.21931811  1
  O  O11  1  0.00000000  0.50000000  0.56159016  1
  O  O12  1  0.09559126  0.80806620  0.63402118  1
  O  O13  1  0.15996882  0.65996882  0.17197141  1
  O  O14  1  0.19193380  0.09559126  0.63402118  1
  O  O15  1  0.30806620  0.59559126  0.63402118  1
  O  O16  1  0.34003118  0.15996882  0.17197141  1
  O  O17  1  0.40440874  0.30806620  0.63402118  1
  O  O18  1  0.50000000  0.50000000  0.21931811  1
  O  O19  1  0.50000000  0.00000000  0.56159016  1
  O  O20  1  0.59559126  0.69193380  0.63402118  1
  O  O21  1  0.65996882  0.84003118  0.17197141  1
  O  O22  1  0.69193380  0.40440874  0.63402118  1
  O  O23  1  0.80806620  0.90440874  0.63402118  1
  O  O24  1  0.84003118  0.34003118  0.17197141  1
  O  O25  1  0.90440874  0.19193380  0.63402118  1
