# generated using pymatgen
data_Li3Cu5O4
_symmetry_space_group_name_H-M   'P 1'
_cell_length_a   7.65335324
_cell_length_b   6.64175249
_cell_length_c   12.71301237
_cell_angle_alpha   90.00000000
_cell_angle_beta   107.57200958
_cell_angle_gamma   90.00000000
_symmetry_Int_Tables_number   1
_chemical_formula_structural   Li3Cu5O4
_chemical_formula_sum   'Li12 Cu20 O16'
_cell_volume   616.06983166
_cell_formula_units_Z   4
loop_
 _symmetry_equiv_pos_site_id
 _symmetry_equiv_pos_as_xyz
  1  'x, y, z'
loop_
 _atom_site_type_symbol
 _atom_site_label
 _atom_site_symmetry_multiplicity
 _atom_site_fract_x
 _atom_site_fract_y
 _atom_site_fract_z
 _atom_site_occupancy
  Li  Li0  1  0.06707194  0.37567910  0.57205493  1
  Li  Li1  1  0.36293246  0.06030761  0.92163893  1
  Li  Li2  1  0.25887143  0.71938953  0.56402006  1
  Li  Li3  1  0.06707194  0.12432090  0.07205493  1
  Li  Li4  1  0.36293246  0.43969239  0.42163893  1
  Li  Li5  1  0.25887143  0.78061047  0.06402006  1
  Li  Li6  1  0.74112857  0.21938953  0.93597994  1
  Li  Li7  1  0.63706754  0.56030761  0.57836107  1
  Li  Li8  1  0.93292806  0.87567910  0.92794507  1
  Li  Li9  1  0.74112857  0.28061047  0.43597994  1
  Li  Li10  1  0.63706754  0.93969239  0.07836107  1
  Li  Li11  1  0.93292806  0.62432090  0.42794507  1
  Cu  Cu12  1  0.03477502  0.42797794  0.91216345  1
  Cu  Cu13  1  0.06034987  0.67136555  0.74296823  1
  Cu  Cu14  1  0.03477502  0.07202206  0.41216345  1
  Cu  Cu15  1  0.32688668  0.52857784  0.89332746  1
  Cu  Cu16  1  0.06034987  0.82863445  0.24296823  1
  Cu  Cu17  1  0.45867469  0.44143612  0.72960767  1
  Cu  Cu18  1  0.32688668  0.97142216  0.39332746  1
  Cu  Cu19  1  0.62674198  0.67378154  0.91340212  1
  Cu  Cu20  1  0.37325802  0.17378154  0.58659788  1
  Cu  Cu21  1  0.54132531  0.94143612  0.77039233  1
  Cu  Cu22  1  0.45867469  0.05856388  0.22960767  1
  Cu  Cu23  1  0.62674198  0.82621846  0.41340212  1
  Cu  Cu24  1  0.37325802  0.32621846  0.08659788  1
  Cu  Cu25  1  0.67311332  0.02857784  0.60667254  1
  Cu  Cu26  1  0.54132531  0.55856388  0.27039233  1
  Cu  Cu27  1  0.93965013  0.17136555  0.75703177  1
  Cu  Cu28  1  0.67311332  0.47142216  0.10667254  1
  Cu  Cu29  1  0.96522498  0.92797794  0.58783655  1
  Cu  Cu30  1  0.93965013  0.32863445  0.25703177  1
  Cu  Cu31  1  0.96522498  0.57202206  0.08783655  1
  O  O32  1  0.97590034  0.15706257  0.90572117  1
  O  O33  1  0.12012256  0.69127138  0.89803041  1
  O  O34  1  0.97590034  0.34293743  0.40572117  1
  O  O35  1  0.12012256  0.80872862  0.39803041  1
  O  O36  1  0.54160482  0.40446327  0.88104346  1
  O  O37  1  0.37983678  0.45402353  0.57661048  1
  O  O38  1  0.62016322  0.95402353  0.92338952  1
  O  O39  1  0.45839518  0.90446327  0.61895654  1
  O  O40  1  0.54160482  0.09553673  0.38104346  1
  O  O41  1  0.37983678  0.04597647  0.07661048  1
  O  O42  1  0.62016322  0.54597647  0.42338952  1
  O  O43  1  0.45839518  0.59553673  0.11895654  1
  O  O44  1  0.87987744  0.19127138  0.60196959  1
  O  O45  1  0.02409966  0.65706257  0.59427883  1
  O  O46  1  0.87987744  0.30872862  0.10196959  1
  O  O47  1  0.02409966  0.84293743  0.09427883  1
