# generated using pymatgen
data_Rb2MgH4
_symmetry_space_group_name_H-M   'P 1'
_cell_length_a   8.77028958
_cell_length_b   10.63601467
_cell_length_c   8.24961798
_cell_angle_alpha   90.00000000
_cell_angle_beta   90.00000000
_cell_angle_gamma   90.00000000
_symmetry_Int_Tables_number   1
_chemical_formula_structural   Rb2MgH4
_chemical_formula_sum   'Rb8 Mg4 H16'
_cell_volume   769.53202604
_cell_formula_units_Z   4
loop_
 _symmetry_equiv_pos_site_id
 _symmetry_equiv_pos_as_xyz
  1  'x, y, z'
loop_
 _atom_site_type_symbol
 _atom_site_label
 _atom_site_symmetry_multiplicity
 _atom_site_fract_x
 _atom_site_fract_y
 _atom_site_fract_z
 _atom_site_occupancy
  Rb  Rb0  1  0.98938785  0.76078051  0.75000000  1
  Rb  Rb1  1  0.24374665  0.83323244  0.25000000  1
  Rb  Rb2  1  0.25625335  0.33323244  0.75000000  1
  Rb  Rb3  1  0.51061215  0.26078051  0.25000000  1
  Rb  Rb4  1  0.48938785  0.73921949  0.75000000  1
  Rb  Rb5  1  0.74374665  0.66676756  0.25000000  1
  Rb  Rb6  1  0.75625335  0.16676756  0.75000000  1
  Rb  Rb7  1  0.01061215  0.23921949  0.25000000  1
  Mg  Mg8  1  0.24090067  0.48596317  0.25000000  1
  Mg  Mg9  1  0.25909933  0.98596317  0.75000000  1
  Mg  Mg10  1  0.74090067  0.01403683  0.25000000  1
  Mg  Mg11  1  0.75909933  0.51403683  0.75000000  1
  H  H12  1  0.04994262  0.55789191  0.25000000  1
  H  H13  1  0.09361743  0.09197213  0.75000000  1
  H  H14  1  0.24351017  0.86482930  0.58380370  1
  H  H15  1  0.24351017  0.86482930  0.91619630  1
  H  H16  1  0.25648983  0.36482930  0.08380370  1
  H  H17  1  0.25648983  0.36482930  0.41619630  1
  H  H18  1  0.40638257  0.59197213  0.25000000  1
  H  H19  1  0.45005738  0.05789191  0.75000000  1
  H  H20  1  0.54994262  0.94210809  0.25000000  1
  H  H21  1  0.59361743  0.40802787  0.75000000  1
  H  H22  1  0.74351017  0.63517070  0.58380370  1
  H  H23  1  0.74351017  0.63517070  0.91619630  1
  H  H24  1  0.75648983  0.13517070  0.08380370  1
  H  H25  1  0.75648983  0.13517070  0.41619630  1
  H  H26  1  0.90638257  0.90802787  0.25000000  1
  H  H27  1  0.95005738  0.44210809  0.75000000  1
