# generated using pymatgen
data_Li4TiCr5O12
_symmetry_space_group_name_H-M   'P 1'
_cell_length_a   5.13707403
_cell_length_b   5.13871426
_cell_length_c   10.12606180
_cell_angle_alpha   89.97534592
_cell_angle_beta   89.95066588
_cell_angle_gamma   60.01055608
_symmetry_Int_Tables_number   1
_chemical_formula_structural   Li4TiCr5O12
_chemical_formula_sum   'Li4 Ti1 Cr5 O12'
_cell_volume   231.51947246
_cell_formula_units_Z   1
loop_
 _symmetry_equiv_pos_site_id
 _symmetry_equiv_pos_as_xyz
  1  'x, y, z'
loop_
 _atom_site_type_symbol
 _atom_site_label
 _atom_site_symmetry_multiplicity
 _atom_site_fract_x
 _atom_site_fract_y
 _atom_site_fract_z
 _atom_site_occupancy
  Li  Li0  1  0.15294970  0.49861403  0.74892204  1
  Li  Li1  1  0.34843627  0.49861403  0.25107796  1
  Li  Li2  1  0.65156373  0.50138597  0.74892204  1
  Li  Li3  1  0.84705030  0.50138597  0.25107796  1
  Ti  Ti4  1  0.00000000  0.00000000  0.00000000  1
  Cr  Cr5  1  0.16508272  0.66983455  0.50000000  1
  Cr  Cr6  1  0.66399642  0.67200715  0.00000000  1
  Cr  Cr7  1  0.33600358  0.32799285  1.00000000  1
  Cr  Cr8  1  0.83491728  0.33016545  0.50000000  1
  Cr  Cr9  1  0.50000000  0.00000000  0.50000000  1
  O  O10  1  0.00547665  0.66286345  0.10683197  1
  O  O11  1  0.33165990  0.66286345  0.89316803  1
  O  O12  1  0.16440215  0.34342725  0.39388700  1
  O  O13  1  0.50782941  0.65657275  0.39388700  1
  O  O14  1  0.49217059  0.34342725  0.60611300  1
  O  O15  1  0.16895293  1.00000000  0.59404628  1
  O  O16  1  0.83559785  0.65657275  0.60611300  1
  O  O17  1  0.66834010  0.33713655  0.10683197  1
  O  O18  1  0.32399789  1.00000000  0.09965253  1
  O  O19  1  0.99452335  0.33713655  0.89316803  1
  O  O20  1  0.67600211  0.00000000  0.90034747  1
  O  O21  1  0.83104707  0.00000000  0.40595372  1
