# generated using pymatgen
data_CaHo(WO3)2
_symmetry_space_group_name_H-M   'P 1'
_cell_length_a   5.49720914
_cell_length_b   5.78243786
_cell_length_c   8.11848586
_cell_angle_alpha   89.99909163
_cell_angle_beta   89.85741908
_cell_angle_gamma   90.00158836
_symmetry_Int_Tables_number   1
_chemical_formula_structural   CaHo(WO3)2
_chemical_formula_sum   'Ca2 Ho2 W4 O12'
_cell_volume   258.06370487
_cell_formula_units_Z   2
loop_
 _symmetry_equiv_pos_site_id
 _symmetry_equiv_pos_as_xyz
  1  'x, y, z'
loop_
 _atom_site_type_symbol
 _atom_site_label
 _atom_site_symmetry_multiplicity
 _atom_site_fract_x
 _atom_site_fract_y
 _atom_site_fract_z
 _atom_site_occupancy
  Ca  Ca0  1  0.48923457  0.44628815  0.74877726  1
  Ca  Ca1  1  0.98927368  0.05368336  0.24874929  1
  Ho  Ho2  1  0.02288541  0.93715408  0.74986569  1
  Ho  Ho3  1  0.52293223  0.56283862  0.24988791  1
  W  W4  1  0.00196649  0.49778494  0.99917644  1
  W  W5  1  0.00105156  0.49826392  0.49999746  1
  W  W6  1  0.50192231  0.00222710  0.49919137  1
  W  W7  1  0.50101730  0.00172809  0.99997878  1
  O  O8  1  0.13688947  0.44418240  0.24690130  1
  O  O9  1  0.17445429  0.19458078  0.93457212  1
  O  O10  1  0.19182173  0.18380896  0.56721778  1
  O  O11  1  0.28940647  0.70135245  0.93215866  1
  O  O12  1  0.30759572  0.71265626  0.56897580  1
  O  O13  1  0.38458338  0.93327512  0.25232706  1
  O  O14  1  0.63690436  0.05589807  0.74690106  1
  O  O15  1  0.67456610  0.30535215  0.43449225  1
  O  O16  1  0.69180142  0.31619657  0.06723648  1
  O  O17  1  0.80766173  0.78740555  0.06897479  1
  O  O18  1  0.78945445  0.79868957  0.43226954  1
  O  O19  1  0.88457633  0.56663385  0.75234595  1
