# generated using pymatgen
data_Li5V2Co5O12
_symmetry_space_group_name_H-M   'P 1'
_cell_length_a   5.20091600
_cell_length_b   5.20091582
_cell_length_c   9.85829595
_cell_angle_alpha   84.60869809
_cell_angle_beta   95.39129776
_cell_angle_gamma   58.12165737
_symmetry_Int_Tables_number   1
_chemical_formula_structural   Li5V2Co5O12
_chemical_formula_sum   'Li5 V2 Co5 O12'
_cell_volume   222.16529329
_cell_formula_units_Z   1
loop_
 _symmetry_equiv_pos_site_id
 _symmetry_equiv_pos_as_xyz
  1  'x, y, z'
loop_
 _atom_site_type_symbol
 _atom_site_label
 _atom_site_symmetry_multiplicity
 _atom_site_fract_x
 _atom_site_fract_y
 _atom_site_fract_z
 _atom_site_occupancy
  Li  Li0  1  0.17114636  0.67655438  0.50197299  1
  Li  Li1  1  0.32687098  0.82865297  0.99533707  1
  Li  Li2  1  0.67655438  0.17114636  0.99802701  1
  Li  Li3  1  0.82865297  0.32687098  0.50466293  1
  Li  Li4  1  0.92223011  0.92223011  0.75000000  1
  V  V5  1  0.25948182  0.25948182  0.75000000  1
  V  V6  1  0.74726597  0.74726597  0.25000000  1
  Co  Co7  1  0.07800783  0.07800783  0.25000000  1
  Co  Co8  1  0.99720262  0.50637418  0.99630967  1
  Co  Co9  1  0.50637418  0.99720262  0.50369033  1
  Co  Co10  1  0.41901374  0.41901374  0.25000000  1
  Co  Co11  1  0.58347301  0.58347301  0.75000000  1
  O  O12  1  0.94710540  0.23991591  0.86623611  1
  O  O13  1  0.23991591  0.94710540  0.63376389  1
  O  O14  1  0.10274216  0.39577873  0.36491355  1
  O  O15  1  0.39577873  0.10274216  0.13508645  1
  O  O16  1  0.29085637  0.52146812  0.86799878  1
  O  O17  1  0.52146812  0.29085637  0.63200122  1
  O  O18  1  0.47584711  0.71089618  0.37135138  1
  O  O19  1  0.71089618  0.47584711  0.12864862  1
  O  O20  1  0.59198881  0.89727650  0.86456537  1
  O  O21  1  0.89727650  0.59198881  0.63543463  1
  O  O22  1  0.78494930  0.02490344  0.37201731  1
  O  O23  1  0.02490344  0.78494930  0.12798269  1
