# generated using pymatgen
data_Y2Zr2O7
_symmetry_space_group_name_H-M   'P 1'
_cell_length_a   7.89282608
_cell_length_b   13.86062684
_cell_length_c   5.54618933
_cell_angle_alpha   90.00000000
_cell_angle_beta   90.00000000
_cell_angle_gamma   98.44324227
_symmetry_Int_Tables_number   1
_chemical_formula_structural   Y2Zr2O7
_chemical_formula_sum   'Y8 Zr8 O28'
_cell_volume   600.17435102
_cell_formula_units_Z   4
loop_
 _symmetry_equiv_pos_site_id
 _symmetry_equiv_pos_as_xyz
  1  'x, y, z'
loop_
 _atom_site_type_symbol
 _atom_site_label
 _atom_site_symmetry_multiplicity
 _atom_site_fract_x
 _atom_site_fract_y
 _atom_site_fract_z
 _atom_site_occupancy
  Y  Y0  1  0.13754578  0.55921081  0.32692335  1
  Y  Y1  1  0.23725105  0.92765929  0.77926725  1
  Y  Y2  1  0.28670378  0.13395300  0.24343309  1
  Y  Y3  1  0.36180158  0.39871148  0.75918006  1
  Y  Y4  1  0.63819842  0.60128852  0.25918006  1
  Y  Y5  1  0.71329622  0.86604700  0.74343309  1
  Y  Y6  1  0.76274895  0.07234071  0.27926725  1
  Y  Y7  1  0.86245422  0.44078919  0.82692335  1
  Zr  Zr8  1  0.07423615  0.31970321  0.26496377  1
  Zr  Zr9  1  0.02681539  0.11857827  0.76323120  1
  Zr  Zr10  1  0.41065779  0.67308429  0.77666838  1
  Zr  Zr11  1  0.46772217  0.87492293  0.26505040  1
  Zr  Zr12  1  0.53227783  0.12507707  0.76505040  1
  Zr  Zr13  1  0.58934221  0.32691571  0.27666838  1
  Zr  Zr14  1  0.97318461  0.88142173  0.26323120  1
  Zr  Zr15  1  0.92576385  0.68029679  0.76496377  1
  O  O16  1  0.07748248  0.41693325  0.55125486  1
  O  O17  1  0.99599889  0.17450137  0.42051708  1
  O  O18  1  0.16967324  0.67408727  0.63433120  1
  O  O19  1  0.22195857  0.88330946  0.38507502  1
  O  O20  1  0.15397748  0.43428557  0.04369726  1
  O  O21  1  0.07447193  0.02155864  0.05077128  1
  O  O22  1  0.13826881  0.22950785  0.96659161  1
  O  O23  1  0.36566136  0.62248057  0.11079524  1
  O  O24  1  0.41533370  0.82683777  0.91542637  1
  O  O25  1  0.27149114  0.08470890  0.63548793  1
  O  O26  1  0.32349250  0.29853562  0.40243383  1
  O  O27  1  0.42223932  0.54754796  0.57622531  1
  O  O28  1  0.56042388  0.97680624  0.54656792  1
  O  O29  1  0.52550906  0.76654311  0.47459657  1
  O  O30  1  0.47449094  0.23345689  0.97459657  1
  O  O31  1  0.43957612  0.02319376  0.04656792  1
  O  O32  1  0.57776068  0.45245204  0.07622531  1
  O  O33  1  0.67650750  0.70146438  0.90243383  1
  O  O34  1  0.72850886  0.91529110  0.13548793  1
  O  O35  1  0.58466630  0.17316223  0.41542637  1
  O  O36  1  0.63433864  0.37751943  0.61079524  1
  O  O37  1  0.86173119  0.77049215  0.46659161  1
  O  O38  1  0.92552807  0.97844136  0.55077128  1
  O  O39  1  0.84602252  0.56571443  0.54369726  1
  O  O40  1  0.77804143  0.11669054  0.88507502  1
  O  O41  1  0.83032676  0.32591273  0.13433120  1
  O  O42  1  0.00400111  0.82549863  0.92051708  1
  O  O43  1  0.92251752  0.58306675  0.05125486  1
