# generated using pymatgen
data_Li3CoSiBO7
_symmetry_space_group_name_H-M   'P 1'
_cell_length_a   8.32324660
_cell_length_b   6.13820877
_cell_length_c   5.01818202
_cell_angle_alpha   90.00000000
_cell_angle_beta   84.11072013
_cell_angle_gamma   90.00000000
_symmetry_Int_Tables_number   1
_chemical_formula_structural   Li3CoSiBO7
_chemical_formula_sum   'Li6 Co2 Si2 B2 O14'
_cell_volume   255.02488777
_cell_formula_units_Z   2
loop_
 _symmetry_equiv_pos_site_id
 _symmetry_equiv_pos_as_xyz
  1  'x, y, z'
loop_
 _atom_site_type_symbol
 _atom_site_label
 _atom_site_symmetry_multiplicity
 _atom_site_fract_x
 _atom_site_fract_y
 _atom_site_fract_z
 _atom_site_occupancy
  Li  Li0  1  0.10527159  0.25000000  0.75857143  1
  Li  Li1  1  0.25051926  0.99846789  0.25252877  1
  Li  Li2  1  0.25051926  0.50153211  0.25252877  1
  Li  Li3  1  0.74948074  0.49846789  0.74747123  1
  Li  Li4  1  0.74948074  0.00153211  0.74747123  1
  Li  Li5  1  0.89472841  0.75000000  0.24142857  1
  Co  Co6  1  0.31480441  0.75000000  0.80048203  1
  Co  Co7  1  0.68519559  0.25000000  0.19951797  1
  Si  Si8  1  0.43091785  0.25000000  0.72315895  1
  Si  Si9  1  0.56908215  0.75000000  0.27684105  1
  B  B10  1  0.04005117  0.75000000  0.71391753  1
  B  B11  1  0.95994883  0.25000000  0.28608247  1
  O  O12  1  0.11049905  0.25000000  0.35838645  1
  O  O13  1  0.08911171  0.75000000  0.97072327  1
  O  O14  1  0.17765115  0.75000000  0.52687117  1
  O  O15  1  0.30177966  0.05246474  0.81911996  1
  O  O16  1  0.30177966  0.44753526  0.81911996  1
  O  O17  1  0.47541162  0.25000000  0.39705970  1
  O  O18  1  0.40353118  0.75000000  0.13324531  1
  O  O19  1  0.59646882  0.25000000  0.86675469  1
  O  O20  1  0.52458838  0.75000000  0.60294030  1
  O  O21  1  0.69822034  0.55246474  0.18088004  1
  O  O22  1  0.69822034  0.94753526  0.18088004  1
  O  O23  1  0.82234885  0.25000000  0.47312883  1
  O  O24  1  0.91088829  0.25000000  0.02927673  1
  O  O25  1  0.88950095  0.75000000  0.64161355  1
