# generated using pymatgen
data_Ti3Ni3(TeO8)2
_symmetry_space_group_name_H-M   'P 1'
_cell_length_a   5.97590147
_cell_length_b   5.90914638
_cell_length_c   9.23429368
_cell_angle_alpha   89.99879627
_cell_angle_beta   91.13487820
_cell_angle_gamma   119.62796892
_symmetry_Int_Tables_number   1
_chemical_formula_structural   Ti3Ni3(TeO8)2
_chemical_formula_sum   'Ti3 Ni3 Te2 O16'
_cell_volume   283.37776161
_cell_formula_units_Z   1
loop_
 _symmetry_equiv_pos_site_id
 _symmetry_equiv_pos_as_xyz
  1  'x, y, z'
loop_
 _atom_site_type_symbol
 _atom_site_label
 _atom_site_symmetry_multiplicity
 _atom_site_fract_x
 _atom_site_fract_y
 _atom_site_fract_z
 _atom_site_occupancy
  Ti  Ti0  1  0.17294606  0.83534232  0.20919814  1
  Ti  Ti1  1  0.17294226  0.33761201  0.20920612  1
  Ti  Ti2  1  0.31571454  0.15785152  0.71685760  1
  Ni  Ni3  1  0.65649228  0.82826036  0.20566545  1
  Ni  Ni4  1  0.82275118  0.65809049  0.70819159  1
  Ni  Ni5  1  0.82278359  0.16468881  0.70817377  1
  Te  Te6  1  0.34698077  0.67348526  0.48813141  1
  Te  Te7  1  0.67630305  0.33818380  0.98309761  1
  O  O8  1  0.19320933  0.83680093  0.60139988  1
  O  O9  1  0.05145978  0.52574897  0.34623816  1
  O  O10  1  0.29981907  0.64991239  0.10120536  1
  O  O11  1  0.01151419  0.00576782  0.29639492  1
  O  O12  1  0.98730523  0.99361707  0.80069566  1
  O  O13  1  0.19317315  0.35639173  0.60139909  1
  O  O14  1  0.46905420  0.95814295  0.34829358  1
  O  O15  1  0.46906106  0.51090102  0.34828873  1
  O  O16  1  0.36345328  0.18172826  0.10566082  1
  O  O17  1  0.67354100  0.83674622  0.59243660  1
  O  O18  1  0.50564129  0.46673387  0.84885033  1
  O  O19  1  0.50573286  0.03899100  0.84883450  1
  O  O20  1  0.66766737  0.33388756  0.61352356  1
  O  O21  1  0.83391681  0.65333629  0.09757278  1
  O  O22  1  0.95460922  0.47736092  0.83884139  1
  O  O23  1  0.83392842  0.18061942  0.09756395  1
