# generated using pymatgen
data_Nb2P4H3O16
_symmetry_space_group_name_H-M   'P 1'
_cell_length_a   5.12162713
_cell_length_b   8.22377617
_cell_length_c   7.53909685
_cell_angle_alpha   89.03852497
_cell_angle_beta   103.52842811
_cell_angle_gamma   88.16546710
_symmetry_Int_Tables_number   1
_chemical_formula_structural   Nb2P4H3O16
_chemical_formula_sum   'Nb2 P4 H3 O16'
_cell_volume   308.47512712
_cell_formula_units_Z   1
loop_
 _symmetry_equiv_pos_site_id
 _symmetry_equiv_pos_as_xyz
  1  'x, y, z'
loop_
 _atom_site_type_symbol
 _atom_site_label
 _atom_site_symmetry_multiplicity
 _atom_site_fract_x
 _atom_site_fract_y
 _atom_site_fract_z
 _atom_site_occupancy
  Nb  Nb0  1  0.99825697  0.99690207  0.49715204  1
  Nb  Nb1  1  0.49958927  0.50143087  0.00176712  1
  P  P2  1  0.10820592  0.33720512  0.25721435  1
  P  P3  1  0.38339031  0.85478530  0.22874314  1
  P  P4  1  0.61058689  0.14916727  0.76256621  1
  P  P5  1  0.89141080  0.66258757  0.74405598  1
  H  H6  1  0.39672765  0.44839170  0.44736959  1
  H  H7  1  0.60066829  0.55631100  0.54988832  1
  H  H8  1  0.94707249  0.01341845  0.97860006  1
  O  O9  1  0.13838595  0.56298977  0.85129827  1
  O  O10  1  0.01995664  0.17051117  0.30944378  1
  O  O11  1  0.20277014  0.84540615  0.37370852  1
  O  O12  1  0.21226043  0.42641659  0.44527585  1
  O  O13  1  0.35105190  0.06672870  0.65924673  1
  O  O14  1  0.54070668  0.32424738  0.81083442  1
  O  O15  1  0.24150106  0.95204506  0.06412238  1
  O  O16  1  0.33258588  0.33115374  0.15533045  1
  O  O17  1  0.66712527  0.66953105  0.84604560  1
  O  O18  1  0.74581050  0.04938944  0.93724835  1
  O  O19  1  0.45769334  0.67511937  0.19143447  1
  O  O20  1  0.65139278  0.93131151  0.34219029  1
  O  O21  1  0.78826710  0.57234235  0.55652282  1
  O  O22  1  0.80392743  0.15576269  0.63073947  1
  O  O23  1  0.97788666  0.82978822  0.69192363  1
  O  O24  1  0.86165266  0.43695747  0.14918016  1
