# generated using pymatgen
data_Li3Mn3WO8
_symmetry_space_group_name_H-M   'P 1'
_cell_length_a   10.47112880
_cell_length_b   10.46949259
_cell_length_c   14.72496087
_cell_angle_alpha   20.30992764
_cell_angle_beta   20.30415349
_cell_angle_gamma   34.98665724
_symmetry_Int_Tables_number   1
_chemical_formula_structural   Li3Mn3WO8
_chemical_formula_sum   'Li3 Mn3 W1 O8'
_cell_volume   168.33522019
_cell_formula_units_Z   1
loop_
 _symmetry_equiv_pos_site_id
 _symmetry_equiv_pos_as_xyz
  1  'x, y, z'
loop_
 _atom_site_type_symbol
 _atom_site_label
 _atom_site_symmetry_multiplicity
 _atom_site_fract_x
 _atom_site_fract_y
 _atom_site_fract_z
 _atom_site_occupancy
  Li  Li0  1  0.00000036  0.49999688  0.50000122  1
  Li  Li1  1  0.50000371  0.00000116  0.49999634  1
  Li  Li2  1  0.50000008  0.50000153  0.49999912  1
  Mn  Mn3  1  0.99998329  0.49998837  0.00002112  1
  Mn  Mn4  1  0.49999640  0.99998735  0.00000696  1
  Mn  Mn5  1  0.50000991  0.50002631  0.99998030  1
  W  W6  1  0.99998781  0.99999386  0.00001176  1
  O  O7  1  0.00415103  0.00217025  0.26175736  1
  O  O8  1  0.99973643  0.55848581  0.21796539  1
  O  O9  1  0.55892246  0.99981193  0.21768317  1
  O  O10  1  0.99585517  0.99783720  0.73823259  1
  O  O11  1  0.44161348  0.44177332  0.33430614  1
  O  O12  1  0.00026579  0.44151398  0.78203237  1
  O  O13  1  0.44108196  0.00018783  0.78231463  1
  O  O14  1  0.55839112  0.55822523  0.66569155  1
