# generated using pymatgen
data_Li4Ti3Co5O16
_symmetry_space_group_name_H-M   'P 1'
_cell_length_a   5.71028614
_cell_length_b   5.80403574
_cell_length_c   9.31004470
_cell_angle_alpha   89.87746241
_cell_angle_beta   89.74814629
_cell_angle_gamma   120.16504755
_symmetry_Int_Tables_number   1
_chemical_formula_structural   Li4Ti3Co5O16
_chemical_formula_sum   'Li4 Ti3 Co5 O16'
_cell_volume   266.76937285
_cell_formula_units_Z   1
loop_
 _symmetry_equiv_pos_site_id
 _symmetry_equiv_pos_as_xyz
  1  'x, y, z'
loop_
 _atom_site_type_symbol
 _atom_site_label
 _atom_site_symmetry_multiplicity
 _atom_site_fract_x
 _atom_site_fract_y
 _atom_site_fract_z
 _atom_site_occupancy
  Li  Li0  1  0.34164085  0.67390047  0.88842703  1
  Li  Li1  1  0.97541107  0.98722097  0.99468860  1
  Li  Li2  1  0.98726983  0.99647849  0.49911003  1
  Li  Li3  1  0.67377714  0.33578512  0.39571451  1
  Ti  Ti4  1  0.17148729  0.83290776  0.21201105  1
  Ti  Ti5  1  0.16999759  0.33764801  0.21119611  1
  Ti  Ti6  1  0.34040756  0.17189614  0.71270086  1
  Co  Co7  1  0.33378921  0.66236801  0.48477722  1
  Co  Co8  1  0.65263323  0.82594845  0.21407122  1
  Co  Co9  1  0.67207990  0.33634506  0.97914322  1
  Co  Co10  1  0.82828277  0.66186967  0.70893113  1
  Co  Co11  1  0.82772191  0.17164753  0.71318099  1
  O  O12  1  0.16397762  0.82865414  0.60283251  1
  O  O13  1  0.04781899  0.52384391  0.34526814  1
  O  O14  1  0.33004750  0.66446869  0.09775670  1
  O  O15  1  0.99012417  0.99534848  0.31069231  1
  O  O16  1  0.98784424  0.99310700  0.80723888  1
  O  O17  1  0.17076725  0.33257985  0.60043468  1
  O  O18  1  0.48424962  0.95826764  0.34679950  1
  O  O19  1  0.48549027  0.52533793  0.34542509  1
  O  O20  1  0.34106349  0.17048650  0.10081516  1
  O  O21  1  0.66601953  0.82642190  0.60832891  1
  O  O22  1  0.52902496  0.48466028  0.84319459  1
  O  O23  1  0.52505189  0.04554928  0.84531413  1
  O  O24  1  0.67427253  0.33862720  0.60199553  1
  O  O25  1  0.83594206  0.66490767  0.10250535  1
  O  O26  1  0.95847988  0.48252073  0.83314387  1
  O  O27  1  0.83532868  0.17150513  0.10214267  1
