# generated using pymatgen
data_Sr2LaCl7
_symmetry_space_group_name_H-M   'P 1'
_cell_length_a   7.19391705
_cell_length_b   13.81154888
_cell_length_c   12.44947293
_cell_angle_alpha   90.00000000
_cell_angle_beta   90.44539603
_cell_angle_gamma   90.00000000
_symmetry_Int_Tables_number   1
_chemical_formula_structural   Sr2LaCl7
_chemical_formula_sum   'Sr8 La4 Cl28'
_cell_volume   1236.93151111
_cell_formula_units_Z   4
loop_
 _symmetry_equiv_pos_site_id
 _symmetry_equiv_pos_as_xyz
  1  'x, y, z'
loop_
 _atom_site_type_symbol
 _atom_site_label
 _atom_site_symmetry_multiplicity
 _atom_site_fract_x
 _atom_site_fract_y
 _atom_site_fract_z
 _atom_site_occupancy
  Sr  Sr0  1  0.19865829  0.47997035  0.71439600  1
  Sr  Sr1  1  0.26542535  0.86126175  0.64388364  1
  Sr  Sr2  1  0.26744168  0.21160498  0.14668439  1
  Sr  Sr3  1  0.26560595  0.60542676  0.19180350  1
  Sr  Sr4  1  0.73439405  0.10542676  0.80819650  1
  Sr  Sr5  1  0.73255832  0.71160498  0.85331561  1
  Sr  Sr6  1  0.73457465  0.36126175  0.35611636  1
  Sr  Sr7  1  0.80134171  0.97997035  0.28560400  1
  La  La8  1  0.18533058  0.15302020  0.55958204  1
  La  La9  1  0.20857378  0.93088360  0.02660673  1
  La  La10  1  0.79142622  0.43088360  0.97339327  1
  La  La11  1  0.81466942  0.65302020  0.44041796  1
  Cl  Cl12  1  0.09582797  0.33918934  0.87946218  1
  Cl  Cl13  1  0.03550375  0.59314754  0.98768658  1
  Cl  Cl14  1  0.99720385  0.47804647  0.50305484  1
  Cl  Cl15  1  0.08921644  0.82040192  0.85445571  1
  Cl  Cl16  1  0.15501101  0.72607484  0.37871420  1
  Cl  Cl17  1  0.09572134  0.24221836  0.36632310  1
  Cl  Cl18  1  0.13881902  0.05689184  0.76011651  1
  Cl  Cl19  1  0.19639710  0.01468387  0.23860028  1
  Cl  Cl20  1  0.40673814  0.66576754  0.69715185  1
  Cl  Cl21  1  0.43170962  0.40293944  0.18420990  1
  Cl  Cl22  1  0.38368863  0.31808231  0.61279786  1
  Cl  Cl23  1  0.57256256  0.28503131  0.89133945  1
  Cl  Cl24  1  0.49551768  0.03101939  0.57357534  1
  Cl  Cl25  1  0.51161155  0.57128418  0.97682921  1
  Cl  Cl26  1  0.48838845  0.07128418  0.02317079  1
  Cl  Cl27  1  0.50448232  0.53101939  0.42642466  1
  Cl  Cl28  1  0.42743744  0.78503131  0.10866055  1
  Cl  Cl29  1  0.61631137  0.81808231  0.38720214  1
  Cl  Cl30  1  0.56829038  0.90293944  0.81579010  1
  Cl  Cl31  1  0.59326186  0.16576754  0.30284815  1
  Cl  Cl32  1  0.80360290  0.51468387  0.76139972  1
  Cl  Cl33  1  0.86118098  0.55689184  0.23988349  1
  Cl  Cl34  1  0.90427866  0.74221836  0.63367690  1
  Cl  Cl35  1  0.84498799  0.22607484  0.62128580  1
  Cl  Cl36  1  0.91078356  0.32040192  0.14554429  1
  Cl  Cl37  1  0.00279615  0.97804647  0.49694516  1
  Cl  Cl38  1  0.96449625  0.09314754  0.01231342  1
  Cl  Cl39  1  0.90417203  0.83918934  0.12053782  1
