# generated using pymatgen
data_Li3Mn2VO6
_symmetry_space_group_name_H-M   'P 1'
_cell_length_a   16.25700551
_cell_length_b   10.10004132
_cell_length_c   10.10004121
_cell_angle_alpha   16.49517606
_cell_angle_beta   16.47746629
_cell_angle_gamma   16.47746947
_symmetry_Int_Tables_number   1
_chemical_formula_structural   Li3Mn2VO6
_chemical_formula_sum   'Li3 Mn2 V1 O6'
_cell_volume   116.42170114
_cell_formula_units_Z   1
loop_
 _symmetry_equiv_pos_site_id
 _symmetry_equiv_pos_as_xyz
  1  'x, y, z'
loop_
 _atom_site_type_symbol
 _atom_site_label
 _atom_site_symmetry_multiplicity
 _atom_site_fract_x
 _atom_site_fract_y
 _atom_site_fract_z
 _atom_site_occupancy
  Li  Li0  1  0.16666700  0.50000000  0.50000000  1
  Li  Li1  1  0.53686036  0.47574503  0.47574503  1
  Li  Li2  1  0.79647264  0.52425497  0.52425497  1
  Mn  Mn3  1  0.00280024  0.00049408  0.00049408  1
  Mn  Mn4  1  0.33053376  -0.00049408  -0.00049408  1
  V  V5  1  0.66666700  0.00000000  0.00000000  1
  O  O6  1  0.26090991  0.25319614  0.25319614  1
  O  O7  1  0.57368560  0.26173120  0.26173120  1
  O  O8  1  0.07242309  0.74680386  0.74680386  1
  O  O9  1  0.89985739  0.26391910  0.26391910  1
  O  O10  1  0.43347561  0.73608090  0.73608090  1
  O  O11  1  0.75964740  0.73826880  0.73826880  1
