# generated using pymatgen
data_Mn2O3
_symmetry_space_group_name_H-M   'P 1'
_cell_length_a   5.30426914
_cell_length_b   8.87066960
_cell_length_c   9.56715849
_cell_angle_alpha   89.99918480
_cell_angle_beta   89.98512400
_cell_angle_gamma   89.99989613
_symmetry_Int_Tables_number   1
_chemical_formula_structural   Mn2O3
_chemical_formula_sum   'Mn16 O24'
_cell_volume   450.15793524
_cell_formula_units_Z   8
loop_
 _symmetry_equiv_pos_site_id
 _symmetry_equiv_pos_as_xyz
  1  'x, y, z'
loop_
 _atom_site_type_symbol
 _atom_site_label
 _atom_site_symmetry_multiplicity
 _atom_site_fract_x
 _atom_site_fract_y
 _atom_site_fract_z
 _atom_site_occupancy
  Mn  Mn0  1  0.17118115  0.16188100  0.87179756  1
  Mn  Mn1  1  0.18523688  0.84808417  0.05443728  1
  Mn  Mn2  1  0.16506545  0.51783901  0.86326212  1
  Mn  Mn3  1  0.17532904  0.83970287  0.64334459  1
  Mn  Mn4  1  0.31444504  0.34827183  0.55447462  1
  Mn  Mn5  1  0.33493274  0.01791376  0.36330263  1
  Mn  Mn6  1  0.32477852  0.33986381  0.14343447  1
  Mn  Mn7  1  0.32888043  0.66188572  0.37176442  1
  Mn  Mn8  1  0.67534971  0.66028939  0.64334379  1
  Mn  Mn9  1  0.66502788  0.98225669  0.86330925  1
  Mn  Mn10  1  0.67119770  0.33813278  0.87179987  1
  Mn  Mn11  1  0.68524093  0.65191415  0.05443858  1
  Mn  Mn12  1  0.81442587  0.15171551  0.55446341  1
  Mn  Mn13  1  0.82477272  0.16013074  0.14343904  1
  Mn  Mn14  1  0.83495970  0.48205347  0.36329513  1
  Mn  Mn15  1  0.82886659  0.83810988  0.37176540  1
  O  O16  1  0.96779397  0.01919464  0.99466727  1
  O  O17  1  0.02782824  0.31972427  0.99598707  1
  O  O18  1  0.03219812  0.98076661  0.49467695  1
  O  O19  1  0.03272001  0.66005699  0.99248313  1
  O  O20  1  0.96711383  0.33973716  0.49248282  1
  O  O21  1  0.97217394  0.68026303  0.49599644  1
  O  O22  1  0.16307120  0.16886959  0.23446728  1
  O  O23  1  0.16602227  0.50113282  0.27216589  1
  O  O24  1  0.18083690  0.83694703  0.26479779  1
  O  O25  1  0.33412165  0.00116442  0.77213279  1
  O  O26  1  0.31930966  0.33694250  0.76483007  1
  O  O27  1  0.33696503  0.66880723  0.73447848  1
  O  O28  1  0.52782697  0.18028839  0.99599742  1
  O  O29  1  0.46708750  0.16025006  0.49247565  1
  O  O30  1  0.53272067  0.83994379  0.99247888  1
  O  O31  1  0.47217030  0.81972786  0.49600324  1
  O  O32  1  0.53221308  0.51922248  0.49468089  1
  O  O33  1  0.46780858  0.48081173  0.99466097  1
  O  O34  1  0.66599978  0.99886032  0.27216658  1
  O  O35  1  0.66308229  0.33112386  0.23447161  1
  O  O36  1  0.68084882  0.66304605  0.26479874  1
  O  O37  1  0.81929562  0.16306306  0.76482559  1
  O  O38  1  0.83414023  0.49883370  0.77211866  1
  O  O39  1  0.83696096  0.83117764  0.73448362  1
