# generated using pymatgen
data_Li10Ti4O13
_symmetry_space_group_name_H-M   'P 1'
_cell_length_a   10.84706221
_cell_length_b   8.95331295
_cell_length_c   7.78479538
_cell_angle_alpha   103.87696396
_cell_angle_beta   96.22681840
_cell_angle_gamma   115.11899411
_symmetry_Int_Tables_number   1
_chemical_formula_structural   Li10Ti4O13
_chemical_formula_sum   'Li20 Ti8 O26'
_cell_volume   645.26228439
_cell_formula_units_Z   2
loop_
 _symmetry_equiv_pos_site_id
 _symmetry_equiv_pos_as_xyz
  1  'x, y, z'
loop_
 _atom_site_type_symbol
 _atom_site_label
 _atom_site_symmetry_multiplicity
 _atom_site_fract_x
 _atom_site_fract_y
 _atom_site_fract_z
 _atom_site_occupancy
  Li  Li0  1  0.09749743  0.71213754  0.48308380  1
  Li  Li1  1  0.11378183  0.65214568  0.85947799  1
  Li  Li2  1  0.03426727  0.23885870  0.80809137  1
  Li  Li3  1  0.09282852  0.15403365  0.20566735  1
  Li  Li4  1  0.13026912  0.08935878  0.51231778  1
  Li  Li5  1  0.42259317  0.72693700  0.01016995  1
  Li  Li6  1  0.37315615  0.87861381  0.60059990  1
  Li  Li7  1  0.38642028  0.41357574  0.89248073  1
  Li  Li8  1  0.52187428  0.73507031  0.36187134  1
  Li  Li9  1  0.39640736  0.32351288  0.24209139  1
  Li  Li10  1  0.60359264  0.67648712  0.75790861  1
  Li  Li11  1  0.47812572  0.26492969  0.63812866  1
  Li  Li12  1  0.61357972  0.58642426  0.10751927  1
  Li  Li13  1  0.62684385  0.12138619  0.39940010  1
  Li  Li14  1  0.57740683  0.27306300  0.98983005  1
  Li  Li15  1  0.86973088  0.91064122  0.48768222  1
  Li  Li16  1  0.90717148  0.84596635  0.79433265  1
  Li  Li17  1  0.96573273  0.76114130  0.19190863  1
  Li  Li18  1  0.88621817  0.34785432  0.14052201  1
  Li  Li19  1  0.90250257  0.28786246  0.51691620  1
  Ti  Ti20  1  0.27727463  0.94829438  0.24848369  1
  Ti  Ti21  1  0.21915195  0.53053093  0.18364812  1
  Ti  Ti22  1  0.24229516  0.48925798  0.59380492  1
  Ti  Ti23  1  0.23057602  0.02898235  0.84829969  1
  Ti  Ti24  1  0.76942398  0.97101765  0.15170031  1
  Ti  Ti25  1  0.75770484  0.51074202  0.40619508  1
  Ti  Ti26  1  0.78084805  0.46946907  0.81635188  1
  Ti  Ti27  1  0.72272537  0.05170562  0.75151631  1
  O  O28  1  0.14898113  0.89614078  0.37444335  1
  O  O29  1  0.22243743  0.82280887  0.74332528  1
  O  O30  1  0.09141615  0.43191618  0.69203501  1
  O  O31  1  0.05864237  0.33137507  0.08228366  1
  O  O32  1  0.25713024  0.72826844  0.10183577  1
  O  O33  1  0.24473510  0.62579262  0.43313631  1
  O  O34  1  0.07881345  0.03929878  0.73847840  1
  O  O35  1  0.22980195  0.29388820  0.44295724  1
  O  O36  1  0.40301319  0.58562547  0.77194092  1
  O  O37  1  0.36845310  0.49868857  0.14541134  1
  O  O38  1  0.24194877  0.07472061  0.10387521  1
  O  O39  1  0.39269042  0.19468155  0.82489146  1
  O  O40  1  0.55863164  0.91099989  0.58987107  1
  O  O41  1  0.44136836  0.08900011  0.41012893  1
  O  O42  1  0.60730958  0.80531845  0.17510854  1
  O  O43  1  0.75805123  0.92527939  0.89612479  1
  O  O44  1  0.63154690  0.50131143  0.85458866  1
  O  O45  1  0.59698681  0.41437453  0.22805908  1
  O  O46  1  0.77019805  0.70611180  0.55704276  1
  O  O47  1  0.92118655  0.96070122  0.26152160  1
  O  O48  1  0.75526490  0.37420738  0.56686369  1
  O  O49  1  0.74286976  0.27173156  0.89816423  1
  O  O50  1  0.94135763  0.66862493  0.91771634  1
  O  O51  1  0.90858385  0.56808382  0.30796499  1
  O  O52  1  0.77756257  0.17719113  0.25667472  1
  O  O53  1  0.85101887  0.10385922  0.62555665  1
