# generated using pymatgen
data_CoPHO5
_symmetry_space_group_name_H-M   'P 1'
_cell_length_a   5.11389773
_cell_length_b   6.98114054
_cell_length_c   5.08370072
_cell_angle_alpha   108.89563166
_cell_angle_beta   99.11017054
_cell_angle_gamma   106.59068395
_symmetry_Int_Tables_number   1
_chemical_formula_structural   CoPHO5
_chemical_formula_sum   'Co2 P2 H2 O10'
_cell_volume   158.14270569
_cell_formula_units_Z   2
loop_
 _symmetry_equiv_pos_site_id
 _symmetry_equiv_pos_as_xyz
  1  'x, y, z'
loop_
 _atom_site_type_symbol
 _atom_site_label
 _atom_site_symmetry_multiplicity
 _atom_site_fract_x
 _atom_site_fract_y
 _atom_site_fract_z
 _atom_site_occupancy
  Co  Co0  1  0.00000000  0.50000000  0.00000000  1
  Co  Co1  1  0.00000000  0.00000000  0.00000000  1
  P  P2  1  0.34169892  0.22934715  0.67872065  1
  P  P3  1  0.65830108  0.77065285  0.32127935  1
  H  H4  1  0.02226892  0.33341353  0.34876009  1
  H  H5  1  0.97773108  0.66658647  0.65123991  1
  O  O6  1  0.05063850  0.73392142  0.86687421  1
  O  O7  1  0.17750878  0.38951142  0.71024502  1
  O  O8  1  0.34128267  0.64633621  0.28646331  1
  O  O9  1  0.22882195  0.05625829  0.36891258  1
  O  O10  1  0.32814303  0.12830126  0.90633284  1
  O  O11  1  0.67185697  0.87169874  0.09366716  1
  O  O12  1  0.77117805  0.94374171  0.63108742  1
  O  O13  1  0.65871733  0.35366379  0.71353669  1
  O  O14  1  0.82249122  0.61048858  0.28975498  1
  O  O15  1  0.94936150  0.26607858  0.13312579  1
