# generated using pymatgen
data_Ba3LaCl9
_symmetry_space_group_name_H-M   'P 1'
_cell_length_a   12.52136517
_cell_length_b   7.34857246
_cell_length_c   18.51973297
_cell_angle_alpha   90.00000000
_cell_angle_beta   90.00000000
_cell_angle_gamma   90.00000000
_symmetry_Int_Tables_number   1
_chemical_formula_structural   Ba3LaCl9
_chemical_formula_sum   'Ba12 La4 Cl36'
_cell_volume   1704.07765877
_cell_formula_units_Z   4
loop_
 _symmetry_equiv_pos_site_id
 _symmetry_equiv_pos_as_xyz
  1  'x, y, z'
loop_
 _atom_site_type_symbol
 _atom_site_label
 _atom_site_symmetry_multiplicity
 _atom_site_fract_x
 _atom_site_fract_y
 _atom_site_fract_z
 _atom_site_occupancy
  Ba  Ba0  1  0.04979328  0.75000000  0.90590583  1
  Ba  Ba1  1  0.18835962  0.75000000  0.47223705  1
  Ba  Ba2  1  0.23328530  0.25000000  0.67477724  1
  Ba  Ba3  1  0.26671470  0.75000000  0.17477724  1
  Ba  Ba4  1  0.31164038  0.25000000  0.97223705  1
  Ba  Ba5  1  0.45020672  0.25000000  0.40590583  1
  Ba  Ba6  1  0.54979328  0.75000000  0.59409417  1
  Ba  Ba7  1  0.68835962  0.75000000  0.02776295  1
  Ba  Ba8  1  0.73328530  0.25000000  0.82522276  1
  Ba  Ba9  1  0.76671470  0.75000000  0.32522276  1
  Ba  Ba10  1  0.81164038  0.25000000  0.52776295  1
  Ba  Ba11  1  0.95020672  0.25000000  0.09409417  1
  La  La12  1  0.03324503  0.25000000  0.32371909  1
  La  La13  1  0.46675497  0.75000000  0.82371909  1
  La  La14  1  0.53324503  0.25000000  0.17628091  1
  La  La15  1  0.96675497  0.75000000  0.67628091  1
  Cl  Cl16  1  0.06308633  0.48818805  0.58531359  1
  Cl  Cl17  1  0.06308633  0.01181195  0.58531359  1
  Cl  Cl18  1  0.07904790  0.51127920  0.22607850  1
  Cl  Cl19  1  0.07904790  0.98872080  0.22607850  1
  Cl  Cl20  1  0.16062237  0.75000000  0.74729894  1
  Cl  Cl21  1  0.17664933  0.25000000  0.83957568  1
  Cl  Cl22  1  0.13864961  0.49921960  0.03943063  1
  Cl  Cl23  1  0.13864961  0.00078040  0.03943063  1
  Cl  Cl24  1  0.19718864  0.25000000  0.42255346  1
  Cl  Cl25  1  0.30281136  0.75000000  0.92255346  1
  Cl  Cl26  1  0.36135039  0.99921960  0.53943063  1
  Cl  Cl27  1  0.36135039  0.50078040  0.53943063  1
  Cl  Cl28  1  0.32335067  0.75000000  0.33957568  1
  Cl  Cl29  1  0.33937763  0.25000000  0.24729894  1
  Cl  Cl30  1  0.42095210  0.01127920  0.72607850  1
  Cl  Cl31  1  0.42095210  0.48872080  0.72607850  1
  Cl  Cl32  1  0.43691367  0.98818805  0.08531359  1
  Cl  Cl33  1  0.43691367  0.51181195  0.08531359  1
  Cl  Cl34  1  0.56308633  0.48818805  0.91468641  1
  Cl  Cl35  1  0.56308633  0.01181195  0.91468641  1
  Cl  Cl36  1  0.57904790  0.98872080  0.27392150  1
  Cl  Cl37  1  0.57904790  0.51127920  0.27392150  1
  Cl  Cl38  1  0.66062237  0.75000000  0.75270106  1
  Cl  Cl39  1  0.67664933  0.25000000  0.66042432  1
  Cl  Cl40  1  0.63864961  0.49921960  0.46056937  1
  Cl  Cl41  1  0.63864961  0.00078040  0.46056937  1
  Cl  Cl42  1  0.69718864  0.25000000  0.07744654  1
  Cl  Cl43  1  0.80281136  0.75000000  0.57744654  1
  Cl  Cl44  1  0.86135039  0.99921960  0.96056937  1
  Cl  Cl45  1  0.86135039  0.50078040  0.96056937  1
  Cl  Cl46  1  0.82335067  0.75000000  0.16042432  1
  Cl  Cl47  1  0.83937763  0.25000000  0.25270106  1
  Cl  Cl48  1  0.92095210  0.48872080  0.77392150  1
  Cl  Cl49  1  0.92095210  0.01127920  0.77392150  1
  Cl  Cl50  1  0.93691367  0.98818805  0.41468641  1
  Cl  Cl51  1  0.93691367  0.51181195  0.41468641  1
