# generated using pymatgen
data_DyErO3
_symmetry_space_group_name_H-M   'P 1'
_cell_length_a   6.41184474
_cell_length_b   6.41187869
_cell_length_c   12.70056691
_cell_angle_alpha   89.99964719
_cell_angle_beta   90.00026036
_cell_angle_gamma   120.00090577
_symmetry_Int_Tables_number   1
_chemical_formula_structural   DyErO3
_chemical_formula_sum   'Dy6 Er6 O18'
_cell_volume   452.18699652
_cell_formula_units_Z   6
loop_
 _symmetry_equiv_pos_site_id
 _symmetry_equiv_pos_as_xyz
  1  'x, y, z'
loop_
 _atom_site_type_symbol
 _atom_site_label
 _atom_site_symmetry_multiplicity
 _atom_site_fract_x
 _atom_site_fract_y
 _atom_site_fract_z
 _atom_site_occupancy
  Dy  Dy0  1  0.33332881  0.66668869  0.23431384  1
  Dy  Dy1  1  0.99999720  0.00002143  0.26496342  1
  Dy  Dy2  1  0.99998575  0.99998144  0.76496639  1
  Dy  Dy3  1  0.33331820  0.66664639  0.73431084  1
  Dy  Dy4  1  0.66665239  0.33331354  0.73431165  1
  Dy  Dy5  1  0.66667053  0.33335338  0.23431551  1
  Er  Er6  1  0.99998449  0.66730242  0.49682671  1
  Er  Er7  1  -0.00000080  0.33270815  0.99682479  1
  Er  Er8  1  0.33266145  0.33265256  0.49682968  1
  Er  Er9  1  0.66731131  0.66733435  0.99683722  1
  Er  Er10  1  0.33269210  0.00002598  0.99683492  1
  Er  Er11  1  0.66729827  0.99997501  0.49683265  1
  O  O12  1  -0.00000315  0.69436793  0.67006973  1
  O  O13  1  0.99998993  0.63498517  0.32494100  1
  O  O14  1  -0.00000350  0.36500489  0.82493715  1
  O  O15  1  0.99999468  0.30563585  0.17006978  1
  O  O16  1  0.33332514  0.66669289  0.02053968  1
  O  O17  1  0.99998294  0.99997364  0.46110804  1
  O  O18  1  -0.00000246  0.00001442  0.96109304  1
  O  O19  1  0.33330605  0.66663665  0.52052891  1
  O  O20  1  0.30561841  0.30561297  0.67007050  1
  O  O21  1  0.36500334  0.36502035  0.32494598  1
  O  O22  1  0.30564224  0.00002119  0.17007517  1
  O  O23  1  0.63498148  0.63497691  0.82493984  1
  O  O24  1  0.69437318  0.69439007  0.17007757  1
  O  O25  1  0.36501192  0.99998863  0.82493948  1
  O  O26  1  0.66663990  0.33329956  0.52053137  1
  O  O27  1  0.66668555  0.33336871  0.02053937  1
  O  O28  1  0.63499042  0.00001552  0.32494550  1
  O  O29  1  0.69436523  0.99998931  0.67007429  1
