# generated using pymatgen
data_ZnCo2(CuO4)2
_symmetry_space_group_name_H-M   'P 1'
_cell_length_a   6.42040999
_cell_length_b   8.28677139
_cell_length_c   11.82971677
_cell_angle_alpha   90.00000000
_cell_angle_beta   91.68203994
_cell_angle_gamma   90.00000000
_symmetry_Int_Tables_number   1
_chemical_formula_structural   ZnCo2(CuO4)2
_chemical_formula_sum   'Zn4 Co8 Cu8 O32'
_cell_volume   629.12260915
_cell_formula_units_Z   4
loop_
 _symmetry_equiv_pos_site_id
 _symmetry_equiv_pos_as_xyz
  1  'x, y, z'
loop_
 _atom_site_type_symbol
 _atom_site_label
 _atom_site_symmetry_multiplicity
 _atom_site_fract_x
 _atom_site_fract_y
 _atom_site_fract_z
 _atom_site_occupancy
  Zn  Zn0  1  0.11090047  0.15839497  0.04912784  1
  Zn  Zn1  1  0.88909953  0.84160503  0.95087216  1
  Zn  Zn2  1  0.88909953  0.65839497  0.45087216  1
  Zn  Zn3  1  0.11090047  0.34160503  0.54912784  1
  Co  Co4  1  0.10300164  0.46321556  0.84131165  1
  Co  Co5  1  0.10300164  0.03678444  0.34131165  1
  Co  Co6  1  0.60723156  0.09183705  0.13209384  1
  Co  Co7  1  0.89699836  0.96321556  0.65868835  1
  Co  Co8  1  0.39276844  0.90816295  0.86790616  1
  Co  Co9  1  0.39276844  0.59183705  0.36790616  1
  Co  Co10  1  0.60723156  0.40816295  0.63209384  1
  Co  Co11  1  0.89699836  0.53678444  0.15868835  1
  Cu  Cu12  1  0.75059693  0.19312816  0.87921796  1
  Cu  Cu13  1  0.37958992  0.05945503  0.63245218  1
  Cu  Cu14  1  0.62041008  0.94054497  0.36754782  1
  Cu  Cu15  1  0.24940307  0.80687184  0.12078204  1
  Cu  Cu16  1  0.75059693  0.30687184  0.37921796  1
  Cu  Cu17  1  0.37958992  0.44054497  0.13245218  1
  Cu  Cu18  1  0.24940307  0.69312816  0.62078204  1
  Cu  Cu19  1  0.62041008  0.55945503  0.86754782  1
  O  O20  1  0.02380401  0.22597741  0.39944577  1
  O  O21  1  0.65416283  0.01454522  0.59880317  1
  O  O22  1  0.19060517  0.57873285  0.47921535  1
  O  O23  1  0.80939483  0.07873285  0.02078465  1
  O  O24  1  0.02380401  0.27402259  0.89944577  1
  O  O25  1  0.97619599  0.77402259  0.60055423  1
  O  O26  1  0.09514062  0.10807949  0.62639047  1
  O  O27  1  0.51136171  0.89394916  0.14098227  1
  O  O28  1  0.51136171  0.60605084  0.64098227  1
  O  O29  1  0.32604339  0.87025072  0.71593777  1
  O  O30  1  0.67395661  0.37025072  0.78406223  1
  O  O31  1  0.48863829  0.10605084  0.85901773  1
  O  O32  1  0.90485938  0.89192051  0.37360953  1
  O  O33  1  0.87551940  0.52642839  0.30210950  1
  O  O34  1  0.40678582  0.27030096  0.58123750  1
  O  O35  1  0.40678582  0.22969904  0.08123750  1
  O  O36  1  0.12448060  0.02642839  0.19789050  1
  O  O37  1  0.48863829  0.39394916  0.35901773  1
  O  O38  1  0.12448060  0.47357161  0.69789050  1
  O  O39  1  0.80939483  0.42126715  0.52078465  1
  O  O40  1  0.65416283  0.48545478  0.09880317  1
  O  O41  1  0.67395661  0.12974928  0.28406223  1
  O  O42  1  0.97619599  0.72597741  0.10055423  1
  O  O43  1  0.09514062  0.39192051  0.12639047  1
  O  O44  1  0.19060517  0.92126715  0.97921535  1
  O  O45  1  0.59321418  0.77030096  0.91876250  1
  O  O46  1  0.34583717  0.98545478  0.40119683  1
  O  O47  1  0.34583717  0.51454522  0.90119683  1
  O  O48  1  0.90485938  0.60807949  0.87360953  1
  O  O49  1  0.59321418  0.72969904  0.41876250  1
  O  O50  1  0.32604339  0.62974928  0.21593777  1
  O  O51  1  0.87551940  0.97357161  0.80210950  1
