# generated using pymatgen
data_BaLaBr5
_symmetry_space_group_name_H-M   'P 1'
_cell_length_a   16.23097608
_cell_length_b   7.69273486
_cell_length_c   15.71730692
_cell_angle_alpha   90.00000000
_cell_angle_beta   90.00000000
_cell_angle_gamma   90.00000000
_symmetry_Int_Tables_number   1
_chemical_formula_structural   BaLaBr5
_chemical_formula_sum   'Ba8 La8 Br40'
_cell_volume   1962.47230173
_cell_formula_units_Z   8
loop_
 _symmetry_equiv_pos_site_id
 _symmetry_equiv_pos_as_xyz
  1  'x, y, z'
loop_
 _atom_site_type_symbol
 _atom_site_label
 _atom_site_symmetry_multiplicity
 _atom_site_fract_x
 _atom_site_fract_y
 _atom_site_fract_z
 _atom_site_occupancy
  Ba  Ba0  1  0.10512802  0.75000000  0.52140016  1
  Ba  Ba1  1  0.09284460  0.25000000  0.81099339  1
  Ba  Ba2  1  0.40715540  0.75000000  0.31099339  1
  Ba  Ba3  1  0.39487198  0.25000000  0.02140016  1
  Ba  Ba4  1  0.60512802  0.75000000  0.97859984  1
  Ba  Ba5  1  0.59284460  0.25000000  0.68900661  1
  Ba  Ba6  1  0.90715540  0.75000000  0.18900661  1
  Ba  Ba7  1  0.89487198  0.25000000  0.47859984  1
  La  La8  1  0.10248550  0.25000000  0.21050397  1
  La  La9  1  0.22120326  0.75000000  0.03714760  1
  La  La10  1  0.27879674  0.25000000  0.53714760  1
  La  La11  1  0.39751550  0.75000000  0.71050397  1
  La  La12  1  0.60248450  0.25000000  0.28949603  1
  La  La13  1  0.72120326  0.75000000  0.46285240  1
  La  La14  1  0.77879674  0.25000000  0.96285240  1
  La  La15  1  0.89751550  0.75000000  0.78949603  1
  Br  Br16  1  0.02777934  0.99035647  0.32640668  1
  Br  Br17  1  0.02777934  0.50964353  0.32640668  1
  Br  Br18  1  0.07566602  0.75000000  0.83871084  1
  Br  Br19  1  0.07636144  0.97901511  0.07797626  1
  Br  Br20  1  0.07636144  0.52098489  0.07797626  1
  Br  Br21  1  0.09349350  0.25000000  0.51891523  1
  Br  Br22  1  0.22264303  0.98715811  0.67269870  1
  Br  Br23  1  0.22264303  0.51284189  0.67269870  1
  Br  Br24  1  0.24824767  0.97589329  0.40951142  1
  Br  Br25  1  0.24824767  0.52410671  0.40951142  1
  Br  Br26  1  0.25175233  0.47589329  0.90951142  1
  Br  Br27  1  0.25175233  0.02410671  0.90951142  1
  Br  Br28  1  0.27735697  0.48715811  0.17269870  1
  Br  Br29  1  0.27735697  0.01284189  0.17269870  1
  Br  Br30  1  0.40650650  0.75000000  0.01891523  1
  Br  Br31  1  0.42363856  0.47901511  0.57797626  1
  Br  Br32  1  0.42363856  0.02098489  0.57797626  1
  Br  Br33  1  0.42433398  0.25000000  0.33871084  1
  Br  Br34  1  0.47222066  0.49035647  0.82640668  1
  Br  Br35  1  0.47222066  0.00964353  0.82640668  1
  Br  Br36  1  0.52777934  0.99035647  0.17359332  1
  Br  Br37  1  0.52777934  0.50964353  0.17359332  1
  Br  Br38  1  0.57566602  0.75000000  0.66128916  1
  Br  Br39  1  0.57636144  0.97901511  0.42202374  1
  Br  Br40  1  0.57636144  0.52098489  0.42202374  1
  Br  Br41  1  0.59349350  0.25000000  0.98108477  1
  Br  Br42  1  0.72264303  0.98715811  0.82730130  1
  Br  Br43  1  0.72264303  0.51284189  0.82730130  1
  Br  Br44  1  0.74824867  0.97589329  0.09048858  1
  Br  Br45  1  0.74824867  0.52410671  0.09048858  1
  Br  Br46  1  0.75175133  0.47589329  0.59048858  1
  Br  Br47  1  0.75175133  0.02410671  0.59048858  1
  Br  Br48  1  0.77735697  0.48715811  0.32730130  1
  Br  Br49  1  0.77735697  0.01284189  0.32730130  1
  Br  Br50  1  0.90650650  0.75000000  0.48108477  1
  Br  Br51  1  0.92363856  0.47901511  0.92202374  1
  Br  Br52  1  0.92363856  0.02098489  0.92202374  1
  Br  Br53  1  0.92433398  0.25000000  0.16128916  1
  Br  Br54  1  0.97222066  0.49035647  0.67359332  1
  Br  Br55  1  0.97222066  0.00964353  0.67359332  1
