# generated using pymatgen
data_Li2Ti7Nb6O30
_symmetry_space_group_name_H-M   'P 1'
_cell_length_a   5.20405859
_cell_length_b   5.20399344
_cell_length_c   24.02098796
_cell_angle_alpha   90.00034711
_cell_angle_beta   90.00025533
_cell_angle_gamma   119.99992773
_symmetry_Int_Tables_number   1
_chemical_formula_structural   Li2Ti7Nb6O30
_chemical_formula_sum   'Li2 Ti7 Nb6 O30'
_cell_volume   563.37909931
_cell_formula_units_Z   1
loop_
 _symmetry_equiv_pos_site_id
 _symmetry_equiv_pos_as_xyz
  1  'x, y, z'
loop_
 _atom_site_type_symbol
 _atom_site_label
 _atom_site_symmetry_multiplicity
 _atom_site_fract_x
 _atom_site_fract_y
 _atom_site_fract_z
 _atom_site_occupancy
  Li  Li0  1  0.66666161  0.33332116  0.20771284  1
  Li  Li1  1  0.66665101  0.33331108  0.47485997  1
  Ti  Ti2  1  0.33333341  0.66666544  0.28601762  1
  Ti  Ti3  1  0.33334094  0.66669147  0.88446049  1
  Ti  Ti4  1  0.33330156  0.66663586  0.00553841  1
  Ti  Ti5  1  0.33332937  0.66664894  0.69695712  1
  Ti  Ti6  1  0.66667565  0.33333513  0.97829471  1
  Ti  Ti7  1  0.66666349  0.33333829  0.71843479  1
  Ti  Ti8  1  0.66667586  0.33333122  0.31456703  1
  Nb  Nb9  1  0.33332546  0.66663993  0.41298224  1
  Nb  Nb10  1  0.99997916  0.99998281  0.19784252  1
  Nb  Nb11  1  0.99999118  0.99996886  0.50536949  1
  Nb  Nb12  1  -0.00000036  0.00001539  0.80400477  1
  Nb  Nb13  1  0.66661784  0.33331895  0.09942460  1
  Nb  Nb14  1  0.66663661  0.33331068  0.59786509  1
  O  O15  1  0.92486068  0.66234518  0.15347898  1
  O  O16  1  0.02076387  0.59839384  0.34687875  1
  O  O17  1  0.00371375  0.67035590  0.74652691  1
  O  O18  1  0.30092721  0.97057387  0.45086630  1
  O  O19  1  0.98413130  0.39461446  0.04592816  1
  O  O20  1  0.41042264  0.01582656  0.04593366  1
  O  O21  1  0.02939441  0.33035129  0.45086833  1
  O  O22  1  0.32963378  0.33338421  0.74652457  1
  O  O23  1  0.57766577  0.97927019  0.34688018  1
  O  O24  1  0.33767416  0.26253264  0.15348045  1
  O  O25  1  0.66661439  0.99627152  0.74652723  1
  O  O26  1  0.40162711  0.42234956  0.34688143  1
  O  O27  1  0.34040161  0.27803223  0.54806977  1
  O  O28  1  0.73748748  0.07514659  0.15347833  1
  O  O29  1  0.39434356  0.41844806  0.94783192  1
  O  O30  1  0.60537249  0.58956220  0.04593912  1
  O  O31  1  0.27790548  0.94370782  0.84555151  1
  O  O32  1  0.66963035  0.69905076  0.45086943  1
  O  O33  1  0.58769079  0.57488259  0.65505100  1
  O  O34  1  0.33963828  0.00598639  0.25298331  1
  O  O35  1  0.66580055  0.72209841  0.84555242  1
  O  O36  1  0.42513228  0.01282126  0.65505102  1
  O  O37  1  0.66636239  0.66036061  0.25298262  1
  O  O38  1  0.93761814  0.65960088  0.54807330  1
  O  O39  1  0.58153665  0.97590310  0.94782567  1
  O  O40  1  0.02409386  0.60564355  0.94782559  1
  O  O41  1  0.72197802  0.06237071  0.54806984  1
  O  O42  1  0.99400612  0.33365261  0.25298452  1
  O  O43  1  0.98719938  0.41233983  0.65505130  1
  O  O44  1  0.05629271  0.33420700  0.84555367  1
