# generated using pymatgen
data_Li2AlFeO4
_symmetry_space_group_name_H-M   'P 1'
_cell_length_a   10.37409777
_cell_length_b   5.30138548
_cell_length_c   13.81865502
_cell_angle_alpha   90.00000000
_cell_angle_beta   90.00000000
_cell_angle_gamma   90.00000000
_symmetry_Int_Tables_number   1
_chemical_formula_structural   Li2AlFeO4
_chemical_formula_sum   'Li16 Al8 Fe8 O32'
_cell_volume   759.98583158
_cell_formula_units_Z   8
loop_
 _symmetry_equiv_pos_site_id
 _symmetry_equiv_pos_as_xyz
  1  'x, y, z'
loop_
 _atom_site_type_symbol
 _atom_site_label
 _atom_site_symmetry_multiplicity
 _atom_site_fract_x
 _atom_site_fract_y
 _atom_site_fract_z
 _atom_site_occupancy
  Li  Li0  1  0.97240131  0.00680203  0.55512626  1
  Li  Li1  1  0.97610343  0.50150109  0.94580918  1
  Li  Li2  1  0.20824481  0.87797243  0.21014423  1
  Li  Li3  1  0.20710277  0.37198128  0.28874978  1
  Li  Li4  1  0.29175519  0.87797243  0.71014423  1
  Li  Li5  1  0.29289723  0.37198128  0.78874978  1
  Li  Li6  1  0.52389657  0.50150109  0.44580918  1
  Li  Li7  1  0.52759869  0.00680203  0.05512626  1
  Li  Li8  1  0.47610343  0.49849891  0.94580918  1
  Li  Li9  1  0.47240131  0.99319797  0.55512626  1
  Li  Li10  1  0.70710277  0.62801872  0.28874978  1
  Li  Li11  1  0.70824481  0.12202757  0.21014423  1
  Li  Li12  1  0.79289723  0.62801872  0.78874978  1
  Li  Li13  1  0.79175519  0.12202757  0.71014423  1
  Li  Li14  1  0.02759869  0.99319797  0.05512626  1
  Li  Li15  1  0.02389657  0.49849891  0.44580918  1
  Al  Al16  1  0.03254217  0.00495343  0.80953238  1
  Al  Al17  1  0.21400166  0.49404729  0.06481158  1
  Al  Al18  1  0.28599834  0.49404729  0.56481158  1
  Al  Al19  1  0.46745783  0.00495343  0.30953238  1
  Al  Al20  1  0.53254217  0.99504657  0.80953238  1
  Al  Al21  1  0.71400166  0.50595271  0.06481158  1
  Al  Al22  1  0.78599834  0.50595271  0.56481158  1
  Al  Al23  1  0.96745783  0.99504657  0.30953238  1
  Fe  Fe24  1  0.03257207  0.50402323  0.68902365  1
  Fe  Fe25  1  0.21383733  0.99506008  0.43677159  1
  Fe  Fe26  1  0.28616267  0.99506008  0.93677159  1
  Fe  Fe27  1  0.46742793  0.50402323  0.18902365  1
  Fe  Fe28  1  0.53257207  0.49597677  0.68902365  1
  Fe  Fe29  1  0.71383733  0.00493992  0.43677159  1
  Fe  Fe30  1  0.78616267  0.00493992  0.93677159  1
  Fe  Fe31  1  0.96742793  0.49597677  0.18902365  1
  O  O32  1  0.01780716  0.31946483  0.30412041  1
  O  O33  1  0.02020893  0.84126364  0.20060836  1
  O  O34  1  0.06088464  0.35218661  0.08450877  1
  O  O35  1  0.04846408  0.85935834  0.41062300  1
  O  O36  1  0.20288526  0.05688625  0.81412097  1
  O  O37  1  0.21502075  0.55637457  0.68084909  1
  O  O38  1  0.17701103  0.30965097  0.49689091  1
  O  O39  1  0.17594821  0.78627379  0.00877286  1
  O  O40  1  0.32298897  0.30965097  0.99689091  1
  O  O41  1  0.32405179  0.78627379  0.50877286  1
  O  O42  1  0.28497925  0.55637457  0.18084909  1
  O  O43  1  0.29711474  0.05688625  0.31412097  1
  O  O44  1  0.43911536  0.35218661  0.58450877  1
  O  O45  1  0.45153592  0.85935834  0.91062300  1
  O  O46  1  0.48219284  0.31946483  0.80412041  1
  O  O47  1  0.47979107  0.84126364  0.70060836  1
  O  O48  1  0.52020893  0.15873636  0.20060836  1
  O  O49  1  0.51780716  0.68053517  0.30412041  1
  O  O50  1  0.54846408  0.14064166  0.41062300  1
  O  O51  1  0.56088464  0.64781339  0.08450877  1
  O  O52  1  0.71502075  0.44362543  0.68084909  1
  O  O53  1  0.70288526  0.94311375  0.81412097  1
  O  O54  1  0.67594821  0.21372621  0.00877286  1
  O  O55  1  0.67701103  0.69034903  0.49689091  1
  O  O56  1  0.82405179  0.21372621  0.50877286  1
  O  O57  1  0.82298897  0.69034903  0.99689091  1
  O  O58  1  0.78497925  0.44362543  0.18084909  1
  O  O59  1  0.79711474  0.94311375  0.31412097  1
  O  O60  1  0.95153592  0.14064166  0.91062300  1
  O  O61  1  0.93911536  0.64781339  0.58450877  1
  O  O62  1  0.97979107  0.15873636  0.70060836  1
  O  O63  1  0.98219284  0.68053517  0.80412041  1
