# generated using pymatgen
data_Na2CoBAsO7
_symmetry_space_group_name_H-M   'P 1'
_cell_length_a   9.21835171
_cell_length_b   6.41568293
_cell_length_c   5.40222126
_cell_angle_alpha   90.00000000
_cell_angle_beta   87.11260079
_cell_angle_gamma   90.00000000
_symmetry_Int_Tables_number   1
_chemical_formula_structural   Na2CoBAsO7
_chemical_formula_sum   'Na4 Co2 B2 As2 O14'
_cell_volume   319.09267085
_cell_formula_units_Z   2
loop_
 _symmetry_equiv_pos_site_id
 _symmetry_equiv_pos_as_xyz
  1  'x, y, z'
loop_
 _atom_site_type_symbol
 _atom_site_label
 _atom_site_symmetry_multiplicity
 _atom_site_fract_x
 _atom_site_fract_y
 _atom_site_fract_z
 _atom_site_occupancy
  Na  Na0  1  0.22104460  0.99970290  0.23508235  1
  Na  Na1  1  0.22104460  0.50029710  0.23508235  1
  Na  Na2  1  0.77895540  0.49970290  0.76491765  1
  Na  Na3  1  0.77895540  0.00029710  0.76491765  1
  Co  Co4  1  0.33396549  0.75000000  0.78210122  1
  Co  Co5  1  0.66603451  0.25000000  0.21789878  1
  B  B6  1  0.07931547  0.75000000  0.72980857  1
  B  B7  1  0.92068453  0.25000000  0.27019143  1
  As  As8  1  0.43420551  0.25000000  0.71361733  1
  As  As9  1  0.56579449  0.75000000  0.28638267  1
  O  O10  1  0.06114863  0.25000000  0.30478356  1
  O  O11  1  0.14860816  0.75000000  0.95298870  1
  O  O12  1  0.19269043  0.75000000  0.54305251  1
  O  O13  1  0.31745647  0.04615807  0.79657541  1
  O  O14  1  0.31745647  0.45384193  0.79657541  1
  O  O15  1  0.41079161  0.75000000  0.12589230  1
  O  O16  1  0.47140267  0.25000000  0.39635134  1
  O  O17  1  0.52859733  0.75000000  0.60364866  1
  O  O18  1  0.58920839  0.25000000  0.87410770  1
  O  O19  1  0.68254353  0.54615807  0.20342459  1
  O  O20  1  0.68254353  0.95384193  0.20342459  1
  O  O21  1  0.80730957  0.25000000  0.45694749  1
  O  O22  1  0.85139184  0.25000000  0.04701130  1
  O  O23  1  0.93885137  0.75000000  0.69521644  1
