# generated using pymatgen
data_LiTi2Ni(PO5)2
_symmetry_space_group_name_H-M   'P 1'
_cell_length_a   6.51576839
_cell_length_b   7.42063341
_cell_length_c   7.40528900
_cell_angle_alpha   90.00000000
_cell_angle_beta   89.98172625
_cell_angle_gamma   90.00000000
_symmetry_Int_Tables_number   1
_chemical_formula_structural   LiTi2Ni(PO5)2
_chemical_formula_sum   'Li2 Ti4 Ni2 P4 O20'
_cell_volume   358.05406258
_cell_formula_units_Z   2
loop_
 _symmetry_equiv_pos_site_id
 _symmetry_equiv_pos_as_xyz
  1  'x, y, z'
loop_
 _atom_site_type_symbol
 _atom_site_label
 _atom_site_symmetry_multiplicity
 _atom_site_fract_x
 _atom_site_fract_y
 _atom_site_fract_z
 _atom_site_occupancy
  Li  Li0  1  0.00000000  0.50000000  0.50000000  1
  Li  Li1  1  0.00000000  0.00000000  0.00000000  1
  Ti  Ti2  1  0.24581441  0.78221015  0.66109504  1
  Ti  Ti3  1  0.24581441  0.71778985  0.16109504  1
  Ti  Ti4  1  0.75418559  0.28221015  0.83890496  1
  Ti  Ti5  1  0.75418559  0.21778985  0.33890496  1
  Ni  Ni6  1  0.50000000  0.50000000  0.50000000  1
  Ni  Ni7  1  0.50000000  0.00000000  0.00000000  1
  P  P8  1  0.25051343  0.36878985  0.87441837  1
  P  P9  1  0.25051343  0.13121015  0.37441837  1
  P  P10  1  0.74948657  0.86878985  0.62558163  1
  P  P11  1  0.74948657  0.63121015  0.12558163  1
  O  O12  1  0.05694558  0.24817076  0.86935021  1
  O  O13  1  0.05694558  0.25182924  0.36935021  1
  O  O14  1  0.25990331  0.84755899  0.89660787  1
  O  O15  1  0.25079469  0.01598592  0.54593500  1
  O  O16  1  0.25990331  0.65244101  0.39660787  1
  O  O17  1  0.25079469  0.48401408  0.04593500  1
  O  O18  1  0.26048974  0.49149905  0.70306902  1
  O  O19  1  0.26048974  0.00850095  0.20306902  1
  O  O20  1  0.43997619  0.24182256  0.87303761  1
  O  O21  1  0.43997619  0.25817744  0.37303761  1
  O  O22  1  0.56002381  0.74182256  0.62696239  1
  O  O23  1  0.56002381  0.75817744  0.12696239  1
  O  O24  1  0.73951026  0.99149905  0.79693098  1
  O  O25  1  0.73951026  0.50850095  0.29693098  1
  O  O26  1  0.74920531  0.51598592  0.95406500  1
  O  O27  1  0.74009669  0.34755899  0.60339213  1
  O  O28  1  0.74920531  0.98401408  0.45406500  1
  O  O29  1  0.74009669  0.15244101  0.10339213  1
  O  O30  1  0.94305442  0.74817076  0.63064979  1
  O  O31  1  0.94305442  0.75182924  0.13064979  1
