# generated using pymatgen
data_Li2Cr2O7
_symmetry_space_group_name_H-M   'P 1'
_cell_length_a   6.71074883
_cell_length_b   6.87500880
_cell_length_c   12.69111508
_cell_angle_alpha   90.00000000
_cell_angle_beta   102.70661956
_cell_angle_gamma   90.00000000
_symmetry_Int_Tables_number   1
_chemical_formula_structural   Li2Cr2O7
_chemical_formula_sum   'Li8 Cr8 O28'
_cell_volume   571.18312294
_cell_formula_units_Z   4
loop_
 _symmetry_equiv_pos_site_id
 _symmetry_equiv_pos_as_xyz
  1  'x, y, z'
loop_
 _atom_site_type_symbol
 _atom_site_label
 _atom_site_symmetry_multiplicity
 _atom_site_fract_x
 _atom_site_fract_y
 _atom_site_fract_z
 _atom_site_occupancy
  Li  Li0  1  0.16100330  0.89082079  0.61390053  1
  Li  Li1  1  0.33899670  0.39082079  0.88609947  1
  Li  Li2  1  0.14378537  0.67441725  0.34421265  1
  Li  Li3  1  0.35621463  0.17441725  0.15578735  1
  Li  Li4  1  0.64378537  0.82558275  0.84421265  1
  Li  Li5  1  0.85621463  0.32558275  0.65578735  1
  Li  Li6  1  0.66100330  0.60917921  0.11390053  1
  Li  Li7  1  0.83899670  0.10917921  0.38609947  1
  Cr  Cr8  1  0.18699025  0.92832994  0.88364120  1
  Cr  Cr9  1  0.31300975  0.42832994  0.61635880  1
  Cr  Cr10  1  0.30032698  0.17295140  0.40920485  1
  Cr  Cr11  1  0.19967302  0.67295140  0.09079515  1
  Cr  Cr12  1  0.80032698  0.32704860  0.90920485  1
  Cr  Cr13  1  0.69967302  0.82704860  0.59079515  1
  Cr  Cr14  1  0.68699025  0.57167006  0.38364120  1
  Cr  Cr15  1  0.81300975  0.07167006  0.11635880  1
  O  O16  1  0.06407270  0.78756286  0.97021171  1
  O  O17  1  0.00858579  0.99294303  0.78205446  1
  O  O18  1  0.14687530  0.29209146  0.65959772  1
  O  O19  1  0.30049373  0.12073779  0.94595651  1
  O  O20  1  0.03658285  0.59766127  0.16037952  1
  O  O21  1  0.19950627  0.62073779  0.55404349  1
  O  O22  1  0.16376580  0.99151691  0.44290997  1
  O  O23  1  0.35312470  0.79209146  0.84040228  1
  O  O24  1  0.14637659  0.33691667  0.34375013  1
  O  O25  1  0.49141421  0.49294303  0.71794554  1
  O  O26  1  0.43592730  0.28756286  0.52978829  1
  O  O27  1  0.53658285  0.90233873  0.66037952  1
  O  O28  1  0.35362341  0.83691667  0.15624987  1
  O  O29  1  0.66376580  0.50848309  0.94290997  1
  O  O30  1  0.33623420  0.49151691  0.05709003  1
  O  O31  1  0.64637659  0.16308333  0.84375013  1
  O  O32  1  0.46341715  0.09766127  0.33962048  1
  O  O33  1  0.56407270  0.71243714  0.47021171  1
  O  O34  1  0.50858579  0.50705697  0.28205446  1
  O  O35  1  0.85362341  0.66308333  0.65624987  1
  O  O36  1  0.64687530  0.20790854  0.15959772  1
  O  O37  1  0.83623420  0.00848309  0.55709003  1
  O  O38  1  0.80049373  0.37926221  0.44595651  1
  O  O39  1  0.96341715  0.40233873  0.83962048  1
  O  O40  1  0.69950627  0.87926221  0.05404349  1
  O  O41  1  0.85312470  0.70790854  0.34040228  1
  O  O42  1  0.99141421  0.00705697  0.21794554  1
  O  O43  1  0.93592730  0.21243714  0.02978829  1
