# generated using pymatgen
data_Li3CrBAsO7
_symmetry_space_group_name_H-M   'P 1'
_cell_length_a   8.55053021
_cell_length_b   6.53086644
_cell_length_c   5.09317226
_cell_angle_alpha   90.00000000
_cell_angle_beta   85.28440907
_cell_angle_gamma   90.00000000
_symmetry_Int_Tables_number   1
_chemical_formula_structural   Li3CrBAsO7
_chemical_formula_sum   'Li6 Cr2 B2 As2 O14'
_cell_volume   283.45208483
_cell_formula_units_Z   2
loop_
 _symmetry_equiv_pos_site_id
 _symmetry_equiv_pos_as_xyz
  1  'x, y, z'
loop_
 _atom_site_type_symbol
 _atom_site_label
 _atom_site_symmetry_multiplicity
 _atom_site_fract_x
 _atom_site_fract_y
 _atom_site_fract_z
 _atom_site_occupancy
  Li  Li0  1  0.08378996  0.25000000  0.74545789  1
  Li  Li1  1  0.22771435  0.99203138  0.24743648  1
  Li  Li2  1  0.22771435  0.50796862  0.24743648  1
  Li  Li3  1  0.77228565  0.49203138  0.75256352  1
  Li  Li4  1  0.77228565  0.00796862  0.75256352  1
  Li  Li5  1  0.91621004  0.75000000  0.25454211  1
  Cr  Cr6  1  0.31470729  0.75000000  0.79046603  1
  Cr  Cr7  1  0.68529271  0.25000000  0.20953397  1
  B  B8  1  0.03845989  0.75000000  0.71322817  1
  B  B9  1  0.96154011  0.25000000  0.28677183  1
  As  As10  1  0.42034430  0.25000000  0.72069398  1
  As  As11  1  0.57965570  0.75000000  0.27930602  1
  O  O12  1  0.11264003  0.25000000  0.34686229  1
  O  O13  1  0.09098499  0.75000000  0.96776672  1
  O  O14  1  0.16332515  0.75000000  0.51456544  1
  O  O15  1  0.29393024  0.05467254  0.81986241  1
  O  O16  1  0.29393024  0.44532746  0.81986241  1
  O  O17  1  0.46301038  0.25000000  0.38466631  1
  O  O18  1  0.40209506  0.75000000  0.14749194  1
  O  O19  1  0.59790494  0.25000000  0.85250806  1
  O  O20  1  0.53698962  0.75000000  0.61533369  1
  O  O21  1  0.70606976  0.55467254  0.18013759  1
  O  O22  1  0.70606976  0.94532746  0.18013759  1
  O  O23  1  0.83667485  0.25000000  0.48543456  1
  O  O24  1  0.90901501  0.25000000  0.03223328  1
  O  O25  1  0.88735997  0.75000000  0.65313771  1
