# generated using pymatgen
data_Li2Mn3VO8
_symmetry_space_group_name_H-M   'P 1'
_cell_length_a   5.94515350
_cell_length_b   5.94515300
_cell_length_c   5.94515318
_cell_angle_alpha   60.07287547
_cell_angle_beta   60.07288019
_cell_angle_gamma   60.07287899
_symmetry_Int_Tables_number   1
_chemical_formula_structural   Li2Mn3VO8
_chemical_formula_sum   'Li2 Mn3 V1 O8'
_cell_volume   148.83012143
_cell_formula_units_Z   1
loop_
 _symmetry_equiv_pos_site_id
 _symmetry_equiv_pos_as_xyz
  1  'x, y, z'
loop_
 _atom_site_type_symbol
 _atom_site_label
 _atom_site_symmetry_multiplicity
 _atom_site_fract_x
 _atom_site_fract_y
 _atom_site_fract_z
 _atom_site_occupancy
  Li  Li0  1  0.12140218  0.12140218  0.12140218  1
  Li  Li1  1  0.87859782  0.87859782  0.87859782  1
  Mn  Mn2  1  0.00000000  0.50000000  0.50000000  1
  Mn  Mn3  1  0.50000000  0.00000000  0.50000000  1
  Mn  Mn4  1  0.50000000  0.50000000  0.00000000  1
  V  V5  1  0.50000000  0.50000000  0.50000000  1
  O  O6  1  0.26053846  0.26053846  0.26053846  1
  O  O7  1  0.25797834  0.25797834  0.70789768  1
  O  O8  1  0.25797834  0.70789768  0.25797834  1
  O  O9  1  0.70789768  0.25797834  0.25797834  1
  O  O10  1  0.29210232  0.74202166  0.74202166  1
  O  O11  1  0.74202166  0.29210232  0.74202166  1
  O  O12  1  0.74202166  0.74202166  0.29210232  1
  O  O13  1  0.73946154  0.73946154  0.73946154  1
