# generated using pymatgen
data_Li4Cr3O8
_symmetry_space_group_name_H-M   'P 1'
_cell_length_a   6.11180403
_cell_length_b   10.76169846
_cell_length_c   10.76542114
_cell_angle_alpha   31.19704856
_cell_angle_beta   28.27418209
_cell_angle_gamma   51.25080316
_symmetry_Int_Tables_number   1
_chemical_formula_structural   Li4Cr3O8
_chemical_formula_sum   'Li4 Cr3 O8'
_cell_volume   148.47211176
_cell_formula_units_Z   1
loop_
 _symmetry_equiv_pos_site_id
 _symmetry_equiv_pos_as_xyz
  1  'x, y, z'
loop_
 _atom_site_type_symbol
 _atom_site_label
 _atom_site_symmetry_multiplicity
 _atom_site_fract_x
 _atom_site_fract_y
 _atom_site_fract_z
 _atom_site_occupancy
  Li  Li0  1  0.00055626  0.00041417  0.99966089  1
  Li  Li1  1  0.35723091  0.35634268  0.00005468  1
  Li  Li2  1  0.50002034  0.49863444  0.00056118  1
  Li  Li3  1  0.64320246  0.64197000  0.00015031  1
  Cr  Cr4  1  0.50140380  0.99967499  0.99932421  1
  Cr  Cr5  1  0.49919439  0.49964395  0.50053361  1
  Cr  Cr6  1  0.49987969  0.99838498  0.50165646  1
  O  O7  1  0.23563256  0.23446928  0.99974845  1
  O  O8  1  0.21859418  0.74376885  0.99906917  1
  O  O9  1  0.21754642  0.21629836  0.52672443  1
  O  O10  1  0.27194688  0.74370328  0.47247840  1
  O  O11  1  0.76568992  0.76437929  -0.00018340  1
  O  O12  1  0.78457597  0.25577606  0.99982833  1
  O  O13  1  0.78385879  0.78250557  0.47302949  1
  O  O14  1  0.72984844  0.25596410  0.52715480  1
