# generated using pymatgen
data_Li4Mn3Nb3(SbO8)2
_symmetry_space_group_name_H-M   'P 1'
_cell_length_a   6.34453820
_cell_length_b   6.15990593
_cell_length_c   10.54201466
_cell_angle_alpha   89.98218644
_cell_angle_beta   90.32211156
_cell_angle_gamma   118.99856281
_symmetry_Int_Tables_number   1
_chemical_formula_structural   Li4Mn3Nb3(SbO8)2
_chemical_formula_sum   'Li4 Mn3 Nb3 Sb2 O16'
_cell_volume   360.34167328
_cell_formula_units_Z   1
loop_
 _symmetry_equiv_pos_site_id
 _symmetry_equiv_pos_as_xyz
  1  'x, y, z'
loop_
 _atom_site_type_symbol
 _atom_site_label
 _atom_site_symmetry_multiplicity
 _atom_site_fract_x
 _atom_site_fract_y
 _atom_site_fract_z
 _atom_site_occupancy
  Li  Li0  1  0.33662513  0.66853846  0.90123237  1
  Li  Li1  1  0.99388186  0.99677305  0.00243810  1
  Li  Li2  1  0.00122343  0.00044557  0.48735178  1
  Li  Li3  1  0.68990315  0.34528515  0.39130044  1
  Mn  Mn4  1  0.16375716  0.82799211  0.21669584  1
  Mn  Mn5  1  0.16323550  0.33603673  0.21664439  1
  Mn  Mn6  1  0.32781332  0.16396396  0.70726931  1
  Nb  Nb7  1  0.64807195  0.82361979  0.23103919  1
  Nb  Nb8  1  0.82091050  0.65934211  0.71824669  1
  Nb  Nb9  1  0.82090613  0.16150651  0.71808476  1
  Sb  Sb10  1  0.28536941  0.64287137  0.49763599  1
  Sb  Sb11  1  0.64568416  0.32242353  0.02353603  1
  O  O12  1  0.12859801  0.82229848  0.59469917  1
  O  O13  1  0.04857982  0.52592732  0.34570321  1
  O  O14  1  0.34735966  0.67570727  0.11539137  1
  O  O15  1  0.99196786  0.99395709  0.30511418  1
  O  O16  1  0.98888360  0.99437438  0.81690832  1
  O  O17  1  0.12837955  0.30627332  0.59444405  1
  O  O18  1  0.52534421  0.99278160  0.33018604  1
  O  O19  1  0.52384494  0.53152949  0.32988867  1
  O  O20  1  0.31192882  0.15449688  0.10796168  1
  O  O21  1  0.72367682  0.86195354  0.60757383  1
  O  O22  1  0.53043222  0.51829813  0.80932932  1
  O  O23  1  0.53053580  0.01229978  0.80934288  1
  O  O24  1  0.69829205  0.34935727  0.60669384  1
  O  O25  1  0.82228848  0.67045469  0.10313449  1
  O  O26  1  0.97968377  0.48971713  0.81683824  1
  O  O27  1  0.82281971  0.15207529  0.10315284  1
