# generated using pymatgen
data_Mn4NiO8
_symmetry_space_group_name_H-M   'P 1'
_cell_length_a   5.92836507
_cell_length_b   5.92836488
_cell_length_c   6.06462146
_cell_angle_alpha   87.69884991
_cell_angle_beta   59.41775048
_cell_angle_gamma   58.62706561
_symmetry_Int_Tables_number   1
_chemical_formula_structural   Mn4NiO8
_chemical_formula_sum   'Mn4 Ni1 O8'
_cell_volume   149.16673572
_cell_formula_units_Z   1
loop_
 _symmetry_equiv_pos_site_id
 _symmetry_equiv_pos_as_xyz
  1  'x, y, z'
loop_
 _atom_site_type_symbol
 _atom_site_label
 _atom_site_symmetry_multiplicity
 _atom_site_fract_x
 _atom_site_fract_y
 _atom_site_fract_z
 _atom_site_occupancy
  Mn  Mn0  1  0.00000000  0.50000000  0.50000000  1
  Mn  Mn1  1  0.00000000  0.00000000  0.00000000  1
  Mn  Mn2  1  0.50000000  0.00000000  0.00000000  1
  Mn  Mn3  1  0.00000000  0.50000000  0.00000000  1
  Ni  Ni4  1  0.50000000  0.50000000  0.00000000  1
  O  O5  1  0.46350013  0.26948319  0.80598305  1
  O  O6  1  0.98653729  0.27408578  0.79451864  1
  O  O7  1  0.47956714  0.78105593  0.79451864  1
  O  O8  1  0.96844493  0.74396203  0.77551711  1
  O  O9  1  0.03155507  0.25603797  0.22448289  1
  O  O10  1  0.52043286  0.21894407  0.20548136  1
  O  O11  1  0.01346271  0.72591422  0.20548136  1
  O  O12  1  0.53649987  0.73051681  0.19401695  1
