# generated using pymatgen
data_Li7Co5O12
_symmetry_space_group_name_H-M   'P 1'
_cell_length_a   4.94553792
_cell_length_b   4.94553763
_cell_length_c   9.37829121
_cell_angle_alpha   85.33730505
_cell_angle_beta   94.66269369
_cell_angle_gamma   61.56425958
_symmetry_Int_Tables_number   1
_chemical_formula_structural   Li7Co5O12
_chemical_formula_sum   'Li7 Co5 O12'
_cell_volume   199.14276132
_cell_formula_units_Z   1
loop_
 _symmetry_equiv_pos_site_id
 _symmetry_equiv_pos_as_xyz
  1  'x, y, z'
loop_
 _atom_site_type_symbol
 _atom_site_label
 _atom_site_symmetry_multiplicity
 _atom_site_fract_x
 _atom_site_fract_y
 _atom_site_fract_z
 _atom_site_occupancy
  Li  Li0  1  0.25508921  0.25508921  0.75000000  1
  Li  Li1  1  0.17155184  0.66161303  0.50538690  1
  Li  Li2  1  0.32562635  0.84357783  0.99490337  1
  Li  Li3  1  0.66161303  0.17155184  0.99461310  1
  Li  Li4  1  0.84357783  0.32562635  0.50509663  1
  Li  Li5  1  0.74338029  0.74338029  0.25000000  1
  Li  Li6  1  0.92221288  0.92221288  0.75000000  1
  Co  Co7  1  0.07667827  0.07667827  0.25000000  1
  Co  Co8  1  0.01197423  0.51329693  0.98775446  1
  Co  Co9  1  0.51329693  0.01197423  0.51224554  1
  Co  Co10  1  0.41485784  0.41485784  0.25000000  1
  Co  Co11  1  0.58314296  0.58314296  0.75000000  1
  O  O12  1  0.93873162  0.25522688  0.87357161  1
  O  O13  1  0.25522688  0.93873162  0.62642839  1
  O  O14  1  0.16014237  0.32635302  0.37422013  1
  O  O15  1  0.32635302  0.16014237  0.12577987  1
  O  O16  1  0.29547822  0.54653284  0.87273360  1
  O  O17  1  0.54653284  0.29547822  0.62726640  1
  O  O18  1  0.42147879  0.72459360  0.36059269  1
  O  O19  1  0.72459360  0.42147879  0.13940731  1
  O  O20  1  0.65176033  0.83367949  0.88073959  1
  O  O21  1  0.83367949  0.65176033  0.61926041  1
  O  O22  1  0.76113254  0.06189063  0.36941281  1
  O  O23  1  0.06189063  0.76113254  0.13058719  1
