# generated using pymatgen
data_Ca3V3(AsO4)4
_symmetry_space_group_name_H-M   'P 1'
_cell_length_a   5.29487520
_cell_length_b   9.11683056
_cell_length_c   15.90381340
_cell_angle_alpha   96.54179902
_cell_angle_beta   90.00000000
_cell_angle_gamma   90.00000000
_symmetry_Int_Tables_number   1
_chemical_formula_structural   Ca3V3(AsO4)4
_chemical_formula_sum   'Ca6 V6 As8 O32'
_cell_volume   762.71791711
_cell_formula_units_Z   2
loop_
 _symmetry_equiv_pos_site_id
 _symmetry_equiv_pos_as_xyz
  1  'x, y, z'
loop_
 _atom_site_type_symbol
 _atom_site_label
 _atom_site_symmetry_multiplicity
 _atom_site_fract_x
 _atom_site_fract_y
 _atom_site_fract_z
 _atom_site_occupancy
  Ca  Ca0  1  0.96005324  0.02336282  0.73223826  1
  Ca  Ca1  1  0.46005324  0.47663718  0.76776174  1
  Ca  Ca2  1  0.03994676  0.97663718  0.26776174  1
  Ca  Ca3  1  0.53994676  0.52336282  0.23223826  1
  Ca  Ca4  1  -0.00000000  0.00000000  -0.00000000  1
  Ca  Ca5  1  0.50000000  0.50000000  0.50000000  1
  V  V6  1  0.04105825  0.33839898  0.12166837  1
  V  V7  1  0.95894175  0.66160102  0.87833163  1
  V  V8  1  0.54105825  0.16160102  0.37833163  1
  V  V9  1  0.45894175  0.83839898  0.62166837  1
  V  V10  1  0.50000000  0.50000000  -0.00000000  1
  V  V11  1  -0.00000000  0.00000000  0.50000000  1
  As  As12  1  0.47792616  0.88640100  0.84473139  1
  As  As13  1  0.02551375  0.33935945  0.89943867  1
  As  As14  1  0.52551375  0.16064055  0.60056133  1
  As  As15  1  0.47448625  0.83935945  0.39943867  1
  As  As16  1  0.52207384  0.11359900  0.15526861  1
  As  As17  1  0.97448625  0.66064055  0.10056133  1
  As  As18  1  0.02207384  0.38640100  0.34473139  1
  As  As19  1  0.97792616  0.61359900  0.65526861  1
  O  O20  1  0.03111686  0.55834668  0.75465693  1
  O  O21  1  0.56287389  0.24576802  0.51089968  1
  O  O22  1  0.10044616  0.23232015  0.80974820  1
  O  O23  1  0.08511490  0.79299569  0.65689382  1
  O  O24  1  0.89955384  0.76767985  0.19025180  1
  O  O25  1  0.46888314  0.05834668  0.25465693  1
  O  O26  1  0.60044616  0.26767985  0.69025180  1
  O  O27  1  0.75934952  0.93742983  0.39692523  1
  O  O28  1  0.85536318  0.50548212  0.41308863  1
  O  O29  1  0.96888314  0.44165332  0.24534307  1
  O  O30  1  0.41488510  0.29299569  0.15689382  1
  O  O31  1  0.24065048  0.06257017  0.60307477  1
  O  O32  1  0.23121443  0.49210154  0.90563391  1
  O  O33  1  0.14463682  0.49451788  0.58691137  1
  O  O34  1  0.84768251  0.11881643  0.13704707  1
  O  O35  1  0.34768251  0.38118357  0.36295293  1
  O  O36  1  0.73121443  0.00789846  0.59436609  1
  O  O37  1  0.39955384  0.73232015  0.30974820  1
  O  O38  1  0.35536318  0.99451788  0.08691137  1
  O  O39  1  0.25934952  0.56257017  0.10307477  1
  O  O40  1  0.65231749  0.61881643  0.63704707  1
  O  O41  1  0.15231749  0.88118357  0.86295293  1
  O  O42  1  0.43712611  0.75423198  0.48910032  1
  O  O43  1  0.06287389  0.25423198  0.98910032  1
  O  O44  1  0.76878557  0.50789846  0.09436609  1
  O  O45  1  0.53111686  0.94165332  0.74534307  1
  O  O46  1  0.91488510  0.20700431  0.34310618  1
  O  O47  1  0.64463682  0.00548212  0.91308863  1
  O  O48  1  0.93712611  0.74576802  0.01089968  1
  O  O49  1  0.74065048  0.43742983  0.89692523  1
  O  O50  1  0.26878557  0.99210154  0.40563391  1
  O  O51  1  0.58511490  0.70700431  0.84310618  1
