# generated using pymatgen
data_MnNi(PO4)2
_symmetry_space_group_name_H-M   'P 1'
_cell_length_a   8.55945163
_cell_length_b   8.63705260
_cell_length_c   8.63705238
_cell_angle_alpha   60.00000396
_cell_angle_beta   59.69964527
_cell_angle_gamma   59.69963658
_symmetry_Int_Tables_number   1
_chemical_formula_structural   MnNi(PO4)2
_chemical_formula_sum   'Mn3 Ni3 P6 O24'
_cell_volume   449.44382589
_cell_formula_units_Z   3
loop_
 _symmetry_equiv_pos_site_id
 _symmetry_equiv_pos_as_xyz
  1  'x, y, z'
loop_
 _atom_site_type_symbol
 _atom_site_label
 _atom_site_symmetry_multiplicity
 _atom_site_fract_x
 _atom_site_fract_y
 _atom_site_fract_z
 _atom_site_occupancy
  Mn  Mn0  1  0.00598114  0.99800629  0.99800629  1
  Mn  Mn1  1  0.57247077  0.14250974  0.14250974  1
  Mn  Mn2  1  0.49967577  0.50010808  0.50010808  1
  Ni  Ni3  1  0.07243394  0.64252202  0.64252202  1
  Ni  Ni4  1  0.42896086  0.85701305  0.85701305  1
  Ni  Ni5  1  0.92722784  0.35759105  0.35759105  1
  P  P6  1  0.25347041  0.25021550  0.53917880  1
  P  P7  1  0.25347041  0.95713630  0.25021550  1
  P  P8  1  0.25347041  0.53917880  0.95713630  1
  P  P9  1  0.74585054  0.45862167  0.04473897  1
  P  P10  1  0.74585054  0.04473897  0.75078882  1
  P  P11  1  0.74585054  0.75078882  0.45862167  1
  O  O12  1  0.06547085  0.10925334  0.31528077  1
  O  O13  1  0.06547085  0.50999504  0.10925334  1
  O  O14  1  0.06547085  0.31528077  0.50999504  1
  O  O15  1  0.23149843  0.08695809  0.73551154  1
  O  O16  1  0.43748875  0.18750538  0.37842246  1
  O  O17  1  0.28122793  0.40772333  0.55325234  1
  O  O18  1  0.23149843  0.94603294  0.08695809  1
  O  O19  1  0.28122793  0.75779640  0.40772333  1
  O  O20  1  0.56066270  0.61391649  0.01484907  1
  O  O21  1  0.28122793  0.55325234  0.75779640  1
  O  O22  1  0.76569338  0.25743085  0.06040044  1
  O  O23  1  0.56066270  0.01484907  0.81057074  1
  O  O24  1  0.43748875  0.99658341  0.18750538  1
  O  O25  1  0.23149843  0.73551154  0.94603294  1
  O  O26  1  0.72307370  0.43883834  0.24562546  1
  O  O27  1  0.43748875  0.37842246  0.99658341  1
  O  O28  1  0.72307370  0.24562546  0.59246349  1
  O  O29  1  0.76569338  0.06040044  0.91647533  1
  O  O30  1  0.72307370  0.59246349  0.43883834  1
  O  O31  1  0.56066270  0.81057074  0.61391649  1
  O  O32  1  0.76569338  0.91647533  0.25743085  1
  O  O33  1  0.93331254  0.69031541  0.48493065  1
  O  O34  1  0.93331254  0.48493065  0.89144139  1
  O  O35  1  0.93331254  0.89144139  0.69031541  1
