# generated using pymatgen
data_Na2VBAsO7
_symmetry_space_group_name_H-M   'P 1'
_cell_length_a   9.26518720
_cell_length_b   6.59468654
_cell_length_c   5.56856543
_cell_angle_alpha   90.00000000
_cell_angle_beta   86.98937682
_cell_angle_gamma   90.00000000
_symmetry_Int_Tables_number   1
_chemical_formula_structural   Na2VBAsO7
_chemical_formula_sum   'Na4 V2 B2 As2 O14'
_cell_volume   339.77534436
_cell_formula_units_Z   2
loop_
 _symmetry_equiv_pos_site_id
 _symmetry_equiv_pos_as_xyz
  1  'x, y, z'
loop_
 _atom_site_type_symbol
 _atom_site_label
 _atom_site_symmetry_multiplicity
 _atom_site_fract_x
 _atom_site_fract_y
 _atom_site_fract_z
 _atom_site_occupancy
  Na  Na0  1  0.20683508  0.98964498  0.23931801  1
  Na  Na1  1  0.20683508  0.51035502  0.23931801  1
  Na  Na2  1  0.79316492  0.48964498  0.76068199  1
  Na  Na3  1  0.79316492  0.01035502  0.76068199  1
  V  V4  1  0.32748194  0.75000000  0.78276607  1
  V  V5  1  0.67251806  0.25000000  0.21723393  1
  B  B6  1  0.07209614  0.75000000  0.72383659  1
  B  B7  1  0.92790386  0.25000000  0.27616341  1
  As  As8  1  0.43994514  0.25000000  0.71738990  1
  As  As9  1  0.56005486  0.75000000  0.28261010  1
  O  O10  1  0.06573757  0.25000000  0.31103889  1
  O  O11  1  0.14220972  0.75000000  0.94776230  1
  O  O12  1  0.18962238  0.75000000  0.54254804  1
  O  O13  1  0.33279698  0.04490691  0.80087426  1
  O  O14  1  0.33279698  0.45509309  0.80087426  1
  O  O15  1  0.40490964  0.75000000  0.13063595  1
  O  O16  1  0.47537702  0.25000000  0.41038509  1
  O  O17  1  0.52462298  0.75000000  0.58961491  1
  O  O18  1  0.59509036  0.25000000  0.86936405  1
  O  O19  1  0.66720302  0.54490691  0.19912574  1
  O  O20  1  0.66720302  0.95509309  0.19912574  1
  O  O21  1  0.81037762  0.25000000  0.45745196  1
  O  O22  1  0.85779028  0.25000000  0.05223770  1
  O  O23  1  0.93426243  0.75000000  0.68896111  1
