# generated using pymatgen
data_Li3CrSiBO7
_symmetry_space_group_name_H-M   'P 1'
_cell_length_a   8.38876321
_cell_length_b   6.28447469
_cell_length_c   5.07637238
_cell_angle_alpha   90.00000000
_cell_angle_beta   85.16288431
_cell_angle_gamma   90.00000000
_symmetry_Int_Tables_number   1
_chemical_formula_structural   Li3CrSiBO7
_chemical_formula_sum   'Li6 Cr2 Si2 B2 O14'
_cell_volume   266.66797623
_cell_formula_units_Z   2
loop_
 _symmetry_equiv_pos_site_id
 _symmetry_equiv_pos_as_xyz
  1  'x, y, z'
loop_
 _atom_site_type_symbol
 _atom_site_label
 _atom_site_symmetry_multiplicity
 _atom_site_fract_x
 _atom_site_fract_y
 _atom_site_fract_z
 _atom_site_occupancy
  Li  Li0  1  0.09945973  0.25000000  0.75308186  1
  Li  Li1  1  0.24498076  0.99692922  0.25783755  1
  Li  Li2  1  0.24498076  0.50307078  0.25783755  1
  Li  Li3  1  0.75501924  0.49692922  0.74216245  1
  Li  Li4  1  0.75501924  0.00307078  0.74216245  1
  Li  Li5  1  0.90054027  0.75000000  0.24691814  1
  Cr  Cr6  1  0.31882156  0.75000000  0.80040314  1
  Cr  Cr7  1  0.68117844  0.25000000  0.19959686  1
  Si  Si8  1  0.42759195  0.25000000  0.71635971  1
  Si  Si9  1  0.57240805  0.75000000  0.28364029  1
  B  B10  1  0.03929415  0.75000000  0.72050000  1
  B  B11  1  0.96070585  0.25000000  0.27950000  1
  O  O12  1  0.11177488  0.25000000  0.35064675  1
  O  O13  1  0.08939368  0.75000000  0.97544800  1
  O  O14  1  0.17265799  0.75000000  0.52762989  1
  O  O15  1  0.30554617  0.05228865  0.80960012  1
  O  O16  1  0.30554617  0.44771135  0.80960012  1
  O  O17  1  0.46966094  0.25000000  0.39674370  1
  O  O18  1  0.40597550  0.75000000  0.13801451  1
  O  O19  1  0.59402450  0.25000000  0.86198549  1
  O  O20  1  0.53033906  0.75000000  0.60325630  1
  O  O21  1  0.69445383  0.55228865  0.19039988  1
  O  O22  1  0.69445383  0.94771135  0.19039988  1
  O  O23  1  0.82734201  0.25000000  0.47237011  1
  O  O24  1  0.91060632  0.25000000  0.02455200  1
  O  O25  1  0.88822512  0.75000000  0.64935325  1
