# generated using pymatgen
data_VCrO5
_symmetry_space_group_name_H-M   'P 1'
_cell_length_a   7.45701530
_cell_length_b   6.68778734
_cell_length_c   7.82605680
_cell_angle_alpha   90.00000000
_cell_angle_beta   90.00000000
_cell_angle_gamma   90.00000000
_symmetry_Int_Tables_number   1
_chemical_formula_structural   VCrO5
_chemical_formula_sum   'V4 Cr4 O20'
_cell_volume   390.29275055
_cell_formula_units_Z   4
loop_
 _symmetry_equiv_pos_site_id
 _symmetry_equiv_pos_as_xyz
  1  'x, y, z'
loop_
 _atom_site_type_symbol
 _atom_site_label
 _atom_site_symmetry_multiplicity
 _atom_site_fract_x
 _atom_site_fract_y
 _atom_site_fract_z
 _atom_site_occupancy
  V  V0  1  0.15636991  0.25000000  0.73811195  1
  V  V1  1  0.34363009  0.75000000  0.23811195  1
  V  V2  1  0.65636991  0.25000000  0.76188805  1
  V  V3  1  0.84363009  0.75000000  0.26188805  1
  Cr  Cr4  1  0.12232564  0.75000000  0.62493586  1
  Cr  Cr5  1  0.37767436  0.25000000  0.12493586  1
  Cr  Cr6  1  0.62232564  0.75000000  0.87506414  1
  Cr  Cr7  1  0.87767436  0.25000000  0.37506414  1
  O  O8  1  0.05676977  0.25000000  0.50168939  1
  O  O9  1  0.12368980  0.75000000  0.19292948  1
  O  O10  1  0.12308663  0.54620964  0.74916998  1
  O  O11  1  0.12308663  0.95379036  0.74916998  1
  O  O12  1  0.20445271  0.25000000  0.99374561  1
  O  O13  1  0.29554729  0.75000000  0.49374561  1
  O  O14  1  0.37691337  0.04620964  0.24916998  1
  O  O15  1  0.37691337  0.45379036  0.24916998  1
  O  O16  1  0.37631020  0.25000000  0.69292948  1
  O  O17  1  0.44323023  0.75000000  0.00168939  1
  O  O18  1  0.55676977  0.25000000  0.99831061  1
  O  O19  1  0.62368980  0.75000000  0.30707052  1
  O  O20  1  0.62308663  0.54620964  0.75083002  1
  O  O21  1  0.62308663  0.95379036  0.75083002  1
  O  O22  1  0.70445271  0.25000000  0.50625439  1
  O  O23  1  0.79554729  0.75000000  0.00625439  1
  O  O24  1  0.87691337  0.04620964  0.25083002  1
  O  O25  1  0.87691337  0.45379036  0.25083002  1
  O  O26  1  0.87631020  0.25000000  0.80707052  1
  O  O27  1  0.94323023  0.75000000  0.49831061  1
