# generated using pymatgen
data_Li5Cr2Co5O12
_symmetry_space_group_name_H-M   'P 1'
_cell_length_a   5.14431691
_cell_length_b   5.14431681
_cell_length_c   9.85505943
_cell_angle_alpha   84.89024170
_cell_angle_beta   95.10976290
_cell_angle_gamma   59.45210234
_symmetry_Int_Tables_number   1
_chemical_formula_structural   Li5Cr2Co5O12
_chemical_formula_sum   'Li5 Cr2 Co5 O12'
_cell_volume   220.95294432
_cell_formula_units_Z   1
loop_
 _symmetry_equiv_pos_site_id
 _symmetry_equiv_pos_as_xyz
  1  'x, y, z'
loop_
 _atom_site_type_symbol
 _atom_site_label
 _atom_site_symmetry_multiplicity
 _atom_site_fract_x
 _atom_site_fract_y
 _atom_site_fract_z
 _atom_site_occupancy
  Li  Li0  1  0.17122593  0.67084262  0.50484415  1
  Li  Li1  1  0.32459672  0.82541247  0.99132878  1
  Li  Li2  1  0.67084262  0.17122593  0.99515585  1
  Li  Li3  1  0.82541247  0.32459672  0.50867122  1
  Li  Li4  1  0.91348874  0.91348874  0.75000000  1
  Cr  Cr5  1  0.24701122  0.24701122  0.75000000  1
  Cr  Cr6  1  0.75521487  0.75521487  0.25000000  1
  Co  Co7  1  0.08568176  0.08568176  0.25000000  1
  Co  Co8  1  0.99623513  0.50851898  0.99377876  1
  Co  Co9  1  0.50851898  0.99623513  0.50622124  1
  Co  Co10  1  0.42219616  0.42219616  0.25000000  1
  Co  Co11  1  0.57763142  0.57763142  0.75000000  1
  O  O12  1  0.95209854  0.23266828  0.86920103  1
  O  O13  1  0.23266828  0.95209854  0.63079897  1
  O  O14  1  0.13533084  0.38657283  0.36510035  1
  O  O15  1  0.38657283  0.13533084  0.13489965  1
  O  O16  1  0.29565879  0.52639104  0.86626269  1
  O  O17  1  0.52639104  0.29565879  0.63373731  1
  O  O18  1  0.47227353  0.70965036  0.36536987  1
  O  O19  1  0.70965036  0.47227353  0.13463013  1
  O  O20  1  0.60304463  0.86747906  0.86549983  1
  O  O21  1  0.86747906  0.60304463  0.63450017  1
  O  O22  1  0.78088719  0.03988989  0.37084929  1
  O  O23  1  0.03988989  0.78088719  0.12915071  1
