# generated using pymatgen
data_Li5Nb2V5O12
_symmetry_space_group_name_H-M   'P 1'
_cell_length_a   5.24921416
_cell_length_b   5.24921440
_cell_length_c   10.20038386
_cell_angle_alpha   84.60339456
_cell_angle_beta   95.39660465
_cell_angle_gamma   59.16424722
_symmetry_Int_Tables_number   1
_chemical_formula_structural   Li5Nb2V5O12
_chemical_formula_sum   'Li5 Nb2 V5 O12'
_cell_volume   236.91283280
_cell_formula_units_Z   1
loop_
 _symmetry_equiv_pos_site_id
 _symmetry_equiv_pos_as_xyz
  1  'x, y, z'
loop_
 _atom_site_type_symbol
 _atom_site_label
 _atom_site_symmetry_multiplicity
 _atom_site_fract_x
 _atom_site_fract_y
 _atom_site_fract_z
 _atom_site_occupancy
  Li  Li0  1  0.16478487  0.67945441  0.50481697  1
  Li  Li1  1  0.31802414  0.82470679  0.99206988  1
  Li  Li2  1  0.67945441  0.16478487  0.99518303  1
  Li  Li3  1  0.82470679  0.31802414  0.50793012  1
  Li  Li4  1  0.92308745  0.92308745  0.75000000  1
  Nb  Nb5  1  0.25178590  0.25178590  0.75000000  1
  Nb  Nb6  1  0.74329026  0.74329026  0.25000000  1
  V  V7  1  0.99781143  0.50378055  0.99342388  1
  V  V8  1  0.50378055  0.99781143  0.50657612  1
  V  V9  1  0.43125572  0.43125572  0.25000000  1
  V  V10  1  0.58167106  0.58167106  0.75000000  1
  V  V11  1  0.07806265  0.07806265  0.25000000  1
  O  O12  1  0.97479013  0.20304162  0.86976699  1
  O  O13  1  0.20304162  0.97479012  0.63023301  1
  O  O14  1  0.12274912  0.38200079  0.36814121  1
  O  O15  1  0.38200079  0.12274912  0.13185879  1
  O  O16  1  0.29184664  0.53260159  0.86935520  1
  O  O17  1  0.53260159  0.29184664  0.63064480  1
  O  O18  1  0.45728641  0.71037951  0.38244891  1
  O  O19  1  0.71037951  0.45728641  0.11755109  1
  O  O20  1  0.61429418  0.88755116  0.86852431  1
  O  O21  1  0.88755116  0.61429418  0.63147569  1
  O  O22  1  0.79008893  0.03565268  0.37584031  1
  O  O23  1  0.03565268  0.79008893  0.12415969  1
