# generated using pymatgen
data_Na3PH12CO11
_symmetry_space_group_name_H-M   'P 1'
_cell_length_a   8.98762538
_cell_length_b   12.36572027
_cell_length_c   10.40644204
_cell_angle_alpha   90.00000000
_cell_angle_beta   104.03755378
_cell_angle_gamma   90.00000000
_symmetry_Int_Tables_number   1
_chemical_formula_structural   Na3PH12CO11
_chemical_formula_sum   'Na12 P4 H48 C4 O44'
_cell_volume   1122.01767208
_cell_formula_units_Z   4
loop_
 _symmetry_equiv_pos_site_id
 _symmetry_equiv_pos_as_xyz
  1  'x, y, z'
loop_
 _atom_site_type_symbol
 _atom_site_label
 _atom_site_symmetry_multiplicity
 _atom_site_fract_x
 _atom_site_fract_y
 _atom_site_fract_z
 _atom_site_occupancy
  Na  Na0  1  0.10255510  0.06899802  0.75917073  1
  Na  Na1  1  0.13219628  0.75954481  0.77375522  1
  Na  Na2  1  0.23025336  0.33550751  0.23125453  1
  Na  Na3  1  0.36780372  0.25954481  0.72624478  1
  Na  Na4  1  0.39744490  0.56899802  0.74082927  1
  Na  Na5  1  0.26974664  0.83550751  0.26874547  1
  Na  Na6  1  0.73025336  0.16449249  0.73125453  1
  Na  Na7  1  0.60255510  0.43100198  0.25917073  1
  Na  Na8  1  0.63219628  0.74045519  0.27375522  1
  Na  Na9  1  0.76974664  0.66449249  0.76874547  1
  Na  Na10  1  0.86780372  0.24045519  0.22624478  1
  Na  Na11  1  0.89744490  0.93100198  0.24082927  1
  P  P12  1  0.15275335  0.58964502  0.29162855  1
  P  P13  1  0.34724665  0.08964502  0.20837145  1
  P  P14  1  0.65275335  0.91035498  0.79162855  1
  P  P15  1  0.84724665  0.41035498  0.70837145  1
  H  H16  1  0.00664223  0.54289811  0.86636694  1
  H  H17  1  0.06763020  0.88058910  0.96989355  1
  H  H18  1  0.02438196  0.26396400  0.89328466  1
  H  H19  1  0.13763603  0.61363190  0.94512583  1
  H  H20  1  0.00817089  0.24191034  0.60405127  1
  H  H21  1  0.03393951  0.57908818  0.63409062  1
  H  H22  1  0.14726277  0.18926583  0.98725846  1
  H  H23  1  0.08845405  0.18174356  0.50644998  1
  H  H24  1  0.17898013  0.40553776  0.86077725  1
  H  H25  1  0.22624292  0.93830747  0.99718051  1
  H  H26  1  0.13123777  0.63464802  0.54289766  1
  H  H27  1  0.21755645  0.91870089  0.73352930  1
  H  H28  1  0.28244355  0.41870089  0.76647070  1
  H  H29  1  0.36876223  0.13464802  0.95710234  1
  H  H30  1  0.27375708  0.43830747  0.50281949  1
  H  H31  1  0.32101987  0.90553776  0.63922275  1
  H  H32  1  0.41154595  0.68174356  0.99355002  1
  H  H33  1  0.35273723  0.68926583  0.51274154  1
  H  H34  1  0.46606049  0.07908818  0.86590938  1
  H  H35  1  0.49182911  0.74191034  0.89594873  1
  H  H36  1  0.36236397  0.11363190  0.55487417  1
  H  H37  1  0.47561804  0.76396400  0.60671534  1
  H  H38  1  0.43236980  0.38058910  0.53010645  1
  H  H39  1  0.49335777  0.04289811  0.63363306  1
  H  H40  1  0.50664223  0.95710189  0.36636694  1
  H  H41  1  0.56763020  0.61941090  0.46989355  1
  H  H42  1  0.52438196  0.23603600  0.39328466  1
  H  H43  1  0.63763603  0.88636810  0.44512583  1
  H  H44  1  0.50817089  0.25808966  0.10405127  1
  H  H45  1  0.53393951  0.92091182  0.13409062  1
  H  H46  1  0.64726277  0.31073417  0.48725846  1
  H  H47  1  0.58845405  0.31825644  0.00644998  1
  H  H48  1  0.67898013  0.09446224  0.36077725  1
  H  H49  1  0.72624292  0.56169253  0.49718051  1
  H  H50  1  0.63123777  0.86535198  0.04289766  1
  H  H51  1  0.71755645  0.58129911  0.23352930  1
  H  H52  1  0.78244355  0.08129911  0.26647070  1
  H  H53  1  0.86876223  0.36535198  0.45710234  1
  H  H54  1  0.77375708  0.06169253  0.00281949  1
  H  H55  1  0.82101987  0.59446224  0.13922275  1
  H  H56  1  0.91154595  0.81825644  0.49355102  1
  H  H57  1  0.85273723  0.81073417  0.01274154  1
  H  H58  1  0.96606049  0.42091182  0.36590938  1
  H  H59  1  0.99182911  0.75808966  0.39594873  1
  H  H60  1  0.86236397  0.38636810  0.05487417  1
  H  H61  1  0.97561804  0.73603600  0.10671534  1
  H  H62  1  0.93236980  0.11941090  0.03010645  1
  H  H63  1  0.99335777  0.45710189  0.13363306  1
  C  C64  1  0.18316269  0.08662306  0.29121733  1
  C  C65  1  0.31683731  0.58662306  0.20878267  1
  C  C66  1  0.68316269  0.41337694  0.79121733  1
  C  C67  1  0.81683731  0.91337694  0.70878267  1
  O  O68  1  0.03537531  0.61967840  0.88665621  1
  O  O69  1  0.04743581  0.18691114  0.92000282  1
  O  O70  1  0.14190808  0.91063601  0.92276622  1
  O  O71  1  0.10296633  0.20238039  0.60017024  1
  O  O72  1  0.13299748  0.61535125  0.63527791  1
  O  O73  1  0.01290797  0.60359050  0.17295068  1
  O  O74  1  0.20985223  0.90855037  0.63924928  1
  O  O75  1  0.13167552  0.17779852  0.32116949  1
  O  O76  1  0.14944307  0.47970416  0.36090292  1
  O  O77  1  0.29014777  0.40855037  0.86075072  1
  O  O78  1  0.14127112  0.99428913  0.31987243  1
  O  O79  1  0.17454868  0.68789014  0.38778788  1
  O  O80  1  0.36700252  0.11535125  0.86472209  1
  O  O81  1  0.39703367  0.70238039  0.89982976  1
  O  O82  1  0.35809192  0.41063601  0.57723378  1
  O  O83  1  0.45256419  0.68691114  0.57999718  1
  O  O84  1  0.32545132  0.18789014  0.11221212  1
  O  O85  1  0.35872888  0.49428913  0.18012757  1
  O  O86  1  0.46462469  0.11967840  0.61334379  1
  O  O87  1  0.35055693  0.97970416  0.13909708  1
  O  O88  1  0.36832448  0.67779852  0.17883051  1
  O  O89  1  0.51290797  0.89640950  0.67295068  1
  O  O90  1  0.48709203  0.10359050  0.32704932  1
  O  O91  1  0.63167552  0.32220148  0.82116949  1
  O  O92  1  0.64944307  0.02029584  0.86090292  1
  O  O93  1  0.53537531  0.88032160  0.38665621  1
  O  O94  1  0.64127112  0.50571087  0.81987243  1
  O  O95  1  0.67454868  0.81210986  0.88778788  1
  O  O96  1  0.54743581  0.31308886  0.42000282  1
  O  O97  1  0.64190808  0.58936399  0.42276622  1
  O  O98  1  0.60296633  0.29761961  0.10017024  1
  O  O99  1  0.63299748  0.88464875  0.13527791  1
  O  O100  1  0.82545132  0.31210986  0.61221212  1
  O  O101  1  0.85872888  0.00571087  0.68012757  1
  O  O102  1  0.70985223  0.59144963  0.13924928  1
  O  O103  1  0.85055693  0.52029584  0.63909708  1
  O  O104  1  0.86832448  0.82220148  0.67883051  1
  O  O105  1  0.79014777  0.09144963  0.36075072  1
  O  O106  1  0.98709203  0.39640950  0.82704932  1
  O  O107  1  0.86700252  0.38464875  0.36472209  1
  O  O108  1  0.89703367  0.79761961  0.39982976  1
  O  O109  1  0.85809192  0.08936399  0.07723378  1
  O  O110  1  0.95256419  0.81308886  0.07999718  1
  O  O111  1  0.96462469  0.38032160  0.11334379  1
