# generated using pymatgen
data_LiCrFeO4
_symmetry_space_group_name_H-M   'P 1'
_cell_length_a   5.87764761
_cell_length_b   5.87778398
_cell_length_c   8.38030616
_cell_angle_alpha   90.01993184
_cell_angle_beta   90.00529909
_cell_angle_gamma   89.97856883
_symmetry_Int_Tables_number   1
_chemical_formula_structural   LiCrFeO4
_chemical_formula_sum   'Li4 Cr4 Fe4 O16'
_cell_volume   289.51894798
_cell_formula_units_Z   4
loop_
 _symmetry_equiv_pos_site_id
 _symmetry_equiv_pos_as_xyz
  1  'x, y, z'
loop_
 _atom_site_type_symbol
 _atom_site_label
 _atom_site_symmetry_multiplicity
 _atom_site_fract_x
 _atom_site_fract_y
 _atom_site_fract_z
 _atom_site_occupancy
  Li  Li0  1  0.00024251  0.23144865  0.99974645  1
  Li  Li1  1  0.00008955  0.76836153  0.50020234  1
  Li  Li2  1  0.23160852  0.99984698  0.24976663  1
  Li  Li3  1  0.76865909  0.99998253  0.74993293  1
  Cr  Cr4  1  0.23524300  0.49991861  0.25011469  1
  Cr  Cr5  1  0.49989259  0.23539102  0.00001038  1
  Cr  Cr6  1  0.49996823  0.76465055  0.49986031  1
  Cr  Cr7  1  0.76462344  0.50018700  0.75006909  1
  Fe  Fe8  1  0.25588378  0.25597968  0.62485138  1
  Fe  Fe9  1  0.25600057  0.74401786  0.87511083  1
  Fe  Fe10  1  0.74393560  0.25599773  0.37494467  1
  Fe  Fe11  1  0.74397702  0.74412683  0.12514258  1
  O  O12  1  0.01651488  0.26801750  0.25674194  1
  O  O13  1  0.01643805  0.73216410  0.24343652  1
  O  O14  1  0.26776202  0.01630252  0.99355302  1
  O  O15  1  0.26771656  0.98348873  0.50647806  1
  O  O16  1  0.26667775  0.48093752  0.01245516  1
  O  O17  1  0.26629524  0.51905163  0.48759715  1
  O  O18  1  0.48085655  0.26613704  0.23762562  1
  O  O19  1  0.48086436  0.73359056  0.26238789  1
  O  O20  1  0.51879227  0.26612991  0.76246984  1
  O  O21  1  0.51896631  0.73372339  0.73759323  1
  O  O22  1  0.73389258  0.51910921  0.51242031  1
  O  O23  1  0.73447590  0.48105614  0.98763829  1
  O  O24  1  0.73186582  0.01679627  0.00681810  1
  O  O25  1  0.73183488  0.98343214  0.49318540  1
  O  O26  1  0.98328760  0.26800448  0.74325770  1
  O  O27  1  0.98363433  0.73214889  0.75658947  1
