# generated using pymatgen
data_Li3Nb2VO6
_symmetry_space_group_name_H-M   'P 1'
_cell_length_a   16.52164257
_cell_length_b   10.52812074
_cell_length_c   10.52812079
_cell_angle_alpha   15.99479280
_cell_angle_beta   15.79883994
_cell_angle_gamma   15.79883807
_symmetry_Int_Tables_number   1
_chemical_formula_structural   Li3Nb2VO6
_chemical_formula_sum   'Li3 Nb2 V1 O6'
_cell_volume   119.25273186
_cell_formula_units_Z   1
loop_
 _symmetry_equiv_pos_site_id
 _symmetry_equiv_pos_as_xyz
  1  'x, y, z'
loop_
 _atom_site_type_symbol
 _atom_site_label
 _atom_site_symmetry_multiplicity
 _atom_site_fract_x
 _atom_site_fract_y
 _atom_site_fract_z
 _atom_site_occupancy
  Li  Li0  1  0.16666700  0.50000000  0.50000000  1
  Li  Li1  1  0.50794801  0.49948517  0.49948517  1
  Li  Li2  1  0.82538499  0.50051483  0.50051483  1
  Nb  Nb3  1  0.95713572  0.03214265  0.03214265  1
  Nb  Nb4  1  0.37619828  0.96785735  0.96785735  1
  V  V5  1  0.66666700  0.00000000  0.00000000  1
  O  O6  1  0.25632340  0.25038967  0.25038967  1
  O  O7  1  0.57668218  0.24567065  0.24567065  1
  O  O8  1  0.07700960  0.74961033  0.74961033  1
  O  O9  1  0.92388260  0.25355610  0.25355610  1
  O  O10  1  0.40945040  0.74644390  0.74644390  1
  O  O11  1  0.75665182  0.75432935  0.75432935  1
