# generated using pymatgen
data_Li5Nb2V3O10
_symmetry_space_group_name_H-M   'P 1'
_cell_length_a   5.29722393
_cell_length_b   5.27294738
_cell_length_c   8.01951057
_cell_angle_alpha   110.67527945
_cell_angle_beta   101.87495220
_cell_angle_gamma   99.58067284
_symmetry_Int_Tables_number   1
_chemical_formula_structural   Li5Nb2V3O10
_chemical_formula_sum   'Li5 Nb2 V3 O10'
_cell_volume   197.97307170
_cell_formula_units_Z   1
loop_
 _symmetry_equiv_pos_site_id
 _symmetry_equiv_pos_as_xyz
  1  'x, y, z'
loop_
 _atom_site_type_symbol
 _atom_site_label
 _atom_site_symmetry_multiplicity
 _atom_site_fract_x
 _atom_site_fract_y
 _atom_site_fract_z
 _atom_site_occupancy
  Li  Li0  1  0.22627827  0.92071786  0.40494351  1
  Li  Li1  1  0.40165413  0.29193901  0.79005469  1
  Li  Li2  1  0.50000000  0.50000000  0.50000000  1
  Li  Li3  1  0.59834587  0.70806099  0.20994531  1
  Li  Li4  1  0.77372173  0.07928214  0.59505649  1
  Nb  Nb5  1  0.09528747  0.68756516  0.67838169  1
  Nb  Nb6  1  0.90471253  0.31243484  0.32161831  1
  V  V7  1  0.69307328  0.88210818  0.89583922  1
  V  V8  1  0.30692672  0.11789182  0.10416078  1
  V  V9  1  0.00000000  0.50000000  0.00000000  1
  O  O10  1  0.04037193  0.09974177  0.85390631  1
  O  O11  1  0.33426415  0.70084834  0.94488767  1
  O  O12  1  0.16539101  0.29581089  0.54860516  1
  O  O13  1  0.21925293  0.50413119  0.24719245  1
  O  O14  1  0.42581082  0.88167009  0.65202912  1
  O  O15  1  0.57418918  0.11832991  0.34797088  1
  O  O16  1  0.78074707  0.49586881  0.75280755  1
  O  O17  1  0.83460899  0.70418911  0.45139484  1
  O  O18  1  0.66573585  0.29915166  0.05511233  1
  O  O19  1  0.95962807  0.90025823  0.14609369  1
