# generated using pymatgen
data_Fe10O11F9
_symmetry_space_group_name_H-M   'P 1'
_cell_length_a   4.77614915
_cell_length_b   4.77596138
_cell_length_c   15.30947710
_cell_angle_alpha   90.00000000
_cell_angle_beta   90.00000000
_cell_angle_gamma   95.29698674
_symmetry_Int_Tables_number   1
_chemical_formula_structural   Fe10O11F9
_chemical_formula_sum   'Fe10 O11 F9'
_cell_volume   347.72862419
_cell_formula_units_Z   1
loop_
 _symmetry_equiv_pos_site_id
 _symmetry_equiv_pos_as_xyz
  1  'x, y, z'
loop_
 _atom_site_type_symbol
 _atom_site_label
 _atom_site_symmetry_multiplicity
 _atom_site_fract_x
 _atom_site_fract_y
 _atom_site_fract_z
 _atom_site_occupancy
  Fe  Fe0  1  0.00573144  0.98523730  0.99276888  1
  Fe  Fe1  1  0.99983688  0.99855317  0.19775937  1
  Fe  Fe2  1  0.99983688  0.99855317  0.40224063  1
  Fe  Fe3  1  0.00573144  0.98523730  0.60723112  1
  Fe  Fe4  1  0.04574064  0.00678996  0.80000000  1
  Fe  Fe5  1  0.50479733  0.49334818  0.10002231  1
  Fe  Fe6  1  0.50479733  0.49334818  0.49997769  1
  Fe  Fe7  1  0.49887457  0.49864908  0.30000000  1
  Fe  Fe8  1  0.45932103  0.52206248  0.69471932  1
  Fe  Fe9  1  0.45932103  0.52206248  0.90528068  1
  O  O10  1  0.19338311  0.81415630  0.70042483  1
  O  O11  1  0.19338311  0.81415630  0.89957517  1
  O  O12  1  0.29721941  0.29985825  0.00479641  1
  O  O13  1  0.30310744  0.29812402  0.20014586  1
  O  O14  1  0.30310744  0.29812402  0.39985414  1
  O  O15  1  0.29721941  0.29985825  0.59520359  1
  O  O16  1  0.31628525  0.32364643  0.80000000  1
  O  O17  1  0.69376436  0.69482985  0.00238911  1
  O  O18  1  0.69889157  0.69562298  0.20002562  1
  O  O19  1  0.69889157  0.69562298  0.39997438  1
  O  O20  1  0.69376436  0.69482985  0.59761089  1
  F  F21  1  0.19029222  0.80285857  0.10021457  1
  F  F22  1  0.19043242  0.80669609  0.30000000  1
  F  F23  1  0.19029222  0.80285857  0.49978543  1
  F  F24  1  0.70369863  0.70837903  0.80000000  1
  F  F25  1  0.80834999  0.18723643  0.09912391  1
  F  F26  1  0.80834999  0.18723643  0.50087609  1
  F  F27  1  0.80999382  0.18903070  0.30000000  1
  F  F28  1  0.81279306  0.19151582  0.89768652  1
  F  F29  1  0.81279306  0.19151582  0.70231348  1
