# generated using pymatgen
data_Li6Ti15Co3O32
_symmetry_space_group_name_H-M   'P 1'
_cell_length_a   8.47032492
_cell_length_b   8.46934696
_cell_length_c   8.46895168
_cell_angle_alpha   90.12966446
_cell_angle_beta   90.12310467
_cell_angle_gamma   89.86966510
_symmetry_Int_Tables_number   1
_chemical_formula_structural   Li6Ti15Co3O32
_chemical_formula_sum   'Li6 Ti15 Co3 O32'
_cell_volume   607.54215380
_cell_formula_units_Z   1
loop_
 _symmetry_equiv_pos_site_id
 _symmetry_equiv_pos_as_xyz
  1  'x, y, z'
loop_
 _atom_site_type_symbol
 _atom_site_label
 _atom_site_symmetry_multiplicity
 _atom_site_fract_x
 _atom_site_fract_y
 _atom_site_fract_z
 _atom_site_occupancy
  Li  Li0  1  0.24871698  0.74866474  0.75099599  1
  Li  Li1  1  0.25152584  0.25209653  0.24989930  1
  Li  Li2  1  0.50119207  0.00132268  0.49894377  1
  Li  Li3  1  0.75029528  0.75164799  0.24799173  1
  Li  Li4  1  0.75211749  0.25031664  0.74826733  1
  Li  Li5  1  0.87540702  0.37509360  0.12437671  1
  Ti  Ti6  1  0.11674030  0.61821204  0.12548088  1
  Ti  Ti7  1  0.11854685  0.37462101  0.88344010  1
  Ti  Ti8  1  0.12570647  0.87766891  0.37699862  1
  Ti  Ti9  1  0.12616421  0.12207729  0.62179158  1
  Ti  Ti10  1  0.37760545  0.87810368  0.12613098  1
  Ti  Ti11  1  0.37751633  0.12307746  0.87450943  1
  Ti  Ti12  1  0.37813828  0.62625328  0.37786808  1
  Ti  Ti13  1  0.37796409  0.37408565  0.62228349  1
  Ti  Ti14  1  0.62196746  0.87841972  0.87375320  1
  Ti  Ti15  1  0.62733958  0.12864048  0.12487203  1
  Ti  Ti16  1  0.62308648  0.62560552  0.62223204  1
  Ti  Ti17  1  0.62868565  0.37543390  0.37267550  1
  Ti  Ti18  1  0.87479932  0.61638149  0.88192013  1
  Ti  Ti19  1  0.87402288  0.87737874  0.62179365  1
  Ti  Ti20  1  0.87503734  0.12729912  0.37160587  1
  Co  Co21  1  0.99955373  0.49801651  0.50014603  1
  Co  Co22  1  0.49971301  0.49976477  0.00181631  1
  Co  Co23  1  0.99802062  0.99928187  0.00043417  1
  O  O24  1  0.11351497  0.11355707  0.38622077  1
  O  O25  1  0.11245299  0.61252989  0.88749998  1
  O  O26  1  0.11337522  0.88648639  0.61313459  1
  O  O27  1  0.13370730  0.13493488  0.86583316  1
  O  O28  1  0.12607150  0.39118482  0.10926481  1
  O  O29  1  0.13423614  0.63378301  0.36518156  1
  O  O30  1  0.13805432  0.36428593  0.63723573  1
  O  O31  1  0.13721520  0.86319748  0.13495805  1
  O  O32  1  0.36232675  0.13735722  0.63807184  1
  O  O33  1  0.36277846  0.63812988  0.13568210  1
  O  O34  1  0.36334417  0.36522658  0.86289134  1
  O  O35  1  0.38711968  0.61344096  0.61365456  1
  O  O36  1  0.36198633  0.86252243  0.36289976  1
  O  O37  1  0.38777227  0.11137540  0.11288931  1
  O  O38  1  0.38857015  0.38769368  0.38945264  1
  O  O39  1  0.38644078  0.88691521  0.88664542  1
  O  O40  1  0.61140432  0.38721227  0.61203694  1
  O  O41  1  0.61043503  0.88861002  0.11239681  1
  O  O42  1  0.61375105  0.61378176  0.38629353  1
  O  O43  1  0.62407551  0.36121620  0.13946977  1
  O  O44  1  0.61356947  0.11386967  0.88647807  1
  O  O45  1  0.63738125  0.86202426  0.63752978  1
  O  O46  1  0.63771295  0.13786714  0.36240750  1
  O  O47  1  0.63516329  0.63436503  0.86612957  1
  O  O48  1  0.86135626  0.36042994  0.37529210  1
  O  O49  1  0.86405738  0.86272489  0.86173349  1
  O  O50  1  0.86024650  0.12385420  0.13884375  1
  O  O51  1  0.88726612  0.88767603  0.38863252  1
  O  O52  1  0.86519689  0.63706041  0.63669833  1
  O  O53  1  0.89125450  0.39078669  0.87421754  1
  O  O54  1  0.88754680  0.11047134  0.61134278  1
  O  O55  1  0.89075070  0.62598367  0.10877596  1
