# generated using pymatgen
data_Na5Bi2As(CO4)4
_symmetry_space_group_name_H-M   'P 1'
_cell_length_a   10.44947592
_cell_length_b   10.43570992
_cell_length_c   18.15361700
_cell_angle_alpha   90.27168247
_cell_angle_beta   72.67365898
_cell_angle_gamma   119.69212599
_symmetry_Int_Tables_number   1
_chemical_formula_structural   Na5Bi2As(CO4)4
_chemical_formula_sum   'Na20 Bi8 As4 C16 O64'
_cell_volume   1617.13971533
_cell_formula_units_Z   4
loop_
 _symmetry_equiv_pos_site_id
 _symmetry_equiv_pos_as_xyz
  1  'x, y, z'
loop_
 _atom_site_type_symbol
 _atom_site_label
 _atom_site_symmetry_multiplicity
 _atom_site_fract_x
 _atom_site_fract_y
 _atom_site_fract_z
 _atom_site_occupancy
  Na  Na0  1  0.92217932  0.40467749  0.16105206  1
  Na  Na1  1  0.67885916  0.28457555  0.53506938  1
  Na  Na2  1  0.68022326  0.78574147  0.03523695  1
  Na  Na3  1  0.92574017  0.71294680  0.46483041  1
  Na  Na4  1  0.33078347  0.41191427  0.15701805  1
  Na  Na5  1  0.93134767  0.21520676  0.96372055  1
  Na  Na6  1  0.32171888  0.10529246  0.46327745  1
  Na  Na7  1  0.92601276  0.02262989  0.16441168  1
  Na  Na8  1  0.93081036  0.51182606  0.65735239  1
  Na  Na9  1  0.07241585  0.09163593  0.33982652  1
  Na  Na10  1  0.93448983  0.91716147  0.66059587  1
  Na  Na11  1  0.06832527  0.78438600  0.03409187  1
  Na  Na12  1  0.06858997  0.47682285  0.34052315  1
  Na  Na13  1  0.68275675  0.58995206  0.84057095  1
  Na  Na14  1  0.68118354  0.89748654  0.53426790  1
  Na  Na15  1  0.32142729  0.21376192  0.96394284  1
  Na  Na16  1  0.32198879  0.71441083  0.46428890  1
  Na  Na17  1  0.31237667  0.90890920  0.66431823  1
  Na  Na18  1  0.32237641  0.60978020  0.96479909  1
  Na  Na19  1  0.06855363  0.58778719  0.83979527  1
  Bi  Bi20  1  0.50359390  0.00689044  0.99947320  1
  Bi  Bi21  1  0.50533197  0.24980414  0.24827223  1
  Bi  Bi22  1  0.49241378  0.49608154  0.49932785  1
  Bi  Bi23  1  0.50290856  0.75447694  0.25215687  1
  Bi  Bi24  1  0.49536744  0.24545782  0.75183113  1
  Bi  Bi25  1  0.50267744  0.75364804  0.75079722  1
  Bi  Bi26  1  0.99501633  0.74733334  0.25032244  1
  Bi  Bi27  1  0.00234736  0.24645388  0.74807810  1
  As  As28  1  0.87481027  0.18719525  0.43754240  1
  As  As29  1  0.12673144  0.31427159  0.06254803  1
  As  As30  1  0.87536637  0.68773609  0.93747493  1
  As  As31  1  0.12307664  0.81057266  0.56250941  1
  C  C32  1  0.66793089  0.07877730  0.13643565  1
  C  C33  1  0.27122314  0.07832232  0.14153896  1
  C  C34  1  0.71885757  0.42097088  0.36075144  1
  C  C35  1  0.72209531  0.61284256  0.17067790  1
  C  C36  1  0.71829240  0.11015576  0.67078141  1
  C  C37  1  0.34164987  0.41922830  0.35797930  1
  C  C38  1  0.72155452  0.79889504  0.36042244  1
  C  C39  1  0.71988951  0.30081299  0.85769229  1
  C  C40  1  0.28532365  0.19541252  0.63692990  1
  C  C41  1  0.27962736  0.69710576  0.13925614  1
  C  C42  1  0.66387393  0.58093049  0.63917559  1
  C  C43  1  0.28084566  0.58777564  0.64108460  1
  C  C44  1  0.27122128  0.88612054  0.33288977  1
  C  C45  1  0.27993962  0.39602293  0.83274051  1
  C  C46  1  0.71698214  0.91811348  0.85969471  1
  C  C47  1  0.34052113  0.91939192  0.86203462  1
  O  O48  1  0.67133006  0.12899764  0.07019191  1
  O  O49  1  0.93651697  0.07617841  0.46763274  1
  O  O50  1  0.95595854  0.22682066  0.33608713  1
  O  O51  1  0.66903613  0.15264331  0.19394446  1
  O  O52  1  0.28402843  0.02629513  0.07587218  1
  O  O53  1  0.93487267  0.35927216  0.46839436  1
  O  O54  1  0.67193153  0.08654160  0.47784779  1
  O  O55  1  0.83828853  0.98825755  0.79667629  1
  O  O56  1  0.71371738  0.48485867  0.17677046  1
  O  O57  1  0.85039593  0.48612774  0.30211336  1
  O  O58  1  0.38707136  0.20043018  0.14875325  1
  O  O59  1  0.59559884  0.30344150  0.35562817  1
  O  O60  1  0.83937341  0.22842978  0.67730398  1
  O  O61  1  0.85271206  0.73479612  0.16615051  1
  O  O62  1  0.28427409  0.01707724  0.33178390  1
  O  O63  1  0.32889674  0.41450865  0.02698443  1
  O  O64  1  0.05731192  0.14405423  0.03067667  1
  O  O65  1  0.71086154  0.47594514  0.42594971  1
  O  O66  1  0.60193814  0.62086089  0.16966131  1
  O  O67  1  0.59810421  0.11830944  0.66879881  1
  O  O68  1  0.33854084  0.34967140  0.29788477  1
  O  O69  1  0.85130915  0.80677152  0.35864476  1
  O  O70  1  0.84925938  0.30605016  0.85338445  1
  O  O71  1  0.05840689  0.41435345  0.02892534  1
  O  O72  1  0.06289320  0.28466817  0.16361240  1
  O  O73  1  0.66769136  0.95385512  0.14414011  1
  O  O74  1  0.66452821  0.45671119  0.64467217  1
  O  O75  1  0.40282262  0.26176053  0.57061057  1
  O  O76  1  0.39814225  0.76154236  0.07397484  1
  O  O77  1  0.71538586  0.85033813  0.29753593  1
  O  O78  1  0.34831019  0.36497731  0.41983659  1
  O  O79  1  0.71329169  0.36612817  0.79888129  1
  O  O80  1  0.66281135  0.63390995  0.57470213  1
  O  O81  1  0.29136075  0.63947958  0.19859315  1
  O  O82  1  0.30134405  0.13567093  0.69350222  1
  O  O83  1  0.34813715  0.04695792  0.85829356  1
  O  O84  1  0.60067704  0.73836338  0.42470359  1
  O  O85  1  0.59629129  0.23085407  0.91995753  1
  O  O86  1  0.33818491  0.54233916  0.35512658  1
  O  O87  1  0.95606629  0.59578025  0.96762039  1
  O  O88  1  0.93725573  0.70871439  0.83600127  1
  O  O89  1  0.15412367  0.18685887  0.64461668  1
  O  O90  1  0.14816309  0.68839180  0.14450058  1
  O  O91  1  0.66666444  0.65316311  0.69807639  1
  O  O92  1  0.38558196  0.87089736  0.33529549  1
  O  O93  1  0.29391076  0.53983228  0.57501896  1
  O  O94  1  0.39728465  0.38257065  0.83320334  1
  O  O95  1  0.67243780  0.59625149  0.96838610  1
  O  O96  1  0.93586791  0.85021042  0.97777559  1
  O  O97  1  0.71315311  0.98339165  0.66672562  1
  O  O98  1  0.39759517  0.71268784  0.64781818  1
  O  O99  1  0.14998461  0.28093359  0.83274266  1
  O  O100  1  0.14004822  0.76857626  0.33327075  1
  O  O101  1  0.59803723  0.78987035  0.85826545  1
  O  O102  1  0.29336219  0.52761292  0.83402179  1
  O  O103  1  0.15107386  0.51463581  0.70066380  1
  O  O104  1  0.13833785  0.00708974  0.19996552  1
  O  O105  1  0.32521975  0.91207383  0.53041151  1
  O  O106  1  0.05794871  0.64394765  0.52708862  1
  O  O107  1  0.71136926  0.97405000  0.92418822  1
  O  O108  1  0.33739201  0.85013072  0.80194520  1
  O  O109  1  0.05685090  0.91276937  0.52885627  1
  O  O110  1  0.05167352  0.77322612  0.66358764  1
  O  O111  1  0.33736213  0.86037891  0.92634304  1
