# generated using pymatgen
data_Cr3Ni(PO4)6
_symmetry_space_group_name_H-M   'P 1'
_cell_length_a   8.79287109
_cell_length_b   8.79287107
_cell_length_c   8.79287084
_cell_angle_alpha   58.42366628
_cell_angle_beta   58.42366053
_cell_angle_gamma   58.42366292
_symmetry_Int_Tables_number   1
_chemical_formula_structural   Cr3Ni(PO4)6
_chemical_formula_sum   'Cr3 Ni1 P6 O24'
_cell_volume   463.36171011
_cell_formula_units_Z   1
loop_
 _symmetry_equiv_pos_site_id
 _symmetry_equiv_pos_as_xyz
  1  'x, y, z'
loop_
 _atom_site_type_symbol
 _atom_site_label
 _atom_site_symmetry_multiplicity
 _atom_site_fract_x
 _atom_site_fract_y
 _atom_site_fract_z
 _atom_site_occupancy
  Cr  Cr0  1  0.14240178  0.14240178  0.14240178  1
  Cr  Cr1  1  0.35783598  0.35783598  0.35783598  1
  Cr  Cr2  1  0.64266882  0.64266882  0.64266882  1
  Ni  Ni3  1  0.85638222  0.85638222  0.85638222  1
  P  P4  1  0.03306247  0.75125405  0.46575282  1
  P  P5  1  0.46575282  0.03306247  0.75125405  1
  P  P6  1  0.75125405  0.46575282  0.03306247  1
  P  P7  1  0.25193892  0.53219225  0.96571352  1
  P  P8  1  0.53219225  0.96571352  0.25193892  1
  P  P9  1  0.96571352  0.25193892  0.53219225  1
  O  O10  1  0.13410992  0.28921498  0.50146625  1
  O  O11  1  0.28921498  0.50146625  0.13410992  1
  O  O12  1  0.05621287  0.92714139  0.28459506  1
  O  O13  1  0.50146625  0.13410992  0.28921498  1
  O  O14  1  0.21920112  0.58229196  0.42576701  1
  O  O15  1  0.02207519  0.76183164  0.63919671  1
  O  O16  1  0.28459506  0.05621287  0.92714139  1
  O  O17  1  0.42576701  0.21920112  0.58229196  1
  O  O18  1  0.58229196  0.42576701  0.21920112  1
  O  O19  1  0.22056461  0.36274841  0.99081120  1
  O  O20  1  0.07818801  0.71399647  0.94919173  1
  O  O21  1  0.36274841  0.99081120  0.22056461  1
  O  O22  1  0.63919671  0.02207519  0.76183164  1
  O  O23  1  0.92714139  0.28459506  0.05621287  1
  O  O24  1  0.76183164  0.63919671  0.02207519  1
  O  O25  1  0.42333586  0.56180366  0.78042392  1
  O  O26  1  0.56180366  0.78042392  0.42333586  1
  O  O27  1  0.71399647  0.94919173  0.07818801  1
  O  O28  1  0.99081120  0.22056461  0.36274841  1
  O  O29  1  0.78042392  0.42333586  0.56180366  1
  O  O30  1  0.49326573  0.86077314  0.72259130  1
  O  O31  1  0.94919173  0.07818801  0.71399647  1
  O  O32  1  0.72259130  0.49326573  0.86077314  1
  O  O33  1  0.86077314  0.72259130  0.49326573  1
