# generated using pymatgen
data_Li4Mn2Co5O12
_symmetry_space_group_name_H-M   'P 1'
_cell_length_a   5.00743841
_cell_length_b   8.86290831
_cell_length_c   9.86533015
_cell_angle_alpha   90.06182476
_cell_angle_beta   101.00814087
_cell_angle_gamma   89.98284943
_symmetry_Int_Tables_number   1
_chemical_formula_structural   Li4Mn2Co5O12
_chemical_formula_sum   'Li8 Mn4 Co10 O24'
_cell_volume   429.77170481
_cell_formula_units_Z   2
loop_
 _symmetry_equiv_pos_site_id
 _symmetry_equiv_pos_as_xyz
  1  'x, y, z'
loop_
 _atom_site_type_symbol
 _atom_site_label
 _atom_site_symmetry_multiplicity
 _atom_site_fract_x
 _atom_site_fract_y
 _atom_site_fract_z
 _atom_site_occupancy
  Li  Li0  1  0.24879447  0.08721092  0.98941687  1
  Li  Li1  1  0.75669212  0.07527128  0.51146483  1
  Li  Li2  1  0.49163855  0.41970504  0.75449952  1
  Li  Li3  1  0.74231831  0.42476099  0.51278778  1
  Li  Li4  1  0.25175069  0.58740399  0.51014915  1
  Li  Li5  1  0.74436838  0.57547774  0.98856627  1
  Li  Li6  1  0.00855790  0.91952006  0.74578224  1
  Li  Li7  1  0.75772913  0.92430856  0.98694194  1
  Mn  Mn8  1  0.00091391  0.25316711  0.75271321  1
  Mn  Mn9  1  0.49852055  0.24988649  0.24822512  1
  Mn  Mn10  1  0.00110096  0.75002803  0.25185801  1
  Mn  Mn11  1  0.49916274  0.75308086  0.74719196  1
  Co  Co12  1  0.99332925  0.08039122  0.25333729  1
  Co  Co13  1  0.50032902  0.08091200  0.74752114  1
  Co  Co14  1  0.25497970  0.24989085  0.50861611  1
  Co  Co15  1  0.00457864  0.41771511  0.24878822  1
  Co  Co16  1  0.74285466  0.26337914  0.98918880  1
  Co  Co17  1  0.99957857  0.58086816  0.75235000  1
  Co  Co18  1  0.50659683  0.58003824  0.24647142  1
  Co  Co19  1  0.24534220  0.74977628  0.99170944  1
  Co  Co20  1  0.75720336  0.76342096  0.51094368  1
  Co  Co21  1  0.49543513  0.91755305  0.25165290  1
  O  O22  1  0.13515935  0.10166358  0.63994958  1
  O  O23  1  0.38035210  0.10014831  0.36212393  1
  O  O24  1  0.37613618  0.23231046  0.85934405  1
  O  O25  1  0.12865669  0.23529430  0.13655488  1
  O  O26  1  0.62126391  0.09901765  0.13100528  1
  O  O27  1  0.86488540  0.09690784  0.86311231  1
  O  O28  1  0.10471400  0.41180243  0.63717974  1
  O  O29  1  0.62976107  0.23596859  0.63583719  1
  O  O30  1  0.38997700  0.40573745  0.36622368  1
  O  O31  1  0.86674607  0.24405719  0.36648774  1
  O  O32  1  0.61704537  0.41171860  0.13921184  1
  O  O33  1  0.88040515  0.41127015  0.86116741  1
  O  O34  1  0.11918362  0.59961489  0.13819708  1
  O  O35  1  0.36468759  0.60206771  0.86011380  1
  O  O36  1  0.12359787  0.73203948  0.64055665  1
  O  O37  1  0.63495469  0.59661574  0.63697822  1
  O  O38  1  0.37137846  0.73596834  0.36326947  1
  O  O39  1  0.87798447  0.59984622  0.36921773  1
  O  O40  1  0.10988558  0.90525803  0.13360255  1
  O  O41  1  0.87003475  0.73628205  0.86410054  1
  O  O42  1  0.39524492  0.91219362  0.86267445  1
  O  O43  1  0.63312983  0.74355550  0.13336628  1
  O  O44  1  0.61966531  0.91101459  0.63876052  1
  O  O45  1  0.88337455  0.91249017  0.36078920  1
