# generated using pymatgen
data_SbO2
_symmetry_space_group_name_H-M   'P 1'
_cell_length_a   6.15613526
_cell_length_b   6.15613547
_cell_length_c   6.38222820
_cell_angle_alpha   58.77746674
_cell_angle_beta   58.77747976
_cell_angle_gamma   73.21018788
_symmetry_Int_Tables_number   1
_chemical_formula_structural   SbO2
_chemical_formula_sum   'Sb4 O8'
_cell_volume   176.81488982
_cell_formula_units_Z   4
loop_
 _symmetry_equiv_pos_site_id
 _symmetry_equiv_pos_as_xyz
  1  'x, y, z'
loop_
 _atom_site_type_symbol
 _atom_site_label
 _atom_site_symmetry_multiplicity
 _atom_site_fract_x
 _atom_site_fract_y
 _atom_site_fract_z
 _atom_site_occupancy
  Sb  Sb0  1  0.05890590  0.05890590  0.94109410  1
  Sb  Sb1  1  0.19109410  0.19109410  0.30890590  1
  Sb  Sb2  1  0.62500000  0.62500000  0.12500000  1
  Sb  Sb3  1  0.62500000  0.62500000  0.62500000  1
  O  O4  1  0.36093213  0.36093213  0.38085747  1
  O  O5  1  0.44757312  0.80553179  0.37344755  1
  O  O6  1  0.36093213  0.36093213  0.89727828  1
  O  O7  1  0.80553179  0.44757312  0.37344755  1
  O  O8  1  0.44446821  0.80242688  0.87655245  1
  O  O9  1  0.80242688  0.44446821  0.87655245  1
  O  O10  1  0.88906787  0.88906787  0.35272172  1
  O  O11  1  0.88906787  0.88906787  0.86914253  1
