# generated using pymatgen
data_VNi3(PO4)4
_symmetry_space_group_name_H-M   'P 1'
_cell_length_a   4.82370774
_cell_length_b   9.91097180
_cell_length_c   5.79747190
_cell_angle_alpha   90.00000000
_cell_angle_beta   90.00000000
_cell_angle_gamma   90.94171684
_symmetry_Int_Tables_number   1
_chemical_formula_structural   VNi3(PO4)4
_chemical_formula_sum   'V1 Ni3 P4 O16'
_cell_volume   277.12596360
_cell_formula_units_Z   1
loop_
 _symmetry_equiv_pos_site_id
 _symmetry_equiv_pos_as_xyz
  1  'x, y, z'
loop_
 _atom_site_type_symbol
 _atom_site_label
 _atom_site_symmetry_multiplicity
 _atom_site_fract_x
 _atom_site_fract_y
 _atom_site_fract_z
 _atom_site_occupancy
  V  V0  1  0.97189854  0.27531513  0.25000000  1
  Ni  Ni1  1  0.03081838  0.72799202  0.75000000  1
  Ni  Ni2  1  0.46137691  0.22695138  0.75000000  1
  Ni  Ni3  1  0.53801351  0.76750401  0.25000000  1
  P  P4  1  0.07972240  0.59947697  0.25000000  1
  P  P5  1  0.39333956  0.09465312  0.25000000  1
  P  P6  1  0.59553865  0.90291898  0.75000000  1
  P  P7  1  0.93559222  0.40933099  0.75000000  1
  O  O8  1  0.14426199  0.43720026  0.25000000  1
  O  O9  1  0.23525321  0.66303671  0.04234935  1
  O  O10  1  0.23525321  0.66303671  0.45765065  1
  O  O11  1  0.24520615  0.39394310  0.75000000  1
  O  O12  1  0.27838790  0.88829001  0.75000000  1
  O  O13  1  0.24032330  0.17489978  0.05065418  1
  O  O14  1  0.24032330  0.17489978  0.44934582  1
  O  O15  1  0.34115587  0.94726295  0.25000000  1
  O  O16  1  0.65841759  0.05505971  0.75000000  1
  O  O17  1  0.74026098  0.83096827  0.54305056  1
  O  O18  1  0.74026098  0.83096827  0.95694944  1
  O  O19  1  0.70656319  0.13443670  0.25000000  1
  O  O20  1  0.76967068  0.60280695  0.25000000  1
  O  O21  1  0.79595835  0.32448860  0.53855005  1
  O  O22  1  0.79595835  0.32448860  0.96144995  1
  O  O23  1  0.82644477  0.55007099  0.75000000  1
