# generated using pymatgen
data_V3CuO8
_symmetry_space_group_name_H-M   'P 1'
_cell_length_a   8.27367970
_cell_length_b   8.27371898
_cell_length_c   8.27388598
_cell_angle_alpha   90.00163532
_cell_angle_beta   90.00152037
_cell_angle_gamma   90.00166858
_symmetry_Int_Tables_number   1
_chemical_formula_structural   V3CuO8
_chemical_formula_sum   'V12 Cu4 O32'
_cell_volume   566.38142429
_cell_formula_units_Z   4
loop_
 _symmetry_equiv_pos_site_id
 _symmetry_equiv_pos_as_xyz
  1  'x, y, z'
loop_
 _atom_site_type_symbol
 _atom_site_label
 _atom_site_symmetry_multiplicity
 _atom_site_fract_x
 _atom_site_fract_y
 _atom_site_fract_z
 _atom_site_occupancy
  V  V0  1  0.10997532  0.62442758  0.13250207  1
  V  V1  1  0.12437849  0.36746873  0.89007568  1
  V  V2  1  0.13248408  0.10997207  0.62443097  1
  V  V3  1  0.36746578  0.89004434  0.12438861  1
  V  V4  1  0.37561030  0.63251649  0.39002711  1
  V  V5  1  0.39002114  0.37560251  0.63252184  1
  V  V6  1  0.60996284  0.87559032  0.86751281  1
  V  V7  1  0.62440364  0.13250303  0.10996013  1
  V  V8  1  0.63251165  0.39002817  0.37561758  1
  V  V9  1  0.86750096  0.60997672  0.87559242  1
  V  V10  1  0.87558383  0.86751991  0.60996582  1
  V  V11  1  0.89006458  0.12438727  0.36744354  1
  Cu  Cu12  1  0.00179528  0.49821120  0.50180218  1
  Cu  Cu13  1  0.49820733  0.50179077  0.00179824  1
  Cu  Cu14  1  0.50179243  0.00179032  0.49820812  1
  Cu  Cu15  1  0.99824230  0.99823793  0.99823555  1
  O  O16  1  0.10075265  0.13182210  0.39279446  1
  O  O17  1  0.10720651  0.89924902  0.63183884  1
  O  O18  1  0.10915587  0.60914954  0.89088075  1
  O  O19  1  0.13182870  0.39278958  0.10077002  1
  O  O20  1  0.11598749  0.14791861  0.85691089  1
  O  O21  1  0.13829209  0.36168985  0.63830554  1
  O  O22  1  0.14311905  0.61601726  0.35205877  1
  O  O23  1  0.14791158  0.85691126  0.11598213  1
  O  O24  1  0.35205709  0.14312644  0.61601530  1
  O  O25  1  0.35686442  0.38399661  0.85207644  1
  O  O26  1  0.36168551  0.63830858  0.13828282  1
  O  O27  1  0.38398399  0.85207676  0.35685073  1
  O  O28  1  0.36817762  0.60721089  0.60074969  1
  O  O29  1  0.39085014  0.39084971  0.39085016  1
  O  O30  1  0.39278962  0.10076113  0.13182330  1
  O  O31  1  0.39923374  0.86816127  0.89279787  1
  O  O32  1  0.60075234  0.36818109  0.60719447  1
  O  O33  1  0.60720991  0.60074995  0.36816398  1
  O  O34  1  0.60915022  0.89086743  0.10914047  1
  O  O35  1  0.63183893  0.10720744  0.89925331  1
  O  O36  1  0.61600500  0.35205619  0.14311635  1
  O  O37  1  0.63830642  0.13828771  0.36167100  1
  O  O38  1  0.64313272  0.88400069  0.64794687  1
  O  O39  1  0.64793197  0.64312369  0.88400662  1
  O  O40  1  0.85207901  0.35685813  0.38397098  1
  O  O41  1  0.85690876  0.11598243  0.14791067  1
  O  O42  1  0.86170995  0.86170130  0.86171678  1
  O  O43  1  0.88399331  0.64793830  0.64313911  1
  O  O44  1  0.86816085  0.89279333  0.39924387  1
  O  O45  1  0.89087189  0.10914567  0.60915719  1
  O  O46  1  0.89280548  0.39924382  0.86817186  1
  O  O47  1  0.89924822  0.63183889  0.10720809  1
