# generated using pymatgen
data_Ti3Mn3(TeO8)2
_symmetry_space_group_name_H-M   'P 1'
_cell_length_a   6.17978099
_cell_length_b   6.01539970
_cell_length_c   9.28623411
_cell_angle_alpha   89.98423995
_cell_angle_beta   92.48994455
_cell_angle_gamma   119.04225580
_symmetry_Int_Tables_number   1
_chemical_formula_structural   Ti3Mn3(TeO8)2
_chemical_formula_sum   'Ti3 Mn3 Te2 O16'
_cell_volume   301.42910057
_cell_formula_units_Z   1
loop_
 _symmetry_equiv_pos_site_id
 _symmetry_equiv_pos_as_xyz
  1  'x, y, z'
loop_
 _atom_site_type_symbol
 _atom_site_label
 _atom_site_symmetry_multiplicity
 _atom_site_fract_x
 _atom_site_fract_y
 _atom_site_fract_z
 _atom_site_occupancy
  Ti  Ti0  1  0.17542836  0.83670737  0.20701364  1
  Ti  Ti1  1  0.17486261  0.33868833  0.20731428  1
  Ti  Ti2  1  0.33224957  0.16563629  0.71455026  1
  Mn  Mn3  1  0.66073901  0.82989802  0.20272116  1
  Mn  Mn4  1  0.83068797  0.66154395  0.70428054  1
  Mn  Mn5  1  0.83127715  0.16957470  0.70393489  1
  Te  Te6  1  0.34059209  0.66995492  0.48744511  1
  Te  Te7  1  0.66981903  0.33546828  0.98702048  1
  O  O8  1  0.20314555  0.83578962  0.60412968  1
  O  O9  1  0.05158608  0.52628521  0.34582998  1
  O  O10  1  0.29064575  0.64513722  0.10262475  1
  O  O11  1  0.02412989  0.01214492  0.29136530  1
  O  O12  1  0.00658824  0.00307026  0.79029926  1
  O  O13  1  0.20209091  0.36614598  0.60431000  1
  O  O14  1  0.45506872  0.94802893  0.35019297  1
  O  O15  1  0.45389864  0.50499733  0.35025732  1
  O  O16  1  0.36608737  0.18314558  0.10793883  1
  O  O17  1  0.66397945  0.83112574  0.59198263  1
  O  O18  1  0.50066454  0.46072236  0.85252020  1
  O  O19  1  0.50340428  0.04164662  0.85232794  1
  O  O20  1  0.65768133  0.32913499  0.61277749  1
  O  O21  1  0.83414501  0.64787830  0.09976706  1
  O  O22  1  0.93777639  0.47037769  0.84506430  1
  O  O23  1  0.83345303  0.18709738  0.10004993  1
