# generated using pymatgen
data_Li4Mn3V3(NiO8)2
_symmetry_space_group_name_H-M   'P 1'
_cell_length_a   5.84911267
_cell_length_b   5.80346850
_cell_length_c   9.62357175
_cell_angle_alpha   90.00341282
_cell_angle_beta   89.86041951
_cell_angle_gamma   119.75528739
_symmetry_Int_Tables_number   1
_chemical_formula_structural   Li4Mn3V3(NiO8)2
_chemical_formula_sum   'Li4 Mn3 V3 Ni2 O16'
_cell_volume   283.60149622
_cell_formula_units_Z   1
loop_
 _symmetry_equiv_pos_site_id
 _symmetry_equiv_pos_as_xyz
  1  'x, y, z'
loop_
 _atom_site_type_symbol
 _atom_site_label
 _atom_site_symmetry_multiplicity
 _atom_site_fract_x
 _atom_site_fract_y
 _atom_site_fract_z
 _atom_site_occupancy
  Li  Li0  1  0.33661258  0.66835005  0.88758389  1
  Li  Li1  1  0.99274536  0.99631590  0.99815867  1
  Li  Li2  1  0.99606284  0.99807577  0.49830243  1
  Li  Li3  1  0.66815806  0.33406608  0.38957976  1
  Mn  Mn4  1  0.66064955  0.83035586  0.21534778  1
  Mn  Mn5  1  0.83037905  0.66187862  0.71500899  1
  Mn  Mn6  1  0.83043688  0.16857296  0.71499528  1
  V  V7  1  0.16675001  0.83046545  0.21461779  1
  V  V8  1  0.16677030  0.33627407  0.21461237  1
  V  V9  1  0.33563690  0.16781988  0.71478382  1
  Ni  Ni10  1  0.33490868  0.66748632  0.49177233  1
  Ni  Ni11  1  0.66907425  0.33453010  0.98823199  1
  O  O12  1  0.15865817  0.84335392  0.60774394  1
  O  O13  1  0.03999430  0.52003972  0.33016031  1
  O  O14  1  0.34216964  0.67109620  0.10585455  1
  O  O15  1  0.99069469  0.99536408  0.31365935  1
  O  O16  1  0.99241600  0.99620058  0.81317788  1
  O  O17  1  0.15855569  0.31536858  0.60770463  1
  O  O18  1  0.48306355  0.96459148  0.33087689  1
  O  O19  1  0.48298319  0.51844367  0.33085341  1
  O  O20  1  0.31272943  0.15632995  0.10709253  1
  O  O21  1  0.68672354  0.84338795  0.60667224  1
  O  O22  1  0.51971197  0.48294138  0.82976060  1
  O  O23  1  0.51987368  0.03682453  0.82980573  1
  O  O24  1  0.67390210  0.33697570  0.60731824  1
  O  O25  1  0.84232869  0.68223673  0.10740617  1
  O  O26  1  0.96557774  0.48281583  0.82934362  1
  O  O27  1  0.84243517  0.16013868  0.10741383  1
