# generated using pymatgen
data_Li9(FeO4)2
_symmetry_space_group_name_H-M   'P 1'
_cell_length_a   6.47799959
_cell_length_b   6.47795051
_cell_length_c   4.69459545
_cell_angle_alpha   89.71423661
_cell_angle_beta   90.28452401
_cell_angle_gamma   90.36005162
_symmetry_Int_Tables_number   1
_chemical_formula_structural   Li9(FeO4)2
_chemical_formula_sum   'Li9 Fe2 O8'
_cell_volume   196.99601936
_cell_formula_units_Z   1
loop_
 _symmetry_equiv_pos_site_id
 _symmetry_equiv_pos_as_xyz
  1  'x, y, z'
loop_
 _atom_site_type_symbol
 _atom_site_label
 _atom_site_symmetry_multiplicity
 _atom_site_fract_x
 _atom_site_fract_y
 _atom_site_fract_z
 _atom_site_occupancy
  Li  Li0  1  0.04942473  0.54942626  0.75000413  1
  Li  Li1  1  0.24839177  0.25176462  0.68811542  1
  Li  Li2  1  0.26711912  0.22725094  0.17715005  1
  Li  Li3  1  0.46561936  0.96562576  0.74998281  1
  Li  Li4  1  0.53596978  0.45559826  0.24589776  1
  Li  Li5  1  0.72723068  0.76713608  0.32284973  1
  Li  Li6  1  0.75176935  0.74841111  0.81188863  1
  Li  Li7  1  0.95560734  0.03598774  0.25409592  1
  Li  Li8  1  0.96835821  0.46838213  0.25000521  1
  Fe  Fe9  1  0.25328744  0.75329788  0.25000493  1
  Fe  Fe10  1  0.75060531  0.25061389  0.75000415  1
  O  O11  1  0.00681751  0.27025152  0.96171397  1
  O  O12  1  0.24181965  0.99885512  0.43933690  1
  O  O13  1  0.24634477  0.48971592  0.42201188  1
  O  O14  1  0.49470824  0.24392658  0.93657500  1
  O  O15  1  0.49885057  0.74182126  0.06066073  1
  O  O16  1  0.74394299  0.99472664  0.56341610  1
  O  O17  1  0.77022874  0.50683027  0.53829879  1
  O  O18  1  0.98971442  0.74636603  0.07798789  1
