# generated using pymatgen
data_FeNi3(PO4)4
_symmetry_space_group_name_H-M   'P 1'
_cell_length_a   4.81806425
_cell_length_b   9.95478444
_cell_length_c   5.82864147
_cell_angle_alpha   90.00000000
_cell_angle_beta   90.00000000
_cell_angle_gamma   89.96187606
_symmetry_Int_Tables_number   1
_chemical_formula_structural   FeNi3(PO4)4
_chemical_formula_sum   'Fe1 Ni3 P4 O16'
_cell_volume   279.55785071
_cell_formula_units_Z   1
loop_
 _symmetry_equiv_pos_site_id
 _symmetry_equiv_pos_as_xyz
  1  'x, y, z'
loop_
 _atom_site_type_symbol
 _atom_site_label
 _atom_site_symmetry_multiplicity
 _atom_site_fract_x
 _atom_site_fract_y
 _atom_site_fract_z
 _atom_site_occupancy
  Fe  Fe0  1  0.96191239  0.27250982  0.25000000  1
  Ni  Ni1  1  0.04195534  0.72716195  0.75000000  1
  Ni  Ni2  1  0.45467939  0.22662714  0.75000000  1
  Ni  Ni3  1  0.54359526  0.77299880  0.25000000  1
  P  P4  1  0.09162957  0.59699930  0.25000000  1
  P  P5  1  0.40673864  0.09218446  0.25000000  1
  P  P6  1  0.59081434  0.90447180  0.75000000  1
  P  P7  1  0.91177525  0.40526346  0.75000000  1
  O  O8  1  0.16106183  0.44616815  0.25000000  1
  O  O9  1  0.23777250  0.66961745  0.04419985  1
  O  O10  1  0.23777250  0.66961745  0.45580015  1
  O  O11  1  0.22772812  0.39158760  0.75000000  1
  O  O12  1  0.27494577  0.89038597  0.75000000  1
  O  O13  1  0.25762409  0.16780673  0.04642574  1
  O  O14  1  0.25762409  0.16780673  0.45357426  1
  O  O15  1  0.33297861  0.94298588  0.25000000  1
  O  O16  1  0.66310509  0.05412744  0.75000000  1
  O  O17  1  0.73846130  0.83082812  0.54456526  1
  O  O18  1  0.73846130  0.83082812  0.95543474  1
  O  O19  1  0.72130429  0.11335793  0.25000000  1
  O  O20  1  0.77445588  0.61016203  0.25000000  1
  O  O21  1  0.76977208  0.33091539  0.54251433  1
  O  O22  1  0.76977208  0.33091539  0.95748567  1
  O  O23  1  0.83405928  0.55467289  0.75000000  1
