# generated using pymatgen
data_LiFe2OF3
_symmetry_space_group_name_H-M   'P 1'
_cell_length_a   6.21986891
_cell_length_b   6.21986891
_cell_length_c   8.73434311
_cell_angle_alpha   90.00000000
_cell_angle_beta   90.00000000
_cell_angle_gamma   90.00000000
_symmetry_Int_Tables_number   1
_chemical_formula_structural   LiFe2OF3
_chemical_formula_sum   'Li4 Fe8 O4 F12'
_cell_volume   337.90351651
_cell_formula_units_Z   4
loop_
 _symmetry_equiv_pos_site_id
 _symmetry_equiv_pos_as_xyz
  1  'x, y, z'
loop_
 _atom_site_type_symbol
 _atom_site_label
 _atom_site_symmetry_multiplicity
 _atom_site_fract_x
 _atom_site_fract_y
 _atom_site_fract_z
 _atom_site_occupancy
  Li  Li0  1  0.25686632  0.50941019  0.24904885  1
  Li  Li1  1  0.49058981  0.25686632  0.99904885  1
  Li  Li2  1  0.50941019  0.74313368  0.49904885  1
  Li  Li3  1  0.74313368  0.49058981  0.74904885  1
  Fe  Fe4  1  0.00210957  0.24792756  0.98811296  1
  Fe  Fe5  1  0.99789043  0.75207244  0.48811296  1
  Fe  Fe6  1  0.21925506  0.26127923  0.64605633  1
  Fe  Fe7  1  0.26127923  0.78074494  0.89605633  1
  Fe  Fe8  1  0.24792756  0.99789043  0.23811296  1
  Fe  Fe9  1  0.75207244  0.00210957  0.73811296  1
  Fe  Fe10  1  0.73872077  0.21925506  0.39605633  1
  Fe  Fe11  1  0.78074494  0.73872077  0.14605633  1
  O  O12  1  0.04470715  0.75213292  0.25360341  1
  O  O13  1  0.24786708  0.04470715  0.00360341  1
  O  O14  1  0.75213292  0.95529285  0.50360341  1
  O  O15  1  0.95529285  0.24786708  0.75360341  1
  F  F16  1  0.99992387  0.26467375  0.24259875  1
  F  F17  1  0.26467375  0.00007613  0.49259875  1
  F  F18  1  0.25570623  0.52101413  0.49411199  1
  F  F19  1  0.25802900  0.49318321  0.00146872  1
  F  F20  1  0.50681679  0.25802900  0.75146872  1
  F  F21  1  0.52101413  0.74429377  0.74411199  1
  F  F22  1  0.47898587  0.25570623  0.24411199  1
  F  F23  1  0.49318321  0.74197100  0.25146872  1
  F  F24  1  0.74197100  0.50681679  0.50146872  1
  F  F25  1  0.74429377  0.47898587  0.99411199  1
  F  F26  1  0.73532625  0.99992387  0.99259875  1
  F  F27  1  0.00007613  0.73532625  0.74259875  1
