# generated using pymatgen
data_Li2CrFe3O8
_symmetry_space_group_name_H-M   'P 1'
_cell_length_a   8.45197364
_cell_length_b   8.44972939
_cell_length_c   8.38566470
_cell_angle_alpha   90.00236444
_cell_angle_beta   89.99523845
_cell_angle_gamma   89.84717560
_symmetry_Int_Tables_number   1
_chemical_formula_structural   Li2CrFe3O8
_chemical_formula_sum   'Li8 Cr4 Fe12 O32'
_cell_volume   598.87596178
_cell_formula_units_Z   4
loop_
 _symmetry_equiv_pos_site_id
 _symmetry_equiv_pos_as_xyz
  1  'x, y, z'
loop_
 _atom_site_type_symbol
 _atom_site_label
 _atom_site_symmetry_multiplicity
 _atom_site_fract_x
 _atom_site_fract_y
 _atom_site_fract_z
 _atom_site_occupancy
  Li  Li0  1  0.00170274  0.00042946  0.00370559  1
  Li  Li1  1  0.24962485  0.24845574  0.24637822  1
  Li  Li2  1  0.25029752  0.75136288  0.74620060  1
  Li  Li3  1  0.49838193  -0.00035990  0.50381293  1
  Li  Li4  1  0.50047534  0.49898542  0.00226640  1
  Li  Li5  1  0.74882439  0.25044074  0.74782255  1
  Li  Li6  1  0.75123206  0.74930453  0.24782561  1
  Li  Li7  1  -0.00035210  0.50116723  0.50220915  1
  Cr  Cr8  1  0.12615140  0.87612473  0.37497069  1
  Cr  Cr9  1  0.37361607  0.12366416  0.87491299  1
  Cr  Cr10  1  0.62303827  0.62662285  0.62501911  1
  Cr  Cr11  1  0.87712388  0.37325285  0.12538857  1
  Fe  Fe12  1  0.12689261  0.12347699  0.62471992  1
  Fe  Fe13  1  0.12479202  0.37468150  0.87747717  1
  Fe  Fe14  1  0.12356550  0.62508036  0.12447740  1
  Fe  Fe15  1  0.37627117  0.37504104  0.62394679  1
  Fe  Fe16  1  0.37548610  0.62536927  0.37732289  1
  Fe  Fe17  1  0.37302318  0.87654554  0.12484624  1
  Fe  Fe18  1  0.62415625  0.37419141  0.37499746  1
  Fe  Fe19  1  0.62481241  0.12646862  0.12539738  1
  Fe  Fe20  1  0.62457511  0.87422824  0.87279725  1
  Fe  Fe21  1  0.87534446  0.12542061  0.37262597  1
  Fe  Fe22  1  0.87513997  0.87380396  0.62569660  1
  Fe  Fe23  1  0.87582238  0.62599250  0.87502789  1
  O  O24  1  0.11501409  0.11169661  0.38501390  1
  O  O25  1  0.11377400  0.88990042  0.61045046  1
  O  O26  1  0.11624711  0.61339126  0.88550316  1
  O  O27  1  0.13827116  0.13476114  0.86487729  1
  O  O28  1  0.11693443  0.38366603  0.10634128  1
  O  O29  1  0.13548054  0.36342933  0.64437434  1
  O  O30  1  0.13869865  0.63978754  0.36561258  1
  O  O31  1  0.13896789  0.86348502  0.13958087  1
  O  O32  1  0.36087506  0.13649159  0.63958404  1
  O  O33  1  0.36016809  0.36086772  0.86555954  1
  O  O34  1  0.36433319  0.63623859  0.14507568  1
  O  O35  1  0.38311822  0.61630048  0.60581359  1
  O  O36  1  0.36169592  0.86529375  0.36479830  1
  O  O37  1  0.38390107  0.38644967  0.38538899  1
  O  O38  1  0.38626008  0.11028149  0.11055956  1
  O  O39  1  0.38475150  0.88820713  0.88520765  1
  O  O40  1  0.60885384  0.38963643  0.61510896  1
  O  O41  1  0.60865192  0.61457561  0.38610396  1
  O  O42  1  0.61419704  0.88580740  0.10455428  1
  O  O43  1  0.63992970  0.35858704  0.13486349  1
  O  O44  1  0.60972382  0.11202192  0.88478783  1
  O  O45  1  0.63682561  0.13368734  0.36417437  1
  O  O46  1  0.63350030  0.86666872  0.64470307  1
  O  O47  1  0.63577427  0.64044119  0.86391179  1
  O  O48  1  0.86447675  0.35853255  0.36418129  1
  O  O49  1  0.86649446  0.13337933  0.14447691  1
  O  O50  1  0.86345713  0.86642971  0.86430378  1
  O  O51  1  0.88956094  0.88906087  0.38469096  1
  O  O52  1  0.86034355  0.64152908  0.63485778  1
  O  O53  1  0.88602327  0.11437740  0.60475422  1
  O  O54  1  0.89250272  0.38519206  0.88596084  1
  O  O55  1  0.89119715  0.61021587  0.11511986  1
