# generated using pymatgen
data_Zn(AgO2)2
_symmetry_space_group_name_H-M   'P 1'
_cell_length_a   6.22802070
_cell_length_b   6.22801653
_cell_length_c   6.76231479
_cell_angle_alpha   57.11907709
_cell_angle_beta   57.11911486
_cell_angle_gamma   62.48685182
_symmetry_Int_Tables_number   1
_chemical_formula_structural   Zn(AgO2)2
_chemical_formula_sum   'Zn2 Ag4 O8'
_cell_volume   179.71492524
_cell_formula_units_Z   2
loop_
 _symmetry_equiv_pos_site_id
 _symmetry_equiv_pos_as_xyz
  1  'x, y, z'
loop_
 _atom_site_type_symbol
 _atom_site_label
 _atom_site_symmetry_multiplicity
 _atom_site_fract_x
 _atom_site_fract_y
 _atom_site_fract_z
 _atom_site_occupancy
  Zn  Zn0  1  0.12500000  0.62500000  0.62500000  1
  Zn  Zn1  1  0.62500000  0.12500000  0.62500000  1
  Ag  Ag2  1  0.97389587  0.97389669  0.02610372  1
  Ag  Ag3  1  0.27610413  0.27610331  0.22389628  1
  Ag  Ag4  1  0.62500000  0.62500000  0.12500000  1
  Ag  Ag5  1  0.62500000  0.62500000  0.62500000  1
  O  O6  1  0.37495741  0.37495655  0.42461668  1
  O  O7  1  0.42559314  0.84467890  0.36486398  1
  O  O8  1  0.37495741  0.37495655  0.82547136  1
  O  O9  1  0.84467976  0.42559158  0.36486433  1
  O  O10  1  0.40532024  0.82440842  0.88513567  1
  O  O11  1  0.82440686  0.40532110  0.88513602  1
  O  O12  1  0.87504259  0.87504345  0.42452864  1
  O  O13  1  0.87504259  0.87504345  0.82538332  1
