# generated using pymatgen
data_Li4Ti4VCr4O18
_symmetry_space_group_name_H-M   'P 1'
_cell_length_a   9.14791984
_cell_length_b   24.80830873
_cell_length_c   2.96165956
_cell_angle_alpha   90.00013045
_cell_angle_beta   89.99990945
_cell_angle_gamma   90.00108072
_symmetry_Int_Tables_number   1
_chemical_formula_structural   Li4Ti4VCr4O18
_chemical_formula_sum   'Li8 Ti8 V2 Cr8 O36'
_cell_volume   672.13210992
_cell_formula_units_Z   2
loop_
 _symmetry_equiv_pos_site_id
 _symmetry_equiv_pos_as_xyz
  1  'x, y, z'
loop_
 _atom_site_type_symbol
 _atom_site_label
 _atom_site_symmetry_multiplicity
 _atom_site_fract_x
 _atom_site_fract_y
 _atom_site_fract_z
 _atom_site_occupancy
  Li  Li0  1  0.19186387  0.98822387  0.00000103  1
  Li  Li1  1  0.20349505  0.18946835  0.00000151  1
  Li  Li2  1  0.29647646  0.68950973  0.00000132  1
  Li  Li3  1  0.30818681  0.48821155  0.00000070  1
  Li  Li4  1  0.69180840  0.51179305  0.00000177  1
  Li  Li5  1  0.70350291  0.31049624  0.00000148  1
  Li  Li6  1  0.79650708  0.81053010  0.00000076  1
  Li  Li7  1  0.80813283  0.01178043  0.00000159  1
  Ti  Ti8  1  0.99680829  0.10191135  0.00000175  1
  Ti  Ti9  1  0.15856258  0.80470579  0.50000109  1
  Ti  Ti10  1  0.34152055  0.30453619  0.49999953  1
  Ti  Ti11  1  0.50325590  0.60204483  0.00000180  1
  Ti  Ti12  1  0.49675159  0.39796365  0.99999748  1
  Ti  Ti13  1  0.65847129  0.69546810  0.50000083  1
  Ti  Ti14  1  0.84141981  0.19528421  0.50000034  1
  Ti  Ti15  1  0.00320319  0.89808659  0.00000227  1
  V  V16  1  0.00001570  0.50000300  0.00000275  1
  V  V17  1  0.50000635  -0.00000504  0.00000278  1
  Cr  Cr18  1  0.00289177  0.31235738  -0.00000154  1
  Cr  Cr19  1  0.15585570  0.58449273  0.49999576  1
  Cr  Cr20  1  0.34408735  0.08435521  0.50000224  1
  Cr  Cr21  1  0.49713693  0.81261042  -0.00000374  1
  Cr  Cr22  1  0.50285514  0.18739560  0.00001264  1
  Cr  Cr23  1  0.65592003  0.91563419  0.49999406  1
  Cr  Cr24  1  0.84415417  0.41551434  0.49998991  1
  Cr  Cr25  1  0.99707281  0.68763818  0.99997855  1
  O  O26  1  0.99176990  0.42323504  0.99999059  1
  O  O27  1  0.00824696  0.57677414  0.00000303  1
  O  O28  1  0.06577693  0.94209081  0.50000082  1
  O  O29  1  0.04227122  0.15811046  0.50000304  1
  O  O30  1  0.12987885  0.66342174  0.49997969  1
  O  O31  1  0.10769118  0.75487490  0.99999598  1
  O  O32  1  0.14764386  0.50221209  0.50000263  1
  O  O33  1  0.13666003  0.28968623  0.49999381  1
  O  O34  1  0.18900361  0.85473668  0.99999755  1
  O  O35  1  0.19708563  0.08162726  0.00000159  1
  O  O36  1  0.30294212  0.58180252  0.00000912  1
  O  O37  1  0.31097686  0.35457895  0.00000184  1
  O  O38  1  0.36338787  0.78990581  0.50001134  1
  O  O39  1  0.35238330  0.00213285  0.50000091  1
  O  O40  1  0.39220884  0.25467908  0.00000038  1
  O  O41  1  0.37007257  0.16324808  0.50000343  1
  O  O42  1  0.45779067  0.65826484  0.50000613  1
  O  O43  1  0.43422453  0.44198954  0.50000802  1
  O  O44  1  0.49180480  0.07674556  0.00000167  1
  O  O45  1  0.50820844  0.92323948  0.00000710  1
  O  O46  1  0.56577810  0.55801899  0.50000094  1
  O  O47  1  0.54221203  0.34174534  0.50000543  1
  O  O48  1  0.62992673  0.83674697  0.50001370  1
  O  O49  1  0.60778521  0.74532561  0.00000236  1
  O  O50  1  0.64763152  0.99785540  0.50000090  1
  O  O51  1  0.63660322  0.21009297  0.49999667  1
  O  O52  1  0.68902994  0.64542775  0.00000299  1
  O  O53  1  0.69707434  0.41820270  0.99999131  1
  O  O54  1  0.80291688  0.91836282  0.00000401  1
  O  O55  1  0.81099529  0.14525737  0.00000090  1
  O  O56  1  0.86333186  0.71031495  0.49998884  1
  O  O57  1  0.85237427  0.49779401  0.50000081  1
  O  O58  1  0.89228254  0.24511668  0.99999644  1
  O  O59  1  0.87010737  0.33657568  0.49999810  1
  O  O60  1  0.95773312  0.84188659  0.49999617  1
  O  O61  1  0.93422688  0.05791103  0.49999314  1
