# generated using pymatgen
data_NaLiCu(PO3)3
_symmetry_space_group_name_H-M   'P 1'
_cell_length_a   8.81039616
_cell_length_b   9.12133278
_cell_length_c   9.15755880
_cell_angle_alpha   90.00004990
_cell_angle_beta   89.99995521
_cell_angle_gamma   89.99973948
_symmetry_Int_Tables_number   1
_chemical_formula_structural   NaLiCu(PO3)3
_chemical_formula_sum   'Na4 Li4 Cu4 P12 O36'
_cell_volume   735.92482546
_cell_formula_units_Z   4
loop_
 _symmetry_equiv_pos_site_id
 _symmetry_equiv_pos_as_xyz
  1  'x, y, z'
loop_
 _atom_site_type_symbol
 _atom_site_label
 _atom_site_symmetry_multiplicity
 _atom_site_fract_x
 _atom_site_fract_y
 _atom_site_fract_z
 _atom_site_occupancy
  Na  Na0  1  0.86223426  0.58699543  0.89511834  1
  Na  Na1  1  0.13776745  0.08699689  0.60488214  1
  Na  Na2  1  0.63776763  0.41300570  0.39511805  1
  Na  Na3  1  0.36223149  0.91300378  0.10488170  1
  Li  Li4  1  0.12299640  0.41156193  0.83256045  1
  Li  Li5  1  0.87700583  0.91156766  0.66744158  1
  Li  Li6  1  0.37700560  0.58843376  0.33255860  1
  Li  Li7  1  0.62299225  0.08842921  0.16744248  1
  Cu  Cu8  1  0.11306902  0.85812233  0.89418933  1
  Cu  Cu9  1  0.88692920  0.35812402  0.60581045  1
  Cu  Cu10  1  0.38692881  0.14187926  0.39419060  1
  Cu  Cu11  1  0.61306914  0.64187646  0.10580877  1
  P  P12  1  0.95329788  0.17477785  0.95181486  1
  P  P13  1  0.72065725  0.93390855  0.92984342  1
  P  P14  1  0.55629879  0.44415000  0.76727704  1
  P  P15  1  0.44370391  0.94414986  0.73272301  1
  P  P16  1  0.27934604  0.43390836  0.57015701  1
  P  P17  1  0.04670242  0.67478045  0.54818498  1
  P  P18  1  0.54670068  0.82522356  0.45181386  1
  P  P19  1  0.77934517  0.06609098  0.42984395  1
  P  P20  1  0.94370056  0.55585280  0.26727590  1
  P  P21  1  0.05629673  0.05584812  0.23272205  1
  P  P22  1  0.22065392  0.56609052  0.07015452  1
  P  P23  1  0.45329915  0.32522289  0.04818560  1
  O  O24  1  0.78809692  0.09418735  0.97903660  1
  O  O25  1  0.13059773  0.61387732  0.93819026  1
  O  O26  1  0.92905729  0.33142789  0.90480795  1
  O  O27  1  0.51544393  0.31391994  0.88326096  1
  O  O28  1  0.84529127  0.84022011  0.86682008  1
  O  O29  1  0.04972199  0.08064141  0.85381725  1
  O  O30  1  0.60730844  0.57564723  0.85127449  1
  O  O31  1  0.34910600  0.87788616  0.85175528  1
  O  O32  1  0.61437482  0.98096020  0.79564716  1
  O  O33  1  0.38562863  0.48096300  0.70435143  1
  O  O34  1  0.65089717  0.37788590  0.64824796  1
  O  O35  1  0.39269371  0.07564802  0.64872859  1
  O  O36  1  0.95027385  0.58063912  0.64618333  1
  O  O37  1  0.15471150  0.34021831  0.63318207  1
  O  O38  1  0.48455591  0.81391840  0.61673870  1
  O  O39  1  0.07094127  0.83142392  0.59519168  1
  O  O40  1  0.86940467  0.11387802  0.56180739  1
  O  O41  1  0.21190296  0.59418468  0.52096360  1
  O  O42  1  0.71190151  0.90581414  0.47903649  1
  O  O43  1  0.36940653  0.38611851  0.43819506  1
  O  O44  1  0.57094120  0.66857414  0.40480497  1
  O  O45  1  0.98455725  0.68608174  0.38326035  1
  O  O46  1  0.65471423  0.15978224  0.36681729  1
  O  O47  1  0.45027640  0.91936198  0.35381676  1
  O  O48  1  0.89269490  0.42435286  0.35127884  1
  O  O49  1  0.15089418  0.12211183  0.35175529  1
  O  O50  1  0.88562877  0.01903280  0.29565052  1
  O  O51  1  0.11436839  0.51903460  0.20434722  1
  O  O52  1  0.84910309  0.62211238  0.14825020  1
  O  O53  1  0.10730815  0.92435457  0.14872442  1
  O  O54  1  0.54972074  0.41935847  0.14618496  1
  O  O55  1  0.34528509  0.65977935  0.13318297  1
  O  O56  1  0.01544197  0.18608147  0.11674086  1
  O  O57  1  0.42905859  0.16857100  0.09518998  1
  O  O58  1  0.63059572  0.88612224  0.06180666  1
  O  O59  1  0.28809664  0.40581235  0.02096369  1
