# generated using pymatgen
data_Na5Bi2As(CO4)4
_symmetry_space_group_name_H-M   'P 1'
_cell_length_a   10.52013927
_cell_length_b   10.40925526
_cell_length_c   10.52013927
_cell_angle_alpha   60.18976643
_cell_angle_beta   89.07052116
_cell_angle_gamma   119.81023357
_symmetry_Int_Tables_number   1
_chemical_formula_structural   Na5Bi2As(CO4)4
_chemical_formula_sum   'Na10 Bi4 As2 C8 O32'
_cell_volume   812.52165827
_cell_formula_units_Z   2
loop_
 _symmetry_equiv_pos_site_id
 _symmetry_equiv_pos_as_xyz
  1  'x, y, z'
loop_
 _atom_site_type_symbol
 _atom_site_label
 _atom_site_symmetry_multiplicity
 _atom_site_fract_x
 _atom_site_fract_y
 _atom_site_fract_z
 _atom_site_occupancy
  Na  Na0  1  0.92880767  0.25000000  0.32119233  1
  Na  Na1  1  0.68005715  0.36011429  0.06994285  1
  Na  Na2  1  0.68055143  0.75000000  0.06944857  1
  Na  Na3  1  0.32137913  0.25000000  0.32137913  1
  Na  Na4  1  0.92862087  0.25000000  0.92862087  1
  Na  Na5  1  0.92854170  0.85708340  0.32145830  1
  Na  Na6  1  0.06994285  0.13988571  0.68005715  1
  Na  Na7  1  0.32119233  0.25000000  0.92880767  1
  Na  Na8  1  0.32145830  0.64291660  0.92854170  1
  Na  Na9  1  0.06944857  0.75000000  0.68055143  1
  Bi  Bi10  1  0.49168250  0.99565976  0.99909337  1
  Bi  Bi11  1  0.50397726  0.99565976  0.50524687  1
  Bi  Bi12  1  0.50524687  0.50434024  0.50397726  1
  Bi  Bi13  1  0.99909337  0.50434024  0.49168250  1
  As  As14  1  0.12500000  0.25000000  0.12500000  1
  As  As15  1  0.87500000  0.75000000  0.87500000  1
  C  C16  1  0.71950765  0.05958161  0.72258696  1
  C  C17  1  0.71783243  0.44041839  0.34007397  1
  C  C18  1  0.34007397  0.05958161  0.71783243  1
  C  C19  1  0.72258696  0.44041839  0.71950765  1
  C  C20  1  0.66608802  0.94849110  0.27024910  1
  C  C21  1  0.28125980  0.55150890  0.28240308  1
  C  C22  1  0.28240308  0.94849110  0.28125980  1
  C  C23  1  0.27024910  0.55150890  0.66608802  1
  O  O24  1  0.66455690  0.06384804  0.14024995  1
  O  O25  1  0.85032526  0.18732198  0.60278175  1
  O  O26  1  0.70989627  0.31267802  0.33699671  1
  O  O27  1  0.39929114  0.06384804  0.29590301  1
  O  O28  1  0.84109477  0.55494997  0.34766444  1
  O  O29  1  0.32675889  0.38472940  0.05755584  1
  O  O30  1  0.05771477  0.11527060  0.05797050  1
  O  O31  1  0.59980821  0.45227246  0.33630867  1
  O  O32  1  0.71141887  0.04772754  0.85246426  1
  O  O33  1  0.33630867  0.04772754  0.59980821  1
  O  O34  1  0.85246426  0.45227246  0.71141887  1
  O  O35  1  0.05797050  0.38472940  0.05771477  1
  O  O36  1  0.05755584  0.11527060  0.32675889  1
  O  O37  1  0.66772433  0.81753839  0.28364834  1
  O  O38  1  0.39881327  0.68246161  0.14981405  1
  O  O39  1  0.71385520  0.55494997  0.59738559  1
  O  O40  1  0.29590301  0.43615196  0.39929114  1
  O  O41  1  0.60278175  0.31267802  0.85032526  1
  O  O42  1  0.33699671  0.18732198  0.70989627  1
  O  O43  1  0.93417180  0.60665794  0.93437759  1
  O  O44  1  0.95896446  0.89334206  0.67248614  1
  O  O45  1  0.15044445  0.53473033  0.29597468  1
  O  O46  1  0.66929499  0.96526967  0.38428587  1
  O  O47  1  0.29597468  0.96526967  0.15044445  1
  O  O48  1  0.38428587  0.53473033  0.66929499  1
  O  O49  1  0.93437759  0.89334206  0.93417180  1
  O  O50  1  0.67248614  0.60665794  0.95896446  1
  O  O51  1  0.14024995  0.43615196  0.66455690  1
  O  O52  1  0.59738559  0.94505003  0.71385520  1
  O  O53  1  0.28364834  0.68246161  0.66772433  1
  O  O54  1  0.14981405  0.81753839  0.39881327  1
  O  O55  1  0.34766444  0.94505003  0.84109477  1
