# generated using pymatgen
data_LiNiPO4
_symmetry_space_group_name_H-M   'P 1'
_cell_length_a   4.94348975
_cell_length_b   8.23950944
_cell_length_c   4.94348957
_cell_angle_alpha   72.54317988
_cell_angle_beta   59.99999693
_cell_angle_gamma   89.99999709
_symmetry_Int_Tables_number   1
_chemical_formula_structural   LiNiPO4
_chemical_formula_sum   'Li2 Ni2 P2 O8'
_cell_volume   163.58487492
_cell_formula_units_Z   2
loop_
 _symmetry_equiv_pos_site_id
 _symmetry_equiv_pos_as_xyz
  1  'x, y, z'
loop_
 _atom_site_type_symbol
 _atom_site_label
 _atom_site_symmetry_multiplicity
 _atom_site_fract_x
 _atom_site_fract_y
 _atom_site_fract_z
 _atom_site_occupancy
  Li  Li0  1  0.43954785  0.31864454  0.12090331  1
  Li  Li1  1  0.13590483  0.40771349  0.72819134  1
  Ni  Ni2  1  0.01446774  0.04340322  0.97106452  1
  Ni  Ni3  1  0.56101792  0.68305475  0.87796317  1
  P  P4  1  0.86643302  0.59929806  0.26713496  1
  P  P5  1  0.70907972  0.12723916  0.58184056  1
  O  O6  1  0.15767968  0.53474123  0.02906939  1
  O  O7  1  0.01157103  0.19182313  0.57067611  1
  O  O8  1  0.56381063  0.53474123  0.27850970  1
  O  O9  1  0.41775286  0.19182313  0.81974789  1
  O  O10  1  0.76249925  0.19182313  0.22592873  1
  O  O11  1  0.93243009  0.79729027  0.13513982  1
  O  O12  1  0.64308347  0.92925042  0.71383305  1
  O  O13  1  0.81325093  0.53474123  0.62293845  1
