# generated using pymatgen
data_Li6VSn3(PO4)6
_symmetry_space_group_name_H-M   'P 1'
_cell_length_a   8.60393510
_cell_length_b   8.64903080
_cell_length_c   8.63187935
_cell_angle_alpha   64.24934925
_cell_angle_beta   64.41086544
_cell_angle_gamma   64.53823067
_symmetry_Int_Tables_number   1
_chemical_formula_structural   Li6VSn3(PO4)6
_chemical_formula_sum   'Li6 V1 Sn3 P6 O24'
_cell_volume   498.06544452
_cell_formula_units_Z   1
loop_
 _symmetry_equiv_pos_site_id
 _symmetry_equiv_pos_as_xyz
  1  'x, y, z'
loop_
 _atom_site_type_symbol
 _atom_site_label
 _atom_site_symmetry_multiplicity
 _atom_site_fract_x
 _atom_site_fract_y
 _atom_site_fract_z
 _atom_site_occupancy
  Li  Li0  1  0.02486578  0.98554344  0.98185577  1
  Li  Li1  1  0.74657885  0.15523478  0.36876829  1
  Li  Li2  1  0.47898193  0.51855858  0.51674105  1
  Li  Li3  1  0.23073104  0.85202293  0.67624257  1
  Li  Li4  1  0.68447356  0.22844807  0.85469049  1
  Li  Li5  1  0.85068744  0.68130413  0.22995542  1
  V  V6  1  0.84757993  0.84749817  0.84563588  1
  Sn  Sn7  1  0.14620155  0.14809684  0.14326111  1
  Sn  Sn8  1  0.35738997  0.36274747  0.35420907  1
  Sn  Sn9  1  0.66579301  0.66456667  0.66532840  1
  P  P10  1  0.07340353  0.74612604  0.42059256  1
  P  P11  1  0.42061636  0.07088469  0.74517934  1
  P  P12  1  0.74729349  0.42708038  0.06637592  1
  P  P13  1  0.24257812  0.55346115  0.95714157  1
  P  P14  1  0.55760359  0.96370574  0.24392121  1
  P  P15  1  0.95398292  0.24159663  0.54895314  1
  O  O16  1  0.11994397  0.30253814  0.49276573  1
  O  O17  1  0.31769627  0.51513613  0.10838796  1
  O  O18  1  0.09373310  0.90761393  0.24118026  1
  O  O19  1  0.54109403  0.11308440  0.31212987  1
  O  O20  1  0.26298204  0.59941502  0.41595844  1
  O  O21  1  0.01583816  0.80218072  0.58768893  1
  O  O22  1  0.24028973  0.10187219  0.90171924  1
  O  O23  1  0.42576169  0.25676955  0.59093464  1
  O  O24  1  0.60393440  0.41319817  0.26107703  1
  O  O25  1  0.17202942  0.39734425  0.00509599  1
  O  O26  1  0.08487162  0.73338489  0.94933017  1
  O  O27  1  0.38516650  0.02271588  0.19346905  1
  O  O28  1  0.59083854  0.01322750  0.79725033  1
  O  O29  1  0.89854497  0.24093962  0.10253149  1
  O  O30  1  0.80098201  0.59312209  0.01299786  1
  O  O31  1  0.38489448  0.57722031  0.76749813  1
  O  O32  1  0.57989394  0.77442290  0.38493222  1
  O  O33  1  0.72987011  0.95449476  0.07785440  1
  O  O34  1  0.97089942  0.18321043  0.39319650  1
  O  O35  1  0.76924446  0.38703894  0.58325534  1
  O  O36  1  0.40601323  0.93841386  0.68185881  1
  O  O37  1  0.95416614  0.08088765  0.72630014  1
  O  O38  1  0.68200710  0.41570421  0.93354684  1
  O  O39  1  0.94054162  0.67818574  0.41118584  1
