# generated using pymatgen
data_Mn3FeSn2(PO4)6
_symmetry_space_group_name_H-M   'P 1'
_cell_length_a   8.58728124
_cell_length_b   8.58728052
_cell_length_c   8.58728095
_cell_angle_alpha   61.73453017
_cell_angle_beta   61.73452824
_cell_angle_gamma   61.73453043
_symmetry_Int_Tables_number   1
_chemical_formula_structural   Mn3FeSn2(PO4)6
_chemical_formula_sum   'Mn3 Fe1 Sn2 P6 O24'
_cell_volume   465.17220235
_cell_formula_units_Z   1
loop_
 _symmetry_equiv_pos_site_id
 _symmetry_equiv_pos_as_xyz
  1  'x, y, z'
loop_
 _atom_site_type_symbol
 _atom_site_label
 _atom_site_symmetry_multiplicity
 _atom_site_fract_x
 _atom_site_fract_y
 _atom_site_fract_z
 _atom_site_occupancy
  Mn  Mn0  1  0.15236257  0.15236257  0.15236257  1
  Mn  Mn1  1  0.34673780  0.34673780  0.34673780  1
  Mn  Mn2  1  0.65114038  0.65114038  0.65114038  1
  Fe  Fe3  1  0.84939873  0.84939873  0.84939873  1
  Sn  Sn4  1  0.00075399  0.00075399  0.00075399  1
  Sn  Sn5  1  0.50011517  0.50011517  0.50011517  1
  P  P6  1  0.04946416  0.75091063  0.45041112  1
  P  P7  1  0.45041112  0.04946416  0.75091063  1
  P  P8  1  0.24897489  0.55544643  0.94494285  1
  P  P9  1  0.55544643  0.94494285  0.24897489  1
  P  P10  1  0.94494285  0.24897489  0.55544643  1
  P  P11  1  0.75091063  0.45041112  0.04946416  1
  O  O12  1  0.09086199  0.31996160  0.52354614  1
  O  O13  1  0.31996160  0.52354614  0.09086199  1
  O  O14  1  0.06956989  0.90311585  0.24773008  1
  O  O15  1  0.52354614  0.09086199  0.31996160  1
  O  O16  1  0.99733473  0.82841595  0.60240025  1
  O  O17  1  0.25181674  0.60273822  0.43742013  1
  O  O18  1  0.24773008  0.06956989  0.90311585  1
  O  O19  1  0.43742013  0.25181674  0.60273822  1
  O  O20  1  0.17816907  0.40565459  0.98299892  1
  O  O21  1  0.60273822  0.43742013  0.25181674  1
  O  O22  1  0.09264516  0.75804416  0.92490739  1
  O  O23  1  0.40565459  0.98299892  0.17816907  1
  O  O24  1  0.60240025  0.99733473  0.82841595  1
  O  O25  1  0.90311585  0.24773008  0.06956989  1
  O  O26  1  0.39826948  0.57739615  0.74113050  1
  O  O27  1  0.82841595  0.60240025  0.99733473  1
  O  O28  1  0.57739615  0.74113050  0.39826948  1
  O  O29  1  0.75804416  0.92490739  0.09264516  1
  O  O30  1  0.74113050  0.39826948  0.57739615  1
  O  O31  1  0.98299892  0.17816907  0.40565459  1
  O  O32  1  0.48411436  0.90589136  0.67520854  1
  O  O33  1  0.92490739  0.09264516  0.75804416  1
  O  O34  1  0.67520854  0.48411436  0.90589136  1
  O  O35  1  0.90589136  0.67520854  0.48411436  1
