# generated using pymatgen
data_Li4TiFe4(Co2O9)2
_symmetry_space_group_name_H-M   'P 1'
_cell_length_a   8.81679193
_cell_length_b   25.05148830
_cell_length_c   2.89410077
_cell_angle_alpha   90.00064459
_cell_angle_beta   90.00037800
_cell_angle_gamma   89.99352517
_symmetry_Int_Tables_number   1
_chemical_formula_structural   Li4TiFe4(Co2O9)2
_chemical_formula_sum   'Li8 Ti2 Fe8 Co8 O36'
_cell_volume   639.23091432
_cell_formula_units_Z   2
loop_
 _symmetry_equiv_pos_site_id
 _symmetry_equiv_pos_as_xyz
  1  'x, y, z'
loop_
 _atom_site_type_symbol
 _atom_site_label
 _atom_site_symmetry_multiplicity
 _atom_site_fract_x
 _atom_site_fract_y
 _atom_site_fract_z
 _atom_site_occupancy
  Li  Li0  1  0.17440876  0.99633625  0.00000003  1
  Li  Li1  1  0.20058818  0.20352295  0.00000052  1
  Li  Li2  1  0.29799585  0.70340381  0.00000108  1
  Li  Li3  1  0.32436504  0.49579832  -0.00000018  1
  Li  Li4  1  0.70409023  0.52773935  0.99999776  1
  Li  Li5  1  0.69261718  0.29555556  0.00000080  1
  Li  Li6  1  0.80845420  0.79548609  0.99999857  1
  Li  Li7  1  0.79647425  0.02803753  0.99999976  1
  Ti  Ti8  1  0.49704521  0.39654920  0.99999906  1
  Ti  Ti9  1  0.00271775  0.89677799  0.99999866  1
  Fe  Fe10  1  0.02012808  0.30153679  0.99999808  1
  Fe  Fe11  1  0.14879384  0.58826792  0.50000866  1
  Fe  Fe12  1  0.35102232  0.08826836  0.50000054  1
  Fe  Fe13  1  0.47909563  0.80204671  0.00000063  1
  Fe  Fe14  1  0.51579246  0.19484866  0.00000029  1
  Fe  Fe15  1  0.64259723  0.91219227  0.50000081  1
  Fe  Fe16  1  0.85749931  0.41190624  0.49999909  1
  Fe  Fe17  1  0.98527025  0.69500180  0.00000046  1
  Co  Co18  1  0.00190264  0.50056234  0.00000001  1
  Co  Co19  1  0.00352454  0.10682746  0.99998259  1
  Co  Co20  1  0.14874349  0.80561937  0.49999919  1
  Co  Co21  1  0.35120521  0.30551470  0.49999949  1
  Co  Co22  1  0.49664558  0.60678130  0.99987070  1
  Co  Co23  1  0.49801119  0.00046025  0.00000043  1
  Co  Co24  1  0.64342086  0.69042993  0.50000747  1
  Co  Co25  1  0.85652613  0.19026590  0.50000159  1
  O  O26  1  0.00359671  0.42725743  0.99999935  1
  O  O27  1  0.99970106  0.57511286  0.00000176  1
  O  O28  1  0.06434854  0.94084826  0.50000273  1
  O  O29  1  0.04582152  0.15670377  0.49999389  1
  O  O30  1  0.11564214  0.66612643  0.49999987  1
  O  O31  1  0.09376197  0.76183381  0.00000125  1
  O  O32  1  0.14362511  0.50587029  0.50001035  1
  O  O33  1  0.15820381  0.27462964  0.49999847  1
  O  O34  1  0.19920427  0.85129814  0.99999934  1
  O  O35  1  0.19893320  0.08319941  0.00000428  1
  O  O36  1  0.30141127  0.58354300  0.00003495  1
  O  O37  1  0.30079194  0.35141308  0.00000147  1
  O  O38  1  0.34236430  0.77504122  0.50000070  1
  O  O39  1  0.35631719  0.00583015  0.50000074  1
  O  O40  1  0.40566019  0.26166334  0.99999866  1
  O  O41  1  0.38474508  0.16582162  0.49999918  1
  O  O42  1  0.45406812  0.65689369  0.49994434  1
  O  O43  1  0.43537849  0.44067015  0.50000060  1
  O  O44  1  0.49935264  0.07489875  0.00000218  1
  O  O45  1  0.49736245  0.92725076  0.99999889  1
  O  O46  1  0.55228216  0.56217368  0.50013387  1
  O  O47  1  0.54225494  0.33910320  0.50000020  1
  O  O48  1  0.60088777  0.83362860  0.50000173  1
  O  O49  1  0.59685572  0.73597246  -0.00000160  1
  O  O50  1  0.64342215  0.99616370  0.50000172  1
  O  O51  1  0.65775831  0.21524124  0.50000036  1
  O  O52  1  0.68179267  0.64301854  0.99999229  1
  O  O53  1  0.70283577  0.41175478  0.99999977  1
  O  O54  1  0.79720552  0.91209381  0.00000126  1
  O  O55  1  0.81821446  0.14323976  0.99999626  1
  O  O56  1  0.84177491  0.71523519  0.50000036  1
  O  O57  1  0.85676267  0.49622931  0.49999916  1
  O  O58  1  0.90330003  0.23562731  0.00000148  1
  O  O59  1  0.89936459  0.33335621  0.49999929  1
  O  O60  1  0.95747933  0.83945701  0.49999941  1
  O  O61  1  0.94858363  0.06205837  0.50001538  1
