# generated using pymatgen
data_Ca(SnO2)2
_symmetry_space_group_name_H-M   'P 1'
_cell_length_a   6.94090088
_cell_length_b   6.34086508
_cell_length_c   11.95796283
_cell_angle_alpha   90.00012253
_cell_angle_beta   89.99442835
_cell_angle_gamma   89.99811779
_symmetry_Int_Tables_number   1
_chemical_formula_structural   Ca(SnO2)2
_chemical_formula_sum   'Ca4 Sn8 O16'
_cell_volume   526.28567841
_cell_formula_units_Z   4
loop_
 _symmetry_equiv_pos_site_id
 _symmetry_equiv_pos_as_xyz
  1  'x, y, z'
loop_
 _atom_site_type_symbol
 _atom_site_label
 _atom_site_symmetry_multiplicity
 _atom_site_fract_x
 _atom_site_fract_y
 _atom_site_fract_z
 _atom_site_occupancy
  Ca  Ca0  1  0.94730476  0.24999876  0.74998990  1
  Ca  Ca1  1  0.05261558  0.74999437  0.24998463  1
  Ca  Ca2  1  0.29774413  0.24998615  0.25000004  1
  Ca  Ca3  1  0.70198546  0.75001496  0.75003727  1
  Sn  Sn4  1  0.39872144  0.74997593  0.45512681  1
  Sn  Sn5  1  0.39897216  0.75000436  0.04486945  1
  Sn  Sn6  1  0.60107162  0.24999757  0.54483319  1
  Sn  Sn7  1  0.60135014  0.25004865  0.95527917  1
  Sn  Sn8  1  0.99990787  0.50000057  0.49999570  1
  Sn  Sn9  1  0.00011996  0.99999404  0.99997551  1
  Sn  Sn10  1  0.99990973  0.99998140  0.49999609  1
  Sn  Sn11  1  0.00013720  0.50001370  0.99997616  1
  O  O12  1  0.87349214  0.74999682  0.41403137  1
  O  O13  1  0.87367848  0.75000690  0.08592582  1
  O  O14  1  0.12632754  0.24998589  0.58593833  1
  O  O15  1  0.12653213  0.24999291  0.91399294  1
  O  O16  1  0.16253274  0.74998247  0.57557630  1
  O  O17  1  0.16280654  0.75000139  0.92439957  1
  O  O18  1  0.83730098  0.24999327  0.42440665  1
  O  O19  1  0.83761030  0.25001698  0.07562990  1
  O  O20  1  0.77701008  0.48702441  0.62456162  1
  O  O21  1  0.77718040  0.01300029  0.87548013  1
  O  O22  1  0.22277659  0.98699648  0.37543298  1
  O  O23  1  0.22296077  0.51300449  0.12454620  1
  O  O24  1  0.22277230  0.51297668  0.37543344  1
  O  O25  1  0.22294847  0.98699920  0.12454445  1
  O  O26  1  0.77701748  0.01296869  0.62456183  1
  O  O27  1  0.77721402  0.48704162  0.87547556  1
