# generated using pymatgen
data_KPH12PtC2N2(ClO2)2
_symmetry_space_group_name_H-M   'P 1'
_cell_length_a   8.27030612
_cell_length_b   8.87962886
_cell_length_c   8.95489228
_cell_angle_alpha   86.01125817
_cell_angle_beta   69.65154433
_cell_angle_gamma   85.81740032
_symmetry_Int_Tables_number   1
_chemical_formula_structural   KPH12PtC2N2(ClO2)2
_chemical_formula_sum   'K2 P2 H24 Pt2 C4 N4 Cl4 O8'
_cell_volume   614.25436411
_cell_formula_units_Z   2
loop_
 _symmetry_equiv_pos_site_id
 _symmetry_equiv_pos_as_xyz
  1  'x, y, z'
loop_
 _atom_site_type_symbol
 _atom_site_label
 _atom_site_symmetry_multiplicity
 _atom_site_fract_x
 _atom_site_fract_y
 _atom_site_fract_z
 _atom_site_occupancy
  K  K0  1  0.42346604  0.21771202  0.58019624  1
  K  K1  1  0.57653396  0.78228798  0.41980376  1
  P  P2  1  0.18209479  0.78232670  0.26802195  1
  P  P3  1  0.81790521  0.21767330  0.73197805  1
  H  H4  1  0.20603986  0.54482390  0.40675540  1
  H  H5  1  0.79396014  0.45517610  0.59324460  1
  H  H6  1  0.38139116  0.56286699  0.22280695  1
  H  H7  1  0.61860884  0.43713301  0.77719305  1
  H  H8  1  0.40249792  0.80399649  0.00623700  1
  H  H9  1  0.59750208  0.19600351  0.99376300  1
  H  H10  1  0.23954127  0.95379706  0.03864237  1
  H  H11  1  0.76045873  0.04620294  0.96135763  1
  H  H12  1  0.02334693  0.50133552  0.24896581  1
  H  H13  1  0.97665307  0.49866448  0.75103419  1
  H  H14  1  0.18524500  0.37287638  0.22537850  1
  H  H15  1  0.81475500  0.62712362  0.77462150  1
  H  H16  1  0.13864885  0.02579411  0.68040008  1
  H  H17  1  0.86135115  0.97420589  0.31959992  1
  H  H18  1  0.04306728  0.76601282  0.01742098  1
  H  H19  1  0.95693272  0.23398718  0.98257902  1
  H  H20  1  0.20695738  0.79485238  0.85047086  1
  H  H21  1  0.79304262  0.20514762  0.14952914  1
  H  H22  1  0.14320834  0.19593621  0.47232426  1
  H  H23  1  0.85679166  0.80406379  0.52767574  1
  H  H24  1  0.25839796  0.09140405  0.33846619  1
  H  H25  1  0.74160204  0.90859595  0.66153381  1
  H  H26  1  0.22783401  0.90125921  0.56071729  1
  H  H27  1  0.77216599  0.09874079  0.43928271  1
  Pt  Pt28  1  0.22158381  0.51624344  0.95586767  1
  Pt  Pt29  1  0.77841619  0.48375656  0.04413233  1
  C  C30  1  0.24057662  0.58011431  0.27950827  1
  C  C31  1  0.75942338  0.41988569  0.72049173  1
  C  C32  1  0.26256891  0.83074217  0.05380782  1
  C  C33  1  0.73743109  0.16925783  0.94619218  1
  N  N34  1  0.15595685  0.48547844  0.20061834  1
  N  N35  1  0.84404315  0.51452156  0.79938166  1
  N  N36  1  0.17538193  0.74872294  0.96624213  1
  N  N37  1  0.82461807  0.25127706  0.03375787  1
  Cl  Cl38  1  0.26734262  0.25412357  0.94770724  1
  Cl  Cl39  1  0.73265738  0.74587643  0.05229276  1
  Cl  Cl40  1  0.29417226  0.54922107  0.67947192  1
  Cl  Cl41  1  0.70582774  0.45077893  0.32052808  1
  O  O42  1  0.28010546  0.86615794  0.34898169  1
  O  O43  1  0.71989454  0.13384206  0.65101831  1
  O  O44  1  0.98509615  0.80360618  0.32655156  1
  O  O45  1  0.01490385  0.19639382  0.67344844  1
  O  O46  1  0.24031665  0.19761002  0.36852118  1
  O  O47  1  0.75968335  0.80238998  0.63147882  1
  O  O48  1  0.22971689  0.94263175  0.66004239  1
  O  O49  1  0.77028311  0.05736825  0.33995761  1
