# generated using pymatgen
data_Mn2Cr(PO4)3
_symmetry_space_group_name_H-M   'P 1'
_cell_length_a   8.44516462
_cell_length_b   8.44516477
_cell_length_c   8.44516461
_cell_angle_alpha   61.61267350
_cell_angle_beta   61.61267130
_cell_angle_gamma   61.61267382
_symmetry_Int_Tables_number   1
_chemical_formula_structural   Mn2Cr(PO4)3
_chemical_formula_sum   'Mn4 Cr2 P6 O24'
_cell_volume   441.30727817
_cell_formula_units_Z   2
loop_
 _symmetry_equiv_pos_site_id
 _symmetry_equiv_pos_as_xyz
  1  'x, y, z'
loop_
 _atom_site_type_symbol
 _atom_site_label
 _atom_site_symmetry_multiplicity
 _atom_site_fract_x
 _atom_site_fract_y
 _atom_site_fract_z
 _atom_site_occupancy
  Mn  Mn0  1  0.14482146  0.14482146  0.14482146  1
  Mn  Mn1  1  0.35517854  0.35517854  0.35517854  1
  Mn  Mn2  1  0.64482146  0.64482146  0.64482146  1
  Mn  Mn3  1  0.85517854  0.85517854  0.85517854  1
  Cr  Cr4  1  0.00000000  0.00000000  0.00000000  1
  Cr  Cr5  1  0.50000000  0.50000000  0.50000000  1
  P  P6  1  0.04806218  0.75000000  0.45193782  1
  P  P7  1  0.45193782  0.04806218  0.75000000  1
  P  P8  1  0.75000000  0.45193782  0.04806218  1
  P  P9  1  0.25000000  0.54806218  0.95193782  1
  P  P10  1  0.54806218  0.95193782  0.25000000  1
  P  P11  1  0.95193782  0.25000000  0.54806218  1
  O  O12  1  0.10646369  0.31837071  0.51241778  1
  O  O13  1  0.31837071  0.51241778  0.10646369  1
  O  O14  1  0.06290035  0.90547560  0.24872836  1
  O  O15  1  0.51241778  0.10646369  0.31837071  1
  O  O16  1  0.01241778  0.81837071  0.60646369  1
  O  O17  1  0.25127164  0.59452440  0.43709965  1
  O  O18  1  0.24872836  0.06290035  0.90547560  1
  O  O19  1  0.43709965  0.25127164  0.59452440  1
  O  O20  1  0.18162929  0.39353631  0.98758222  1
  O  O21  1  0.59452440  0.43709965  0.25127164  1
  O  O22  1  0.09452440  0.75127164  0.93709965  1
  O  O23  1  0.39353631  0.98758222  0.18162929  1
  O  O24  1  0.60646369  0.01241778  0.81837071  1
  O  O25  1  0.90547560  0.24872836  0.06290035  1
  O  O26  1  0.40547560  0.56290035  0.74872836  1
  O  O27  1  0.81837071  0.60646369  0.01241778  1
  O  O28  1  0.56290035  0.74872836  0.40547560  1
  O  O29  1  0.75127164  0.93709965  0.09452440  1
  O  O30  1  0.74872836  0.40547560  0.56290035  1
  O  O31  1  0.98758222  0.18162929  0.39353631  1
  O  O32  1  0.48758222  0.89353631  0.68162929  1
  O  O33  1  0.93709965  0.09452440  0.75127164  1
  O  O34  1  0.68162929  0.48758222  0.89353631  1
  O  O35  1  0.89353631  0.68162929  0.48758222  1
