# generated using pymatgen
data_Na2LiCuP2O7
_symmetry_space_group_name_H-M   'P 1'
_cell_length_a   5.37924663
_cell_length_b   8.97918340
_cell_length_c   13.59251641
_cell_angle_alpha   90.00009121
_cell_angle_beta   90.00033145
_cell_angle_gamma   89.21029366
_symmetry_Int_Tables_number   1
_chemical_formula_structural   Na2LiCuP2O7
_chemical_formula_sum   'Na8 Li4 Cu4 P8 O28'
_cell_volume   656.47306487
_cell_formula_units_Z   4
loop_
 _symmetry_equiv_pos_site_id
 _symmetry_equiv_pos_as_xyz
  1  'x, y, z'
loop_
 _atom_site_type_symbol
 _atom_site_label
 _atom_site_symmetry_multiplicity
 _atom_site_fract_x
 _atom_site_fract_y
 _atom_site_fract_z
 _atom_site_occupancy
  Na  Na0  1  0.22810833  0.84816155  0.11260853  1
  Na  Na1  1  0.74371687  0.85242382  0.70773381  1
  Na  Na2  1  0.75628596  0.64757683  0.20773528  1
  Na  Na3  1  0.27188054  0.65183995  0.61260492  1
  Na  Na4  1  0.72813159  0.34816277  0.38739466  1
  Na  Na5  1  0.24372058  0.35241591  0.79226558  1
  Na  Na6  1  0.25628361  0.14758193  0.29226705  1
  Na  Na7  1  0.77185194  0.15183598  0.88739052  1
  Li  Li8  1  0.75812716  0.00056477  0.12037781  1
  Li  Li9  1  0.74183763  0.49942920  0.62037585  1
  Li  Li10  1  0.25817352  0.50057343  0.37962814  1
  Li  Li11  1  0.24177240  0.99941111  0.87963895  1
  Cu  Cu12  1  0.28958785  0.77751794  0.33630399  1
  Cu  Cu13  1  0.21042671  0.72247053  0.83631081  1
  Cu  Cu14  1  0.78958303  0.27752375  0.16368505  1
  Cu  Cu15  1  0.71041803  0.22248429  0.66369423  1
  P  P16  1  0.77575918  0.95632381  0.31904632  1
  P  P17  1  0.70765626  0.79194071  0.95623891  1
  P  P18  1  0.79235097  0.70806008  0.45623632  1
  P  P19  1  0.72424284  0.54367646  0.81904316  1
  P  P20  1  0.27577522  0.45632695  0.18095577  1
  P  P21  1  0.20764697  0.29193903  0.54375959  1
  P  P22  1  0.29235050  0.20806015  0.04376253  1
  P  P23  1  0.22424272  0.04368389  0.68095797  1
  O  O24  1  0.76425734  0.88500167  0.42969394  1
  O  O25  1  0.51997250  0.93323273  0.26927503  1
  O  O26  1  0.97513097  0.86820609  0.26104758  1
  O  O27  1  0.16494673  0.87975244  0.66841868  1
  O  O28  1  0.87507798  0.87915544  0.88460648  1
  O  O29  1  0.42775124  0.83502524  0.94385079  1
  O  O30  1  0.79071954  0.80501859  0.06311415  1
  O  O31  1  0.70928272  0.69497868  0.56311349  1
  O  O32  1  0.07225084  0.66496873  0.44385014  1
  O  O33  1  0.62492450  0.62084944  0.38460176  1
  O  O34  1  0.52488092  0.63179458  0.76104584  1
  O  O35  1  0.33505859  0.62024175  0.16841638  1
  O  O36  1  0.98003758  0.56676683  0.76927353  1
  O  O37  1  0.73575623  0.61499912  0.92969188  1
  O  O38  1  0.26425623  0.38500348  0.07030642  1
  O  O39  1  0.01995829  0.43323002  0.23072353  1
  O  O40  1  0.66493898  0.37975816  0.83158525  1
  O  O41  1  0.47512243  0.36821014  0.23895278  1
  O  O42  1  0.37506328  0.37915386  0.61540023  1
  O  O43  1  0.92773782  0.33502777  0.55615144  1
  O  O44  1  0.29070876  0.30502162  0.43689129  1
  O  O45  1  0.20928028  0.19497668  0.93688952  1
  O  O46  1  0.57224849  0.16497149  0.05615197  1
  O  O47  1  0.12492691  0.12084996  0.11540139  1
  O  O48  1  0.83506429  0.12024495  0.33158695  1
  O  O49  1  0.02488517  0.13178928  0.73895663  1
  O  O50  1  0.48004675  0.06677512  0.73071813  1
  O  O51  1  0.23573523  0.11499732  0.57030707  1
