# generated using pymatgen
data_LiV6O7F5
_symmetry_space_group_name_H-M   'P 1'
_cell_length_a   5.67593811
_cell_length_b   5.69250873
_cell_length_c   7.56164560
_cell_angle_alpha   108.62416713
_cell_angle_beta   71.13984153
_cell_angle_gamma   107.84565147
_symmetry_Int_Tables_number   1
_chemical_formula_structural   LiV6O7F5
_chemical_formula_sum   'Li1 V6 O7 F5'
_cell_volume   213.39481119
_cell_formula_units_Z   1
loop_
 _symmetry_equiv_pos_site_id
 _symmetry_equiv_pos_as_xyz
  1  'x, y, z'
loop_
 _atom_site_type_symbol
 _atom_site_label
 _atom_site_symmetry_multiplicity
 _atom_site_fract_x
 _atom_site_fract_y
 _atom_site_fract_z
 _atom_site_occupancy
  Li  Li0  1  0.56831433  0.92655275  0.42775691  1
  V  V1  1  0.32134608  0.66293067  0.15112536  1
  V  V2  1  0.62517176  0.33869548  0.30964749  1
  V  V3  1  0.33154626  0.65498815  0.67979688  1
  V  V4  1  0.01009485  0.02446683  0.51607111  1
  V  V5  1  0.67956265  0.30624468  0.84083224  1
  V  V6  1  0.02907821  0.02415740  0.00235208  1
  O  O7  1  0.77818555  0.22275064  0.03157334  1
  O  O8  1  0.42349167  0.57931652  0.37031282  1
  O  O9  1  0.35680516  0.02508200  0.33228357  1
  O  O10  1  0.03414859  0.36447948  0.67091204  1
  O  O11  1  0.64181669  0.94886764  0.65652110  1
  O  O12  1  0.22808567  0.77227692  0.96560122  1
  O  O13  1  0.31951387  0.31157804  0.99765935  1
  F  F14  1  0.94978183  0.63582994  0.33623933  1
  F  F15  1  0.88936278  0.10851852  0.30739456  1
  F  F16  1  0.11126538  0.90423727  0.70421989  1
  F  F17  1  0.56962687  0.41519019  0.62625445  1
  F  F18  1  0.70904482  0.70205289  0.99791927  1
