# generated using pymatgen
data_YNb2NO5
_symmetry_space_group_name_H-M   'P 1'
_cell_length_a   15.02591625
_cell_length_b   5.93865893
_cell_length_c   5.29526535
_cell_angle_alpha   90.32835685
_cell_angle_beta   90.00000000
_cell_angle_gamma   90.00000000
_symmetry_Int_Tables_number   1
_chemical_formula_structural   YNb2NO5
_chemical_formula_sum   'Y4 Nb8 N4 O20'
_cell_volume   472.50884537
_cell_formula_units_Z   4
loop_
 _symmetry_equiv_pos_site_id
 _symmetry_equiv_pos_as_xyz
  1  'x, y, z'
loop_
 _atom_site_type_symbol
 _atom_site_label
 _atom_site_symmetry_multiplicity
 _atom_site_fract_x
 _atom_site_fract_y
 _atom_site_fract_z
 _atom_site_occupancy
  Y  Y0  1  0.00031087  0.30032179  0.25743522  1
  Y  Y1  1  0.00192327  0.70745798  0.75752719  1
  Y  Y2  1  0.49807673  0.20745798  0.75752719  1
  Y  Y3  1  0.49968913  0.80032179  0.25743522  1
  Nb  Nb4  1  0.16230406  0.17333023  0.74331756  1
  Nb  Nb5  1  0.16803311  0.82400830  0.22434736  1
  Nb  Nb6  1  0.33196689  0.32400830  0.22434736  1
  Nb  Nb7  1  0.33769594  0.67333023  0.74331756  1
  Nb  Nb8  1  0.66304580  0.31487512  0.27584812  1
  Nb  Nb9  1  0.66861708  0.68518917  0.77506481  1
  Nb  Nb10  1  0.83138292  0.18518917  0.77506481  1
  Nb  Nb11  1  0.83695420  0.81487512  0.27584812  1
  N  N12  1  0.09839882  0.07632814  0.03235020  1
  N  N13  1  0.40160118  0.57632814  0.03235020  1
  N  N14  1  0.58151149  0.11619161  0.39539646  1
  N  N15  1  0.91848851  0.61619161  0.39539646  1
  O  O16  1  0.08637681  0.60644669  0.10417845  1
  O  O17  1  0.08168945  0.38602467  0.60628328  1
  O  O18  1  0.10026567  0.90913230  0.53435193  1
  O  O19  1  0.24372921  0.12702750  0.39633382  1
  O  O20  1  0.24567012  0.86639828  0.90212033  1
  O  O21  1  0.25627179  0.62702750  0.39633382  1
  O  O22  1  0.25432988  0.36639828  0.90212033  1
  O  O23  1  0.39973433  0.40913230  0.53435193  1
  O  O24  1  0.41362319  0.10644669  0.10417845  1
  O  O25  1  0.41831055  0.88602467  0.60628328  1
  O  O26  1  0.58288653  0.88621585  0.89641757  1
  O  O27  1  0.60076632  0.41834258  0.95743669  1
  O  O28  1  0.60215233  0.59220459  0.46334791  1
  O  O29  1  0.74415536  0.37126797  0.59825848  1
  O  O30  1  0.74553899  0.63923724  0.07998462  1
  O  O31  1  0.75446101  0.13923724  0.07998462  1
  O  O32  1  0.75584464  0.87126797  0.59825848  1
  O  O33  1  0.89784767  0.09220459  0.46334791  1
  O  O34  1  0.89923368  0.91834258  0.95743669  1
  O  O35  1  0.91711347  0.38621585  0.89641757  1
