# generated using pymatgen
data_Ti5Cr(PO4)6
_symmetry_space_group_name_H-M   'P 1'
_cell_length_a   8.47521219
_cell_length_b   8.47521190
_cell_length_c   8.47521216
_cell_angle_alpha   61.89505484
_cell_angle_beta   61.89505290
_cell_angle_gamma   61.89505327
_symmetry_Int_Tables_number   1
_chemical_formula_structural   Ti5Cr(PO4)6
_chemical_formula_sum   'Ti5 Cr1 P6 O24'
_cell_volume   448.72412224
_cell_formula_units_Z   1
loop_
 _symmetry_equiv_pos_site_id
 _symmetry_equiv_pos_as_xyz
  1  'x, y, z'
loop_
 _atom_site_type_symbol
 _atom_site_label
 _atom_site_symmetry_multiplicity
 _atom_site_fract_x
 _atom_site_fract_y
 _atom_site_fract_z
 _atom_site_occupancy
  Ti  Ti0  1  0.00281197  0.00281197  0.00281197  1
  Ti  Ti1  1  0.49959434  0.49959434  0.49959434  1
  Ti  Ti2  1  0.14157234  0.14157234  0.14157234  1
  Ti  Ti3  1  0.35881022  0.35881022  0.35881022  1
  Ti  Ti4  1  0.63996234  0.63996234  0.63996234  1
  Cr  Cr5  1  0.85822812  0.85822812  0.85822812  1
  P  P6  1  0.04150235  0.74920736  0.46050795  1
  P  P7  1  0.46050795  0.04150235  0.74920736  1
  P  P8  1  0.24614122  0.54467353  0.95808632  1
  P  P9  1  0.54467353  0.95808632  0.24614122  1
  P  P10  1  0.95808632  0.24614122  0.54467353  1
  P  P11  1  0.74920736  0.46050795  0.04150235  1
  O  O12  1  0.11458271  0.31660656  0.50213480  1
  O  O13  1  0.31660656  0.50213480  0.11458271  1
  O  O14  1  0.05737216  0.90647477  0.26100714  1
  O  O15  1  0.50213480  0.11458271  0.31660656  1
  O  O16  1  0.00755998  0.81471821  0.61499430  1
  O  O17  1  0.24146086  0.59287150  0.44063741  1
  O  O18  1  0.26100714  0.05737216  0.90647477  1
  O  O19  1  0.44063741  0.24146086  0.59287150  1
  O  O20  1  0.17869851  0.38656554  0.99951400  1
  O  O21  1  0.59287150  0.44063741  0.24146086  1
  O  O22  1  0.09143915  0.74367786  0.94342585  1
  O  O23  1  0.38656554  0.99951400  0.17869851  1
  O  O24  1  0.61499430  0.00755998  0.81471821  1
  O  O25  1  0.90647477  0.26100714  0.05737216  1
  O  O26  1  0.40328503  0.55781579  0.75969967  1
  O  O27  1  0.81471821  0.61499430  0.00755998  1
  O  O28  1  0.55781579  0.75969967  0.40328503  1
  O  O29  1  0.74367786  0.94342585  0.09143915  1
  O  O30  1  0.75969967  0.40328503  0.55781579  1
  O  O31  1  0.99951400  0.17869851  0.38656554  1
  O  O32  1  0.49837912  0.88587133  0.68010869  1
  O  O33  1  0.94342585  0.09143915  0.74367786  1
  O  O34  1  0.68010869  0.49837912  0.88587133  1
  O  O35  1  0.88587133  0.68010869  0.49837912  1
