# generated using pymatgen
data_Ti3FeSb2(PO4)6
_symmetry_space_group_name_H-M   'P 1'
_cell_length_a   8.89058471
_cell_length_b   8.89058454
_cell_length_c   8.89058499
_cell_angle_alpha   59.06686492
_cell_angle_beta   59.06686185
_cell_angle_gamma   59.06686657
_symmetry_Int_Tables_number   1
_chemical_formula_structural   Ti3FeSb2(PO4)6
_chemical_formula_sum   'Ti3 Fe1 Sb2 P6 O24'
_cell_volume   486.33531340
_cell_formula_units_Z   1
loop_
 _symmetry_equiv_pos_site_id
 _symmetry_equiv_pos_as_xyz
  1  'x, y, z'
loop_
 _atom_site_type_symbol
 _atom_site_label
 _atom_site_symmetry_multiplicity
 _atom_site_fract_x
 _atom_site_fract_y
 _atom_site_fract_z
 _atom_site_occupancy
  Ti  Ti0  1  0.14571188  0.14571188  0.14571188  1
  Ti  Ti1  1  0.35135743  0.35135743  0.35135743  1
  Ti  Ti2  1  0.64943181  0.64943181  0.64943181  1
  Fe  Fe3  1  0.84880060  0.84880060  0.84880060  1
  Sb  Sb4  1  0.99163943  0.99163943  0.99163943  1
  Sb  Sb5  1  0.49715571  0.49715571  0.49715571  1
  P  P6  1  0.25358675  0.53867127  0.95909085  1
  P  P7  1  0.53867127  0.95909085  0.25358675  1
  P  P8  1  0.95909085  0.25358675  0.53867127  1
  P  P9  1  0.04393494  0.75156652  0.45755888  1
  P  P10  1  0.45755888  0.04393494  0.75156652  1
  P  P11  1  0.75156652  0.45755888  0.04393494  1
  O  O12  1  0.11600433  0.31132885  0.49783651  1
  O  O13  1  0.31132885  0.49783651  0.11600433  1
  O  O14  1  0.06406441  0.91415545  0.26533173  1
  O  O15  1  0.49783651  0.11600433  0.31132885  1
  O  O16  1  0.01990551  0.80088284  0.60930723  1
  O  O17  1  0.23505488  0.58199745  0.43237232  1
  O  O18  1  0.26533173  0.06406441  0.91415545  1
  O  O19  1  0.43237232  0.23505488  0.58199745  1
  O  O20  1  0.19593934  0.38354282  0.99616621  1
  O  O21  1  0.58199745  0.43237232  0.23505488  1
  O  O22  1  0.09011271  0.73120733  0.94291125  1
  O  O23  1  0.38354282  0.99616621  0.19593934  1
  O  O24  1  0.60930723  0.01990551  0.80088284  1
  O  O25  1  0.91415545  0.26533173  0.06406441  1
  O  O26  1  0.41936235  0.55835927  0.76915192  1
  O  O27  1  0.80088284  0.60930723  0.01990551  1
  O  O28  1  0.55835927  0.76915192  0.41936235  1
  O  O29  1  0.73120733  0.94291125  0.09011271  1
  O  O30  1  0.76915192  0.41936235  0.55835927  1
  O  O31  1  0.99616621  0.19593934  0.38354282  1
  O  O32  1  0.49473100  0.88545694  0.69631429  1
  O  O33  1  0.94291125  0.09011271  0.73120733  1
  O  O34  1  0.69631429  0.49473100  0.88545694  1
  O  O35  1  0.88545694  0.69631429  0.49473100  1
