# generated using pymatgen
data_V2ZnO4
_symmetry_space_group_name_H-M   'P 1'
_cell_length_a   6.12122635
_cell_length_b   6.12122631
_cell_length_c   6.04931083
_cell_angle_alpha   60.38788233
_cell_angle_beta   60.38788514
_cell_angle_gamma   58.81021672
_symmetry_Int_Tables_number   1
_chemical_formula_structural   V2ZnO4
_chemical_formula_sum   'V4 Zn2 O8'
_cell_volume   159.69356043
_cell_formula_units_Z   2
loop_
 _symmetry_equiv_pos_site_id
 _symmetry_equiv_pos_as_xyz
  1  'x, y, z'
loop_
 _atom_site_type_symbol
 _atom_site_label
 _atom_site_symmetry_multiplicity
 _atom_site_fract_x
 _atom_site_fract_y
 _atom_site_fract_z
 _atom_site_occupancy
  V  V0  1  0.99254285  0.99254285  0.00745715  1
  V  V1  1  0.25745715  0.25745715  0.24254285  1
  V  V2  1  0.62500000  0.62500000  0.12500000  1
  V  V3  1  0.62500000  0.62500000  0.62500000  1
  Zn  Zn4  1  0.12500000  0.62500000  0.62500000  1
  Zn  Zn5  1  0.62500000  0.12500000  0.62500000  1
  O  O6  1  0.38829458  0.38829458  0.37042851  1
  O  O7  1  0.39458230  0.85930932  0.37305419  1
  O  O8  1  0.38829458  0.38829458  0.85298334  1
  O  O9  1  0.85930932  0.39458230  0.37305419  1
  O  O10  1  0.39069068  0.85541770  0.87694581  1
  O  O11  1  0.85541770  0.39069068  0.87694581  1
  O  O12  1  0.86170542  0.86170542  0.39701666  1
  O  O13  1  0.86170542  0.86170542  0.87957149  1
