# generated using pymatgen
data_Na5Bi2As(CO4)4
_symmetry_space_group_name_H-M   'P 1'
_cell_length_a   10.46996593
_cell_length_b   10.46862639
_cell_length_c   18.25082401
_cell_angle_alpha   89.89784602
_cell_angle_beta   72.55212934
_cell_angle_gamma   119.77466337
_symmetry_Int_Tables_number   1
_chemical_formula_structural   Na5Bi2As(CO4)4
_chemical_formula_sum   'Na20 Bi8 As4 C16 O64'
_cell_volume   1628.77661782
_cell_formula_units_Z   4
loop_
 _symmetry_equiv_pos_site_id
 _symmetry_equiv_pos_as_xyz
  1  'x, y, z'
loop_
 _atom_site_type_symbol
 _atom_site_label
 _atom_site_symmetry_multiplicity
 _atom_site_fract_x
 _atom_site_fract_y
 _atom_site_fract_z
 _atom_site_occupancy
  Na  Na0  1  0.92936185  0.41074377  0.16053897  1
  Na  Na1  1  0.68145108  0.39798739  0.03387418  1
  Na  Na2  1  0.68083158  0.28386893  0.53436268  1
  Na  Na3  1  0.67875781  0.78229566  0.03448157  1
  Na  Na4  1  0.92813026  0.71422612  0.46414438  1
  Na  Na5  1  0.32134187  0.41082288  0.16113426  1
  Na  Na6  1  0.93153864  0.20930123  0.96278612  1
  Na  Na7  1  0.32064749  0.10567458  0.46482698  1
  Na  Na8  1  0.92958522  0.01920260  0.16031773  1
  Na  Na9  1  0.93069410  0.51312806  0.65811329  1
  Na  Na10  1  0.06839726  0.09040897  0.34060072  1
  Na  Na11  1  0.93468589  0.91627449  0.66014720  1
  Na  Na12  1  0.06816276  0.47728356  0.34078643  1
  Na  Na13  1  0.68221230  0.59024427  0.84208614  1
  Na  Na14  1  0.68152018  0.89772290  0.53381534  1
  Na  Na15  1  0.30820097  0.20163681  0.96437460  1
  Na  Na16  1  0.32128915  0.71495198  0.46461687  1
  Na  Na17  1  0.31420194  0.90971659  0.66283074  1
  Na  Na18  1  0.31478376  0.60813304  0.96596661  1
  Na  Na19  1  0.06722516  0.58947759  0.84056156  1
  Bi  Bi20  1  0.49040316  0.99547383  0.99948136  1
  Bi  Bi21  1  0.50446633  0.24792622  0.25302787  1
  Bi  Bi22  1  0.49138714  0.49631116  0.49936233  1
  Bi  Bi23  1  0.50544227  0.75690641  0.25211524  1
  Bi  Bi24  1  0.49336350  0.24484863  0.75202298  1
  Bi  Bi25  1  0.50302613  0.75320206  0.75059404  1
  Bi  Bi26  1  0.99941670  0.75027569  0.24523594  1
  Bi  Bi27  1  0.00138066  0.24530291  0.74822208  1
  As  As28  1  0.87522860  0.18763817  0.43752166  1
  As  As29  1  0.12554583  0.31326410  0.06246892  1
  As  As30  1  0.87664981  0.68875296  0.93716156  1
  As  As31  1  0.12324143  0.81075430  0.56254528  1
  C  C32  1  0.66517979  0.08328989  0.13592352  1
  C  C33  1  0.28181640  0.08799060  0.14056648  1
  C  C34  1  0.72065445  0.42106458  0.36113224  1
  C  C35  1  0.71768890  0.60963434  0.16955568  1
  C  C36  1  0.71934532  0.11027959  0.66972318  1
  C  C37  1  0.33937804  0.41876466  0.35899285  1
  C  C38  1  0.72273069  0.80083265  0.36021507  1
  C  C39  1  0.72022472  0.30180159  0.86035544  1
  C  C40  1  0.28349916  0.19510816  0.63761726  1
  C  C41  1  0.28101819  0.69378500  0.14081261  1
  C  C42  1  0.66425376  0.58230898  0.63880818  1
  C  C43  1  0.28136271  0.58741639  0.64075432  1
  C  C44  1  0.27203552  0.88546044  0.33259401  1
  C  C45  1  0.27904879  0.39424788  0.83257985  1
  C  C46  1  0.71742836  0.91664850  0.86034289  1
  C  C47  1  0.33984658  0.91712834  0.86003412  1
  O  O48  1  0.66457013  0.13246357  0.07053362  1
  O  O49  1  0.93426673  0.07358379  0.46644685  1
  O  O50  1  0.96128974  0.23075096  0.33647136  1
  O  O51  1  0.66858153  0.15767182  0.19268684  1
  O  O52  1  0.29580006  0.03972426  0.07489578  1
  O  O53  1  0.93351849  0.35996874  0.46670746  1
  O  O54  1  0.67236137  0.08676164  0.48040073  1
  O  O55  1  0.84234576  0.98972645  0.79870184  1
  O  O56  1  0.70850376  0.48063579  0.16799469  1
  O  O57  1  0.85178016  0.48998002  0.30174178  1
  O  O58  1  0.39763342  0.21072128  0.14810712  1
  O  O59  1  0.59922411  0.30165772  0.35616317  1
  O  O60  1  0.84272616  0.22661705  0.67519455  1
  O  O61  1  0.84157115  0.72670514  0.17381089  1
  O  O62  1  0.28682247  0.01711204  0.33317217  1
  O  O63  1  0.32808492  0.41368030  0.02720908  1
  O  O64  1  0.05560343  0.14428065  0.03070676  1
  O  O65  1  0.71024739  0.47228732  0.42661329  1
  O  O66  1  0.60036218  0.62148922  0.16713859  1
  O  O67  1  0.60133747  0.12187414  0.66751001  1
  O  O68  1  0.33549974  0.34646088  0.30079729  1
  O  O69  1  0.85369793  0.80950008  0.35533402  1
  O  O70  1  0.85109223  0.30866899  0.85285435  1
  O  O71  1  0.05619789  0.41185212  0.02891689  1
  O  O72  1  0.06032488  0.28135545  0.16324078  1
  O  O73  1  0.66611741  0.95940452  0.14362900  1
  O  O74  1  0.66574708  0.45883878  0.64582438  1
  O  O75  1  0.40082605  0.26137582  0.57117651  1
  O  O76  1  0.39815190  0.75898385  0.07447980  1
  O  O77  1  0.71232370  0.85406131  0.29952145  1
  O  O78  1  0.34671224  0.36723889  0.42140985  1
  O  O79  1  0.70600251  0.36049184  0.80235226  1
  O  O80  1  0.66333033  0.63341944  0.57412919  1
  O  O81  1  0.29657233  0.63646608  0.19867476  1
  O  O82  1  0.30002102  0.13608291  0.69428418  1
  O  O83  1  0.34600177  0.04454351  0.85672245  1
  O  O84  1  0.60328413  0.73864514  0.42569380  1
  O  O85  1  0.60274509  0.23771868  0.92641924  1
  O  O86  1  0.33645692  0.54170987  0.35424911  1
  O  O87  1  0.93385901  0.57374940  0.96695210  1
  O  O88  1  0.93373069  0.70527443  0.83627442  1
  O  O89  1  0.15199828  0.18545779  0.64560686  1
  O  O90  1  0.14923684  0.68344048  0.14798473  1
  O  O91  1  0.66648142  0.65516016  0.69683444  1
  O  O92  1  0.38697982  0.87010543  0.33399111  1
  O  O93  1  0.29638371  0.54058886  0.57462864  1
  O  O94  1  0.39566053  0.37903027  0.83302389  1
  O  O95  1  0.66915719  0.58412840  0.97208192  1
  O  O96  1  0.92898616  0.85020729  0.97364830  1
  O  O97  1  0.71046292  0.98207647  0.66672066  1
  O  O98  1  0.39733745  0.71123133  0.64789409  1
  O  O99  1  0.14910788  0.28002980  0.83229859  1
  O  O100  1  0.14122972  0.77050979  0.33250110  1
  O  O101  1  0.60119765  0.78891822  0.85660965  1
  O  O102  1  0.29407622  0.52554255  0.83426979  1
  O  O103  1  0.14953583  0.51312092  0.69924049  1
  O  O104  1  0.14903260  0.01440021  0.19904291  1
  O  O105  1  0.32559448  0.91247991  0.53007334  1
  O  O106  1  0.05775571  0.64466922  0.52773462  1
  O  O107  1  0.70609742  0.96876439  0.92530945  1
  O  O108  1  0.33163865  0.84642735  0.80127852  1
  O  O109  1  0.05673450  0.91216644  0.52888523  1
  O  O110  1  0.05307675  0.77399608  0.66332283  1
  O  O111  1  0.34528775  0.86094734  0.92174516  1
