# generated using pymatgen
data_Li5SbS4
_symmetry_space_group_name_H-M   'P 1'
_cell_length_a   9.29063842
_cell_length_b   7.73280989
_cell_length_c   5.63571569
_cell_angle_alpha   90.00000000
_cell_angle_beta   90.00000000
_cell_angle_gamma   90.00000000
_symmetry_Int_Tables_number   1
_chemical_formula_structural   Li5SbS4
_chemical_formula_sum   'Li10 Sb2 S8'
_cell_volume   404.88526074
_cell_formula_units_Z   2
loop_
 _symmetry_equiv_pos_site_id
 _symmetry_equiv_pos_as_xyz
  1  'x, y, z'
loop_
 _atom_site_type_symbol
 _atom_site_label
 _atom_site_symmetry_multiplicity
 _atom_site_fract_x
 _atom_site_fract_y
 _atom_site_fract_z
 _atom_site_occupancy
  Li  Li0  1  0.04798107  0.01839206  0.75785402  1
  Li  Li1  1  0.04798107  0.48160794  0.75785402  1
  Li  Li2  1  0.25000000  0.75000000  0.22041105  1
  Li  Li3  1  0.45201893  0.01839206  0.75785402  1
  Li  Li4  1  0.45201893  0.48160794  0.75785402  1
  Li  Li5  1  0.54798107  0.98160794  0.24214598  1
  Li  Li6  1  0.54798107  0.51839206  0.24214598  1
  Li  Li7  1  0.75000000  0.25000000  0.77958895  1
  Li  Li8  1  0.95201893  0.98160794  0.24214598  1
  Li  Li9  1  0.95201893  0.51839206  0.24214598  1
  Sb  Sb10  1  0.25000000  0.25000000  0.17718216  1
  Sb  Sb11  1  0.75000000  0.75000000  0.82281784  1
  S  S12  1  0.96639122  0.25000000  0.02449217  1
  S  S13  1  0.25000000  0.00994641  0.46962207  1
  S  S14  1  0.25000000  0.49005359  0.46962207  1
  S  S15  1  0.53360878  0.25000000  0.02449217  1
  S  S16  1  0.46639122  0.75000000  0.97550783  1
  S  S17  1  0.75000000  0.99005359  0.53037793  1
  S  S18  1  0.75000000  0.50994641  0.53037793  1
  S  S19  1  0.03360878  0.75000000  0.97550783  1
