# generated using pymatgen
data_LiFeF4
_symmetry_space_group_name_H-M   'P 1'
_cell_length_a   4.93803692
_cell_length_b   4.93803692
_cell_length_c   6.67619706
_cell_angle_alpha   68.29523154
_cell_angle_beta   68.29523154
_cell_angle_gamma   90.00000000
_symmetry_Int_Tables_number   1
_chemical_formula_structural   LiFeF4
_chemical_formula_sum   'Li2 Fe2 F8'
_cell_volume   138.75343843
_cell_formula_units_Z   2
loop_
 _symmetry_equiv_pos_site_id
 _symmetry_equiv_pos_as_xyz
  1  'x, y, z'
loop_
 _atom_site_type_symbol
 _atom_site_label
 _atom_site_symmetry_multiplicity
 _atom_site_fract_x
 _atom_site_fract_y
 _atom_site_fract_z
 _atom_site_occupancy
  Li  Li0  1  0.37500000  0.12500000  0.75000000  1
  Li  Li1  1  0.62500000  0.87500000  0.25000000  1
  Fe  Fe2  1  0.12500000  0.37500000  0.25000000  1
  Fe  Fe3  1  0.87500000  0.62500000  0.75000000  1
  F  F4  1  0.45544319  0.21492005  0.11131721  1
  F  F5  1  0.17376274  0.95544319  0.61131721  1
  F  F6  1  0.71492005  0.43323960  0.61131721  1
  F  F7  1  0.93323960  0.67376274  0.11131721  1
  F  F8  1  0.06676040  0.32623726  0.88868279  1
  F  F9  1  0.28507995  0.56676040  0.38868279  1
  F  F10  1  0.82623726  0.04455681  0.38868279  1
  F  F11  1  0.54455681  0.78507995  0.88868279  1
