# generated using pymatgen
data_Li13V24O52
_symmetry_space_group_name_H-M   'P 1'
_cell_length_a   11.68691272
_cell_length_b   8.52092058
_cell_length_c   11.17317235
_cell_angle_alpha   97.83840759
_cell_angle_beta   69.86700669
_cell_angle_gamma   76.39282195
_symmetry_Int_Tables_number   1
_chemical_formula_structural   Li13V24O52
_chemical_formula_sum   'Li13 V24 O52'
_cell_volume   986.12772465
_cell_formula_units_Z   1
loop_
 _symmetry_equiv_pos_site_id
 _symmetry_equiv_pos_as_xyz
  1  'x, y, z'
loop_
 _atom_site_type_symbol
 _atom_site_label
 _atom_site_symmetry_multiplicity
 _atom_site_fract_x
 _atom_site_fract_y
 _atom_site_fract_z
 _atom_site_occupancy
  Li  Li0  1  0.15360764  0.87976375  0.58870522  1
  Li  Li1  1  0.00278778  0.99749488  0.99983745  1
  Li  Li2  1  0.25032442  0.24771807  0.99987836  1
  Li  Li3  1  0.49697416  0.50123957  0.00054645  1
  Li  Li4  1  0.75693072  0.74703327  0.98165227  1
  Li  Li5  1  0.34488089  0.61993901  0.41340891  1
  Li  Li6  1  0.09410510  0.37113782  0.41318174  1
  Li  Li7  1  0.59518248  0.86972943  0.41636078  1
  Li  Li8  1  0.54716169  0.02507981  0.19112000  1
  Li  Li9  1  0.65470964  0.38050423  0.58874894  1
  Li  Li10  1  0.90420384  0.63046324  0.58751250  1
  Li  Li11  1  0.40489526  0.12951845  0.58698204  1
  Li  Li12  1  0.84686567  0.11903782  0.41328041  1
  V  V13  1  0.11775075  0.68068749  0.36540218  1
  V  V14  1  0.36342262  0.93052162  0.37062077  1
  V  V15  1  0.50629546  0.82014927  0.99621103  1
  V  V16  1  0.00887539  0.31917886  0.00270576  1
  V  V17  1  0.25357424  0.56779736  0.00159997  1
  V  V18  1  0.24592867  0.92253860  0.99845316  1
  V  V19  1  0.13009903  0.57057014  0.63544589  1
  V  V20  1  0.38104187  0.82017001  0.63492442  1
  V  V21  1  0.60617337  0.53518706  0.36504131  1
  V  V22  1  0.85755890  0.78271236  0.36377993  1
  V  V23  1  0.10802482  0.03323534  0.36351774  1
  V  V24  1  0.35375300  0.28640109  0.37038732  1
  V  V25  1  0.14071140  0.21818247  0.63627954  1
  V  V26  1  0.64355384  0.71631788  0.63437736  1
  V  V27  1  0.39197318  0.46833874  0.63587464  1
  V  V28  1  0.89285452  0.96853635  0.63522320  1
  V  V29  1  0.61947064  0.18444502  0.37072277  1
  V  V30  1  0.86909098  0.43033308  0.36594757  1
  V  V31  1  0.76003391  0.07610121  0.99815525  1
  V  V32  1  0.49608679  0.17876148  0.99749881  1
  V  V33  1  0.74452219  0.42933523  0.00111746  1
  V  V34  1  0.99081186  0.67820235  0.99876465  1
  V  V35  1  0.63170592  0.06949878  0.63428505  1
  V  V36  1  0.88220631  0.31830016  0.63447621  1
  O  O37  1  0.16437956  0.99409087  0.19852081  1
  O  O38  1  0.62035782  0.96172270  0.00531318  1
  O  O39  1  0.11346716  0.45586688  0.00013515  1
  O  O40  1  0.36925270  0.71946189  0.99920657  1
  O  O41  1  0.22100223  0.83320131  0.39199898  1
  O  O42  1  0.03157285  0.75268875  0.58323166  1
  O  O43  1  0.18322790  0.62495265  0.19850348  1
  O  O44  1  0.43642221  0.87875038  0.20196376  1
  O  O45  1  0.31333046  0.87617669  0.80177247  1
  O  O46  1  0.06398048  0.62440782  0.80174525  1
  O  O47  1  0.12583734  0.12367758  0.00081572  1
  O  O48  1  0.37391762  0.37305549  0.00204097  1
  O  O49  1  0.62116788  0.63067089  0.99861700  1
  O  O50  1  0.87611645  0.87583032  0.99918590  1
  O  O51  1  0.71850660  0.99802285  0.41722232  1
  O  O52  1  0.46693523  0.74826435  0.41677876  1
  O  O53  1  0.21793429  0.49765098  0.41622817  1
  O  O54  1  0.27839298  0.66556087  0.60857632  1
  O  O55  1  0.02900084  0.41719818  0.60805516  1
  O  O56  1  0.52910856  0.91490450  0.60788810  1
  O  O57  1  0.12129109  0.77376120  0.00003174  1
  O  O58  1  0.41715283  0.23861133  0.20326952  1
  O  O59  1  0.91223740  0.74451190  0.19947183  1
  O  O60  1  0.66158094  0.49770617  0.20063696  1
  O  O61  1  0.02212526  0.09868290  0.59555408  1
  O  O62  1  0.77118016  0.84994923  0.59589243  1
  O  O63  1  0.27174356  0.34871220  0.59340547  1
  O  O64  1  0.52023826  0.60053558  0.59615462  1
  O  O65  1  0.22715164  0.15194877  0.40560660  1
  O  O66  1  0.47830801  0.40159320  0.40562547  1
  O  O67  1  0.97906295  0.90039010  0.40382874  1
  O  O68  1  0.72869527  0.65102372  0.40507658  1
  O  O69  1  0.33551418  0.50295080  0.80114381  1
  O  O70  1  0.08830000  0.25395018  0.80004718  1
  O  O71  1  0.58694691  0.75459542  0.79958768  1
  O  O72  1  0.87887312  0.22385744  0.99961093  1
  O  O73  1  0.47402017  0.08090255  0.38865870  1
  O  O74  1  0.72078590  0.33556453  0.39219878  1
  O  O75  1  0.97020246  0.58495782  0.39230306  1
  O  O76  1  0.28259600  0.00291651  0.58096389  1
  O  O77  1  0.53193856  0.25252557  0.58084799  1
  O  O78  1  0.78217016  0.50197637  0.58306579  1
  O  O79  1  0.68228862  0.12375209  0.20101446  1
  O  O80  1  0.93543657  0.37435225  0.19943949  1
  O  O81  1  0.56426495  0.12713282  0.80025630  1
  O  O82  1  0.81557791  0.37620403  0.79962167  1
  O  O83  1  0.96877844  0.24672035  0.41648073  1
  O  O84  1  0.77910473  0.16565262  0.60744648  1
  O  O85  1  0.88000221  0.54462937  0.00069897  1
  O  O86  1  0.63406843  0.28296302  0.99988552  1
  O  O87  1  0.39036855  0.02355381  0.99928932  1
  O  O88  1  0.83838762  0.00654490  0.80046042  1
