# generated using pymatgen
data_Li3CrO4
_symmetry_space_group_name_H-M   'P 1'
_cell_length_a   4.94681126
_cell_length_b   10.09786485
_cell_length_c   9.66734669
_cell_angle_alpha   16.78737738
_cell_angle_beta   29.30002751
_cell_angle_gamma   33.39386746
_symmetry_Int_Tables_number   1
_chemical_formula_structural   Li3CrO4
_chemical_formula_sum   'Li3 Cr1 O4'
_cell_volume   68.25579790
_cell_formula_units_Z   1
loop_
 _symmetry_equiv_pos_site_id
 _symmetry_equiv_pos_as_xyz
  1  'x, y, z'
loop_
 _atom_site_type_symbol
 _atom_site_label
 _atom_site_symmetry_multiplicity
 _atom_site_fract_x
 _atom_site_fract_y
 _atom_site_fract_z
 _atom_site_occupancy
  Li  Li0  1  0.00001621  0.99999515  0.99999141  1
  Li  Li1  1  0.99999687  0.49999466  0.00000480  1
  Li  Li2  1  0.49999241  0.99999472  0.50001762  1
  Cr  Cr3  1  0.49997290  0.50003971  0.49996809  1
  O  O4  1  0.27366624  0.99997277  0.22679157  1
  O  O5  1  0.17242502  0.49995295  0.27584711  1
  O  O6  1  0.72634486  0.00001797  0.77321465  1
  O  O7  1  0.82758549  0.50003308  0.72416475  1
