# generated using pymatgen
data_V5O12
_symmetry_space_group_name_H-M   'P 1'
_cell_length_a   5.32889985
_cell_length_b   10.85347025
_cell_length_c   9.69204432
_cell_angle_alpha   27.22462225
_cell_angle_beta   50.18683949
_cell_angle_gamma   55.52983666
_symmetry_Int_Tables_number   1
_chemical_formula_structural   V5O12
_chemical_formula_sum   'V5 O12'
_cell_volume   196.97544838
_cell_formula_units_Z   1
loop_
 _symmetry_equiv_pos_site_id
 _symmetry_equiv_pos_as_xyz
  1  'x, y, z'
loop_
 _atom_site_type_symbol
 _atom_site_label
 _atom_site_symmetry_multiplicity
 _atom_site_fract_x
 _atom_site_fract_y
 _atom_site_fract_z
 _atom_site_occupancy
  V  V0  1  0.03268569  0.01400260  0.96955072  1
  V  V1  1  0.97589840  0.48186866  0.03283676  1
  V  V2  1  0.48198539  0.97493196  0.54284060  1
  V  V3  1  0.51110457  0.52821712  0.45465163  1
  V  V4  1  0.31924452  0.99580896  0.28128200  1
  O  O5  1  0.33415083  0.28741886  0.13487698  1
  O  O6  1  0.23240921  0.10184900  0.62919893  1
  O  O7  1  0.12366534  0.30897234  0.72089718  1
  O  O8  1  0.88778867  0.16833983  0.24514259  1
  O  O9  1  0.33492669  0.81387864  0.11945678  1
  O  O10  1  0.74322490  0.39433676  0.33566395  1
  O  O11  1  0.22561822  0.67665107  0.55953998  1
  O  O12  1  0.55227373  0.17654380  0.89749203  1
  O  O13  1  0.13932308  0.80742053  0.71183648  1
  O  O14  1  0.84569046  0.68538357  0.24117546  1
  O  O15  1  0.70252784  0.90072963  0.32885318  1
  O  O16  1  0.61678346  0.68364467  0.85400475  1
