# generated using pymatgen
data_LiFe2OF5
_symmetry_space_group_name_H-M   'P 1'
_cell_length_a   5.22269399
_cell_length_b   5.22195574
_cell_length_c   13.72668650
_cell_angle_alpha   90.01392282
_cell_angle_beta   89.96840003
_cell_angle_gamma   120.00180890
_symmetry_Int_Tables_number   1
_chemical_formula_structural   LiFe2OF5
_chemical_formula_sum   'Li3 Fe6 O3 F15'
_cell_volume   324.20232912
_cell_formula_units_Z   3
loop_
 _symmetry_equiv_pos_site_id
 _symmetry_equiv_pos_as_xyz
  1  'x, y, z'
loop_
 _atom_site_type_symbol
 _atom_site_label
 _atom_site_symmetry_multiplicity
 _atom_site_fract_x
 _atom_site_fract_y
 _atom_site_fract_z
 _atom_site_occupancy
  Li  Li0  1  0.97777596  0.97612634  0.00470967  1
  Li  Li1  1  0.02400280  0.00059994  0.33783550  1
  Li  Li2  1  -0.00063762  0.02324917  0.67131465  1
  Fe  Fe3  1  0.31665049  0.64632626  0.82883040  1
  Fe  Fe4  1  0.35302941  0.67002413  0.16202699  1
  Fe  Fe5  1  0.33006235  0.68354675  0.49534933  1
  Fe  Fe6  1  0.66949487  0.35208602  0.16210244  1
  Fe  Fe7  1  0.64808404  0.31783257  0.49535953  1
  Fe  Fe8  1  0.68241280  0.33014133  0.82886898  1
  O  O9  1  0.99946222  0.34983143  0.75980497  1
  O  O10  1  0.35104690  0.00084350  0.42628020  1
  O  O11  1  0.64963979  0.64913267  0.09301266  1
  F  F12  1  0.01226414  0.64345488  0.24359293  1
  F  F13  1  0.00067977  0.65198608  0.91240822  1
  F  F14  1  0.98651753  0.63364639  0.57551861  1
  F  F15  1  -0.00030400  0.34682487  0.42384076  1
  F  F16  1  0.00077338  0.34952926  0.08938454  1
  F  F17  1  0.36632940  0.35281036  0.90899691  1
  F  F18  1  0.35692842  0.36955929  0.57690280  1
  F  F19  1  0.34756211  0.34875731  0.24568188  1
  F  F20  1  0.34684274  0.00068418  0.09060480  1
  F  F21  1  0.34874630  0.99882364  0.75613105  1
  F  F22  1  0.65335436  0.65254458  0.75732691  1
  F  F23  1  0.65075624  0.65180379  0.42262578  1
  F  F24  1  0.63040782  0.98717094  0.91038192  1
  F  F25  1  0.64671429  0.01324967  0.24212630  1
  F  F26  1  0.65110449  0.99941364  0.57898026  1
