# generated using pymatgen
data_LiFe2OF5
_symmetry_space_group_name_H-M   'P 1'
_cell_length_a   5.34813319
_cell_length_b   4.85368871
_cell_length_c   15.21430478
_cell_angle_alpha   90.00000000
_cell_angle_beta   89.31129087
_cell_angle_gamma   90.00000000
_symmetry_Int_Tables_number   1
_chemical_formula_structural   LiFe2OF5
_chemical_formula_sum   'Li4 Fe8 O4 F20'
_cell_volume   394.90703467
_cell_formula_units_Z   4
loop_
 _symmetry_equiv_pos_site_id
 _symmetry_equiv_pos_as_xyz
  1  'x, y, z'
loop_
 _atom_site_type_symbol
 _atom_site_label
 _atom_site_symmetry_multiplicity
 _atom_site_fract_x
 _atom_site_fract_y
 _atom_site_fract_z
 _atom_site_occupancy
  Li  Li0  1  0.12910245  0.00695865  0.57436863  1
  Li  Li1  1  0.12910245  0.49304135  0.07436863  1
  Li  Li2  1  0.81484254  0.50504634  0.92660024  1
  Li  Li3  1  0.81484254  0.99495366  0.42660024  1
  Fe  Fe4  1  0.28116123  0.51846699  0.74931950  1
  Fe  Fe5  1  0.30294891  0.96629775  0.90439741  1
  Fe  Fe6  1  0.28116123  0.98153301  0.24931950  1
  Fe  Fe7  1  0.30294891  0.53370225  0.40439741  1
  Fe  Fe8  1  0.61708102  0.47713676  0.58698584  1
  Fe  Fe9  1  0.79249497  0.02090904  0.75241411  1
  Fe  Fe10  1  0.61708102  0.02286324  0.08698584  1
  Fe  Fe11  1  0.79249497  0.47909096  0.25241411  1
  O  O12  1  0.09278798  0.83184679  0.80220387  1
  O  O13  1  0.09278798  0.66815321  0.30220387  1
  O  O14  1  0.54810429  0.27648765  0.69580359  1
  O  O15  1  0.54810429  0.22351235  0.19580359  1
  F  F16  1  0.16583456  0.32606965  0.86183096  1
  F  F17  1  0.07867889  0.75179988  0.97564245  1
  F  F18  1  0.16583456  0.17393035  0.36183096  1
  F  F19  1  0.07867889  0.74820012  0.47564245  1
  F  F20  1  0.35007605  0.28922776  0.51683321  1
  F  F21  1  0.33449765  0.72274753  0.63736808  1
  F  F22  1  0.56566443  0.71939387  0.80846745  1
  F  F23  1  0.35007605  0.21077224  0.01683321  1
  F  F24  1  0.64512912  0.18478893  0.86324493  1
  F  F25  1  0.33449765  0.77725247  0.13736808  1
  F  F26  1  0.57119846  0.77449355  0.97806114  1
  F  F27  1  0.56566443  0.78060613  0.30846745  1
  F  F28  1  0.64512912  0.31521107  0.36324493  1
  F  F29  1  0.57119846  0.72550645  0.47806114  1
  F  F30  1  0.84810349  0.23728596  0.53014320  1
  F  F31  1  0.82336120  0.77782137  0.64438550  1
  F  F32  1  0.03893176  0.27358401  0.69193189  1
  F  F33  1  0.84810349  0.26271404  0.03014320  1
  F  F34  1  0.82336120  0.72217863  0.14438550  1
  F  F35  1  0.03893176  0.22641599  0.19193189  1
