# generated using pymatgen
data_LiV6O7F5
_symmetry_space_group_name_H-M   'P 1'
_cell_length_a   4.94060220
_cell_length_b   5.67361449
_cell_length_c   7.81932027
_cell_angle_alpha   84.38145220
_cell_angle_beta   92.47132266
_cell_angle_gamma   94.55604424
_symmetry_Int_Tables_number   1
_chemical_formula_structural   LiV6O7F5
_chemical_formula_sum   'Li1 V6 O7 F5'
_cell_volume   217.30361951
_cell_formula_units_Z   1
loop_
 _symmetry_equiv_pos_site_id
 _symmetry_equiv_pos_as_xyz
  1  'x, y, z'
loop_
 _atom_site_type_symbol
 _atom_site_label
 _atom_site_symmetry_multiplicity
 _atom_site_fract_x
 _atom_site_fract_y
 _atom_site_fract_z
 _atom_site_occupancy
  Li  Li0  1  0.50067734  0.21409617  0.78306329  1
  V  V1  1  0.00365984  0.99229484  0.00221868  1
  V  V2  1  0.44783503  0.54329787  0.02046127  1
  V  V3  1  0.56071562  0.78996898  0.65962386  1
  V  V4  1  0.50597714  0.18138410  0.32437870  1
  V  V5  1  0.98265002  0.65917261  0.32517178  1
  V  V6  1  0.99682828  0.34603969  0.65870614  1
  O  O7  1  0.17352375  0.71506396  0.10745005  1
  O  O8  1  0.32637085  0.51406158  0.76166051  1
  O  O9  1  0.30969565  0.20651811  0.09392182  1
  O  O10  1  0.68626029  0.81032412  0.90676064  1
  O  O11  1  0.67979805  0.47903097  0.23944444  1
  O  O12  1  0.67612864  0.12828799  0.57398772  1
  O  O13  1  0.83629527  0.62754002  0.56330480  1
  F  F14  1  0.17817697  0.03073391  0.75947015  1
  F  F15  1  0.18874935  0.36096989  0.42396371  1
  F  F16  1  0.31340040  0.85828267  0.42554339  1
  F  F17  1  0.80836255  0.97807233  0.23827366  1
  F  F18  1  0.82206598  0.30282720  0.89798240  1
