# generated using pymatgen
data_Li11V6O5F19
_symmetry_space_group_name_H-M   'P 1'
_cell_length_a   5.19940158
_cell_length_b   5.47607448
_cell_length_c   16.19173612
_cell_angle_alpha   79.94397151
_cell_angle_beta   90.39162189
_cell_angle_gamma   89.32845368
_symmetry_Int_Tables_number   1
_chemical_formula_structural   Li11V6O5F19
_chemical_formula_sum   'Li11 V6 O5 F19'
_cell_volume   453.88411623
_cell_formula_units_Z   1
loop_
 _symmetry_equiv_pos_site_id
 _symmetry_equiv_pos_as_xyz
  1  'x, y, z'
loop_
 _atom_site_type_symbol
 _atom_site_label
 _atom_site_symmetry_multiplicity
 _atom_site_fract_x
 _atom_site_fract_y
 _atom_site_fract_z
 _atom_site_occupancy
  Li  Li0  1  0.45625972  0.27794502  0.21065782  1
  Li  Li1  1  0.98852433  0.04263278  0.76965568  1
  Li  Li2  1  0.50174249  0.20413442  0.43703949  1
  Li  Li3  1  0.97919527  0.42185224  0.09390468  1
  Li  Li4  1  0.48954979  0.12175244  0.88894305  1
  Li  Li5  1  0.47849661  0.58851181  0.53230598  1
  Li  Li6  1  0.03241386  0.77758204  0.21136825  1
  Li  Li7  1  0.00011462  0.71634791  0.43799717  1
  Li  Li8  1  0.51722309  0.57282873  0.76750019  1
  Li  Li9  1  0.50175565  0.86014902  0.10705248  1
  Li  Li10  1  0.00792904  0.56715139  0.90031530  1
  V  V11  1  0.02022496  0.32123177  0.33892062  1
  V  V12  1  0.48068112  0.14199018  0.66856622  1
  V  V13  1  0.99539350  0.99784691  0.99638059  1
  V  V14  1  0.49394570  0.49717447  0.99643594  1
  V  V15  1  0.47240352  0.81682294  0.33747458  1
  V  V16  1  0.01321027  0.67560167  0.66662794  1
  O  O17  1  0.19777832  0.01793578  0.36745658  1
  O  O18  1  0.18632820  0.68086172  0.02059242  1
  O  O19  1  0.30251858  0.51434431  0.37244400  1
  O  O20  1  0.80422175  0.31360530  0.97548888  1
  O  O21  1  0.30221180  0.84358024  0.70428220  1
  F  F22  1  0.31507858  0.16358768  0.03978392  1
  F  F23  1  0.68646448  0.14909031  0.29987787  1
  F  F24  1  0.12961478  0.03307856  0.88011652  1
  F  F25  1  0.40582908  0.23670344  0.55078336  1
  F  F26  1  0.11728349  0.41223641  0.20888197  1
  F  F27  1  0.61610620  0.49792264  0.11666263  1
  F  F28  1  0.63384459  0.16420944  0.78105249  1
  F  F29  1  0.84349620  0.34446274  0.44405226  1
  F  F30  1  0.17807591  0.33481725  0.70845088  1
  F  F31  1  0.67161438  0.50083480  0.64607443  1
  F  F32  1  0.80698775  0.65777177  0.29857392  1
  F  F33  1  0.36884244  0.48328360  0.87965209  1
  F  F34  1  0.86156536  0.95141368  0.11495442  1
  F  F35  1  0.13086772  0.68086222  0.55248676  1
  F  F36  1  0.36455905  0.90903846  0.21037168  1
  F  F37  1  0.86884834  0.66432874  0.78572687  1
  F  F38  1  0.63915094  0.82340628  0.45176515  1
  F  F39  1  0.67352916  0.83206516  0.95538879  1
  F  F40  1  0.81845732  0.99556572  0.64133694  1
