# generated using pymatgen
data_Co(SiO3)2
_symmetry_space_group_name_H-M   'P 1'
_cell_length_a   5.10495308
_cell_length_b   10.79096426
_cell_length_c   18.47232392
_cell_angle_alpha   89.99997051
_cell_angle_beta   90.00202402
_cell_angle_gamma   90.01052669
_symmetry_Int_Tables_number   1
_chemical_formula_structural   Co(SiO3)2
_chemical_formula_sum   'Co8 Si16 O48'
_cell_volume   1017.59165491
_cell_formula_units_Z   8
loop_
 _symmetry_equiv_pos_site_id
 _symmetry_equiv_pos_as_xyz
  1  'x, y, z'
loop_
 _atom_site_type_symbol
 _atom_site_label
 _atom_site_symmetry_multiplicity
 _atom_site_fract_x
 _atom_site_fract_y
 _atom_site_fract_z
 _atom_site_occupancy
  Co  Co0  1  0.43943525  0.04234690  0.12614834  1
  Co  Co1  1  0.56058642  0.95763601  0.87388414  1
  Co  Co2  1  0.93925170  0.95763587  0.37382666  1
  Co  Co3  1  0.06071065  0.04237063  0.62614710  1
  Co  Co4  1  0.43941688  0.54236405  0.37383129  1
  Co  Co5  1  0.56056012  0.45761280  0.62613593  1
  Co  Co6  1  0.93933026  0.45766944  0.12615260  1
  Co  Co7  1  0.06070668  0.54235624  0.87387757  1
  Si  Si8  1  0.62517637  0.66856335  0.22356933  1
  Si  Si9  1  0.76697867  0.82946016  0.52575067  1
  Si  Si10  1  0.73332443  0.82958415  0.02582322  1
  Si  Si11  1  0.87475689  0.16859665  0.77640093  1
  Si  Si12  1  0.12518327  0.33140848  0.27638854  1
  Si  Si13  1  0.37480999  0.83142649  0.72362743  1
  Si  Si14  1  0.26691969  0.67044805  0.52575485  1
  Si  Si15  1  0.76682674  0.32947419  0.97423917  1
  Si  Si16  1  0.73308205  0.32952984  0.47419651  1
  Si  Si17  1  0.87476694  0.66859716  0.72361940  1
  Si  Si18  1  0.37479843  0.33142375  0.77640375  1
  Si  Si19  1  0.62514094  0.16857177  0.27639144  1
  Si  Si20  1  0.23302348  0.17052480  0.47420834  1
  Si  Si21  1  0.12521068  0.83142073  0.22357451  1
  Si  Si22  1  0.23326226  0.67052679  0.02582045  1
  Si  Si23  1  0.26677496  0.17041927  0.97422839  1
  O  O24  1  0.79656644  0.54612781  0.67560947  1
  O  O25  1  0.33698072  0.04907195  0.92488064  1
  O  O26  1  0.20321824  0.45389408  0.32441075  1
  O  O27  1  0.77764218  0.36179313  0.06077189  1
  O  O28  1  0.27763280  0.13812226  0.06075803  1
  O  O29  1  0.97080976  0.21710686  0.95500976  1
  O  O30  1  0.87598860  0.63259926  0.80991937  1
  O  O31  1  0.12399067  0.86745025  0.30986171  1
  O  O32  1  0.77771788  0.86168421  0.43919990  1
  O  O33  1  0.87601063  0.13261101  0.69011037  1
  O  O34  1  0.29681223  0.45393566  0.82440138  1
  O  O35  1  0.72220026  0.36177232  0.56073949  1
  O  O36  1  0.66312714  0.95093099  0.07518877  1
  O  O37  1  0.37594919  0.86732901  0.80992382  1
  O  O38  1  0.70303589  0.04607049  0.32440229  1
  O  O39  1  0.33716136  0.54905388  0.57508792  1
  O  O40  1  0.29678889  0.95391582  0.67563092  1
  O  O41  1  0.16769213  0.72034458  0.70466203  1
  O  O42  1  0.33233912  0.72038137  0.20464874  1
  O  O43  1  0.52922451  0.71721998  0.04506336  1
  O  O44  1  0.72245178  0.86190595  0.93930084  1
  O  O45  1  0.62413486  0.63259784  0.30986825  1
  O  O46  1  0.83725253  0.45084378  0.92488364  1
  O  O47  1  0.16767055  0.22036524  0.79537826  1
  O  O48  1  0.22224835  0.13830481  0.56075087  1
  O  O49  1  0.62410899  0.13261225  0.19010584  1
  O  O50  1  0.66288734  0.45092940  0.42485097  1
  O  O51  1  0.27774853  0.63823176  0.43920312  1
  O  O52  1  0.16289600  0.54916405  0.07517686  1
  O  O53  1  0.66773711  0.77968539  0.70469214  1
  O  O54  1  0.20320469  0.95389928  0.17557287  1
  O  O55  1  0.83237276  0.77958693  0.20461117  1
  O  O56  1  0.83229317  0.27963112  0.29533666  1
  O  O57  1  0.83745011  0.95082744  0.57507759  1
  O  O58  1  0.22240189  0.63821258  0.93927935  1
  O  O59  1  0.16259160  0.04914145  0.42487276  1
  O  O60  1  0.33225167  0.22034469  0.29531103  1
  O  O61  1  0.02926838  0.78288657  0.04505793  1
  O  O62  1  0.47099568  0.78280684  0.54501651  1
  O  O63  1  0.66771040  0.27968482  0.79533268  1
  O  O64  1  0.47085845  0.28279461  0.95499274  1
  O  O65  1  0.52898901  0.21718219  0.45492698  1
  O  O66  1  0.02902973  0.28288338  0.45494831  1
  O  O67  1  0.37588513  0.36734916  0.69010020  1
  O  O68  1  0.70301924  0.54605152  0.17557071  1
  O  O69  1  0.97095204  0.71708273  0.54499143  1
  O  O70  1  0.12407106  0.36745763  0.19010764  1
  O  O71  1  0.79659161  0.04615013  0.82440148  1
