# generated using pymatgen
data_Li4TiCo2Ni3(PO4)6
_symmetry_space_group_name_H-M   'P 1'
_cell_length_a   8.41453974
_cell_length_b   8.52599123
_cell_length_c   8.50778720
_cell_angle_alpha   62.09020190
_cell_angle_beta   62.31374424
_cell_angle_gamma   62.45929744
_symmetry_Int_Tables_number   1
_chemical_formula_structural   Li4TiCo2Ni3(PO4)6
_chemical_formula_sum   'Li4 Ti1 Co2 Ni3 P6 O24'
_cell_volume   453.62539089
_cell_formula_units_Z   1
loop_
 _symmetry_equiv_pos_site_id
 _symmetry_equiv_pos_as_xyz
  1  'x, y, z'
loop_
 _atom_site_type_symbol
 _atom_site_label
 _atom_site_symmetry_multiplicity
 _atom_site_fract_x
 _atom_site_fract_y
 _atom_site_fract_z
 _atom_site_occupancy
  Li  Li0  1  0.74527988  0.15213618  0.35891466  1
  Li  Li1  1  0.28942370  0.84763142  0.64835774  1
  Li  Li2  1  0.64574585  0.28937945  0.85268164  1
  Li  Li3  1  0.85361070  0.64628988  0.29103646  1
  Ti  Ti4  1  0.85235736  0.84668882  0.85108244  1
  Co  Co5  1  0.01107876  0.00176874  0.99818705  1
  Co  Co6  1  0.49063862  0.50422586  0.50175161  1
  Ni  Ni7  1  0.14294787  0.14717854  0.14491631  1
  Ni  Ni8  1  0.35831329  0.35649035  0.35407317  1
  Ni  Ni9  1  0.64457769  0.64707473  0.64824694  1
  P  P10  1  0.24607316  0.54537387  0.95794778  1
  P  P11  1  0.55341141  0.95954036  0.24884153  1
  P  P12  1  0.94697017  0.24534002  0.54182652  1
  P  P13  1  0.05275831  0.74358080  0.44512807  1
  P  P14  1  0.44313563  0.04758876  0.75003236  1
  P  P15  1  0.74809022  0.44394344  0.04750441  1
  O  O16  1  0.11661128  0.29307761  0.49941134  1
  O  O17  1  0.30674446  0.52168969  0.11074472  1
  O  O18  1  0.05998938  0.90796777  0.25926581  1
  O  O19  1  0.55314914  0.10701591  0.30289491  1
  O  O20  1  0.99122814  0.81315621  0.61451564  1
  O  O21  1  0.24640905  0.59236615  0.44437241  1
  O  O22  1  0.25056004  0.07373443  0.90414791  1
  O  O23  1  0.46337828  0.23180835  0.58747080  1
  O  O24  1  0.16710295  0.40040002  0.99788500  1
  O  O25  1  0.60158584  0.43686661  0.24560476  1
  O  O26  1  0.09549513  0.75384158  0.91754758  1
  O  O27  1  0.39393838  0.01761906  0.18011146  1
  O  O28  1  0.61208888  0.98224898  0.82424422  1
  O  O29  1  0.89967312  0.24845348  0.07350668  1
  O  O30  1  0.40434632  0.56254174  0.75826387  1
  O  O31  1  0.81819008  0.61157420  0.98767001  1
  O  O32  1  0.56084271  0.76305136  0.40830094  1
  O  O33  1  0.75811282  0.91324912  0.09443215  1
  O  O34  1  0.75147728  0.40835548  0.56522819  1
  O  O35  1  0.95816599  0.17776303  0.39934829  1
  O  O36  1  0.47049139  0.89540096  0.68473247  1
  O  O37  1  0.91604045  0.09374908  0.74879488  1
  O  O38  1  0.67999399  0.47439207  0.89568708  1
  O  O39  1  0.89996931  0.67244388  0.47828819  1
