# generated using pymatgen
data_Li6Fe(O2F)2
_symmetry_space_group_name_H-M   'P 1'
_cell_length_a   5.74083922
_cell_length_b   5.48568587
_cell_length_c   5.74023407
_cell_angle_alpha   89.93994200
_cell_angle_beta   61.41629912
_cell_angle_gamma   58.89963362
_symmetry_Int_Tables_number   1
_chemical_formula_structural   Li6Fe(O2F)2
_chemical_formula_sum   'Li6 Fe1 O4 F2'
_cell_volume   128.43833447
_cell_formula_units_Z   1
loop_
 _symmetry_equiv_pos_site_id
 _symmetry_equiv_pos_as_xyz
  1  'x, y, z'
loop_
 _atom_site_type_symbol
 _atom_site_label
 _atom_site_symmetry_multiplicity
 _atom_site_fract_x
 _atom_site_fract_y
 _atom_site_fract_z
 _atom_site_occupancy
  Li  Li0  1  0.43715749  0.28391902  0.06697578  1
  Li  Li1  1  0.16342573  0.33279666  0.74839118  1
  Li  Li2  1  0.17873578  0.73767074  0.51777848  1
  Li  Li3  1  0.82126422  0.26232926  0.48222152  1
  Li  Li4  1  0.83657427  0.66720334  0.25160882  1
  Li  Li5  1  0.56284251  0.71608098  0.93302422  1
  Fe  Fe6  1  0.00000000  0.00000000  0.00000000  1
  O  O7  1  0.12344844  0.22278639  0.08655477  1
  O  O8  1  0.13708321  0.76215847  0.20460963  1
  O  O9  1  0.86291679  0.23784153  0.79539037  1
  O  O10  1  0.87655156  0.77721361  0.91344523  1
  F  F11  1  0.49457755  0.28399904  0.39283382  1
  F  F12  1  0.50542245  0.71600096  0.60716618  1
