# generated using pymatgen
data_Fe5(OF4)2
_symmetry_space_group_name_H-M   'P 1'
_cell_length_a   4.82021243
_cell_length_b   4.82402673
_cell_length_c   16.06278249
_cell_angle_alpha   90.00000000
_cell_angle_beta   89.47994716
_cell_angle_gamma   90.00000000
_symmetry_Int_Tables_number   1
_chemical_formula_structural   Fe5(OF4)2
_chemical_formula_sum   'Fe10 O4 F16'
_cell_volume   373.48982301
_cell_formula_units_Z   2
loop_
 _symmetry_equiv_pos_site_id
 _symmetry_equiv_pos_as_xyz
  1  'x, y, z'
loop_
 _atom_site_type_symbol
 _atom_site_label
 _atom_site_symmetry_multiplicity
 _atom_site_fract_x
 _atom_site_fract_y
 _atom_site_fract_z
 _atom_site_occupancy
  Fe  Fe0  1  0.00000000  0.00000000  0.00000000  1
  Fe  Fe1  1  0.99592367  0.01310800  0.19226149  1
  Fe  Fe2  1  0.97375833  0.97195218  0.39910311  1
  Fe  Fe3  1  0.02624167  0.02804782  0.60089689  1
  Fe  Fe4  1  0.00407633  0.98689200  0.80773851  1
  Fe  Fe5  1  0.52624167  0.47195218  0.10089689  1
  Fe  Fe6  1  0.50000000  0.50000000  0.50000000  1
  Fe  Fe7  1  0.50407633  0.51310800  0.30773851  1
  Fe  Fe8  1  0.49592367  0.48689200  0.69226149  1
  Fe  Fe9  1  0.47375833  0.52804782  0.89910311  1
  O  O10  1  0.17400173  0.82355484  0.89531246  1
  O  O11  1  0.32599827  0.32355484  0.60468754  1
  O  O12  1  0.67400173  0.67644516  0.39531246  1
  O  O13  1  0.82599827  0.17644516  0.10468754  1
  F  F14  1  0.21757440  0.78676087  0.11007526  1
  F  F15  1  0.19400799  0.79736606  0.29000695  1
  F  F16  1  0.19447402  0.80346709  0.49890695  1
  F  F17  1  0.20429453  0.80408656  0.70784571  1
  F  F18  1  0.30552598  0.30346709  0.00109305  1
  F  F19  1  0.30599201  0.29736606  0.20999305  1
  F  F20  1  0.28242560  0.28676087  0.38992474  1
  F  F21  1  0.29570547  0.30408656  0.79215429  1
  F  F22  1  0.69447402  0.69653291  0.99890695  1
  F  F23  1  0.70429453  0.69591344  0.20784571  1
  F  F24  1  0.71757440  0.71323913  0.61007526  1
  F  F25  1  0.69400799  0.70263394  0.79000695  1
  F  F26  1  0.80552598  0.19653291  0.50109305  1
  F  F27  1  0.79570547  0.19591344  0.29215429  1
  F  F28  1  0.78242560  0.21323913  0.88992474  1
  F  F29  1  0.80599201  0.20263394  0.70999305  1
