# generated using pymatgen
data_LiMnP2H5O9
_symmetry_space_group_name_H-M   'P 1'
_cell_length_a   7.68039360
_cell_length_b   7.69960096
_cell_length_c   7.81734318
_cell_angle_alpha   64.74339089
_cell_angle_beta   84.04311267
_cell_angle_gamma   72.41094323
_symmetry_Int_Tables_number   1
_chemical_formula_structural   LiMnP2H5O9
_chemical_formula_sum   'Li2 Mn2 P4 H10 O18'
_cell_volume   398.37805773
_cell_formula_units_Z   2
loop_
 _symmetry_equiv_pos_site_id
 _symmetry_equiv_pos_as_xyz
  1  'x, y, z'
loop_
 _atom_site_type_symbol
 _atom_site_label
 _atom_site_symmetry_multiplicity
 _atom_site_fract_x
 _atom_site_fract_y
 _atom_site_fract_z
 _atom_site_occupancy
  Li  Li0  1  0.15068064  0.78060906  0.22800275  1
  Li  Li1  1  0.84931936  0.21939094  0.77199725  1
  Mn  Mn2  1  0.26114747  0.22528515  0.03941097  1
  Mn  Mn3  1  0.73885253  0.77471485  0.96058903  1
  P  P4  1  0.08671578  0.68293422  0.73047560  1
  P  P5  1  0.36555296  0.04080267  0.74282726  1
  P  P6  1  0.63444704  0.95919733  0.25717274  1
  P  P7  1  0.91328422  0.31706578  0.26952440  1
  H  H8  1  0.13825704  0.29513694  0.42782525  1
  H  H9  1  0.20220016  0.92600088  0.54536167  1
  H  H10  1  0.43412268  0.34406805  0.27824231  1
  H  H11  1  0.46181495  0.30237443  0.54849908  1
  H  H12  1  0.53172002  0.49452739  0.26953200  1
  H  H13  1  0.46827998  0.50547261  0.73046800  1
  H  H14  1  0.53818505  0.69762557  0.45150092  1
  H  H15  1  0.56587732  0.65593195  0.72175769  1
  H  H16  1  0.79779984  0.07399912  0.45463833  1
  H  H17  1  0.86174296  0.70486306  0.57217475  1
  O  O18  1  0.02285227  0.18112208  0.17563507  1
  O  O19  1  0.04271369  0.41128957  0.32864247  1
  O  O20  1  0.25316641  0.08952367  0.56770854  1
  O  O21  1  0.24256939  0.04785606  0.91081270  1
  O  O22  1  0.24267356  0.51220631  0.85481999  1
  O  O23  1  0.16484133  0.81033196  0.53652428  1
  O  O24  1  0.48746405  0.16307213  0.19579378  1
  O  O25  1  0.42130672  0.45155315  0.32281291  1
  O  O26  1  0.47054738  0.20826491  0.68937146  1
  O  O27  1  0.52945262  0.79173509  0.31062854  1
  O  O28  1  0.57869328  0.54844685  0.67718709  1
  O  O29  1  0.51253595  0.83692787  0.80420622  1
  O  O30  1  0.83515867  0.18966804  0.46347572  1
  O  O31  1  0.75732644  0.48779369  0.14518001  1
  O  O32  1  0.75743061  0.95214394  0.08918730  1
  O  O33  1  0.74683359  0.91047633  0.43229146  1
  O  O34  1  0.95728631  0.58871043  0.67135753  1
  O  O35  1  0.97714773  0.81887792  0.82436493  1
