# generated using pymatgen
data_Na6Mn3(PO4)4
_symmetry_space_group_name_H-M   'P 1'
_cell_length_a   6.75940186
_cell_length_b   10.63214932
_cell_length_c   10.93660514
_cell_angle_alpha   90.39720301
_cell_angle_beta   89.88615497
_cell_angle_gamma   108.50012014
_symmetry_Int_Tables_number   1
_chemical_formula_structural   Na6Mn3(PO4)4
_chemical_formula_sum   'Na12 Mn6 P8 O32'
_cell_volume   745.34561119
_cell_formula_units_Z   2
loop_
 _symmetry_equiv_pos_site_id
 _symmetry_equiv_pos_as_xyz
  1  'x, y, z'
loop_
 _atom_site_type_symbol
 _atom_site_label
 _atom_site_symmetry_multiplicity
 _atom_site_fract_x
 _atom_site_fract_y
 _atom_site_fract_z
 _atom_site_occupancy
  Na  Na0  1  0.01259443  0.82465037  0.44317236  1
  Na  Na1  1  0.17991641  0.90435554  0.68593806  1
  Na  Na2  1  0.00476990  0.49223251  0.50238211  1
  Na  Na3  1  0.05659744  0.14491799  0.65189327  1
  Na  Na4  1  0.09215891  0.14800625  0.15046908  1
  Na  Na5  1  0.24937857  0.13789729  0.92602975  1
  Na  Na6  1  0.49076772  0.49713127  0.00272856  1
  Na  Na7  1  0.72533931  0.90433989  0.18748322  1
  Na  Na8  1  0.80695284  0.82182099  0.94724161  1
  Na  Na9  1  0.39949629  0.00751932  0.26278611  1
  Na  Na10  1  0.60691344  0.00631976  0.76288842  1
  Na  Na11  1  0.89495794  0.14059816  0.42709746  1
  Mn  Mn12  1  0.32596595  0.68502312  0.75694810  1
  Mn  Mn13  1  0.35985369  0.68623257  0.25680260  1
  Mn  Mn14  1  0.50389293  0.50400529  0.50780799  1
  Mn  Mn15  1  0.62447154  0.31022993  0.75324336  1
  Mn  Mn16  1  0.68619539  0.30976230  0.25428785  1
  Mn  Mn17  1  0.99928370  0.50227813  0.00770192  1
  P  P18  1  0.24208272  0.84498474  0.01814566  1
  P  P19  1  0.17249619  0.40014179  0.75307919  1
  P  P20  1  0.22937037  0.40167136  0.25322101  1
  P  P21  1  0.60163880  0.84594086  0.51737554  1
  P  P22  1  0.39154810  0.15889942  0.49807446  1
  P  P23  1  0.77900668  0.59680200  0.76339919  1
  P  P24  1  0.82030836  0.59785947  0.26340745  1
  P  P25  1  0.76719874  0.15844331  0.99648523  1
  O  O26  1  0.04478584  0.72223863  0.01556480  1
  O  O27  1  0.00267033  0.68823821  0.73496513  1
  O  O28  1  0.04759977  0.68487685  0.29514342  1
  O  O29  1  0.00781527  0.30412088  0.28155310  1
  O  O30  1  0.32760881  0.87604893  0.88354131  1
  O  O31  1  0.20344640  0.49991023  0.86301087  1
  O  O32  1  0.41261653  0.81661852  0.10109057  1
  O  O33  1  0.25908052  0.49669924  0.64348684  1
  O  O34  1  0.23736578  0.49807260  0.14404456  1
  O  O35  1  0.40689383  0.81705472  0.60390826  1
  O  O36  1  0.29652460  0.50075909  0.36383163  1
  O  O37  1  0.54163517  0.87582272  0.38371945  1
  O  O38  1  0.29730562  0.30360500  0.78079548  1
  O  O39  1  0.30982263  0.27828673  0.50657804  1
  O  O40  1  0.21211155  0.03886179  0.44331097  1
  O  O41  1  0.18571919  0.96696817  0.07235905  1
  O  O42  1  0.37161095  0.31720026  0.22027042  1
  O  O43  1  0.63852247  0.68325777  0.79575247  1
  O  O44  1  0.68774603  0.68829716  0.23433805  1
  O  O45  1  0.67855026  0.72441812  0.51295157  1
  O  O46  1  0.44023552  0.12298051  0.63286148  1
  O  O47  1  0.70186470  0.49732315  0.65356908  1
  O  O48  1  0.76172218  0.49893709  0.87290050  1
  O  O49  1  0.60018050  0.18960087  0.91398871  1
  O  O50  1  0.58930987  0.18853768  0.41482758  1
  O  O51  1  0.74074332  0.50118727  0.37412017  1
  O  O52  1  0.79889797  0.49704614  0.15493649  1
  O  O53  1  0.68213209  0.12468151  0.13168601  1
  O  O54  1  0.94565549  0.31393619  0.72007356  1
  O  O55  1  0.78013403  0.96883955  0.56986679  1
  O  O56  1  0.82295673  0.03729659  0.94149862  1
  O  O57  1  0.97067867  0.27675220  0.00455248  1
