# generated using pymatgen
data_LiVBO3
_symmetry_space_group_name_H-M   'P 1'
_cell_length_a   6.13805622
_cell_length_b   5.26274836
_cell_length_c   4.61083508
_cell_angle_alpha   65.65397339
_cell_angle_beta   108.87403825
_cell_angle_gamma   83.90354852
_symmetry_Int_Tables_number   1
_chemical_formula_structural   LiVBO3
_chemical_formula_sum   'Li2 V2 B2 O6'
_cell_volume   123.34536905
_cell_formula_units_Z   2
loop_
 _symmetry_equiv_pos_site_id
 _symmetry_equiv_pos_as_xyz
  1  'x, y, z'
loop_
 _atom_site_type_symbol
 _atom_site_label
 _atom_site_symmetry_multiplicity
 _atom_site_fract_x
 _atom_site_fract_y
 _atom_site_fract_z
 _atom_site_occupancy
  Li  Li0  1  0.66359573  0.62519424  0.44389043  1
  Li  Li1  1  0.33640427  0.37480576  0.55610957  1
  V  V2  1  0.75040415  0.24075345  0.20170066  1
  V  V3  1  0.24959585  0.75924655  0.79829934  1
  B  B4  1  0.74447372  0.90100825  0.79326212  1
  B  B5  1  0.25552628  0.09899175  0.20673788  1
  O  O6  1  0.64015162  0.71067735  0.97718830  1
  O  O7  1  0.86928421  0.81154705  0.63227513  1
  O  O8  1  0.70695344  0.19304897  0.72270463  1
  O  O9  1  0.29304656  0.80695103  0.27729537  1
  O  O10  1  0.13071579  0.18845295  0.36772487  1
  O  O11  1  0.35984838  0.28932265  0.02281170  1
