# generated using pymatgen
data_Li3MnV(PO4)3
_symmetry_space_group_name_H-M   'P 1'
_cell_length_a   10.28342126
_cell_length_b   10.28342156
_cell_length_c   10.28342118
_cell_angle_alpha   109.47121999
_cell_angle_beta   109.47122276
_cell_angle_gamma   109.47122202
_symmetry_Int_Tables_number   1
_chemical_formula_structural   Li3MnV(PO4)3
_chemical_formula_sum   'Li12 Mn4 V4 P12 O48'
_cell_volume   837.12629588
_cell_formula_units_Z   4
loop_
 _symmetry_equiv_pos_site_id
 _symmetry_equiv_pos_as_xyz
  1  'x, y, z'
loop_
 _atom_site_type_symbol
 _atom_site_label
 _atom_site_symmetry_multiplicity
 _atom_site_fract_x
 _atom_site_fract_y
 _atom_site_fract_z
 _atom_site_occupancy
  Li  Li0  1  0.25000000  0.87776736  0.62776736  1
  Li  Li1  1  0.12223264  0.37223264  0.75000000  1
  Li  Li2  1  0.12776736  0.25000000  0.37776736  1
  Li  Li3  1  0.62223264  0.87223264  0.75000000  1
  Li  Li4  1  0.37223264  0.75000000  0.12223264  1
  Li  Li5  1  0.25000000  0.37776736  0.12776736  1
  Li  Li6  1  0.75000000  0.62223264  0.87223264  1
  Li  Li7  1  0.62776736  0.25000000  0.87776736  1
  Li  Li8  1  0.37776736  0.12776736  0.25000000  1
  Li  Li9  1  0.87223264  0.75000000  0.62223264  1
  Li  Li10  1  0.87776736  0.62776736  0.25000000  1
  Li  Li11  1  0.75000000  0.12223264  0.37223264  1
  Mn  Mn12  1  0.00000000  0.00000000  0.50000000  1
  Mn  Mn13  1  0.00000000  0.50000000  0.00000000  1
  Mn  Mn14  1  0.50000000  0.50000000  0.50000000  1
  Mn  Mn15  1  0.50000000  0.00000000  0.00000000  1
  V  V16  1  0.00000000  0.50000000  0.50000000  1
  V  V17  1  0.00000000  0.00000000  0.00000000  1
  V  V18  1  0.50000000  0.00000000  0.50000000  1
  V  V19  1  0.50000000  0.50000000  0.00000000  1
  P  P20  1  0.12395451  0.75000000  0.87395451  1
  P  P21  1  0.12604549  0.87604549  0.25000000  1
  P  P22  1  0.37395451  0.62395451  0.75000000  1
  P  P23  1  0.25000000  0.62604549  0.37604549  1
  P  P24  1  0.25000000  0.12604549  0.87604549  1
  P  P25  1  0.37604549  0.25000000  0.62604549  1
  P  P26  1  0.62395451  0.75000000  0.37395451  1
  P  P27  1  0.75000000  0.37395451  0.62395451  1
  P  P28  1  0.75000000  0.87395451  0.12395451  1
  P  P29  1  0.62604549  0.37604549  0.25000000  1
  P  P30  1  0.87395451  0.12395451  0.75000000  1
  P  P31  1  0.87604549  0.25000000  0.12604549  1
  O  O32  1  0.10936194  0.99560993  0.70984489  1
  O  O33  1  0.11375201  0.60936194  0.89951705  1
  O  O34  1  0.00439007  0.29015511  0.89063806  1
  O  O35  1  0.08256501  0.70252276  0.69497996  1
  O  O36  1  0.10048295  0.88624799  0.39063806  1
  O  O37  1  0.11241496  0.61995775  0.41743499  1
  O  O38  1  0.19497996  0.49245720  0.61241496  1
  O  O39  1  0.39951705  0.79015511  0.78576504  1
  O  O40  1  0.38004225  0.58256501  0.88758504  1
  O  O41  1  0.29747724  0.30502004  0.91743499  1
  O  O42  1  0.30502004  0.91743499  0.29747724  1
  O  O43  1  0.00754280  0.20252276  0.11995775  1
  O  O44  1  0.20984489  0.21423496  0.60048295  1
  O  O45  1  0.21423496  0.60048295  0.20984489  1
  O  O46  1  0.38758504  0.80502004  0.50754280  1
  O  O47  1  0.28576504  0.49560993  0.38624799  1
  O  O48  1  0.29015511  0.89063806  0.00439007  1
  O  O49  1  0.11995775  0.00754280  0.20252276  1
  O  O50  1  0.50439007  0.61375201  0.71423496  1
  O  O51  1  0.39063806  0.10048295  0.88624799  1
  O  O52  1  0.50754280  0.38758504  0.80502004  1
  O  O53  1  0.38624799  0.28576504  0.49560993  1
  O  O54  1  0.58256501  0.88758504  0.38004225  1
  O  O55  1  0.20252276  0.11995775  0.00754280  1
  O  O56  1  0.79747724  0.88004225  0.99245720  1
  O  O57  1  0.41743499  0.11241496  0.61995775  1
  O  O58  1  0.61375201  0.71423496  0.50439007  1
  O  O59  1  0.49245720  0.61241496  0.19497996  1
  O  O60  1  0.60936194  0.89951705  0.11375201  1
  O  O61  1  0.49560993  0.38624799  0.28576504  1
  O  O62  1  0.88004225  0.99245720  0.79747724  1
  O  O63  1  0.70984489  0.10936194  0.99560993  1
  O  O64  1  0.71423496  0.50439007  0.61375201  1
  O  O65  1  0.61241496  0.19497996  0.49245720  1
  O  O66  1  0.78576504  0.39951705  0.79015511  1
  O  O67  1  0.79015511  0.78576504  0.39951705  1
  O  O68  1  0.99245720  0.79747724  0.88004225  1
  O  O69  1  0.69497996  0.08256501  0.70252276  1
  O  O70  1  0.70252276  0.69497996  0.08256501  1
  O  O71  1  0.61995775  0.41743499  0.11241496  1
  O  O72  1  0.60048295  0.20984489  0.21423496  1
  O  O73  1  0.80502004  0.50754280  0.38758504  1
  O  O74  1  0.88758504  0.38004225  0.58256501  1
  O  O75  1  0.89951705  0.11375201  0.60936194  1
  O  O76  1  0.91743499  0.29747724  0.30502004  1
  O  O77  1  0.99560993  0.70984489  0.10936194  1
  O  O78  1  0.88624799  0.39063806  0.10048295  1
  O  O79  1  0.89063806  0.00439007  0.29015511  1
