# generated using pymatgen
data_Ba5Y3F19
_symmetry_space_group_name_H-M   'P 1'
_cell_length_a   11.94657967
_cell_length_b   11.94688476
_cell_length_c   11.94481956
_cell_angle_alpha   97.04717116
_cell_angle_beta   97.04871827
_cell_angle_gamma   138.99622081
_symmetry_Int_Tables_number   1
_chemical_formula_structural   Ba5Y3F19
_chemical_formula_sum   'Ba10 Y6 F38'
_cell_volume   1047.65827364
_cell_formula_units_Z   2
loop_
 _symmetry_equiv_pos_site_id
 _symmetry_equiv_pos_as_xyz
  1  'x, y, z'
loop_
 _atom_site_type_symbol
 _atom_site_label
 _atom_site_symmetry_multiplicity
 _atom_site_fract_x
 _atom_site_fract_y
 _atom_site_fract_z
 _atom_site_occupancy
  Ba  Ba0  1  0.69058911  0.19061849  0.49985960  1
  Ba  Ba1  1  0.74613905  0.56891775  0.30231837  1
  Ba  Ba2  1  0.76635898  0.06915059  0.82242262  1
  Ba  Ba3  1  0.06897899  0.24613790  0.30225705  1
  Ba  Ba4  1  0.44383468  0.74640682  0.17738159  1
  Ba  Ba5  1  0.56905829  0.26643203  0.82254827  1
  Ba  Ba6  1  0.94399222  0.76637380  0.69718785  1
  Ba  Ba7  1  0.26624734  0.44396261  0.69703382  1
  Ba  Ba8  1  0.24621967  0.94376262  0.17718939  1
  Ba  Ba9  1  0.19061014  0.69063034  0.49981902  1
  Y  Y10  1  0.82888188  0.32892765  0.16425748  1
  Y  Y11  1  0.16697105  0.16697865  0.99985438  1
  Y  Y12  1  0.66739202  0.66743987  0.99989505  1
  Y  Y13  1  0.32893581  0.16464620  0.49993872  1
  Y  Y14  1  0.66469603  0.82898257  0.50000218  1
  Y  Y15  1  0.16464502  0.66463558  0.83566088  1
  F  F16  1  0.75120904  0.09369328  0.16333673  1
  F  F17  1  0.59359217  0.25115273  0.16320806  1
  F  F18  1  0.86759746  0.36785190  0.35628487  1
  F  F19  1  0.88781006  0.10863566  0.63022793  1
  F  F20  1  0.97818409  0.60845437  0.22068513  1
  F  F21  1  0.23476145  0.04054015  0.98891715  1
  F  F22  1  0.41602898  0.41484252  0.00251448  1
  F  F23  1  0.91593474  0.91545277  0.00320825  1
  F  F24  1  0.73543666  0.74612157  0.19431588  1
  F  F25  1  0.47835145  0.25735456  0.36977120  1
  F  F26  1  0.01148909  0.51133759  0.64357037  1
  F  F27  1  0.65239653  0.15249009  0.70973046  1
  F  F28  1  0.94240747  0.65216055  0.49982057  1
  F  F29  1  0.24663154  0.23613362  0.19431942  1
  F  F30  1  0.54043253  0.73466456  0.98910869  1
  F  F31  1  0.60860181  0.38782750  0.63021759  1
  F  F32  1  0.77397403  0.74292302  0.49996603  1
  F  F33  1  0.74288979  0.24289671  0.96886523  1
  F  F34  1  0.43032441  0.59392924  0.34251043  1
  F  F35  1  0.93042593  0.58797778  0.83652464  1
  F  F36  1  0.25128712  0.08807401  0.65761211  1
  F  F37  1  0.27402728  0.77402383  0.03104779  1
  F  F38  1  0.24295014  0.27400838  0.49991812  1
  F  F39  1  0.75739232  0.97840710  0.36982565  1
  F  F40  1  0.10844099  0.47820419  0.22080673  1
  F  F41  1  0.04004471  0.05075388  0.80573867  1
  F  F42  1  0.74591760  0.55163507  0.01016805  1
  F  F43  1  0.44176444  0.94180147  0.29031707  1
  F  F44  1  0.15173464  0.44207639  0.49964107  1
  F  F45  1  0.58795592  0.75131590  0.65760544  1
  F  F46  1  0.51166323  0.86801173  0.50037999  1
  F  F47  1  0.55092307  0.54055905  0.80572965  1
  F  F48  1  0.05135232  0.24560090  0.01022399  1
  F  F49  1  0.38769224  0.75754073  0.77904310  1
  F  F50  1  0.36794777  0.01162948  0.50033636  1
  F  F51  1  0.09387469  0.93036778  0.34241616  1
  F  F52  1  0.08803628  0.43045073  0.83661297  1
  F  F53  1  0.25747572  0.88760774  0.77896770  1
