# generated using pymatgen
data_Ta2CrNO5
_symmetry_space_group_name_H-M   'P 1'
_cell_length_a   4.76404919
_cell_length_b   4.76404919
_cell_length_c   9.22409272
_cell_angle_alpha   89.77518553
_cell_angle_beta   90.22481447
_cell_angle_gamma   90.13503925
_symmetry_Int_Tables_number   1
_chemical_formula_structural   Ta2CrNO5
_chemical_formula_sum   'Ta4 Cr2 N2 O10'
_cell_volume   209.34773051
_cell_formula_units_Z   2
loop_
 _symmetry_equiv_pos_site_id
 _symmetry_equiv_pos_as_xyz
  1  'x, y, z'
loop_
 _atom_site_type_symbol
 _atom_site_label
 _atom_site_symmetry_multiplicity
 _atom_site_fract_x
 _atom_site_fract_y
 _atom_site_fract_z
 _atom_site_occupancy
  Ta  Ta0  1  0.98840613  0.01159387  0.34312554  1
  Ta  Ta1  1  0.99398721  0.00601279  0.67257687  1
  Ta  Ta2  1  0.49518808  0.50481192  0.16694151  1
  Ta  Ta3  1  0.48060364  0.51939636  0.82985825  1
  Cr  Cr4  1  0.00269110  0.99730890  0.99962042  1
  Cr  Cr5  1  0.50335089  0.49664911  0.49924710  1
  N  N6  1  0.19895410  0.80104590  0.83305316  1
  N  N7  1  0.80419535  0.19580465  0.49717802  1
  O  O8  1  0.19578572  0.80421428  0.49850697  1
  O  O9  1  0.20401916  0.79598084  0.16491268  1
  O  O10  1  0.30629328  0.30177315  0.32815375  1
  O  O11  1  0.30742440  0.30036372  0.66803780  1
  O  O12  1  0.31263295  0.30200376  0.00105471  1
  O  O13  1  0.69799624  0.68736705  0.00105471  1
  O  O14  1  0.69822685  0.69370672  0.32815375  1
  O  O15  1  0.69963628  0.69257560  0.66803780  1
  O  O16  1  0.80484273  0.19515727  0.16934819  1
  O  O17  1  0.80576588  0.19423412  0.83113979  1
