# generated using pymatgen
data_ZnAgBiO5
_symmetry_space_group_name_H-M   'P 1'
_cell_length_a   5.33596001
_cell_length_b   10.32952451
_cell_length_c   15.44322812
_cell_angle_alpha   90.00000000
_cell_angle_beta   90.00000000
_cell_angle_gamma   90.00000000
_symmetry_Int_Tables_number   1
_chemical_formula_structural   ZnAgBiO5
_chemical_formula_sum   'Zn8 Ag8 Bi8 O40'
_cell_volume   851.19876198
_cell_formula_units_Z   8
loop_
 _symmetry_equiv_pos_site_id
 _symmetry_equiv_pos_as_xyz
  1  'x, y, z'
loop_
 _atom_site_type_symbol
 _atom_site_label
 _atom_site_symmetry_multiplicity
 _atom_site_fract_x
 _atom_site_fract_y
 _atom_site_fract_z
 _atom_site_occupancy
  Zn  Zn0  1  0.54998219  0.37127141  0.44085324  1
  Zn  Zn1  1  0.04998219  0.12872859  0.44085324  1
  Zn  Zn2  1  0.04998219  0.62872859  0.05914676  1
  Zn  Zn3  1  0.95001781  0.37127141  0.94085324  1
  Zn  Zn4  1  0.45001781  0.12872859  0.94085324  1
  Zn  Zn5  1  0.95001781  0.87127141  0.55914676  1
  Zn  Zn6  1  0.45001781  0.62872859  0.55914676  1
  Zn  Zn7  1  0.54998219  0.87127141  0.05914676  1
  Ag  Ag8  1  0.02944053  0.38498655  0.58050280  1
  Ag  Ag9  1  0.47055947  0.88498655  0.41949720  1
  Ag  Ag10  1  0.97055947  0.61501345  0.41949720  1
  Ag  Ag11  1  0.52944053  0.11501345  0.58050280  1
  Ag  Ag12  1  0.97055947  0.11501345  0.08050280  1
  Ag  Ag13  1  0.02944053  0.88498655  0.91949720  1
  Ag  Ag14  1  0.47055947  0.38498655  0.08050280  1
  Ag  Ag15  1  0.52944053  0.61501345  0.91949720  1
  Bi  Bi16  1  0.03881584  0.85559762  0.24533454  1
  Bi  Bi17  1  0.96118416  0.14440238  0.75466546  1
  Bi  Bi18  1  0.46118416  0.35559762  0.75466546  1
  Bi  Bi19  1  0.96118416  0.64440238  0.74533454  1
  Bi  Bi20  1  0.53881584  0.14440238  0.25466546  1
  Bi  Bi21  1  0.53881584  0.64440238  0.24533454  1
  Bi  Bi22  1  0.46118416  0.85559762  0.74533454  1
  Bi  Bi23  1  0.03881584  0.35559762  0.25466546  1
  O  O24  1  0.78730085  0.30090384  0.67192871  1
  O  O25  1  0.26950441  0.97557225  0.00465452  1
  O  O26  1  0.23049559  0.47557225  0.99534548  1
  O  O27  1  0.37658727  0.80968224  0.17260771  1
  O  O28  1  0.12341273  0.30968224  0.82739229  1
  O  O29  1  0.78730085  0.80090384  0.82807129  1
  O  O30  1  0.12341273  0.80968224  0.67260771  1
  O  O31  1  0.71269915  0.80090384  0.32807129  1
  O  O32  1  0.26950441  0.47557225  0.49534548  1
  O  O33  1  0.21269915  0.69909616  0.32807129  1
  O  O34  1  0.71269915  0.30090384  0.17192871  1
  O  O35  1  0.85444044  0.28073034  0.48954704  1
  O  O36  1  0.76950441  0.02442775  0.49534548  1
  O  O37  1  0.62341273  0.69031776  0.67260771  1
  O  O38  1  0.21474867  0.00006252  0.82878224  1
  O  O39  1  0.76950441  0.52442775  0.00465452  1
  O  O40  1  0.21269915  0.19909616  0.17192871  1
  O  O41  1  0.87658727  0.19031776  0.32739229  1
  O  O42  1  0.35444044  0.71926966  0.01045296  1
  O  O43  1  0.23049559  0.97557225  0.50465452  1
  O  O44  1  0.14555956  0.71926966  0.51045296  1
  O  O45  1  0.78525133  -0.00006252  0.17121776  1
  O  O46  1  0.62341273  0.19031776  0.82739229  1
  O  O47  1  0.71474867  -0.00006252  0.67121776  1
  O  O48  1  0.14555956  0.21926966  0.98954704  1
  O  O49  1  0.35444044  0.21926966  0.48954704  1
  O  O50  1  0.73049559  0.52442775  0.50465452  1
  O  O51  1  0.73049559  0.02442775  0.99534548  1
  O  O52  1  0.71474867  0.49993748  0.82878224  1
  O  O53  1  0.64555956  0.78073034  0.51045296  1
  O  O54  1  0.64555956  0.28073034  0.98954704  1
  O  O55  1  0.85444044  0.78073034  0.01045296  1
  O  O56  1  0.78525133  0.49993748  0.32878224  1
  O  O57  1  0.87658727  0.69031776  0.17260771  1
  O  O58  1  0.37658727  0.30968224  0.32739229  1
  O  O59  1  0.21474867  0.50006252  0.67121776  1
  O  O60  1  0.28525133  0.50006252  0.17121776  1
  O  O61  1  0.28730085  0.19909616  0.67192871  1
  O  O62  1  0.28525133  0.00006252  0.32878224  1
  O  O63  1  0.28730085  0.69909616  0.82807129  1
