# generated using pymatgen
data_Ti3CrSb2(PO4)6
_symmetry_space_group_name_H-M   'P 1'
_cell_length_a   8.85086017
_cell_length_b   8.85086001
_cell_length_c   8.85085971
_cell_angle_alpha   58.48335197
_cell_angle_beta   58.48334928
_cell_angle_gamma   58.48334981
_symmetry_Int_Tables_number   1
_chemical_formula_structural   Ti3CrSb2(PO4)6
_chemical_formula_sum   'Ti3 Cr1 Sb2 P6 O24'
_cell_volume   473.26529694
_cell_formula_units_Z   1
loop_
 _symmetry_equiv_pos_site_id
 _symmetry_equiv_pos_as_xyz
  1  'x, y, z'
loop_
 _atom_site_type_symbol
 _atom_site_label
 _atom_site_symmetry_multiplicity
 _atom_site_fract_x
 _atom_site_fract_y
 _atom_site_fract_z
 _atom_site_occupancy
  Ti  Ti0  1  0.14759962  0.14759962  0.14759962  1
  Ti  Ti1  1  0.35156918  0.35156918  0.35156918  1
  Ti  Ti2  1  0.64747712  0.64747712  0.64747712  1
  Cr  Cr3  1  0.85336626  0.85336626  0.85336626  1
  Sb  Sb4  1  -0.00082234  -0.00082234  -0.00082234  1
  Sb  Sb5  1  0.49790870  0.49790870  0.49790870  1
  P  P6  1  0.04078871  0.74996920  0.46139643  1
  P  P7  1  0.46139643  0.04078871  0.74996920  1
  P  P8  1  0.24988340  0.54119890  0.95892181  1
  P  P9  1  0.54119890  0.95892181  0.24988340  1
  P  P10  1  0.95892181  0.24988340  0.54119890  1
  P  P11  1  0.74996920  0.46139643  0.04078871  1
  O  O12  1  0.11750692  0.30285617  0.50412904  1
  O  O13  1  0.30285617  0.50412904  0.11750692  1
  O  O14  1  0.06254122  0.91675968  0.26692504  1
  O  O15  1  0.50412904  0.11750692  0.30285617  1
  O  O16  1  0.01171116  0.79957249  0.61503442  1
  O  O17  1  0.23292378  0.58061846  0.43571072  1
  O  O18  1  0.26692504  0.06254122  0.91675968  1
  O  O19  1  0.43571072  0.23292378  0.58061846  1
  O  O20  1  0.19745773  0.38299209  0.99476448  1
  O  O21  1  0.58061846  0.43571072  0.23292378  1
  O  O22  1  0.08282750  0.73326353  0.94016050  1
  O  O23  1  0.38299209  0.99476448  0.19745773  1
  O  O24  1  0.61503442  0.01171116  0.79957249  1
  O  O25  1  0.91675968  0.26692504  0.06254122  1
  O  O26  1  0.41819013  0.56200104  0.76870907  1
  O  O27  1  0.79957249  0.61503442  0.01171116  1
  O  O28  1  0.56200104  0.76870907  0.41819013  1
  O  O29  1  0.73326353  0.94016050  0.08282750  1
  O  O30  1  0.76870907  0.41819013  0.56200104  1
  O  O31  1  0.99476448  0.19745773  0.38299209  1
  O  O32  1  0.49355935  0.88297885  0.69754666  1
  O  O33  1  0.94016050  0.08282750  0.73326353  1
  O  O34  1  0.69754666  0.49355935  0.88297885  1
  O  O35  1  0.88297885  0.69754666  0.49355935  1
