# generated using pymatgen
data_Fe6O5F7
_symmetry_space_group_name_H-M   'P 1'
_cell_length_a   7.40481730
_cell_length_b   5.68210212
_cell_length_c   5.68210212
_cell_angle_alpha   72.12909284
_cell_angle_beta   72.09976023
_cell_angle_gamma   72.09976023
_symmetry_Int_Tables_number   1
_chemical_formula_structural   Fe6O5F7
_chemical_formula_sum   'Fe6 O5 F7'
_cell_volume   210.44880176
_cell_formula_units_Z   1
loop_
 _symmetry_equiv_pos_site_id
 _symmetry_equiv_pos_as_xyz
  1  'x, y, z'
loop_
 _atom_site_type_symbol
 _atom_site_label
 _atom_site_symmetry_multiplicity
 _atom_site_fract_x
 _atom_site_fract_y
 _atom_site_fract_z
 _atom_site_occupancy
  Fe  Fe0  1  0.83584806  0.69567307  0.69567307  1
  Fe  Fe1  1  0.66801428  0.33812129  0.33812129  1
  Fe  Fe2  1  0.31622042  0.64499010  0.64499010  1
  Fe  Fe3  1  0.16218054  0.32870290  0.32870290  1
  Fe  Fe4  1  0.51604234  0.98039091  0.98039091  1
  Fe  Fe5  1  -0.00046392  0.00831430  0.00831430  1
  O  O6  1  0.66695614  0.03341276  0.63818346  1
  O  O7  1  0.95958028  0.22444144  0.22444144  1
  O  O8  1  0.04321248  0.77802009  0.77802009  1
  O  O9  1  0.37428700  0.42906042  0.42906042  1
  O  O10  1  0.66695614  0.63818346  0.03341276  1
  F  F11  1  0.34969367  0.34924731  0.95076238  1
  F  F12  1  0.29703237  0.89998102  0.89998102  1
  F  F13  1  0.62477103  0.57367692  0.57367692  1
  F  F14  1  0.69901107  0.09914933  0.09914933  1
  F  F15  1  0.34969367  0.95076238  0.34924731  1
  F  F16  1  0.98548222  0.31781617  0.71005612  1
  F  F17  1  0.98548222  0.71005612  0.31781617  1
