# generated using pymatgen
data_LiV6O7F5
_symmetry_space_group_name_H-M   'P 1'
_cell_length_a   4.85289346
_cell_length_b   5.69700003
_cell_length_c   7.76435786
_cell_angle_alpha   85.38713600
_cell_angle_beta   90.87230733
_cell_angle_gamma   91.12464655
_symmetry_Int_Tables_number   1
_chemical_formula_structural   LiV6O7F5
_chemical_formula_sum   'Li1 V6 O7 F5'
_cell_volume   213.90409933
_cell_formula_units_Z   1
loop_
 _symmetry_equiv_pos_site_id
 _symmetry_equiv_pos_as_xyz
  1  'x, y, z'
loop_
 _atom_site_type_symbol
 _atom_site_label
 _atom_site_symmetry_multiplicity
 _atom_site_fract_x
 _atom_site_fract_y
 _atom_site_fract_z
 _atom_site_occupancy
  Li  Li0  1  0.49685407  0.08938382  0.91164917  1
  V  V1  1  0.99876913  0.99937603  0.00438384  1
  V  V2  1  0.02611744  0.67497141  0.33740167  1
  V  V3  1  0.48484115  0.15365646  0.33836817  1
  V  V4  1  0.49071977  0.52031056  0.00572670  1
  V  V5  1  0.54469942  0.81424126  0.64431108  1
  V  V6  1  0.95224292  0.32981240  0.67120318  1
  O  O7  1  0.18826453  0.70981037  0.10097587  1
  O  O8  1  0.31087632  0.86623461  0.43335222  1
  O  O9  1  0.31337121  0.20740472  0.09974732  1
  O  O10  1  0.68255705  0.80831041  0.89514030  1
  O  O11  1  0.69584446  0.13637055  0.56007102  1
  O  O12  1  0.79603041  0.29672531  0.90507280  1
  O  O13  1  0.81612420  0.62799942  0.55626701  1
  F  F14  1  0.20041783  0.03338379  0.76662678  1
  F  F15  1  0.19691103  0.36339462  0.44106825  1
  F  F16  1  0.30068965  0.52362358  0.75998259  1
  F  F17  1  0.69942269  0.46741340  0.24270621  1
  F  F18  1  0.80124570  0.96507928  0.23753282  1
