# generated using pymatgen
data_Li4Nb3Fe3(TeO8)2
_symmetry_space_group_name_H-M   'P 1'
_cell_length_a   6.26633014
_cell_length_b   6.07894906
_cell_length_c   10.50071995
_cell_angle_alpha   90.12853208
_cell_angle_beta   90.34997451
_cell_angle_gamma   119.01952713
_symmetry_Int_Tables_number   1
_chemical_formula_structural   Li4Nb3Fe3(TeO8)2
_chemical_formula_sum   'Li4 Nb3 Fe3 Te2 O16'
_cell_volume   349.76973889
_cell_formula_units_Z   1
loop_
 _symmetry_equiv_pos_site_id
 _symmetry_equiv_pos_as_xyz
  1  'x, y, z'
loop_
 _atom_site_type_symbol
 _atom_site_label
 _atom_site_symmetry_multiplicity
 _atom_site_fract_x
 _atom_site_fract_y
 _atom_site_fract_z
 _atom_site_occupancy
  Li  Li0  1  0.33782488  0.66735428  0.90380277  1
  Li  Li1  1  0.00320981  0.00039589  0.99666271  1
  Li  Li2  1  0.99668441  0.99937287  0.48378996  1
  Li  Li3  1  0.67761742  0.33945056  0.40348716  1
  Nb  Nb4  1  0.63646545  0.81816707  0.23492668  1
  Nb  Nb5  1  0.81230769  0.64790245  0.72073731  1
  Nb  Nb6  1  0.80946291  0.16535418  0.72085004  1
  Fe  Fe7  1  0.17121585  0.82864508  0.21388724  1
  Fe  Fe8  1  0.17094682  0.34200861  0.21372066  1
  Fe  Fe9  1  0.33126877  0.16349281  0.70627031  1
  Te  Te10  1  0.28670576  0.64262019  0.49591251  1
  Te  Te11  1  0.65828510  0.32831860  0.01726448  1
  O  O12  1  0.14260330  0.82422604  0.59130220  1
  O  O13  1  0.04524179  0.52391048  0.35441344  1
  O  O14  1  0.37024084  0.68348755  0.10347587  1
  O  O15  1  0.97631476  0.98880151  0.30078288  1
  O  O16  1  0.99687477  0.99898738  0.81110736  1
  O  O17  1  0.13740259  0.32105219  0.58913854  1
  O  O18  1  0.50788612  0.98664795  0.33530764  1
  O  O19  1  0.50622546  0.52243041  0.33676905  1
  O  O20  1  0.33375934  0.16568978  0.09835238  1
  O  O21  1  0.71991616  0.86062354  0.60473721  1
  O  O22  1  0.52157497  0.50384830  0.81718579  1
  O  O23  1  0.52832482  0.01478613  0.82349826  1
  O  O24  1  0.68302225  0.34310490  0.59690072  1
  O  O25  1  0.82395445  0.65855632  0.10423163  1
  O  O26  1  0.99087545  0.49677917  0.82612721  1
  O  O27  1  0.82378805  0.16428476  0.10319898  1
