# generated using pymatgen
data_Li3V4(OF3)3
_symmetry_space_group_name_H-M   'P 1'
_cell_length_a   5.19065239
_cell_length_b   5.53048377
_cell_length_c   17.31966908
_cell_angle_alpha   91.88257357
_cell_angle_beta   97.67410237
_cell_angle_gamma   62.03398331
_symmetry_Int_Tables_number   1
_chemical_formula_structural   Li3V4(OF3)3
_chemical_formula_sum   'Li6 V8 O6 F18'
_cell_volume   434.94855431
_cell_formula_units_Z   2
loop_
 _symmetry_equiv_pos_site_id
 _symmetry_equiv_pos_as_xyz
  1  'x, y, z'
loop_
 _atom_site_type_symbol
 _atom_site_label
 _atom_site_symmetry_multiplicity
 _atom_site_fract_x
 _atom_site_fract_y
 _atom_site_fract_z
 _atom_site_occupancy
  Li  Li0  1  0.10996618  0.44580714  0.69537787  1
  Li  Li1  1  0.09728616  0.03116859  0.17978523  1
  Li  Li2  1  0.34549504  0.35868091  0.05165917  1
  Li  Li3  1  0.65779501  0.10087831  0.44830483  1
  Li  Li4  1  0.80159533  0.16707510  0.80067605  1
  Li  Li5  1  0.93794482  0.45437536  0.32563877  1
  V  V6  1  0.02696295  0.00566237  0.99514741  1
  V  V7  1  0.01208652  0.48725877  0.49904868  1
  V  V8  1  0.25175201  0.36284562  0.87578875  1
  V  V9  1  0.49333049  0.71236852  0.74979890  1
  V  V10  1  0.46275352  0.26139217  0.24777536  1
  V  V11  1  0.24105000  0.90879110  0.37346464  1
  V  V12  1  0.74756775  0.13708641  0.62847242  1
  V  V13  1  0.78329313  0.62266100  0.12765470  1
  O  O14  1  0.19747660  0.20732246  0.96653559  1
  O  O15  1  0.23334273  0.20654393  0.43488385  1
  O  O16  1  0.29600201  0.05277779  0.28204684  1
  O  O17  1  0.33221241  0.50334218  0.78581482  1
  O  O18  1  0.18862592  0.38710774  0.15283634  1
  O  O19  1  0.74918996  0.42171942  0.68868605  1
  F  F20  1  0.22933339  0.05745882  0.80618013  1
  F  F21  1  0.26869661  0.65657375  0.94940714  1
  F  F22  1  0.29308705  0.33862561  0.59800948  1
  F  F23  1  0.17711418  0.72991969  0.46331199  1
  F  F24  1  0.17178564  0.88749676  0.65550048  1
  F  F25  1  0.70265617  0.13352804  0.90165879  1
  F  F26  1  0.21721846  0.58773985  0.31230654  1
  F  F27  1  0.78515296  0.14062222  0.34702363  1
  F  F28  1  0.78802731  0.29151358  0.52732783  1
  F  F29  1  0.33339234  0.83383327  0.09881835  1
  F  F30  1  0.82080364  0.57187437  0.84256877  1
  F  F31  1  0.69566915  0.46962795  0.22294248  1
  F  F32  1  0.68672522  0.95437042  0.72032223  1
  F  F33  1  0.69788201  0.68253661  0.40423303  1
  F  F34  1  0.75531331  0.30066322  0.06673328  1
  F  F35  1  0.75352712  0.83154877  0.55396584  1
  F  F36  1  0.77270903  0.94560330  0.18908587  1
  F  F37  1  0.83292887  0.78929788  0.03684886  1
