# generated using pymatgen
data_Be2P2O7
_symmetry_space_group_name_H-M   'P 1'
_cell_length_a   8.86750447
_cell_length_b   10.57355390
_cell_length_c   10.57355390
_cell_angle_alpha   43.82964477
_cell_angle_beta   97.43310181
_cell_angle_gamma   97.43310181
_symmetry_Int_Tables_number   1
_chemical_formula_structural   Be2P2O7
_chemical_formula_sum   'Be12 P12 O42'
_cell_volume   679.84441133
_cell_formula_units_Z   6
loop_
 _symmetry_equiv_pos_site_id
 _symmetry_equiv_pos_as_xyz
  1  'x, y, z'
loop_
 _atom_site_type_symbol
 _atom_site_label
 _atom_site_symmetry_multiplicity
 _atom_site_fract_x
 _atom_site_fract_y
 _atom_site_fract_z
 _atom_site_occupancy
  Be  Be0  1  0.04908804  0.85356658  0.22048527  1
  Be  Be1  1  0.12118753  0.70878057  0.57413525  1
  Be  Be2  1  0.22943217  0.49446382  0.92599579  1
  Be  Be3  1  0.27056783  0.07400421  0.50553618  1
  Be  Be4  1  0.37881247  0.42586475  0.29121943  1
  Be  Be5  1  0.45091196  0.77951473  0.14643342  1
  Be  Be6  1  0.54908804  0.22048527  0.85356658  1
  Be  Be7  1  0.62118753  0.57413525  0.70878057  1
  Be  Be8  1  0.72943217  0.92599579  0.49446382  1
  Be  Be9  1  0.77056783  0.50553618  0.07400421  1
  Be  Be10  1  0.87881247  0.29121943  0.42586475  1
  Be  Be11  1  0.95091196  0.14643342  0.77951473  1
  P  P12  1  0.19290476  0.93732604  0.85167576  1
  P  P13  1  0.02736177  0.26028366  0.22064214  1
  P  P14  1  0.13605163  0.47956053  0.40212838  1
  P  P15  1  0.36394837  0.59787162  0.52043947  1
  P  P16  1  0.47263823  0.77935786  0.73971634  1
  P  P17  1  0.30709524  0.14832424  0.06267396  1
  P  P18  1  0.69290476  0.85167576  0.93732604  1
  P  P19  1  0.52736177  0.22064214  0.26028366  1
  P  P20  1  0.63605163  0.40212838  0.47956053  1
  P  P21  1  0.86394837  0.52043947  0.59787162  1
  P  P22  1  0.97263823  0.73971634  0.77935786  1
  P  P23  1  0.80709524  0.06267396  0.14832424  1
  O  O24  1  0.10122576  0.03776057  0.86814924  1
  O  O25  1  0.07065520  0.79296651  0.87345002  1
  O  O26  1  0.09410660  0.67800865  0.73652794  1
  O  O27  1  0.01379285  0.31873903  0.51392347  1
  O  O28  1  0.07289356  0.66736124  0.27408523  1
  O  O29  1  0.19145942  0.98749696  0.18117187  1
  O  O30  1  0.24417221  0.33709796  0.93637987  1
  O  O31  1  0.11530659  0.09995004  0.39220520  1
  O  O32  1  0.27753636  0.69198547  0.54576095  1
  O  O33  1  0.13450190  0.41985569  0.08427784  1
  O  O34  1  0.25000000  0.44308511  0.55691489  1
  O  O35  1  0.36549810  0.91572216  0.58014431  1
  O  O36  1  0.22246364  0.45423905  0.30801453  1
  O  O37  1  0.38469341  0.60779480  0.90004996  1
  O  O38  1  0.25582779  0.06362013  0.66290204  1
  O  O39  1  0.30854058  0.81882813  0.01250304  1
  O  O40  1  0.42710644  0.72591477  0.33263876  1
  O  O41  1  0.60122576  0.86814924  0.03776057  1
  O  O42  1  0.57065520  0.87345002  0.79296651  1
  O  O43  1  0.48620715  0.48607653  0.68126097  1
  O  O44  1  0.59410660  0.73652794  0.67800865  1
  O  O45  1  0.40589340  0.26347206  0.32199135  1
  O  O46  1  0.51379285  0.51392347  0.31873903  1
  O  O47  1  0.42934480  0.12654998  0.20703349  1
  O  O48  1  0.39877424  0.13185076  0.96223943  1
  O  O49  1  0.57289356  0.27408523  0.66736124  1
  O  O50  1  0.69145942  0.18117187  0.98749696  1
  O  O51  1  0.74417221  0.93637987  0.33709796  1
  O  O52  1  0.61530659  0.39220520  0.09995004  1
  O  O53  1  0.77753636  0.54576095  0.69198547  1
  O  O54  1  0.63450190  0.08427784  0.41985569  1
  O  O55  1  0.75000000  0.55691489  0.44308511  1
  O  O56  1  0.86549810  0.58014431  0.91572216  1
  O  O57  1  0.72246364  0.30801453  0.45423905  1
  O  O58  1  0.88469341  0.90004996  0.60779480  1
  O  O59  1  0.75582779  0.66290204  0.06362013  1
  O  O60  1  0.80854058  0.01250304  0.81882813  1
  O  O61  1  0.92710644  0.33263876  0.72591477  1
  O  O62  1  0.98620715  0.68126097  0.48607653  1
  O  O63  1  0.90589340  0.32199135  0.26347206  1
  O  O64  1  0.92934480  0.20703349  0.12654998  1
  O  O65  1  0.89877424  0.96223943  0.13185076  1
