# generated using pymatgen
data_MgSnAs2O7
_symmetry_space_group_name_H-M   'P 1'
_cell_length_a   7.61175019
_cell_length_b   9.32886688
_cell_length_c   9.99900475
_cell_angle_alpha   90.00000000
_cell_angle_beta   118.42579117
_cell_angle_gamma   90.00000000
_symmetry_Int_Tables_number   1
_chemical_formula_structural   MgSnAs2O7
_chemical_formula_sum   'Mg4 Sn4 As8 O28'
_cell_volume   624.41544872
_cell_formula_units_Z   4
loop_
 _symmetry_equiv_pos_site_id
 _symmetry_equiv_pos_as_xyz
  1  'x, y, z'
loop_
 _atom_site_type_symbol
 _atom_site_label
 _atom_site_symmetry_multiplicity
 _atom_site_fract_x
 _atom_site_fract_y
 _atom_site_fract_z
 _atom_site_occupancy
  Mg  Mg0  1  0.26838596  0.93799448  0.90094059  1
  Mg  Mg1  1  0.73161404  0.43799448  0.59905941  1
  Mg  Mg2  1  0.73161404  0.06200552  0.09905941  1
  Mg  Mg3  1  0.26838596  0.56200552  0.40094059  1
  Sn  Sn4  1  0.76897570  0.03956787  0.62924171  1
  Sn  Sn5  1  0.23102430  0.53956787  0.87075829  1
  Sn  Sn6  1  0.23102430  0.96043213  0.37075829  1
  Sn  Sn7  1  0.76897570  0.46043213  0.12924171  1
  As  As8  1  0.42974891  0.21970978  0.75104492  1
  As  As9  1  0.57025109  0.71970978  0.74895508  1
  As  As10  1  0.57025109  0.78029022  0.24895508  1
  As  As11  1  0.42974891  0.28029022  0.25104392  1
  As  As12  1  0.99520274  0.25494954  0.94088912  1
  As  As13  1  0.00479726  0.75494954  0.55911088  1
  As  As14  1  0.00479726  0.74505046  0.05911088  1
  As  As15  1  0.99520274  0.24505046  0.44088912  1
  O  O16  1  0.86407121  0.22506845  0.03604168  1
  O  O17  1  0.13592879  0.72506845  0.46395832  1
  O  O18  1  0.13592879  0.77493155  0.96395832  1
  O  O19  1  0.86407121  0.27493155  0.53604168  1
  O  O20  1  0.36523977  0.38717772  0.77498299  1
  O  O21  1  0.63476023  0.88717772  0.72501701  1
  O  O22  1  0.63476023  0.61282228  0.22501701  1
  O  O23  1  0.36523977  0.11282228  0.27498299  1
  O  O24  1  0.45968663  0.09527639  0.88835594  1
  O  O25  1  0.54031337  0.59527639  0.61164406  1
  O  O26  1  0.54031337  0.90472361  0.11164406  1
  O  O27  1  0.45968663  0.40472361  0.38835594  1
  O  O28  1  0.22412695  0.15963674  0.57665049  1
  O  O29  1  0.77587305  0.65963674  0.92334951  1
  O  O30  1  0.77587305  0.84036326  0.42334951  1
  O  O31  1  0.22412695  0.34036326  0.07665049  1
  O  O32  1  0.93607952  0.10078257  0.32109894  1
  O  O33  1  0.06392048  0.60078257  0.17890106  1
  O  O34  1  0.06392048  0.89921743  0.67890106  1
  O  O35  1  0.93607952  0.39921743  0.82109894  1
  O  O36  1  0.62044473  0.27787735  0.20606132  1
  O  O37  1  0.37955527  0.77787735  0.29393868  1
  O  O38  1  0.37955527  0.72212265  0.79393868  1
  O  O39  1  0.62044473  0.22212265  0.70606132  1
  O  O40  1  0.04045686  0.39897059  0.36672890  1
  O  O41  1  0.95954314  0.89897059  0.13327110  1
  O  O42  1  0.95954314  0.60102941  0.63327110  1
  O  O43  1  0.04045686  0.10102941  0.86672890  1
