# generated using pymatgen
data_LiCoSiO4
_symmetry_space_group_name_H-M   'P 1'
_cell_length_a   5.96744374
_cell_length_b   11.25381984
_cell_length_c   5.20816005
_cell_angle_alpha   89.99150619
_cell_angle_beta   89.99940705
_cell_angle_gamma   90.00057119
_symmetry_Int_Tables_number   1
_chemical_formula_structural   LiCoSiO4
_chemical_formula_sum   'Li4 Co4 Si4 O16'
_cell_volume   349.76198828
_cell_formula_units_Z   4
loop_
 _symmetry_equiv_pos_site_id
 _symmetry_equiv_pos_as_xyz
  1  'x, y, z'
loop_
 _atom_site_type_symbol
 _atom_site_label
 _atom_site_symmetry_multiplicity
 _atom_site_fract_x
 _atom_site_fract_y
 _atom_site_fract_z
 _atom_site_occupancy
  Li  Li0  1  0.48397015  0.17256925  0.69729661  1
  Li  Li1  1  0.48401692  0.67250806  0.80277124  1
  Li  Li2  1  0.98403373  0.32749188  0.19722227  1
  Li  Li3  1  0.98398175  0.82743356  0.30271181  1
  Co  Co4  1  0.25747027  0.42211777  0.82293617  1
  Co  Co5  1  0.25745368  0.92214201  0.67707804  1
  Co  Co6  1  0.75744995  0.07785225  0.32292166  1
  Co  Co7  1  0.75747020  0.57788177  0.17705539  1
  Si  Si8  1  0.25048191  0.07753053  0.18393019  1
  Si  Si9  1  0.25049780  0.57753191  0.31606789  1
  Si  Si10  1  0.75049838  0.42247471  0.68393464  1
  Si  Si11  1  0.75048329  0.92246440  0.81607030  1
  O  O12  1  0.02510141  0.15731144  0.25075240  1
  O  O13  1  0.02510925  0.65731552  0.24924397  1
  O  O14  1  0.27196128  0.06242966  0.87065828  1
  O  O15  1  0.23288411  0.44629535  0.17801742  1
  O  O16  1  0.23288531  0.94628484  0.32201004  1
  O  O17  1  0.27195850  0.56243574  0.62935699  1
  O  O18  1  0.47457963  0.14762429  0.28917911  1
  O  O19  1  0.47459323  0.64763129  0.21078005  1
  O  O20  1  0.52510129  0.84268788  0.74924900  1
  O  O21  1  0.52510939  0.34268616  0.75075530  1
  O  O22  1  0.73288146  0.05371454  0.67799074  1
  O  O23  1  0.77195918  0.43757036  0.37064815  1
  O  O24  1  0.73288466  0.55370579  0.82198320  1
  O  O25  1  0.77196450  0.93756636  0.12934295  1
  O  O26  1  0.97459065  0.35236935  0.78921765  1
  O  O27  1  0.97457609  0.85237333  0.71081855  1
