# generated using pymatgen
data_Li2NiP2O7
_symmetry_space_group_name_H-M   'P 1'
_cell_length_a   8.19207969
_cell_length_b   17.90800954
_cell_length_c   7.69773978
_cell_angle_alpha   90.00000000
_cell_angle_beta   92.22660306
_cell_angle_gamma   90.00000000
_symmetry_Int_Tables_number   1
_chemical_formula_structural   Li2NiP2O7
_chemical_formula_sum   'Li16 Ni8 P16 O56'
_cell_volume   1128.43536564
_cell_formula_units_Z   8
loop_
 _symmetry_equiv_pos_site_id
 _symmetry_equiv_pos_as_xyz
  1  'x, y, z'
loop_
 _atom_site_type_symbol
 _atom_site_label
 _atom_site_symmetry_multiplicity
 _atom_site_fract_x
 _atom_site_fract_y
 _atom_site_fract_z
 _atom_site_occupancy
  Li  Li0  1  0.00158841  0.54154667  0.69543756  1
  Li  Li1  1  0.01555201  0.29267718  0.16393371  1
  Li  Li2  1  0.07160816  0.78862713  0.34432327  1
  Li  Li3  1  0.11844037  0.09864801  0.68351910  1
  Li  Li4  1  0.16865862  0.55731616  0.15958004  1
  Li  Li5  1  0.24755680  0.36405794  0.41902447  1
  Li  Li6  1  0.27446952  0.94500214  0.09869898  1
  Li  Li7  1  0.49591869  0.18626542  0.76091859  1
  Li  Li8  1  0.50408131  0.68626542  0.23908141  1
  Li  Li9  1  0.72553048  0.44500214  0.90130102  1
  Li  Li10  1  0.75244320  0.86405794  0.58097553  1
  Li  Li11  1  0.83134138  0.05731616  0.84041996  1
  Li  Li12  1  0.88155963  0.59864801  0.31648090  1
  Li  Li13  1  0.92839184  0.28862713  0.65567673  1
  Li  Li14  1  0.98444799  0.79267718  0.83606629  1
  Li  Li15  1  0.99841159  0.04154667  0.30456244  1
  Ni  Ni16  1  0.41028185  0.53941149  0.88927388  1
  Ni  Ni17  1  0.40929167  0.79023748  0.58883931  1
  Ni  Ni18  1  0.40445386  0.29047234  0.09524193  1
  Ni  Ni19  1  0.40227575  0.04351347  0.41286062  1
  Ni  Ni20  1  0.59772425  0.54351347  0.58713938  1
  Ni  Ni21  1  0.59554614  0.79047234  0.90475807  1
  Ni  Ni22  1  0.59070833  0.29023748  0.41116069  1
  Ni  Ni23  1  0.58971815  0.03941149  0.11072612  1
  P  P24  1  0.13349558  0.40770882  0.92868139  1
  P  P25  1  0.13500808  0.92553263  0.55368504  1
  P  P26  1  0.24173002  0.63290808  0.55415295  1
  P  P27  1  0.22285976  0.20173697  0.40744001  1
  P  P28  1  0.24375924  0.69644824  0.91000820  1
  P  P29  1  0.24000555  0.13110698  0.06117599  1
  P  P30  1  0.43634261  0.37389083  0.74582690  1
  P  P31  1  0.43691821  0.95499309  0.75830538  1
  P  P32  1  0.56308179  0.45499309  0.24169462  1
  P  P33  1  0.56365739  0.87389083  0.25417310  1
  P  P34  1  0.75999445  0.63110698  0.93882401  1
  P  P35  1  0.75624076  0.19644824  0.08999180  1
  P  P36  1  0.77714024  0.70173697  0.59255999  1
  P  P37  1  0.75826998  0.13290808  0.44584705  1
  P  P38  1  0.86499192  0.42553263  0.44631496  1
  P  P39  1  0.86650442  0.90770882  0.07131861  1
  O  O40  1  0.95592528  0.40183988  0.86875486  1
  O  O41  1  0.95825739  0.92169879  0.60043322  1
  O  O42  1  0.10387727  0.59530982  0.44643933  1
  O  O43  1  0.09050095  0.24901111  0.48404105  1
  O  O44  1  0.11505578  0.09026019  0.94550551  1
  O  O45  1  0.15543498  0.66168479  0.73038239  1
  O  O46  1  0.11400308  0.73913140  0.00119218  1
  O  O47  1  0.14166836  0.16347964  0.22894533  1
  O  O48  1  0.18799153  0.48953543  0.96193232  1
  O  O49  1  0.20602778  0.84996417  0.49842941  1
  O  O50  1  0.17335715  0.99094218  0.42896874  1
  O  O51  1  0.18433115  0.35227880  0.07438074  1
  O  O52  1  0.23935963  0.38257554  0.76274022  1
  O  O53  1  0.23821683  0.94847486  0.73243493  1
  O  O54  1  0.32360265  0.19462704  0.96431573  1
  O  O55  1  0.29049940  0.13999509  0.53051372  1
  O  O56  1  0.31564282  0.63158968  0.02339537  1
  O  O57  1  0.31986488  0.69739991  0.45412203  1
  O  O58  1  0.36517677  0.57797878  0.63734979  1
  O  O59  1  0.35668894  0.24928099  0.33059623  1
  O  O60  1  0.37494131  0.74489399  0.83066086  1
  O  O61  1  0.36139397  0.07969746  0.16222726  1
  O  O62  1  0.43812992  0.32979152  0.58001333  1
  O  O63  1  0.45225920  0.98219763  0.94253781  1
  O  O64  1  0.49553691  0.51093525  0.36714843  1
  O  O65  1  0.51078294  0.45214927  0.73398115  1
  O  O66  1  0.49166808  0.37670019  0.26413735  1
  O  O67  1  0.51476088  0.33084156  0.89613319  1
  O  O68  1  0.48523912  0.83084156  0.10386681  1
  O  O69  1  0.50833192  0.87670019  0.73586265  1
  O  O70  1  0.48921706  0.95214927  0.26601885  1
  O  O71  1  0.50446309  0.01093525  0.63285157  1
  O  O72  1  0.54774080  0.48219763  0.05746219  1
  O  O73  1  0.56187008  0.82979152  0.41998667  1
  O  O74  1  0.63860603  0.57969746  0.83777274  1
  O  O75  1  0.62505869  0.24489399  0.16933914  1
  O  O76  1  0.64331106  0.74928099  0.66940377  1
  O  O77  1  0.63482323  0.07797878  0.36265021  1
  O  O78  1  0.68013512  0.19739991  0.54587797  1
  O  O79  1  0.68435718  0.13158968  0.97660463  1
  O  O80  1  0.70950060  0.63999509  0.46948628  1
  O  O81  1  0.67639735  0.69462704  0.03568427  1
  O  O82  1  0.76178317  0.44847486  0.26756507  1
  O  O83  1  0.76064037  0.88257554  0.23725978  1
  O  O84  1  0.81566885  0.85227880  0.92561926  1
  O  O85  1  0.82664285  0.49094218  0.57103126  1
  O  O86  1  0.79397222  0.34996317  0.50157059  1
  O  O87  1  0.81200847  0.98953543  0.03806768  1
  O  O88  1  0.85833164  0.66347964  0.77105467  1
  O  O89  1  0.88599692  0.23913140  0.99880782  1
  O  O90  1  0.84456502  0.16168479  0.26961761  1
  O  O91  1  0.88494422  0.59026019  0.05449449  1
  O  O92  1  0.90949905  0.74901111  0.51595895  1
  O  O93  1  0.89612273  0.09530982  0.55356067  1
  O  O94  1  0.04174261  0.42169879  0.39956678  1
  O  O95  1  0.04407472  0.90183988  0.13124514  1
