# generated using pymatgen
data_Fe3(OF2)2
_symmetry_space_group_name_H-M   'P 1'
_cell_length_a   4.83463501
_cell_length_b   4.83463501
_cell_length_c   9.27976027
_cell_angle_alpha   90.36833848
_cell_angle_beta   90.36833848
_cell_angle_gamma   93.42276534
_symmetry_Int_Tables_number   1
_chemical_formula_structural   Fe3(OF2)2
_chemical_formula_sum   'Fe6 O4 F8'
_cell_volume   216.50586202
_cell_formula_units_Z   2
loop_
 _symmetry_equiv_pos_site_id
 _symmetry_equiv_pos_as_xyz
  1  'x, y, z'
loop_
 _atom_site_type_symbol
 _atom_site_label
 _atom_site_symmetry_multiplicity
 _atom_site_fract_x
 _atom_site_fract_y
 _atom_site_fract_z
 _atom_site_occupancy
  Fe  Fe0  1  0.00000000  0.00000000  0.00000000  1
  Fe  Fe1  1  0.97400277  0.97400277  0.33539778  1
  Fe  Fe2  1  0.02599723  0.02599723  0.66460222  1
  Fe  Fe3  1  0.51282044  0.51282044  0.15728377  1
  Fe  Fe4  1  0.48717956  0.48717956  0.84271623  1
  Fe  Fe5  1  0.50000000  0.50000000  0.50000000  1
  O  O6  1  0.29758629  0.29758629  0.00388374  1
  O  O7  1  0.33103794  0.33103794  0.66799449  1
  O  O8  1  0.70241371  0.70241371  0.99611626  1
  O  O9  1  0.66896206  0.66896206  0.33200551  1
  F  F10  1  0.19446140  0.79775549  0.16024959  1
  F  F11  1  0.20775852  0.79224148  0.50000000  1
  F  F12  1  0.20224451  0.80553860  0.83975041  1
  F  F13  1  0.28969086  0.28969086  0.33360444  1
  F  F14  1  0.71030914  0.71030914  0.66639556  1
  F  F15  1  0.79775549  0.19446140  0.16024959  1
  F  F16  1  0.80553860  0.20224451  0.83975041  1
  F  F17  1  0.79224148  0.20775852  0.50000000  1
