# generated using pymatgen
data_Fe6O7F5
_symmetry_space_group_name_H-M   'P 1'
_cell_length_a   4.78280911
_cell_length_b   7.71399532
_cell_length_c   5.65606642
_cell_angle_alpha   95.40539212
_cell_angle_beta   93.62061499
_cell_angle_gamma   87.82891329
_symmetry_Int_Tables_number   1
_chemical_formula_structural   Fe6O7F5
_chemical_formula_sum   'Fe6 O7 F5'
_cell_volume   207.22837344
_cell_formula_units_Z   1
loop_
 _symmetry_equiv_pos_site_id
 _symmetry_equiv_pos_as_xyz
  1  'x, y, z'
loop_
 _atom_site_type_symbol
 _atom_site_label
 _atom_site_symmetry_multiplicity
 _atom_site_fract_x
 _atom_site_fract_y
 _atom_site_fract_z
 _atom_site_occupancy
  Fe  Fe0  1  0.51140388  0.66715642  0.18121749  1
  Fe  Fe1  1  0.46007352  0.99387347  0.51790446  1
  Fe  Fe2  1  0.55443505  0.33234916  0.81268717  1
  Fe  Fe3  1  0.98037263  0.67380979  0.65801771  1
  Fe  Fe4  1  0.98426193  0.33196773  0.34616365  1
  Fe  Fe5  1  0.02138236  0.00072178  0.98566727  1
  O  O6  1  0.81457461  0.44518629  0.62458877  1
  O  O7  1  0.69717543  0.09203724  0.78677839  1
  O  O8  1  0.68158961  0.77848906  0.47306289  1
  O  O9  1  0.69687795  0.43729842  0.12796888  1
  O  O10  1  0.30396256  0.22682372  0.53565302  1
  O  O11  1  0.30302939  0.90043853  0.20946397  1
  O  O12  1  0.18709230  0.88677317  0.71284918  1
  F  F13  1  0.80455604  0.76461811  0.97212423  1
  F  F14  1  0.81212567  0.10008373  0.27918808  1
  F  F15  1  0.30152892  0.56529269  0.86904082  1
  F  F16  1  0.18873829  0.23688518  0.03996931  1
  F  F17  1  0.19682085  0.56619551  0.36765474  1
