# generated using pymatgen
data_Mn3Cr3(WO8)2
_symmetry_space_group_name_H-M   'P 1'
_cell_length_a   5.96161578
_cell_length_b   5.96181672
_cell_length_c   9.22456498
_cell_angle_alpha   89.60672404
_cell_angle_beta   90.27616552
_cell_angle_gamma   120.12301211
_symmetry_Int_Tables_number   1
_chemical_formula_structural   Mn3Cr3(WO8)2
_chemical_formula_sum   'Mn3 Cr3 W2 O16'
_cell_volume   283.57548536
_cell_formula_units_Z   1
loop_
 _symmetry_equiv_pos_site_id
 _symmetry_equiv_pos_as_xyz
  1  'x, y, z'
loop_
 _atom_site_type_symbol
 _atom_site_label
 _atom_site_symmetry_multiplicity
 _atom_site_fract_x
 _atom_site_fract_y
 _atom_site_fract_z
 _atom_site_occupancy
  Mn  Mn0  1  0.66130229  0.82590227  0.21290310  1
  Mn  Mn1  1  0.82873009  0.66006340  0.71439522  1
  Mn  Mn2  1  0.83257202  0.16298803  0.70763132  1
  Cr  Cr3  1  0.16615016  0.83034368  0.20995967  1
  Cr  Cr4  1  0.16870043  0.33542936  0.21293582  1
  Cr  Cr5  1  0.33683028  0.16864343  0.71252639  1
  W  W6  1  0.32739698  0.66598337  0.49006845  1
  W  W7  1  0.66270287  0.32600573  0.99235980  1
  O  O8  1  0.17206371  0.82477888  0.59803486  1
  O  O9  1  0.04847263  0.52317163  0.34415120  1
  O  O10  1  0.34243391  0.67097548  0.10866624  1
  O  O11  1  0.99100332  0.99259391  0.30740564  1
  O  O12  1  0.99095633  0.99548473  0.80513706  1
  O  O13  1  0.18545679  0.34885286  0.59053042  1
  O  O14  1  0.48555434  0.95349592  0.33928282  1
  O  O15  1  0.48378374  0.52781502  0.33949531  1
  O  O16  1  0.34669934  0.17899598  0.09633979  1
  O  O17  1  0.65033488  0.81529627  0.59412361  1
  O  O18  1  0.52845747  0.48659588  0.83714249  1
  O  O19  1  0.51362440  0.04900032  0.85120310  1
  O  O20  1  0.67671253  0.33775577  0.61154147  1
  O  O21  1  0.81847327  0.65075936  0.09827709  1
  O  O22  1  0.95458241  0.49540812  0.84521829  1
  O  O23  1  0.82700381  0.17386062  0.09639084  1
