# generated using pymatgen
data_Hg(TeO3)2
_symmetry_space_group_name_H-M   'P 1'
_cell_length_a   7.88549161
_cell_length_b   12.80491662
_cell_length_c   6.57290672
_cell_angle_alpha   90.00000000
_cell_angle_beta   106.93962297
_cell_angle_gamma   90.00000000
_symmetry_Int_Tables_number   1
_chemical_formula_structural   Hg(TeO3)2
_chemical_formula_sum   'Hg4 Te8 O24'
_cell_volume   634.89070284
_cell_formula_units_Z   4
loop_
 _symmetry_equiv_pos_site_id
 _symmetry_equiv_pos_as_xyz
  1  'x, y, z'
loop_
 _atom_site_type_symbol
 _atom_site_label
 _atom_site_symmetry_multiplicity
 _atom_site_fract_x
 _atom_site_fract_y
 _atom_site_fract_z
 _atom_site_occupancy
  Hg  Hg0  1  0.25371667  0.59247213  0.57910761  1
  Hg  Hg1  1  0.24628333  0.09247213  0.92089239  1
  Hg  Hg2  1  0.75371667  0.90752787  0.07910761  1
  Hg  Hg3  1  0.74628333  0.40752787  0.42089239  1
  Te  Te4  1  0.16428758  0.37977967  0.82485369  1
  Te  Te5  1  0.33571242  0.87977967  0.67514631  1
  Te  Te6  1  0.28100539  0.29402071  0.40722990  1
  Te  Te7  1  0.21899461  0.79402071  0.09277010  1
  Te  Te8  1  0.78100539  0.20597929  0.90722990  1
  Te  Te9  1  0.71899461  0.70597929  0.59277010  1
  Te  Te10  1  0.66428758  0.12022033  0.32485369  1
  Te  Te11  1  0.83571242  0.62022033  0.17514631  1
  O  O12  1  0.14160896  0.40508691  0.51036406  1
  O  O13  1  0.25166104  0.01609233  0.61534694  1
  O  O14  1  0.08032858  0.64991900  0.25298604  1
  O  O15  1  0.19018532  0.76697943  0.70315838  1
  O  O16  1  0.30981468  0.26697943  0.79684162  1
  O  O17  1  0.01330931  0.87259965  0.01256440  1
  O  O18  1  0.24833896  0.51609233  0.88465306  1
  O  O19  1  0.17277644  0.35182328  0.11857232  1
  O  O20  1  0.32722356  0.85182328  0.38142768  1
  O  O21  1  0.64160896  0.09491309  0.01036406  1
  O  O22  1  0.48669069  0.37259965  0.48743560  1
  O  O23  1  0.58032858  0.85008100  0.75298604  1
  O  O24  1  0.41967142  0.14991900  0.24701396  1
  O  O25  1  0.51330931  0.62740035  0.51256440  1
  O  O26  1  0.35839104  0.90508691  0.98963594  1
  O  O27  1  0.67277644  0.14817672  0.61857232  1
  O  O28  1  0.82722356  0.64817672  0.88142768  1
  O  O29  1  0.75166104  0.48390767  0.11534694  1
  O  O30  1  0.98669069  0.12740035  0.98743560  1
  O  O31  1  0.69018532  0.73302057  0.20315838  1
  O  O32  1  0.80981468  0.23302057  0.29684162  1
  O  O33  1  0.91967142  0.35008100  0.74701396  1
  O  O34  1  0.74833896  0.98390767  0.38465306  1
  O  O35  1  0.85839104  0.59491309  0.48963594  1
