# generated using pymatgen
data_Sb2(SeO4)3
_symmetry_space_group_name_H-M   'P 1'
_cell_length_a   9.27270110
_cell_length_b   9.75879084
_cell_length_c   13.00225316
_cell_angle_alpha   90.00000000
_cell_angle_beta   91.53167963
_cell_angle_gamma   90.00000000
_symmetry_Int_Tables_number   1
_chemical_formula_structural   Sb2(SeO4)3
_chemical_formula_sum   'Sb8 Se12 O48'
_cell_volume   1176.15805316
_cell_formula_units_Z   4
loop_
 _symmetry_equiv_pos_site_id
 _symmetry_equiv_pos_as_xyz
  1  'x, y, z'
loop_
 _atom_site_type_symbol
 _atom_site_label
 _atom_site_symmetry_multiplicity
 _atom_site_fract_x
 _atom_site_fract_y
 _atom_site_fract_z
 _atom_site_occupancy
  Sb  Sb0  1  0.25344820  0.46498621  0.88585869  1
  Sb  Sb1  1  0.24655180  0.96498621  0.61414131  1
  Sb  Sb2  1  0.25229385  0.53118406  0.38177515  1
  Sb  Sb3  1  0.24770615  0.03118406  0.11822485  1
  Sb  Sb4  1  0.75229385  0.96881594  0.88177515  1
  Sb  Sb5  1  0.74770615  0.46881594  0.61822485  1
  Sb  Sb6  1  0.75344820  0.03501379  0.38585869  1
  Sb  Sb7  1  0.74655180  0.53501379  0.11414131  1
  Se  Se8  1  0.03916825  0.25257127  0.49357596  1
  Se  Se9  1  0.10063936  0.12464048  0.84693833  1
  Se  Se10  1  0.11089945  0.38031613  0.14362651  1
  Se  Se11  1  0.39936064  0.62464048  0.65306167  1
  Se  Se12  1  0.38910055  0.88031613  0.35637349  1
  Se  Se13  1  0.46083175  0.75257127  0.00642404  1
  Se  Se14  1  0.53916825  0.24742873  0.99357596  1
  Se  Se15  1  0.61089945  0.11968387  0.64362651  1
  Se  Se16  1  0.60063936  0.37535952  0.34693833  1
  Se  Se17  1  0.88910055  0.61968387  0.85637349  1
  Se  Se18  1  0.89936064  0.87535952  0.15306167  1
  Se  Se19  1  0.96083175  0.74742873  0.50642404  1
  O  O20  1  0.05847690  0.61556471  0.90574588  1
  O  O21  1  0.04987473  0.62735414  0.44111738  1
  O  O22  1  0.06389769  0.80921243  0.60541344  1
  O  O23  1  0.06780384  0.92101381  0.19305063  1
  O  O24  1  0.08344908  0.12593297  0.57631223  1
  O  O25  1  0.11956883  0.29205602  0.81943036  1
  O  O26  1  0.11868579  0.10197648  0.97458898  1
  O  O27  1  0.12322880  0.49865826  0.23823985  1
  O  O28  1  0.15122210  0.22554728  0.19184035  1
  O  O29  1  0.19091182  0.32079864  0.44663565  1
  O  O30  1  0.22207368  0.02884339  0.78555239  1
  O  O31  1  0.23143928  0.42072549  0.05313079  1
  O  O32  1  0.27792632  0.52884339  0.71444761  1
  O  O33  1  0.26856072  0.92072549  0.44686921  1
  O  O34  1  0.30908818  0.82079864  0.05336435  1
  O  O35  1  0.34877790  0.72554728  0.30815965  1
  O  O36  1  0.38131421  0.60197648  0.52541102  1
  O  O37  1  0.38043117  0.79205602  0.68056964  1
  O  O38  1  0.37677120  0.99865826  0.26176015  1
  O  O39  1  0.41655092  0.62593297  0.92368777  1
  O  O40  1  0.43610231  0.30921243  0.89458656  1
  O  O41  1  0.44152310  0.11556471  0.59425412  1
  O  O42  1  0.43219616  0.42101381  0.30694937  1
  O  O43  1  0.45012527  0.12735414  0.05888262  1
  O  O44  1  0.54987473  0.87264586  0.94111738  1
  O  O45  1  0.56780384  0.57898619  0.69305063  1
  O  O46  1  0.55847690  0.88443529  0.40574588  1
  O  O47  1  0.56389769  0.69078757  0.10541344  1
  O  O48  1  0.58344908  0.37406703  0.07631223  1
  O  O49  1  0.62322880  0.00134174  0.73823985  1
  O  O50  1  0.61956883  0.20794398  0.31943036  1
  O  O51  1  0.61868579  0.39802352  0.47458898  1
  O  O52  1  0.65122210  0.27445272  0.69184035  1
  O  O53  1  0.69091182  0.17920136  0.94663565  1
  O  O54  1  0.73143928  0.07927451  0.55313079  1
  O  O55  1  0.72207368  0.47115661  0.28555239  1
  O  O56  1  0.76856072  0.57927451  0.94686921  1
  O  O57  1  0.77792632  0.97115661  0.21444761  1
  O  O58  1  0.80908818  0.67920136  0.55336435  1
  O  O59  1  0.84877790  0.77445272  0.80815965  1
  O  O60  1  0.87677120  0.50134174  0.76176015  1
  O  O61  1  0.88131421  0.89802352  0.02541102  1
  O  O62  1  0.88043117  0.70794398  0.18056964  1
  O  O63  1  0.91655092  0.87406703  0.42368777  1
  O  O64  1  0.93219616  0.07898619  0.80694937  1
  O  O65  1  0.93610231  0.19078757  0.39458656  1
  O  O66  1  0.95012527  0.37264586  0.55888262  1
  O  O67  1  0.94152310  0.38443529  0.09425412  1
