# generated using pymatgen
data_LiCr(PO4)2
_symmetry_space_group_name_H-M   'P 1'
_cell_length_a   11.08547393
_cell_length_b   5.18268594
_cell_length_c   10.52659710
_cell_angle_alpha   90.00000000
_cell_angle_beta   90.00000000
_cell_angle_gamma   90.00000000
_symmetry_Int_Tables_number   1
_chemical_formula_structural   LiCr(PO4)2
_chemical_formula_sum   'Li4 Cr4 P8 O32'
_cell_volume   604.77963437
_cell_formula_units_Z   4
loop_
 _symmetry_equiv_pos_site_id
 _symmetry_equiv_pos_as_xyz
  1  'x, y, z'
loop_
 _atom_site_type_symbol
 _atom_site_label
 _atom_site_symmetry_multiplicity
 _atom_site_fract_x
 _atom_site_fract_y
 _atom_site_fract_z
 _atom_site_occupancy
  Li  Li0  1  0.10976676  0.78064061  0.73408804  1
  Li  Li1  1  0.39023324  0.21935939  0.23408804  1
  Li  Li2  1  0.60976676  0.71935939  0.26591196  1
  Li  Li3  1  0.89023324  0.28064061  0.76591196  1
  Cr  Cr4  1  0.14293773  0.23370783  0.40260524  1
  Cr  Cr5  1  0.35706227  0.76629217  0.90260524  1
  Cr  Cr6  1  0.64293773  0.26629217  0.59739476  1
  Cr  Cr7  1  0.85706227  0.73370783  0.09739476  1
  P  P8  1  0.03841905  0.23954342  0.09226409  1
  P  P9  1  0.17529002  0.25716964  0.85950594  1
  P  P10  1  0.32470998  0.74283036  0.35950594  1
  P  P11  1  0.46158095  0.76045658  0.59226409  1
  P  P12  1  0.53841905  0.26045658  0.90773591  1
  P  P13  1  0.67529002  0.24283036  0.14049406  1
  P  P14  1  0.82470998  0.75716964  0.64049406  1
  P  P15  1  0.96158095  0.73954342  0.40773591  1
  O  O16  1  0.97760826  0.98807345  0.05269019  1
  O  O17  1  0.02972165  0.97577196  0.45818048  1
  O  O18  1  0.05575586  0.20468416  0.79683748  1
  O  O19  1  0.07087782  0.25497019  0.23073823  1
  O  O20  1  0.16415892  0.24516285  0.01400149  1
  O  O21  1  0.21263571  0.24590128  0.53556523  1
  O  O22  1  0.23759569  0.96358026  0.32407851  1
  O  O23  1  0.22706717  0.52472976  0.82638003  1
  O  O24  1  0.27293283  0.47527024  0.32638003  1
  O  O25  1  0.26240431  0.03641974  0.82407851  1
  O  O26  1  0.28736429  0.75409872  0.03556523  1
  O  O27  1  0.33584108  0.75483715  0.51400149  1
  O  O28  1  0.42912218  0.74502981  0.73073823  1
  O  O29  1  0.44424414  0.79531584  0.29683748  1
  O  O30  1  0.47027835  0.02422804  0.95818048  1
  O  O31  1  0.52239174  0.01192655  0.55269019  1
  O  O32  1  0.47760826  0.51192655  0.94730981  1
  O  O33  1  0.52972165  0.52422804  0.54181952  1
  O  O34  1  0.55575586  0.29531584  0.20316252  1
  O  O35  1  0.57087782  0.24502981  0.76926177  1
  O  O36  1  0.66415892  0.25483715  0.98599851  1
  O  O37  1  0.71263571  0.25409872  0.46443477  1
  O  O38  1  0.73759569  0.53641974  0.67592149  1
  O  O39  1  0.72706717  0.97527024  0.17361997  1
  O  O40  1  0.77293283  0.02472976  0.67361997  1
  O  O41  1  0.76240431  0.46358026  0.17592149  1
  O  O42  1  0.78736429  0.74590128  0.96443477  1
  O  O43  1  0.83584108  0.74516285  0.48599851  1
  O  O44  1  0.92912218  0.75497019  0.26926177  1
  O  O45  1  0.94424414  0.70468416  0.70316252  1
  O  O46  1  0.97027835  0.47577196  0.04181952  1
  O  O47  1  0.02239174  0.48807345  0.44730981  1
