# generated using pymatgen
data_Li2MnF4
_symmetry_space_group_name_H-M   'P 1'
_cell_length_a   8.85617796
_cell_length_b   7.33047212
_cell_length_c   15.55586351
_cell_angle_alpha   90.00000000
_cell_angle_beta   91.03751969
_cell_angle_gamma   90.00000000
_symmetry_Int_Tables_number   1
_chemical_formula_structural   Li2MnF4
_chemical_formula_sum   'Li24 Mn12 F48'
_cell_volume   1009.72055514
_cell_formula_units_Z   12
loop_
 _symmetry_equiv_pos_site_id
 _symmetry_equiv_pos_as_xyz
  1  'x, y, z'
loop_
 _atom_site_type_symbol
 _atom_site_label
 _atom_site_symmetry_multiplicity
 _atom_site_fract_x
 _atom_site_fract_y
 _atom_site_fract_z
 _atom_site_occupancy
  Li  Li0  1  0.06672001  0.65270412  0.90879967  1
  Li  Li1  1  0.06505858  0.25091907  0.90888243  1
  Li  Li2  1  0.07674062  0.80683253  0.25376479  1
  Li  Li3  1  0.07707103  0.25246749  0.26466014  1
  Li  Li4  1  0.09727363  0.67614308  0.57914393  1
  Li  Li5  1  0.11374275  0.25733441  0.57977594  1
  Li  Li6  1  0.38625725  0.75733441  0.92022406  1
  Li  Li7  1  0.40272637  0.17614308  0.92085607  1
  Li  Li8  1  0.42292897  0.75246749  0.23533986  1
  Li  Li9  1  0.42325938  0.30683253  0.24623521  1
  Li  Li10  1  0.43494142  0.75091907  0.59111757  1
  Li  Li11  1  0.43327999  0.15270412  0.59120033  1
  Li  Li12  1  0.56672001  0.84729588  0.40879967  1
  Li  Li13  1  0.56505858  0.24908093  0.40888243  1
  Li  Li14  1  0.57674062  0.69316747  0.75376579  1
  Li  Li15  1  0.57707103  0.24753251  0.76466014  1
  Li  Li16  1  0.59727363  0.82385692  0.07914393  1
  Li  Li17  1  0.61374275  0.24266559  0.07977594  1
  Li  Li18  1  0.88625725  0.74266559  0.42022406  1
  Li  Li19  1  0.90272637  0.32385692  0.42085607  1
  Li  Li20  1  0.92292897  0.74753251  0.73533986  1
  Li  Li21  1  0.92325938  0.19316747  0.74623421  1
  Li  Li22  1  0.93494142  0.74908093  0.09111757  1
  Li  Li23  1  0.93327999  0.34729588  0.09120033  1
  Mn  Mn24  1  0.23369855  0.96191040  0.41249707  1
  Mn  Mn25  1  0.23923517  0.97413998  0.74543050  1
  Mn  Mn26  1  0.23784907  0.03693816  0.07958071  1
  Mn  Mn27  1  0.26076483  0.47413998  0.75456950  1
  Mn  Mn28  1  0.26215093  0.53693816  0.42041929  1
  Mn  Mn29  1  0.26630145  0.46191040  0.08750293  1
  Mn  Mn30  1  0.73369855  0.53808960  0.91249707  1
  Mn  Mn31  1  0.73784907  0.46306184  0.57958071  1
  Mn  Mn32  1  0.73923517  0.52586002  0.24543050  1
  Mn  Mn33  1  0.76215093  0.96306184  0.92041929  1
  Mn  Mn34  1  0.76076483  0.02586002  0.25456950  1
  Mn  Mn35  1  0.76630145  0.03808960  0.58750293  1
  F  F36  1  0.05830542  0.55372536  0.12956296  1
  F  F37  1  0.05509651  0.92592187  0.14586675  1
  F  F38  1  0.08633060  0.75661956  0.46344438  1
  F  F39  1  0.05403919  0.02876248  0.32495266  1
  F  F40  1  0.08495329  0.38988875  0.36754428  1
  F  F41  1  0.11545060  0.70542687  0.79118826  1
  F  F42  1  0.09262637  0.24690683  0.02858723  1
  F  F43  1  0.10491993  0.28446134  0.70241760  1
  F  F44  1  0.22073828  0.46990051  0.55065487  1
  F  F45  1  0.24630726  0.59916854  0.97168743  1
  F  F46  1  0.24925370  0.78944883  0.64591729  1
  F  F47  1  0.24242293  0.24071125  0.18875365  1
  F  F48  1  0.25074630  0.28944883  0.85408271  1
  F  F49  1  0.25757707  0.74071125  0.31124635  1
  F  F50  1  0.25369274  0.09916854  0.52831257  1
  F  F51  1  0.27926172  0.96990051  0.94934513  1
  F  F52  1  0.39508007  0.78446134  0.79758240  1
  F  F53  1  0.38454940  0.20542687  0.70881174  1
  F  F54  1  0.40737363  0.74690683  0.47141277  1
  F  F55  1  0.41504671  0.88988875  0.13245572  1
  F  F56  1  0.44596081  0.52876248  0.17504734  1
  F  F57  1  0.41366940  0.25661956  0.03655562  1
  F  F58  1  0.44490349  0.42592187  0.35413325  1
  F  F59  1  0.44169458  0.05372536  0.37043704  1
  F  F60  1  0.55830542  0.94627464  0.62956296  1
  F  F61  1  0.55509651  0.57407813  0.64586675  1
  F  F62  1  0.58633060  0.74338044  0.96344438  1
  F  F63  1  0.55403919  0.47123752  0.82495266  1
  F  F64  1  0.58495329  0.11011125  0.86754428  1
  F  F65  1  0.59262637  0.25309317  0.52858723  1
  F  F66  1  0.61545060  0.79457313  0.29118826  1
  F  F67  1  0.60491993  0.21553766  0.20241760  1
  F  F68  1  0.72073828  0.03009949  0.05065487  1
  F  F69  1  0.74630726  0.90083146  0.47168743  1
  F  F70  1  0.74242293  0.25928875  0.68875365  1
  F  F71  1  0.74925370  0.71055117  0.14591729  1
  F  F72  1  0.75757707  0.75928875  0.81124635  1
  F  F73  1  0.75074630  0.21055117  0.35408271  1
  F  F74  1  0.75369274  0.40083146  0.02831257  1
  F  F75  1  0.77926172  0.53009949  0.44934513  1
  F  F76  1  0.89508007  0.71553866  0.29758240  1
  F  F77  1  0.90737363  0.75309317  0.97141277  1
  F  F78  1  0.88454940  0.29457313  0.20881174  1
  F  F79  1  0.91504671  0.61011125  0.63245572  1
  F  F80  1  0.94596081  0.97123752  0.67504734  1
  F  F81  1  0.91366940  0.24338044  0.53655562  1
  F  F82  1  0.94490349  0.07407813  0.85413325  1
  F  F83  1  0.94169458  0.44627464  0.87043704  1
