# generated using pymatgen
data_LiMn2Si2O7
_symmetry_space_group_name_H-M   'P 1'
_cell_length_a   4.86743177
_cell_length_b   4.86743177
_cell_length_c   13.51298276
_cell_angle_alpha   91.08968745
_cell_angle_beta   88.91031255
_cell_angle_gamma   64.38442494
_symmetry_Int_Tables_number   1
_chemical_formula_structural   LiMn2Si2O7
_chemical_formula_sum   'Li2 Mn4 Si4 O14'
_cell_volume   288.49840223
_cell_formula_units_Z   2
loop_
 _symmetry_equiv_pos_site_id
 _symmetry_equiv_pos_as_xyz
  1  'x, y, z'
loop_
 _atom_site_type_symbol
 _atom_site_label
 _atom_site_symmetry_multiplicity
 _atom_site_fract_x
 _atom_site_fract_y
 _atom_site_fract_z
 _atom_site_occupancy
  Li  Li0  1  0.33092198  0.26957827  0.91364926  1
  Li  Li1  1  0.73042173  0.66907802  0.41364926  1
  Mn  Mn2  1  0.03431333  0.94864674  0.01545974  1
  Mn  Mn3  1  0.05135326  0.96568667  0.51545974  1
  Mn  Mn4  1  0.00306794  0.96831145  0.25308948  1
  Mn  Mn5  1  0.03168855  0.99693206  0.75308948  1
  Si  Si6  1  0.69557033  0.61603007  0.85763490  1
  Si  Si7  1  0.70225912  0.59194068  0.64058128  1
  Si  Si8  1  0.40805932  0.29774088  0.14058128  1
  Si  Si9  1  0.38396993  0.30442967  0.35763490  1
  O  O10  1  0.19943167  0.66692287  0.14781946  1
  O  O11  1  0.13112115  0.66672470  0.36083422  1
  O  O12  1  0.33307713  0.80056833  0.64781946  1
  O  O13  1  0.33327530  0.86887885  0.86083422  1
  O  O14  1  0.34231718  0.15511840  0.24715785  1
  O  O15  1  0.84488160  0.65768282  0.74715785  1
  O  O16  1  0.86368309  0.65301689  0.54494058  1
  O  O17  1  0.91500329  0.64307630  0.93957084  1
  O  O18  1  0.34698311  0.13631691  0.04494058  1
  O  O19  1  0.35692370  0.08499671  0.43957084  1
  O  O20  1  0.78152285  0.22646034  0.64442429  1
  O  O21  1  0.71943048  0.26605670  0.85285609  1
  O  O22  1  0.77353966  0.21847715  0.14442429  1
  O  O23  1  0.73394330  0.28056952  0.35285609  1
