# generated using pymatgen
data_Na2Cr4O13
_symmetry_space_group_name_H-M   'P 1'
_cell_length_a   7.69739645
_cell_length_b   20.01054312
_cell_length_c   8.45343566
_cell_angle_alpha   90.00000000
_cell_angle_beta   106.47764876
_cell_angle_gamma   90.00000000
_symmetry_Int_Tables_number   1
_chemical_formula_structural   Na2Cr4O13
_chemical_formula_sum   'Na8 Cr16 O52'
_cell_volume   1248.59932597
_cell_formula_units_Z   4
loop_
 _symmetry_equiv_pos_site_id
 _symmetry_equiv_pos_as_xyz
  1  'x, y, z'
loop_
 _atom_site_type_symbol
 _atom_site_label
 _atom_site_symmetry_multiplicity
 _atom_site_fract_x
 _atom_site_fract_y
 _atom_site_fract_z
 _atom_site_occupancy
  Na  Na0  1  0.19835851  0.89763035  0.59325141  1
  Na  Na1  1  0.30164149  0.39763035  0.90674859  1
  Na  Na2  1  0.10197595  0.76021520  0.98678360  1
  Na  Na3  1  0.39802405  0.26021520  0.51321640  1
  Na  Na4  1  0.60197595  0.73978480  0.48678360  1
  Na  Na5  1  0.89802405  0.23978480  0.01321640  1
  Na  Na6  1  0.69835851  0.60236965  0.09325141  1
  Na  Na7  1  0.80164149  0.10236965  0.40674859  1
  Cr  Cr8  1  0.06651796  0.72731136  0.45478101  1
  Cr  Cr9  1  0.24107319  0.10718006  0.80020298  1
  Cr  Cr10  1  0.14389909  0.44671512  0.36223836  1
  Cr  Cr11  1  0.25892681  0.60718006  0.69979702  1
  Cr  Cr12  1  0.24030421  0.07918401  0.30869096  1
  Cr  Cr13  1  0.25969579  0.57918401  0.19130904  1
  Cr  Cr14  1  0.56651796  0.77268864  0.95478101  1
  Cr  Cr15  1  0.35610091  0.94671512  0.13776164  1
  Cr  Cr16  1  0.64389909  0.05328488  0.86223836  1
  Cr  Cr17  1  0.43348204  0.22731136  0.04521899  1
  Cr  Cr18  1  0.74030421  0.42081599  0.80869096  1
  Cr  Cr19  1  0.75969579  0.92081599  0.69130904  1
  Cr  Cr20  1  0.74107319  0.39281994  0.30020298  1
  Cr  Cr21  1  0.85610091  0.55328488  0.63776164  1
  Cr  Cr22  1  0.75892681  0.89281994  0.19979702  1
  Cr  Cr23  1  0.93348204  0.27268864  0.54521899  1
  O  O24  1  0.04671079  0.07246274  0.76403299  1
  O  O25  1  0.99637244  0.75410032  0.60803305  1
  O  O26  1  0.10574104  0.29747645  0.69417792  1
  O  O27  1  0.09323068  0.54366155  0.66794550  1
  O  O28  1  0.26611976  0.91149497  0.96253027  1
  O  O29  1  0.27988212  0.15647227  0.97463776  1
  O  O30  1  0.24871484  0.65439604  0.85098425  1
  O  O31  1  0.07666634  0.13120444  0.22778059  1
  O  O32  1  0.25128516  0.15439604  0.64901575  1
  O  O33  1  0.06846490  0.61815318  0.11195044  1
  O  O34  1  0.22011788  0.65647227  0.52536224  1
  O  O35  1  0.18783620  0.03059088  0.44303044  1
  O  O36  1  0.23388024  0.41149497  0.53746973  1
  O  O37  1  0.18583569  0.78366125  0.39202118  1
  O  O38  1  0.17263556  0.40063861  0.21741777  1
  O  O39  1  0.23003833  0.52553498  0.35783789  1
  O  O40  1  0.40676932  0.04366155  0.83205450  1
  O  O41  1  0.39425896  0.79747645  0.80582208  1
  O  O42  1  0.50362756  0.25410032  0.89196695  1
  O  O43  1  0.45328921  0.57246274  0.73596701  1
  O  O44  1  0.26996167  0.02553498  0.14216211  1
  O  O45  1  0.32736444  0.90063861  0.28258223  1
  O  O46  1  0.31416431  0.28366125  0.10797882  1
  O  O47  1  0.31216380  0.53059088  0.05696956  1
  O  O48  1  0.43153510  0.11815318  0.38804956  1
  O  O49  1  0.42333366  0.63120444  0.27221941  1
  O  O50  1  0.57666634  0.36879556  0.72778059  1
  O  O51  1  0.56846490  0.88184682  0.61195044  1
  O  O52  1  0.68783620  0.46940912  0.94303044  1
  O  O53  1  0.68583569  0.71633875  0.89202118  1
  O  O54  1  0.67263556  0.09936139  0.71741777  1
  O  O55  1  0.73003833  0.97446502  0.85783789  1
  O  O56  1  0.54671079  0.42753726  0.26403299  1
  O  O57  1  0.49637244  0.74589968  0.10803305  1
  O  O58  1  0.60574104  0.20252355  0.19417792  1
  O  O59  1  0.59323068  0.95633845  0.16794550  1
  O  O60  1  0.76996167  0.47446502  0.64216211  1
  O  O61  1  0.82736444  0.59936139  0.78258223  1
  O  O62  1  0.81416431  0.21633875  0.60797882  1
  O  O63  1  0.76611976  0.58850503  0.46253027  1
  O  O64  1  0.81216380  0.96940912  0.55696956  1
  O  O65  1  0.77988212  0.34352773  0.47463776  1
  O  O66  1  0.93153510  0.38184682  0.88804956  1
  O  O67  1  0.74871484  0.84560396  0.35098425  1
  O  O68  1  0.92333366  0.86879556  0.77221941  1
  O  O69  1  0.75128516  0.34560396  0.14901575  1
  O  O70  1  0.72011788  0.84352773  0.02536224  1
  O  O71  1  0.73388024  0.08850503  0.03746973  1
  O  O72  1  0.90676932  0.45633845  0.33205450  1
  O  O73  1  0.89425896  0.70252355  0.30582208  1
  O  O74  1  0.00362756  0.24589968  0.39196695  1
  O  O75  1  0.95328921  0.92753726  0.23596701  1
