# generated using pymatgen
data_CrO3
_symmetry_space_group_name_H-M   'P 1'
_cell_length_a   5.85161890
_cell_length_b   9.57146402
_cell_length_c   4.56978666
_cell_angle_alpha   90.00000000
_cell_angle_beta   90.00000000
_cell_angle_gamma   90.00000000
_symmetry_Int_Tables_number   1
_chemical_formula_structural   CrO3
_chemical_formula_sum   'Cr4 O12'
_cell_volume   255.94716924
_cell_formula_units_Z   4
loop_
 _symmetry_equiv_pos_site_id
 _symmetry_equiv_pos_as_xyz
  1  'x, y, z'
loop_
 _atom_site_type_symbol
 _atom_site_label
 _atom_site_symmetry_multiplicity
 _atom_site_fract_x
 _atom_site_fract_y
 _atom_site_fract_z
 _atom_site_occupancy
  Cr  Cr0  1  0.04043556  0.25000000  0.96225854  1
  Cr  Cr1  1  0.45956444  0.75000000  0.46225854  1
  Cr  Cr2  1  0.54043556  0.25000000  0.53774146  1
  Cr  Cr3  1  0.95956444  0.75000000  0.03774146  1
  O  O4  1  0.05573564  0.11640738  0.16882372  1
  O  O5  1  0.05573564  0.38359262  0.16882372  1
  O  O6  1  0.27169196  0.25000000  0.71848137  1
  O  O7  1  0.22830804  0.75000000  0.21848137  1
  O  O8  1  0.44426436  0.61640738  0.66882372  1
  O  O9  1  0.44426436  0.88359262  0.66882372  1
  O  O10  1  0.55573564  0.11640738  0.33117628  1
  O  O11  1  0.55573564  0.38359262  0.33117628  1
  O  O12  1  0.77169196  0.25000000  0.78151863  1
  O  O13  1  0.72830804  0.75000000  0.28151863  1
  O  O14  1  0.94426436  0.88359262  0.83117628  1
  O  O15  1  0.94426436  0.61640738  0.83117628  1
