# generated using pymatgen
data_Li3Cu3(PO4)2
_symmetry_space_group_name_H-M   'P 1'
_cell_length_a   6.19075005
_cell_length_b   5.44751571
_cell_length_c   10.20976235
_cell_angle_alpha   90.48365622
_cell_angle_beta   90.19430552
_cell_angle_gamma   89.13631346
_symmetry_Int_Tables_number   1
_chemical_formula_structural   Li3Cu3(PO4)2
_chemical_formula_sum   'Li6 Cu6 P4 O16'
_cell_volume   344.26293146
_cell_formula_units_Z   2
loop_
 _symmetry_equiv_pos_site_id
 _symmetry_equiv_pos_as_xyz
  1  'x, y, z'
loop_
 _atom_site_type_symbol
 _atom_site_label
 _atom_site_symmetry_multiplicity
 _atom_site_fract_x
 _atom_site_fract_y
 _atom_site_fract_z
 _atom_site_occupancy
  Li  Li0  1  0.00097964  0.15549209  0.74528426  1
  Li  Li1  1  0.99882157  0.15144430  0.24914841  1
  Li  Li2  1  0.24551033  0.33089417  0.49765858  1
  Li  Li3  1  0.24832276  0.67311943  0.25010025  1
  Li  Li4  1  0.25714590  0.67379066  0.74330083  1
  Li  Li5  1  0.50163511  0.84620836  0.49504854  1
  Cu  Cu6  1  0.26779940  0.34411179  0.01182524  1
  Cu  Cu7  1  0.50355641  0.78353537  0.00129337  1
  Cu  Cu8  1  0.72882426  0.66086253  0.73940816  1
  Cu  Cu9  1  0.74409710  0.65292798  0.23848747  1
  Cu  Cu10  1  0.76632490  0.34857921  0.49577398  1
  Cu  Cu11  1  0.73106707  0.34625748  0.00712048  1
  P  P12  1  0.00562348  0.83847973  0.99597839  1
  P  P13  1  0.00881164  0.82956601  0.49869134  1
  P  P14  1  0.49195234  0.16959554  0.25857676  1
  P  P15  1  0.49411178  0.17481726  0.74313466  1
  O  O16  1  0.01044967  0.83250518  0.65123823  1
  O  O17  1  0.01334557  0.09706300  0.44446557  1
  O  O18  1  0.00992661  0.83553339  0.14824934  1
  O  O19  1  0.00038910  0.10371575  0.94142969  1
  O  O20  1  0.20953674  0.68464735  0.44602935  1
  O  O21  1  0.20612602  0.69615630  0.93831837  1
  O  O22  1  0.28729435  0.31527407  0.21039804  1
  O  O23  1  0.29323501  0.31941312  0.69132384  1
  O  O24  1  0.49324846  0.16566226  0.89551602  1
  O  O25  1  0.49044480  0.90741045  0.68672546  1
  O  O26  1  0.49368097  0.17501736  0.41030725  1
  O  O27  1  0.48371849  0.89879480  0.20883812  1
  O  O28  1  0.71029693  0.29753306  0.69893633  1
  O  O29  1  0.70561968  0.28728982  0.20736022  1
  O  O30  1  0.79458459  0.70755549  0.44828010  1
  O  O31  1  0.80351932  0.69674667  0.94434635  1
