# generated using pymatgen
data_CaCo3O7
_symmetry_space_group_name_H-M   'P 1'
_cell_length_a   6.73948609
_cell_length_b   10.99854840
_cell_length_c   14.25753633
_cell_angle_alpha   90.00000000
_cell_angle_beta   90.00000000
_cell_angle_gamma   102.55954690
_symmetry_Int_Tables_number   1
_chemical_formula_structural   CaCo3O7
_chemical_formula_sum   'Ca8 Co24 O56'
_cell_volume   1031.54420155
_cell_formula_units_Z   8
loop_
 _symmetry_equiv_pos_site_id
 _symmetry_equiv_pos_as_xyz
  1  'x, y, z'
loop_
 _atom_site_type_symbol
 _atom_site_label
 _atom_site_symmetry_multiplicity
 _atom_site_fract_x
 _atom_site_fract_y
 _atom_site_fract_z
 _atom_site_occupancy
  Ca  Ca0  1  0.08593140  0.73624612  0.50728230  1
  Ca  Ca1  1  0.33761952  0.97674333  0.87418844  1
  Ca  Ca2  1  0.66238048  0.52325667  0.37418844  1
  Ca  Ca3  1  0.66238048  0.02325667  0.12581156  1
  Ca  Ca4  1  0.33761952  0.47674333  0.62581156  1
  Ca  Ca5  1  0.08593140  0.23624612  0.99271770  1
  Ca  Ca6  1  0.91406860  0.26375388  0.49271770  1
  Ca  Ca7  1  0.91406860  0.76375388  0.00728230  1
  Co  Co8  1  0.84011394  0.97911252  0.86217684  1
  Co  Co9  1  0.39842081  0.68161833  0.01369170  1
  Co  Co10  1  0.39842081  0.18161833  0.48630830  1
  Co  Co11  1  0.60157919  0.31838167  0.98630830  1
  Co  Co12  1  0.49727645  0.80764153  0.70296067  1
  Co  Co13  1  0.50272355  0.69235847  0.20296067  1
  Co  Co14  1  0.50272355  0.19235847  0.29703933  1
  Co  Co15  1  0.49727645  0.30764153  0.79703933  1
  Co  Co16  1  0.60157919  0.81838167  0.51369170  1
  Co  Co17  1  0.87307950  0.47990266  0.14525717  1
  Co  Co18  1  0.12692050  0.02009734  0.64525717  1
  Co  Co19  1  0.12692050  0.52009734  0.85474283  1
  Co  Co20  1  0.15988606  0.52088748  0.36217684  1
  Co  Co21  1  0.84011394  0.47911252  0.63782316  1
  Co  Co22  1  0.15988606  0.02088748  0.13782316  1
  Co  Co23  1  0.87307950  0.97990266  0.35474283  1
  Co  Co24  1  0.63148173  0.08262646  0.67637653  1
  Co  Co25  1  0.36851827  0.41737354  0.17637653  1
  Co  Co26  1  0.36851827  0.91737354  0.32362347  1
  Co  Co27  1  0.63148173  0.58262646  0.82362347  1
  Co  Co28  1  0.98852042  0.24752030  0.75196944  1
  Co  Co29  1  0.01147958  0.25247970  0.25196944  1
  Co  Co30  1  0.01147958  0.75247970  0.24803056  1
  Co  Co31  1  0.98852042  0.74752030  0.74803056  1
  O  O32  1  0.76497974  0.95878702  0.97859601  1
  O  O33  1  0.23502026  0.54121298  0.47859601  1
  O  O34  1  0.23502026  0.04121298  0.02140399  1
  O  O35  1  0.76497974  0.45878702  0.52140399  1
  O  O36  1  0.99651014  0.86537251  0.84597322  1
  O  O37  1  0.00348986  0.63462749  0.34597322  1
  O  O38  1  0.00348986  0.13462749  0.15402678  1
  O  O39  1  0.99651014  0.36537251  0.65402678  1
  O  O40  1  0.00561664  0.12824021  0.84685716  1
  O  O41  1  0.99438336  0.37175979  0.34685716  1
  O  O42  1  0.99438336  0.87175979  0.15314284  1
  O  O43  1  0.00561664  0.62824021  0.65314284  1
  O  O44  1  0.64770677  0.94432746  0.28741327  1
  O  O45  1  0.35229323  0.55567254  0.78741327  1
  O  O46  1  0.35229323  0.05567254  0.71258673  1
  O  O47  1  0.64770677  0.44432746  0.21258673  1
  O  O48  1  0.99368722  0.14108116  0.35170435  1
  O  O49  1  0.00631278  0.35891884  0.85170435  1
  O  O50  1  0.00631278  0.85891884  0.64829565  1
  O  O51  1  0.99368722  0.64108116  0.14829565  1
  O  O52  1  0.07080508  0.88163172  0.33658294  1
  O  O53  1  0.38273901  0.83428723  0.43066151  1
  O  O54  1  0.92919492  0.61836828  0.83658294  1
  O  O55  1  0.07080508  0.38163172  0.16341706  1
  O  O56  1  0.72193535  0.70591895  0.47867712  1
  O  O57  1  0.27806465  0.79408105  0.97867712  1
  O  O58  1  0.27806465  0.29408105  0.52132288  1
  O  O59  1  0.72193535  0.20591895  0.02132288  1
  O  O60  1  0.79576966  0.94922973  0.47050655  1
  O  O61  1  0.20423034  0.55077027  0.97050655  1
  O  O62  1  0.20423034  0.05077027  0.52949345  1
  O  O63  1  0.79576966  0.44922973  0.02949345  1
  O  O64  1  0.41810358  0.21202194  0.90095265  1
  O  O65  1  0.58189642  0.28797806  0.40095265  1
  O  O66  1  0.58189642  0.78797806  0.09904735  1
  O  O67  1  0.41810358  0.71202194  0.59904735  1
  O  O68  1  0.69568275  0.21314088  0.75577739  1
  O  O69  1  0.30431725  0.28685912  0.25577739  1
  O  O70  1  0.30431725  0.78685912  0.24422261  1
  O  O71  1  0.69568275  0.71314088  0.74422261  1
  O  O72  1  0.62708032  0.45591708  0.71629276  1
  O  O73  1  0.37291968  0.04408292  0.21629276  1
  O  O74  1  0.37291968  0.54408292  0.28370724  1
  O  O75  1  0.62708032  0.95591708  0.78370724  1
  O  O76  1  0.27183253  0.28537372  0.73260327  1
  O  O77  1  0.72816747  0.21462628  0.23260327  1
  O  O78  1  0.72816747  0.71462628  0.26739673  1
  O  O79  1  0.27183253  0.78537372  0.76739673  1
  O  O80  1  0.58190690  0.42626266  0.88549943  1
  O  O81  1  0.41809310  0.07373734  0.38549943  1
  O  O82  1  0.41809310  0.57373734  0.11450057  1
  O  O83  1  0.58190690  0.92626266  0.61450057  1
  O  O84  1  0.38273901  0.33428723  0.06933849  1
  O  O85  1  0.61726099  0.16571277  0.56933849  1
  O  O86  1  0.61726099  0.66571277  0.93066151  1
  O  O87  1  0.92919492  0.11836828  0.66341706  1
