# generated using pymatgen
data_Na8Gd2O7
_symmetry_space_group_name_H-M   'P 1'
_cell_length_a   9.22865056
_cell_length_b   11.69995556
_cell_length_c   10.92419281
_cell_angle_alpha   90.00000000
_cell_angle_beta   108.36050717
_cell_angle_gamma   90.00000000
_symmetry_Int_Tables_number   1
_chemical_formula_structural   Na8Gd2O7
_chemical_formula_sum   'Na32 Gd8 O28'
_cell_volume   1119.49125236
_cell_formula_units_Z   4
loop_
 _symmetry_equiv_pos_site_id
 _symmetry_equiv_pos_as_xyz
  1  'x, y, z'
loop_
 _atom_site_type_symbol
 _atom_site_label
 _atom_site_symmetry_multiplicity
 _atom_site_fract_x
 _atom_site_fract_y
 _atom_site_fract_z
 _atom_site_occupancy
  Na  Na0  1  0.12900714  0.47688832  0.93376299  1
  Na  Na1  1  0.08614451  0.46812886  0.63865401  1
  Na  Na2  1  0.10706307  0.73496305  0.53432706  1
  Na  Na3  1  0.12900714  0.02311168  0.43376299  1
  Na  Na4  1  0.25163175  0.95098542  0.70105113  1
  Na  Na5  1  0.08614451  0.03187114  0.13865401  1
  Na  Na6  1  0.28370518  0.25784622  0.57193556  1
  Na  Na7  1  0.10706307  0.76503695  0.03432706  1
  Na  Na8  1  0.44239804  0.46779286  0.84463029  1
  Na  Na9  1  0.34189227  0.50360738  0.52154169  1
  Na  Na10  1  0.25163175  0.54901458  0.20105113  1
  Na  Na11  1  0.49852086  0.22831022  0.87258180  1
  Na  Na12  1  0.28370518  0.24215378  0.07193556  1
  Na  Na13  1  0.50147914  0.72831022  0.62741820  1
  Na  Na14  1  0.44239804  0.03220714  0.34463029  1
  Na  Na15  1  0.65810773  0.00360738  0.97845831  1
  Na  Na16  1  0.34189227  0.99639262  0.02154169  1
  Na  Na17  1  0.55760196  0.96779286  0.65536971  1
  Na  Na18  1  0.49852086  0.27168978  0.37258180  1
  Na  Na19  1  0.71629482  0.75784622  0.92806444  1
  Na  Na20  1  0.50147914  0.77168978  0.12741820  1
  Na  Na21  1  0.74836825  0.45098542  0.79894887  1
  Na  Na22  1  0.65810773  0.49639262  0.47845831  1
  Na  Na23  1  0.55760196  0.53220714  0.15536971  1
  Na  Na24  1  0.89293693  0.23496305  0.96567294  1
  Na  Na25  1  0.71629482  0.74215378  0.42806444  1
  Na  Na26  1  0.91385549  0.96812886  0.86134599  1
  Na  Na27  1  0.74836825  0.04901458  0.29894887  1
  Na  Na28  1  0.87099286  0.97688832  0.56623701  1
  Na  Na29  1  0.89293693  0.26503695  0.46567294  1
  Na  Na30  1  0.91385549  0.53187114  0.36134599  1
  Na  Na31  1  0.87099286  0.52311168  0.06623701  1
  Gd  Gd32  1  0.09632289  0.20702168  0.77726875  1
  Gd  Gd33  1  0.09632289  0.29297832  0.27726875  1
  Gd  Gd34  1  0.31722096  0.72028564  0.85271876  1
  Gd  Gd35  1  0.31722096  0.77971436  0.35271876  1
  Gd  Gd36  1  0.68277904  0.22028564  0.64728124  1
  Gd  Gd37  1  0.68277904  0.27971436  0.14728124  1
  Gd  Gd38  1  0.90367711  0.70702168  0.72273125  1
  Gd  Gd39  1  0.90367711  0.79297832  0.22273125  1
  O  O40  1  0.10084309  0.11096222  0.94968619  1
  O  O41  1  0.10537493  0.82057631  0.78130798  1
  O  O42  1  0.10864986  0.11041676  0.61207154  1
  O  O43  1  0.10084309  0.38903778  0.44968619  1
  O  O44  1  0.27154761  0.33175032  0.82657019  1
  O  O45  1  0.10537493  0.67942369  0.28130798  1
  O  O46  1  0.10864986  0.38958324  0.11207154  1
  O  O47  1  0.33206354  0.61468267  0.69438366  1
  O  O48  1  0.27154761  0.16824968  0.32657019  1
  O  O49  1  0.48138354  0.85648470  0.91060203  1
  O  O50  1  0.32448588  0.88325363  0.52195170  1
  O  O51  1  0.33206354  0.88531733  0.19438366  1
  O  O52  1  0.48138354  0.64351530  0.41060203  1
  O  O53  1  0.67551412  0.38325363  0.97804830  1
  O  O54  1  0.32448588  0.61674637  0.02195170  1
  O  O55  1  0.51861646  0.35648470  0.58939797  1
  O  O56  1  0.66793646  0.11468267  0.80561634  1
  O  O57  1  0.67551412  0.11674637  0.47804830  1
  O  O58  1  0.51861646  0.14351530  0.08939797  1
  O  O59  1  0.72845239  0.83175032  0.67342981  1
  O  O60  1  0.66793646  0.38531733  0.30561634  1
  O  O61  1  0.89135014  0.61041676  0.88792846  1
  O  O62  1  0.89462507  0.32057631  0.71869202  1
  O  O63  1  0.72845239  0.66824968  0.17342981  1
  O  O64  1  0.89915691  0.61096222  0.55031381  1
  O  O65  1  0.89135014  0.88958324  0.38792846  1
  O  O66  1  0.89462507  0.17942369  0.21869202  1
  O  O67  1  0.89915691  0.88903778  0.05031381  1
