# generated using pymatgen
data_Fe4O5F3
_symmetry_space_group_name_H-M   'P 1'
_cell_length_a   4.73253361
_cell_length_b   9.92335326
_cell_length_c   6.09405585
_cell_angle_alpha   72.11949240
_cell_angle_beta   89.99737638
_cell_angle_gamma   88.40986782
_symmetry_Int_Tables_number   1
_chemical_formula_structural   Fe4O5F3
_chemical_formula_sum   'Fe8 O10 F6'
_cell_volume   272.25361625
_cell_formula_units_Z   2
loop_
 _symmetry_equiv_pos_site_id
 _symmetry_equiv_pos_as_xyz
  1  'x, y, z'
loop_
 _atom_site_type_symbol
 _atom_site_label
 _atom_site_symmetry_multiplicity
 _atom_site_fract_x
 _atom_site_fract_y
 _atom_site_fract_z
 _atom_site_occupancy
  Fe  Fe0  1  0.50000000  0.25000000  0.62500000  1
  Fe  Fe1  1  0.49998571  0.74998422  0.86982524  1
  Fe  Fe2  1  0.50001429  0.75001578  0.38017476  1
  Fe  Fe3  1  0.50000000  0.25000000  0.12500000  1
  Fe  Fe4  1  0.02847932  0.01873072  0.49065947  1
  Fe  Fe5  1  0.97152068  0.48126928  0.75934053  1
  Fe  Fe6  1  0.06572992  0.00494938  0.99752935  1
  Fe  Fe7  1  0.93427008  0.49505062  0.25247065  1
  O  O8  1  0.78416091  0.39774189  0.55182426  1
  O  O9  1  0.78416383  0.39776404  0.05039803  1
  O  O10  1  0.69725923  0.15839802  0.42081078  1
  O  O11  1  0.67526159  0.65503433  0.17245352  1
  O  O12  1  0.68211178  0.65077938  0.67458311  1
  O  O13  1  0.32473841  0.84496567  0.07754648  1
  O  O14  1  0.31788822  0.84922062  0.57541689  1
  O  O15  1  0.30274077  0.34160198  0.82918922  1
  O  O16  1  0.21583617  0.10223596  0.19960197  1
  O  O17  1  0.21583909  0.10225811  0.69817574  1
  F  F18  1  0.82792573  0.90660326  0.79796559  1
  F  F19  1  0.82797181  0.90656197  0.29549325  1
  F  F20  1  0.71294783  0.14366862  0.92821162  1
  F  F21  1  0.28705217  0.35633138  0.32178838  1
  F  F22  1  0.17202819  0.59343803  0.95450675  1
  F  F23  1  0.17207427  0.59339674  0.45203441  1
