# generated using pymatgen
data_Li4CoO4
_symmetry_space_group_name_H-M   'P 1'
_cell_length_a   8.94758037
_cell_length_b   5.41280015
_cell_length_c   16.07593257
_cell_angle_alpha   90.00000000
_cell_angle_beta   90.00000000
_cell_angle_gamma   90.00000000
_symmetry_Int_Tables_number   1
_chemical_formula_structural   Li4CoO4
_chemical_formula_sum   'Li32 Co8 O32'
_cell_volume   778.58095546
_cell_formula_units_Z   8
loop_
 _symmetry_equiv_pos_site_id
 _symmetry_equiv_pos_as_xyz
  1  'x, y, z'
loop_
 _atom_site_type_symbol
 _atom_site_label
 _atom_site_symmetry_multiplicity
 _atom_site_fract_x
 _atom_site_fract_y
 _atom_site_fract_z
 _atom_site_occupancy
  Li  Li0  1  0.05254189  0.07989270  0.43015440  1
  Li  Li1  1  0.05254189  0.42010730  0.93015440  1
  Li  Li2  1  0.10100451  0.86056975  0.24029839  1
  Li  Li3  1  0.10100451  0.63943025  0.74029839  1
  Li  Li4  1  0.16675036  0.59311207  0.51442705  1
  Li  Li5  1  0.16675036  0.90688793  0.01442705  1
  Li  Li6  1  0.17179006  0.41926638  0.33367772  1
  Li  Li7  1  0.17179006  0.08073362  0.83367772  1
  Li  Li8  1  0.32820994  0.58073362  0.83367772  1
  Li  Li9  1  0.32820994  0.91926638  0.33367772  1
  Li  Li10  1  0.33324964  0.09311207  0.51442705  1
  Li  Li11  1  0.33324964  0.40688793  0.01442705  1
  Li  Li12  1  0.39899549  0.36056975  0.24029839  1
  Li  Li13  1  0.39899549  0.13943025  0.74029839  1
  Li  Li14  1  0.44745811  0.92010730  0.93015440  1
  Li  Li15  1  0.44745811  0.57989270  0.43015440  1
  Li  Li16  1  0.55254189  0.07989270  0.06984560  1
  Li  Li17  1  0.55254189  0.42010730  0.56984560  1
  Li  Li18  1  0.60100451  0.63943025  0.75970161  1
  Li  Li19  1  0.60100451  0.86056975  0.25970161  1
  Li  Li20  1  0.66675036  0.59311207  0.98557295  1
  Li  Li21  1  0.66675036  0.90688793  0.48557295  1
  Li  Li22  1  0.67179006  0.41926638  0.16632228  1
  Li  Li23  1  0.67179006  0.08073362  0.66632228  1
  Li  Li24  1  0.82820994  0.58073362  0.66632228  1
  Li  Li25  1  0.82820994  0.91926638  0.16632228  1
  Li  Li26  1  0.83324964  0.09311207  0.98557295  1
  Li  Li27  1  0.83324964  0.40688793  0.48557295  1
  Li  Li28  1  0.89899549  0.13943025  0.75970161  1
  Li  Li29  1  0.89899549  0.36056975  0.25970161  1
  Li  Li30  1  0.94745811  0.92010730  0.56984560  1
  Li  Li31  1  0.94745811  0.57989270  0.06984560  1
  Co  Co32  1  0.05651784  0.18968420  0.12813192  1
  Co  Co33  1  0.05651784  0.31031580  0.62813192  1
  Co  Co34  1  0.44348216  0.68968420  0.12813192  1
  Co  Co35  1  0.44348216  0.81031580  0.62813192  1
  Co  Co36  1  0.55651784  0.18968420  0.37186808  1
  Co  Co37  1  0.55651784  0.31031580  0.87186808  1
  Co  Co38  1  0.94348216  0.68968420  0.37186808  1
  Co  Co39  1  0.94348216  0.81031580  0.87186808  1
  O  O40  1  0.04252543  0.85938070  0.11809032  1
  O  O41  1  0.04252543  0.64061930  0.61809032  1
  O  O42  1  0.12787832  0.24858000  0.22972010  1
  O  O43  1  0.12787832  0.25142000  0.72972010  1
  O  O44  1  0.13113445  0.30767892  0.03333950  1
  O  O45  1  0.13113445  0.19232108  0.53333950  1
  O  O46  1  0.14004631  0.71299840  0.87003955  1
  O  O47  1  0.14004631  0.78700160  0.37003955  1
  O  O48  1  0.35995369  0.28700160  0.37003955  1
  O  O49  1  0.35995369  0.21299840  0.87003955  1
  O  O50  1  0.36886555  0.80767892  0.03333950  1
  O  O51  1  0.36886555  0.69232108  0.53333950  1
  O  O52  1  0.37212168  0.74858000  0.22972010  1
  O  O53  1  0.37212168  0.75142000  0.72972010  1
  O  O54  1  0.45747457  0.35938070  0.11809032  1
  O  O55  1  0.45747457  0.14061930  0.61809032  1
  O  O56  1  0.54252543  0.85938070  0.38190968  1
  O  O57  1  0.54252543  0.64061930  0.88190968  1
  O  O58  1  0.62787832  0.25142000  0.77027990  1
  O  O59  1  0.62787832  0.24858000  0.27027990  1
  O  O60  1  0.63113445  0.19232108  0.96666050  1
  O  O61  1  0.63113445  0.30767892  0.46666050  1
  O  O62  1  0.64004631  0.71299840  0.62996045  1
  O  O63  1  0.64004631  0.78700160  0.12996045  1
  O  O64  1  0.85995369  0.21299840  0.62996045  1
  O  O65  1  0.85995369  0.28700160  0.12996045  1
  O  O66  1  0.86886555  0.80767892  0.46666050  1
  O  O67  1  0.86886555  0.69232108  0.96666050  1
  O  O68  1  0.87212168  0.75142000  0.77027990  1
  O  O69  1  0.87212168  0.74858000  0.27027990  1
  O  O70  1  0.95747457  0.14061930  0.88190968  1
  O  O71  1  0.95747457  0.35938070  0.38190968  1
