# generated using pymatgen
data_Rb(BH)5
_symmetry_space_group_name_H-M   'P 1'
_cell_length_a   14.09389642
_cell_length_b   11.46155331
_cell_length_c   7.28178718
_cell_angle_alpha   90.00000000
_cell_angle_beta   94.95183368
_cell_angle_gamma   90.00000000
_symmetry_Int_Tables_number   1
_chemical_formula_structural   Rb(BH)5
_chemical_formula_sum   'Rb8 B40 H40'
_cell_volume   1171.89459016
_cell_formula_units_Z   8
loop_
 _symmetry_equiv_pos_site_id
 _symmetry_equiv_pos_as_xyz
  1  'x, y, z'
loop_
 _atom_site_type_symbol
 _atom_site_label
 _atom_site_symmetry_multiplicity
 _atom_site_fract_x
 _atom_site_fract_y
 _atom_site_fract_z
 _atom_site_occupancy
  Rb  Rb0  1  0.05522240  0.87926762  0.69955794  1
  Rb  Rb1  1  0.18815145  0.57065624  0.24709024  1
  Rb  Rb2  1  0.31184855  0.07065624  0.25290976  1
  Rb  Rb3  1  0.44477760  0.37926762  0.80044206  1
  Rb  Rb4  1  0.55522240  0.62073238  0.19955794  1
  Rb  Rb5  1  0.68815145  0.92934376  0.74709024  1
  Rb  Rb6  1  0.81184855  0.42934376  0.75290976  1
  Rb  Rb7  1  0.94477760  0.12073238  0.30044206  1
  B  B8  1  0.02323385  0.29597272  0.66147968  1
  B  B9  1  0.04661832  0.32762648  0.90460542  1
  B  B10  1  0.04839030  0.17721422  0.82068538  1
  B  B11  1  0.11337295  0.40421270  0.73955444  1
  B  B12  1  0.11718671  0.19096538  0.62265419  1
  B  B13  1  0.11175229  0.22032602  0.01878788  1
  B  B14  1  0.11655550  0.32993901  0.53783624  1
  B  B15  1  0.17715391  0.32871636  0.93085236  1
  B  B16  1  0.17926568  0.17771849  0.84829594  1
  B  B17  1  0.20656355  0.29775676  0.70019499  1
  B  B18  1  0.29343645  0.79775676  0.79980501  1
  B  B19  1  0.32073432  0.67771849  0.65170406  1
  B  B20  1  0.32284609  0.82871636  0.56914764  1
  B  B21  1  0.38344450  0.82993901  0.96216376  1
  B  B22  1  0.38281329  0.69096538  0.87734581  1
  B  B23  1  0.38662705  0.90421270  0.76044556  1
  B  B24  1  0.38824771  0.72032602  0.48121212  1
  B  B25  1  0.45160970  0.67721422  0.67931462  1
  B  B26  1  0.45338168  0.82762648  0.59539458  1
  B  B27  1  0.47676615  0.79597272  0.83852032  1
  B  B28  1  0.52323385  0.20402728  0.16147968  1
  B  B29  1  0.54661832  0.17237352  0.40460542  1
  B  B30  1  0.54839030  0.32278578  0.32068538  1
  B  B31  1  0.61175229  0.27967398  0.51878788  1
  B  B32  1  0.61337295  0.09578730  0.23955444  1
  B  B33  1  0.61718671  0.30903462  0.12265419  1
  B  B34  1  0.61655550  0.17006099  0.03783624  1
  B  B35  1  0.67715391  0.17128364  0.43085236  1
  B  B36  1  0.67926568  0.32228151  0.34829594  1
  B  B37  1  0.70656355  0.20224324  0.20019499  1
  B  B38  1  0.79343645  0.70224324  0.29980501  1
  B  B39  1  0.82073432  0.82228151  0.15170406  1
  B  B40  1  0.82284609  0.67128364  0.06914764  1
  B  B41  1  0.88344450  0.67006099  0.46216376  1
  B  B42  1  0.88824771  0.77967398  0.98121212  1
  B  B43  1  0.88281329  0.80903462  0.37734581  1
  B  B44  1  0.88662705  0.59578730  0.26044556  1
  B  B45  1  0.95160970  0.82278578  0.17931462  1
  B  B46  1  0.95338168  0.67237352  0.09539458  1
  B  B47  1  0.97676615  0.70402728  0.33852032  1
  H  H48  1  0.01076976  0.89922477  0.17628417  1
  H  H49  1  0.01122919  0.61875567  0.01655639  1
  H  H50  1  0.05632169  0.69526782  0.41379715  1
  H  H51  1  0.11194322  0.50896076  0.74068297  1
  H  H52  1  0.11305539  0.18744046  0.17478352  1
  H  H53  1  0.12107672  0.10858202  0.51887784  1
  H  H54  1  0.11714007  0.36229313  0.38184473  1
  H  H55  1  0.21342421  0.80744345  0.84243292  1
  H  H56  1  0.23697914  0.10061584  0.87139576  1
  H  H57  1  0.23407579  0.38143610  0.03358887  1
  H  H58  1  0.26302086  0.60061584  0.62860424  1
  H  H59  1  0.26592421  0.88143610  0.46641113  1
  H  H60  1  0.28657579  0.30744345  0.65756708  1
  H  H61  1  0.37892328  0.60858202  0.98112216  1
  H  H62  1  0.38805678  0.00896076  0.75931703  1
  H  H63  1  0.38285993  0.86229313  0.11815527  1
  H  H64  1  0.38694461  0.68744046  0.32521648  1
  H  H65  1  0.44367831  0.19526782  0.08620285  1
  H  H66  1  0.48877081  0.11875567  0.48344361  1
  H  H67  1  0.48923024  0.39922477  0.32371583  1
  H  H68  1  0.51076976  0.60077523  0.67628417  1
  H  H69  1  0.51122919  0.88124433  0.51655639  1
  H  H70  1  0.55632169  0.80473218  0.91379715  1
  H  H71  1  0.61305539  0.31255954  0.67478352  1
  H  H72  1  0.61714007  0.13770687  0.88184473  1
  H  H73  1  0.61194322  0.99103924  0.24068297  1
  H  H74  1  0.62107672  0.39141798  0.01887784  1
  H  H75  1  0.71342421  0.69255655  0.34243292  1
  H  H76  1  0.73407579  0.11856390  0.53358887  1
  H  H77  1  0.73697914  0.39938416  0.37139576  1
  H  H78  1  0.76592421  0.61856390  0.96641113  1
  H  H79  1  0.76302086  0.89938416  0.12860424  1
  H  H80  1  0.78657579  0.19255655  0.15756708  1
  H  H81  1  0.88285993  0.63770687  0.61815527  1
  H  H82  1  0.87892328  0.89141798  0.48112216  1
  H  H83  1  0.88694461  0.81255954  0.82521648  1
  H  H84  1  0.88805678  0.49103924  0.25931703  1
  H  H85  1  0.94367831  0.30473218  0.58620285  1
  H  H86  1  0.98877081  0.38124433  0.98344361  1
  H  H87  1  0.98923024  0.10077523  0.82371583  1
