# generated using pymatgen
data_Fe3(OF2)2
_symmetry_space_group_name_H-M   'P 1'
_cell_length_a   4.84016180
_cell_length_b   7.87639502
_cell_length_c   5.77259862
_cell_angle_alpha   94.92479851
_cell_angle_beta   90.00000000
_cell_angle_gamma   90.00000000
_symmetry_Int_Tables_number   1
_chemical_formula_structural   Fe3(OF2)2
_chemical_formula_sum   'Fe6 O4 F8'
_cell_volume   219.25648578
_cell_formula_units_Z   2
loop_
 _symmetry_equiv_pos_site_id
 _symmetry_equiv_pos_as_xyz
  1  'x, y, z'
loop_
 _atom_site_type_symbol
 _atom_site_label
 _atom_site_symmetry_multiplicity
 _atom_site_fract_x
 _atom_site_fract_y
 _atom_site_fract_z
 _atom_site_occupancy
  Fe  Fe0  1  0.50000000  0.66666700  0.16666700  1
  Fe  Fe1  1  0.45009054  0.98865655  0.50317450  1
  Fe  Fe2  1  0.54990946  0.34467645  0.83015850  1
  Fe  Fe3  1  0.00000000  0.66666700  0.66666700  1
  Fe  Fe4  1  0.95009054  0.34467645  0.33015850  1
  Fe  Fe5  1  0.04990946  0.98865655  0.00317450  1
  O  O6  1  0.80541013  0.42900223  0.62206618  1
  O  O7  1  0.69458987  0.42900223  0.12206618  1
  O  O8  1  0.30541013  0.90433177  0.21126782  1
  O  O9  1  0.19458987  0.90433177  0.71126782  1
  F  F10  1  0.80119438  0.78277141  0.97541336  1
  F  F11  1  0.81233657  0.10188890  0.29429907  1
  F  F12  1  0.68766343  0.10188890  0.79429907  1
  F  F13  1  0.69880562  0.78277141  0.47541336  1
  F  F14  1  0.30119438  0.55056159  0.85791964  1
  F  F15  1  0.31233657  0.23144410  0.53903393  1
  F  F16  1  0.18766343  0.23144410  0.03903393  1
  F  F17  1  0.19880562  0.55056159  0.35791964  1
