# generated using pymatgen
data_Tb5O9
_symmetry_space_group_name_H-M   'P 1'
_cell_length_a   6.63138671
_cell_length_b   5.65259974
_cell_length_c   6.63138671
_cell_angle_alpha   115.22667520
_cell_angle_beta   100.46570010
_cell_angle_gamma   64.77332480
_symmetry_Int_Tables_number   1
_chemical_formula_structural   Tb5O9
_chemical_formula_sum   'Tb5 O9'
_cell_volume   203.42189267
_cell_formula_units_Z   1
loop_
 _symmetry_equiv_pos_site_id
 _symmetry_equiv_pos_as_xyz
  1  'x, y, z'
loop_
 _atom_site_type_symbol
 _atom_site_label
 _atom_site_symmetry_multiplicity
 _atom_site_fract_x
 _atom_site_fract_y
 _atom_site_fract_z
 _atom_site_occupancy
  Tb  Tb0  1  0.99858970  0.99302108  0.03388886  1
  Tb  Tb1  1  0.20141030  0.55772192  0.36611114  1
  Tb  Tb2  1  0.43388886  0.20838922  0.80141030  1
  Tb  Tb3  1  0.76611114  0.44086778  0.59858970  1
  Tb  Tb4  1  0.60000000  0.80000000  0.20000000  1
  O  O5  1  0.10000000  0.55000000  0.70000000  1
  O  O6  1  0.31478917  0.64077297  0.09966168  1
  O  O7  1  0.70033832  0.85888971  0.91478917  1
  O  O8  1  0.49966168  0.24443785  0.48521083  1
  O  O9  1  0.74522039  0.31882004  0.88304758  1
  O  O10  1  0.45477961  0.78099285  0.51695242  1
  O  O11  1  0.28304758  0.13595957  0.05477961  1
  O  O12  1  0.88521083  0.45590047  0.30033832  1
  O  O13  1  0.91695242  0.96422754  0.34522039  1
