# generated using pymatgen
data_Mn3Cr3(CoO8)2
_symmetry_space_group_name_H-M   'P 1'
_cell_length_a   5.81586815
_cell_length_b   5.81567790
_cell_length_c   8.69840060
_cell_angle_alpha   90.00057033
_cell_angle_beta   90.57242440
_cell_angle_gamma   119.99775447
_symmetry_Int_Tables_number   1
_chemical_formula_structural   Mn3Cr3(CoO8)2
_chemical_formula_sum   'Mn3 Cr3 Co2 O16'
_cell_volume   254.78029302
_cell_formula_units_Z   1
loop_
 _symmetry_equiv_pos_site_id
 _symmetry_equiv_pos_as_xyz
  1  'x, y, z'
loop_
 _atom_site_type_symbol
 _atom_site_label
 _atom_site_symmetry_multiplicity
 _atom_site_fract_x
 _atom_site_fract_y
 _atom_site_fract_z
 _atom_site_occupancy
  Mn  Mn0  1  0.65879443  0.82940995  0.21133380  1
  Mn  Mn1  1  0.82807761  0.66189194  0.71255786  1
  Mn  Mn2  1  0.82807547  0.16623109  0.71254680  1
  Cr  Cr3  1  0.16256440  0.83287634  0.20047885  1
  Cr  Cr4  1  0.16261696  0.32968083  0.20047113  1
  Cr  Cr5  1  0.32425241  0.16214389  0.70111420  1
  Co  Co6  1  0.33810042  0.66905354  0.48310871  1
  Co  Co7  1  0.66759522  0.33380616  0.98246838  1
  O  O8  1  0.17301493  0.83226470  0.60615208  1
  O  O9  1  0.05962371  0.52980357  0.33979437  1
  O  O10  1  0.33989558  0.66993708  0.09289221  1
  O  O11  1  0.99476853  0.99738771  0.31406505  1
  O  O12  1  0.99210487  0.99608872  0.81870581  1
  O  O13  1  0.17301189  0.34076632  0.60614618  1
  O  O14  1  0.47626923  0.95253337  0.34230395  1
  O  O15  1  0.47629103  0.52375926  0.34230115  1
  O  O16  1  0.34842902  0.17419696  0.10651783  1
  O  O17  1  0.65956887  0.82980240  0.60217058  1
  O  O18  1  0.52316622  0.47383939  0.84408288  1
  O  O19  1  0.52316507  0.04937312  0.84407109  1
  O  O20  1  0.67178599  0.33592044  0.59972061  1
  O  O21  1  0.83203476  0.65673671  0.10346489  1
  O  O22  1  0.95474396  0.47738267  0.84578764  1
  O  O23  1  0.83204745  0.17531483  0.10346395  1
