# generated using pymatgen
data_MnCrO4
_symmetry_space_group_name_H-M   'P 1'
_cell_length_a   6.35603945
_cell_length_b   10.70406781
_cell_length_c   5.10768838
_cell_angle_alpha   90.00466696
_cell_angle_beta   89.99987988
_cell_angle_gamma   90.00013981
_symmetry_Int_Tables_number   1
_chemical_formula_structural   MnCrO4
_chemical_formula_sum   'Mn4 Cr4 O16'
_cell_volume   347.50401581
_cell_formula_units_Z   4
loop_
 _symmetry_equiv_pos_site_id
 _symmetry_equiv_pos_as_xyz
  1  'x, y, z'
loop_
 _atom_site_type_symbol
 _atom_site_label
 _atom_site_symmetry_multiplicity
 _atom_site_fract_x
 _atom_site_fract_y
 _atom_site_fract_z
 _atom_site_occupancy
  Mn  Mn0  1  0.25000075  0.27416884  0.96439354  1
  Mn  Mn1  1  0.25000521  0.77420304  0.53563205  1
  Mn  Mn2  1  0.75000453  0.22579091  0.46435549  1
  Mn  Mn3  1  0.74999582  0.72579699  0.03558578  1
  Cr  Cr4  1  0.25000282  0.09548782  0.41054485  1
  Cr  Cr5  1  0.24998744  0.59548523  0.08949405  1
  Cr  Cr6  1  0.75000357  0.40447569  0.91057641  1
  Cr  Cr7  1  0.75000414  0.90452618  0.58927415  1
  O  O8  1  0.04117450  0.17034122  0.27740149  1
  O  O9  1  0.04111215  0.67036283  0.22267158  1
  O  O10  1  0.24999257  0.44504695  0.16389465  1
  O  O11  1  0.25000458  0.11187750  0.73269000  1
  O  O12  1  0.24999910  0.61190028  0.76734024  1
  O  O13  1  0.25000362  0.94496767  0.33612972  1
  O  O14  1  0.45882886  0.17034784  0.27739996  1
  O  O15  1  0.45887564  0.67036105  0.22267588  1
  O  O16  1  0.54110436  0.82964874  0.72265277  1
  O  O17  1  0.54115227  0.32964828  0.77734938  1
  O  O18  1  0.74999978  0.55507052  0.83617522  1
  O  O19  1  0.75000240  0.05499502  0.66378840  1
  O  O20  1  0.75000482  0.38809643  0.23252087  1
  O  O21  1  0.74999954  0.88810702  0.26745959  1
  O  O22  1  0.95884106  0.32964725  0.77734258  1
  O  O23  1  0.95890047  0.82964672  0.72265136  1
