# generated using pymatgen
data_Fe4O3F5
_symmetry_space_group_name_H-M   'P 1'
_cell_length_a   4.88672198
_cell_length_b   10.10374169
_cell_length_c   6.19833244
_cell_angle_alpha   72.30936359
_cell_angle_beta   90.00000000
_cell_angle_gamma   90.00000000
_symmetry_Int_Tables_number   1
_chemical_formula_structural   Fe4O3F5
_chemical_formula_sum   'Fe8 O6 F10'
_cell_volume   291.56539768
_cell_formula_units_Z   2
loop_
 _symmetry_equiv_pos_site_id
 _symmetry_equiv_pos_as_xyz
  1  'x, y, z'
loop_
 _atom_site_type_symbol
 _atom_site_label
 _atom_site_symmetry_multiplicity
 _atom_site_fract_x
 _atom_site_fract_y
 _atom_site_fract_z
 _atom_site_occupancy
  Fe  Fe0  1  0.43575033  0.23636151  0.63400687  1
  Fe  Fe1  1  0.50837120  0.74485781  0.87642270  1
  Fe  Fe2  1  0.56239884  0.77710133  0.36486566  1
  Fe  Fe3  1  0.50321300  0.27144075  0.10940971  1
  Fe  Fe4  1  0.06239884  0.97289867  0.51013434  1
  Fe  Fe5  1  0.00321300  0.47855925  0.76559029  1
  Fe  Fe6  1  0.00837120  0.00514219  -0.00142270  1
  Fe  Fe7  1  0.93575033  0.51363849  0.24099313  1
  O  O8  1  0.79967410  0.40443334  0.04810543  1
  O  O9  1  0.81989834  0.92216869  0.30448252  1
  O  O10  1  0.68710547  0.65722638  0.18774850  1
  O  O11  1  0.31989834  0.82783131  0.57051748  1
  O  O12  1  0.29967410  0.34556666  0.82689457  1
  O  O13  1  0.18710547  0.09277362  0.68725150  1
  F  F14  1  0.79542820  0.39224467  0.55327429  1
  F  F15  1  0.81488613  0.89672789  0.78674802  1
  F  F16  1  0.66838544  0.17292735  0.41667221  1
  F  F17  1  0.68138377  0.15953817  0.91817511  1
  F  F18  1  0.72350518  0.63734218  0.66381207  1
  F  F19  1  0.31488613  0.85327211  0.08825198  1
  F  F20  1  0.29542820  0.35775533  0.32172571  1
  F  F21  1  0.18138377  0.59046183  0.95682489  1
  F  F22  1  0.22350518  0.11265782  0.21118793  1
  F  F23  1  0.16838544  0.57707265  0.45832779  1
