# generated using pymatgen
data_Li3Cr2(NiO4)2
_symmetry_space_group_name_H-M   'P 1'
_cell_length_a   5.82299214
_cell_length_b   5.88978326
_cell_length_c   5.90733687
_cell_angle_alpha   59.88756937
_cell_angle_beta   59.52903737
_cell_angle_gamma   89.65921439
_symmetry_Int_Tables_number   1
_chemical_formula_structural   Li3Cr2(NiO4)2
_chemical_formula_sum   'Li3 Cr2 Ni2 O8'
_cell_volume   142.41679932
_cell_formula_units_Z   1
loop_
 _symmetry_equiv_pos_site_id
 _symmetry_equiv_pos_as_xyz
  1  'x, y, z'
loop_
 _atom_site_type_symbol
 _atom_site_label
 _atom_site_symmetry_multiplicity
 _atom_site_fract_x
 _atom_site_fract_y
 _atom_site_fract_z
 _atom_site_occupancy
  Li  Li0  1  0.50000000  0.50000000  0.50000000  1
  Li  Li1  1  0.50000000  0.00000000  0.50000000  1
  Li  Li2  1  0.50000000  0.50000000  0.00000000  1
  Cr  Cr3  1  0.00000000  0.00000000  0.50000000  1
  Cr  Cr4  1  0.00000000  0.00000000  0.00000000  1
  Ni  Ni5  1  0.00000000  0.50000000  0.50000000  1
  Ni  Ni6  1  0.50000000  0.00000000  0.00000000  1
  O  O7  1  0.25532370  0.77342368  0.45679884  1
  O  O8  1  0.74375232  0.78329790  0.98641823  1
  O  O9  1  0.25528798  0.77217160  0.01583166  1
  O  O10  1  0.23238316  0.22963756  0.51854955  1
  O  O11  1  0.76761684  0.77036244  0.48145045  1
  O  O12  1  0.74471202  0.22782840  0.98416834  1
  O  O13  1  0.25624768  0.21670210  0.01358177  1
  O  O14  1  0.74467630  0.22657632  0.54320116  1
