# generated using pymatgen
data_CaCoMo2O7
_symmetry_space_group_name_H-M   'P 1'
_cell_length_a   7.17946395
_cell_length_b   11.61757163
_cell_length_c   15.29645390
_cell_angle_alpha   90.00000000
_cell_angle_beta   90.00000000
_cell_angle_gamma   100.22960208
_symmetry_Int_Tables_number   1
_chemical_formula_structural   CaCoMo2O7
_chemical_formula_sum   'Ca8 Co8 Mo16 O56'
_cell_volume   1255.56479706
_cell_formula_units_Z   8
loop_
 _symmetry_equiv_pos_site_id
 _symmetry_equiv_pos_as_xyz
  1  'x, y, z'
loop_
 _atom_site_type_symbol
 _atom_site_label
 _atom_site_symmetry_multiplicity
 _atom_site_fract_x
 _atom_site_fract_y
 _atom_site_fract_z
 _atom_site_occupancy
  Ca  Ca0  1  0.09599500  0.71768227  0.51760211  1
  Ca  Ca1  1  0.30507453  0.97316781  0.86902089  1
  Ca  Ca2  1  0.69492547  0.52683219  0.36902089  1
  Ca  Ca3  1  0.69492547  0.02683219  0.13097911  1
  Ca  Ca4  1  0.30507453  0.47316781  0.63097911  1
  Ca  Ca5  1  0.09599500  0.21768227  0.98239789  1
  Ca  Ca6  1  0.90400500  0.28231773  0.48239789  1
  Ca  Ca7  1  0.90400500  0.78231773  0.01760211  1
  Co  Co8  1  0.65476822  0.08676089  0.65523608  1
  Co  Co9  1  0.34523178  0.41323911  0.15523608  1
  Co  Co10  1  0.34523178  0.91323911  0.34476392  1
  Co  Co11  1  0.65476822  0.58676089  0.84476392  1
  Co  Co12  1  0.99181256  0.24851950  0.74700538  1
  Co  Co13  1  0.00818744  0.25148050  0.24700538  1
  Co  Co14  1  0.00818744  0.75148050  0.25299462  1
  Co  Co15  1  0.99181256  0.74851950  0.75299462  1
  Mo  Mo16  1  0.83032023  0.98538045  0.87559532  1
  Mo  Mo17  1  0.42106725  0.69715261  0.02734024  1
  Mo  Mo18  1  0.42106725  0.19715261  0.47265976  1
  Mo  Mo19  1  0.57893275  0.30284739  0.97265976  1
  Mo  Mo20  1  0.50453855  0.80163605  0.72444347  1
  Mo  Mo21  1  0.49546145  0.69836395  0.22444347  1
  Mo  Mo22  1  0.49546145  0.19836395  0.27555653  1
  Mo  Mo23  1  0.50453855  0.30163605  0.77555653  1
  Mo  Mo24  1  0.57893275  0.80284739  0.52734024  1
  Mo  Mo25  1  0.86739036  0.48439576  0.13673614  1
  Mo  Mo26  1  0.13260964  0.01560424  0.63673614  1
  Mo  Mo27  1  0.13260964  0.51560424  0.86326386  1
  Mo  Mo28  1  0.16967977  0.51461955  0.37559532  1
  Mo  Mo29  1  0.83032023  0.48538045  0.62440468  1
  Mo  Mo30  1  0.16967977  0.01461955  0.12440468  1
  Mo  Mo31  1  0.86739036  0.98439576  0.36326386  1
  O  O32  1  0.77715046  0.95615740  0.99272848  1
  O  O33  1  0.22284954  0.54384260  0.49272848  1
  O  O34  1  0.22284954  0.04384260  0.00727152  1
  O  O35  1  0.77715046  0.45615740  0.50727152  1
  O  O36  1  0.98640533  0.87289616  0.85817802  1
  O  O37  1  0.01359467  0.62710384  0.35817802  1
  O  O38  1  0.01359467  0.12710384  0.14182198  1
  O  O39  1  0.98640533  0.37289616  0.64182198  1
  O  O40  1  0.99481583  0.12289442  0.84927682  1
  O  O41  1  0.00518417  0.37710558  0.34927682  1
  O  O42  1  0.00518417  0.87710558  0.15072318  1
  O  O43  1  0.99481583  0.62289442  0.65072318  1
  O  O44  1  0.68770555  0.95588484  0.28209519  1
  O  O45  1  0.31229445  0.54411516  0.78209519  1
  O  O46  1  0.31229445  0.04411516  0.71790481  1
  O  O47  1  0.68770555  0.45588484  0.21790481  1
  O  O48  1  0.96651146  0.13812976  0.36475141  1
  O  O49  1  0.03348854  0.36187024  0.86475141  1
  O  O50  1  0.03348854  0.86187024  0.63524859  1
  O  O51  1  0.96651146  0.63812976  0.13524859  1
  O  O52  1  0.05172000  0.89809636  0.34398388  1
  O  O53  1  0.37580346  0.82189960  0.45316919  1
  O  O54  1  0.94828000  0.60190364  0.84398388  1
  O  O55  1  0.05172000  0.39809636  0.15601612  1
  O  O56  1  0.74205601  0.70917909  0.49696554  1
  O  O57  1  0.25794399  0.79082091  0.99696554  1
  O  O58  1  0.25794399  0.29082091  0.50303446  1
  O  O59  1  0.74205601  0.20917909  0.00303446  1
  O  O60  1  0.76066356  0.94904435  0.46869817  1
  O  O61  1  0.23933644  0.55095565  0.96869817  1
  O  O62  1  0.23933644  0.05095565  0.53130183  1
  O  O63  1  0.76066356  0.44904435  0.03130183  1
  O  O64  1  0.41484339  0.20209138  0.88973747  1
  O  O65  1  0.58515661  0.29790862  0.38973747  1
  O  O66  1  0.58515661  0.79790862  0.11026253  1
  O  O67  1  0.41484339  0.70209138  0.61026253  1
  O  O68  1  0.69822726  0.21064736  0.74096542  1
  O  O69  1  0.30177274  0.28935264  0.24096542  1
  O  O70  1  0.30177274  0.78935264  0.25903458  1
  O  O71  1  0.69822726  0.71064736  0.75903458  1
  O  O72  1  0.60077565  0.44591926  0.68556790  1
  O  O73  1  0.39922435  0.05408074  0.18556790  1
  O  O74  1  0.39922435  0.55408074  0.31443210  1
  O  O75  1  0.60077565  0.94591926  0.81443210  1
  O  O76  1  0.26843701  0.29555410  0.71891350  1
  O  O77  1  0.73156299  0.20444590  0.21891350  1
  O  O78  1  0.73156299  0.70444590  0.28108650  1
  O  O79  1  0.26843701  0.79555410  0.78108650  1
  O  O80  1  0.59319234  0.41607856  0.87181951  1
  O  O81  1  0.40680766  0.08392144  0.37181951  1
  O  O82  1  0.40680766  0.58392144  0.12818049  1
  O  O83  1  0.59319234  0.91607856  0.62818049  1
  O  O84  1  0.37580346  0.32189960  0.04683081  1
  O  O85  1  0.62419654  0.17810040  0.54683081  1
  O  O86  1  0.62419654  0.67810040  0.95316919  1
  O  O87  1  0.94828000  0.10190364  0.65601612  1
