# generated using pymatgen
data_Li4Mn3Cr3O12
_symmetry_space_group_name_H-M   'P 1'
_cell_length_a   5.28588054
_cell_length_b   5.28569157
_cell_length_c   8.95565701
_cell_angle_alpha   99.77656907
_cell_angle_beta   80.22241337
_cell_angle_gamma   64.88591105
_symmetry_Int_Tables_number   1
_chemical_formula_structural   Li4Mn3Cr3O12
_chemical_formula_sum   'Li4 Mn3 Cr3 O12'
_cell_volume   214.91185567
_cell_formula_units_Z   1
loop_
 _symmetry_equiv_pos_site_id
 _symmetry_equiv_pos_as_xyz
  1  'x, y, z'
loop_
 _atom_site_type_symbol
 _atom_site_label
 _atom_site_symmetry_multiplicity
 _atom_site_fract_x
 _atom_site_fract_y
 _atom_site_fract_z
 _atom_site_occupancy
  Li  Li0  1  0.17073698  0.82923415  0.65855722  1
  Li  Li1  1  0.82921343  0.17076382  0.34148220  1
  Li  Li2  1  0.57963550  0.92032923  0.84073449  1
  Li  Li3  1  0.92034869  0.57961759  0.15923083  1
  Mn  Mn4  1  0.00001337  0.99999265  0.99998925  1
  Mn  Mn5  1  0.33555463  0.66443297  0.32884973  1
  Mn  Mn6  1  0.66443394  0.33555679  0.67115558  1
  Cr  Cr7  1  0.08568573  0.41432795  0.82865948  1
  Cr  Cr8  1  0.41433167  0.08570180  0.17135674  1
  Cr  Cr9  1  0.74999924  0.75000043  0.49999049  1
  O  O10  1  0.21672106  0.21669334  0.99999158  1
  O  O11  1  0.10765754  0.45613411  0.32589971  1
  O  O12  1  0.17779839  0.87306213  0.17476783  1
  O  O13  1  0.45615538  0.10764933  0.67408772  1
  O  O14  1  0.30177019  0.64746157  0.82535408  1
  O  O15  1  0.64735935  0.30183905  0.17471108  1
  O  O16  1  0.52692339  0.52704911  0.49994853  1
  O  O17  1  0.56648480  0.86972067  0.32588165  1
  O  O18  1  0.78330256  0.78330671  0.99999168  1
  O  O19  1  0.87306712  0.17774829  0.82530221  1
  O  O20  1  0.86970763  0.56648223  0.67410996  1
  O  O21  1  0.97310141  0.97289509  0.49994796  1
