# generated using pymatgen
data_Fe2O3F
_symmetry_space_group_name_H-M   'P 1'
_cell_length_a   4.69800841
_cell_length_b   4.69800841
_cell_length_c   15.03249091
_cell_angle_alpha   90.00000000
_cell_angle_beta   90.00000000
_cell_angle_gamma   94.27848581
_symmetry_Int_Tables_number   1
_chemical_formula_structural   Fe2O3F
_chemical_formula_sum   'Fe10 O15 F5'
_cell_volume   330.86174531
_cell_formula_units_Z   5
loop_
 _symmetry_equiv_pos_site_id
 _symmetry_equiv_pos_as_xyz
  1  'x, y, z'
loop_
 _atom_site_type_symbol
 _atom_site_label
 _atom_site_symmetry_multiplicity
 _atom_site_fract_x
 _atom_site_fract_y
 _atom_site_fract_z
 _atom_site_occupancy
  Fe  Fe0  1  0.00271073  0.99728927  0.99940494  1
  Fe  Fe1  1  0.00271073  0.99728927  0.20059506  1
  Fe  Fe2  1  0.01497035  0.98502965  0.40077904  1
  Fe  Fe3  1  0.01668017  0.98331983  0.60000000  1
  Fe  Fe4  1  0.01497035  0.98502965  0.79922096  1
  Fe  Fe5  1  0.53668949  0.46331051  0.10000000  1
  Fe  Fe6  1  0.47963382  0.52036618  0.50031147  1
  Fe  Fe7  1  0.47401102  0.52598898  0.30013813  1
  Fe  Fe8  1  0.47963382  0.52036618  0.69968853  1
  Fe  Fe9  1  0.47401102  0.52598898  0.89986187  1
  O  O10  1  0.18449544  0.81550456  0.29797367  1
  O  O11  1  0.19021003  0.80978997  0.50002633  1
  O  O12  1  0.19021003  0.80978997  0.69997367  1
  O  O13  1  0.18449544  0.81550456  0.90202633  1
  O  O14  1  0.31175967  0.30166390  0.99908264  1
  O  O15  1  0.31175967  0.30166390  0.20091736  1
  O  O16  1  0.30203928  0.31250517  0.40076342  1
  O  O17  1  0.30704500  0.30822730  0.60000000  1
  O  O18  1  0.30203928  0.31250517  0.79923658  1
  O  O19  1  0.69833610  0.68824033  0.99908264  1
  O  O20  1  0.69833610  0.68824033  0.20091736  1
  O  O21  1  0.68749483  0.69796072  0.40076342  1
  O  O22  1  0.69177270  0.69295500  0.60000000  1
  O  O23  1  0.68749483  0.69796072  0.79923658  1
  O  O24  1  0.82675250  0.17324750  0.10000000  1
  F  F25  1  0.20451507  0.79548493  0.10000000  1
  F  F26  1  0.80825649  0.19174351  0.50110911  1
  F  F27  1  0.80435430  0.19564570  0.30312368  1
  F  F28  1  0.80435430  0.19564570  0.89687632  1
  F  F29  1  0.80825649  0.19174351  0.69889089  1
