# generated using pymatgen
data_Co3(OF2)2
_symmetry_space_group_name_H-M   'P 1'
_cell_length_a   4.69998372
_cell_length_b   7.80701988
_cell_length_c   5.65732134
_cell_angle_alpha   92.82080338
_cell_angle_beta   90.00000000
_cell_angle_gamma   90.00000000
_symmetry_Int_Tables_number   1
_chemical_formula_structural   Co3(OF2)2
_chemical_formula_sum   'Co6 O4 F8'
_cell_volume   207.33181430
_cell_formula_units_Z   2
loop_
 _symmetry_equiv_pos_site_id
 _symmetry_equiv_pos_as_xyz
  1  'x, y, z'
loop_
 _atom_site_type_symbol
 _atom_site_label
 _atom_site_symmetry_multiplicity
 _atom_site_fract_x
 _atom_site_fract_y
 _atom_site_fract_z
 _atom_site_occupancy
  Co  Co0  1  0.45750795  0.99078878  0.51332599  1
  Co  Co1  1  0.54249205  0.34254422  0.82000801  1
  Co  Co2  1  0.50000000  0.66666700  0.16666700  1
  Co  Co3  1  0.00000000  0.66666700  0.66666700  1
  Co  Co4  1  0.95750795  0.34254422  0.32000801  1
  Co  Co5  1  0.04249205  0.99078878  0.01332599  1
  O  O6  1  0.79860092  0.43392441  0.63049925  1
  O  O7  1  0.70139908  0.43392441  0.13049925  1
  O  O8  1  0.29860092  0.89940859  0.20283475  1
  O  O9  1  0.20139908  0.89940859  0.70283475  1
  F  F10  1  0.80445199  0.77396713  0.96715608  1
  F  F11  1  0.79672533  0.09835396  0.30306510  1
  F  F12  1  0.69554801  0.77396713  0.46715608  1
  F  F13  1  0.70327467  0.09835396  0.80306510  1
  F  F14  1  0.30445199  0.55936587  0.86617692  1
  F  F15  1  0.29672533  0.23498004  0.53026790  1
  F  F16  1  0.20327467  0.23498004  0.03026790  1
  F  F17  1  0.19554801  0.55936587  0.36617692  1
