# generated using pymatgen
data_YNb2NO5
_symmetry_space_group_name_H-M   'P 1'
_cell_length_a   15.02774411
_cell_length_b   5.96342553
_cell_length_c   5.28401122
_cell_angle_alpha   90.00000000
_cell_angle_beta   90.00000000
_cell_angle_gamma   90.30546101
_symmetry_Int_Tables_number   1
_chemical_formula_structural   YNb2NO5
_chemical_formula_sum   'Y4 Nb8 N4 O20'
_cell_volume   473.52962053
_cell_formula_units_Z   4
loop_
 _symmetry_equiv_pos_site_id
 _symmetry_equiv_pos_as_xyz
  1  'x, y, z'
loop_
 _atom_site_type_symbol
 _atom_site_label
 _atom_site_symmetry_multiplicity
 _atom_site_fract_x
 _atom_site_fract_y
 _atom_site_fract_z
 _atom_site_occupancy
  Y  Y0  1  0.00294092  0.29883462  0.25621358  1
  Y  Y1  1  0.99872620  0.69775414  0.75595463  1
  Y  Y2  1  0.49705908  0.20116538  0.75621358  1
  Y  Y3  1  0.50127380  0.80224586  0.25595463  1
  Nb  Nb4  1  0.16477687  0.16765830  0.72150784  1
  Nb  Nb5  1  0.16594485  0.82118370  0.25119160  1
  Nb  Nb6  1  0.33522313  0.33234170  0.22150784  1
  Nb  Nb7  1  0.33405515  0.67881630  0.75119160  1
  Nb  Nb8  1  0.66800464  0.32371738  0.26069198  1
  Nb  Nb9  1  0.66425818  0.69206790  0.77491234  1
  Nb  Nb10  1  0.83199536  0.17628262  0.76069198  1
  Nb  Nb11  1  0.83574182  0.80793210  0.27491234  1
  N  N12  1  0.09938510  0.91464867  0.54321920  1
  N  N13  1  0.40061490  0.58535133  0.04321920  1
  N  N14  1  0.58249053  0.89004146  0.89192518  1
  N  N15  1  0.91750947  0.60995854  0.39192518  1
  O  O16  1  0.08434224  0.61417548  0.10404783  1
  O  O17  1  0.08320206  0.38634330  0.61011291  1
  O  O18  1  0.10217770  0.08923368  0.04189919  1
  O  O19  1  0.24428980  0.13300682  0.40773747  1
  O  O20  1  0.24622661  0.87467132  0.90756397  1
  O  O21  1  0.25377339  0.62532868  0.40756397  1
  O  O22  1  0.25571020  0.36699318  0.90773747  1
  O  O23  1  0.39782230  0.41076632  0.54189919  1
  O  O24  1  0.41679794  0.11365670  0.11011291  1
  O  O25  1  0.41565776  0.88582452  0.60404783  1
  O  O26  1  0.58243605  0.12563874  0.39325970  1
  O  O27  1  0.60093488  0.41008332  0.95404324  1
  O  O28  1  0.60293680  0.58812501  0.45304611  1
  O  O29  1  0.74646645  0.35870776  0.57833861  1
  O  O30  1  0.74285435  0.62445482  0.09433462  1
  O  O31  1  0.75353355  0.14129224  0.07833861  1
  O  O32  1  0.75714565  0.87554518  0.59433462  1
  O  O33  1  0.89906512  0.08991668  0.45404324  1
  O  O34  1  0.89706320  0.91187499  0.95304611  1
  O  O35  1  0.91756395  0.37436126  0.89325970  1
