# generated using pymatgen
data_Li3V5Cr2O12
_symmetry_space_group_name_H-M   'P 1'
_cell_length_a   5.12154728
_cell_length_b   5.23131340
_cell_length_c   9.95373381
_cell_angle_alpha   84.19339124
_cell_angle_beta   101.92778926
_cell_angle_gamma   119.30829240
_symmetry_Int_Tables_number   1
_chemical_formula_structural   Li3V5Cr2O12
_chemical_formula_sum   'Li3 V5 Cr2 O12'
_cell_volume   227.52757026
_cell_formula_units_Z   1
loop_
 _symmetry_equiv_pos_site_id
 _symmetry_equiv_pos_as_xyz
  1  'x, y, z'
loop_
 _atom_site_type_symbol
 _atom_site_label
 _atom_site_symmetry_multiplicity
 _atom_site_fract_x
 _atom_site_fract_y
 _atom_site_fract_z
 _atom_site_occupancy
  Li  Li0  1  0.31857570  0.16019691  0.98721764  1
  Li  Li1  1  0.84162122  0.16019691  0.51278236  1
  Li  Li2  1  0.92214291  0.84428482  0.75000000  1
  V  V3  1  0.99952241  0.51541037  0.98614198  1
  V  V4  1  0.08244887  0.16489673  0.25000000  1
  V  V5  1  0.56823025  0.13646150  0.75000000  1
  V  V6  1  0.51588796  0.51541037  0.51385802  1
  V  V7  1  0.42406347  0.84812694  0.25000000  1
  Cr  Cr8  1  0.24816324  0.49632748  0.75000000  1
  Cr  Cr9  1  0.75719514  0.51439129  0.25000000  1
  O  O10  1  0.22456588  0.20383791  0.63023051  1
  O  O11  1  0.14349270  0.50254490  0.36292850  1
  O  O12  1  0.47791387  0.20338099  0.36276542  1
  O  O13  1  0.61246010  0.45004124  0.86719928  1
  O  O14  1  0.26828309  0.80815981  0.86706278  1
  O  O15  1  0.04791608  0.83001100  0.13685040  1
  O  O16  1  0.97927203  0.20383791  0.86976949  1
  O  O17  1  0.35905319  0.50254490  0.13707150  1
  O  O18  1  0.72546712  0.20338099  0.13723458  1
  O  O19  1  0.83758114  0.45004124  0.63280072  1
  O  O20  1  0.53987772  0.80815981  0.63293722  1
  O  O21  1  0.78209493  0.83001100  0.36314960  1
