# generated using pymatgen
data_Fe4O5F3
_symmetry_space_group_name_H-M   'P 1'
_cell_length_a   7.04818832
_cell_length_b   6.39429018
_cell_length_c   7.68891400
_cell_angle_alpha   65.42951807
_cell_angle_beta   62.98798044
_cell_angle_gamma   90.00000000
_symmetry_Int_Tables_number   1
_chemical_formula_structural   Fe4O5F3
_chemical_formula_sum   'Fe8 O10 F6'
_cell_volume   273.03526611
_cell_formula_units_Z   2
loop_
 _symmetry_equiv_pos_site_id
 _symmetry_equiv_pos_as_xyz
  1  'x, y, z'
loop_
 _atom_site_type_symbol
 _atom_site_label
 _atom_site_symmetry_multiplicity
 _atom_site_fract_x
 _atom_site_fract_y
 _atom_site_fract_z
 _atom_site_occupancy
  Fe  Fe0  1  0.01901258  0.00832680  0.98334541  1
  Fe  Fe1  1  0.48098742  0.49167320  0.01665459  1
  Fe  Fe2  1  0.25000000  0.25000000  0.50000000  1
  Fe  Fe3  1  0.90772340  0.37327517  0.25345067  1
  Fe  Fe4  1  0.37896017  0.87639323  0.24721453  1
  Fe  Fe5  1  0.59227660  0.12672483  0.74654933  1
  Fe  Fe6  1  0.12103983  0.62360677  0.75278547  1
  Fe  Fe7  1  0.75000000  0.75000000  0.50000000  1
  O  O8  1  0.00726515  0.30622289  0.99798077  1
  O  O9  1  0.49273485  0.19377711  0.00201923  1
  O  O10  1  0.00726515  0.69579634  0.99798077  1
  O  O11  1  0.18644316  0.36979189  0.26041521  1
  O  O12  1  0.31355684  0.13020811  0.73958479  1
  O  O13  1  0.75000000  0.05058546  0.50000000  1
  O  O14  1  0.25000000  0.55958512  0.50000000  1
  O  O15  1  0.49273485  0.80420366  0.00201923  1
  O  O16  1  0.75000000  0.44941454  0.50000000  1
  O  O17  1  0.25000000  0.94041488  0.50000000  1
  F  F18  1  0.57245283  0.37647306  0.24705388  1
  F  F19  1  0.06573356  0.87418828  0.25162343  1
  F  F20  1  0.92754717  0.12352694  0.75294612  1
  F  F21  1  0.69009952  0.87830785  0.24338429  1
  F  F22  1  0.43426644  0.62581172  0.74837657  1
  F  F23  1  0.80990048  0.62169215  0.75661571  1
