# generated using pymatgen
data_Mn3VTe2(PO4)6
_symmetry_space_group_name_H-M   'P 1'
_cell_length_a   8.87232558
_cell_length_b   8.87232534
_cell_length_c   8.87232570
_cell_angle_alpha   59.88841397
_cell_angle_beta   59.88840944
_cell_angle_gamma   59.88841380
_symmetry_Int_Tables_number   1
_chemical_formula_structural   Mn3VTe2(PO4)6
_chemical_formula_sum   'Mn3 V1 Te2 P6 O24'
_cell_volume   492.60236481
_cell_formula_units_Z   1
loop_
 _symmetry_equiv_pos_site_id
 _symmetry_equiv_pos_as_xyz
  1  'x, y, z'
loop_
 _atom_site_type_symbol
 _atom_site_label
 _atom_site_symmetry_multiplicity
 _atom_site_fract_x
 _atom_site_fract_y
 _atom_site_fract_z
 _atom_site_occupancy
  Mn  Mn0  1  0.16052220  0.16052220  0.16052220  1
  Mn  Mn1  1  0.34890059  0.34890059  0.34890059  1
  Mn  Mn2  1  0.65453929  0.65453929  0.65453929  1
  V  V3  1  0.85413298  0.85413298  0.85413298  1
  Te  Te4  1  0.01754114  0.01754114  0.01754114  1
  Te  Te5  1  0.50991248  0.50991248  0.50991248  1
  P  P6  1  0.04356721  0.74845575  0.45866932  1
  P  P7  1  0.45866932  0.04356721  0.74845575  1
  P  P8  1  0.74845575  0.45866932  0.04356721  1
  P  P9  1  0.24298783  0.55354568  0.94302189  1
  P  P10  1  0.55354568  0.94302189  0.24298783  1
  P  P11  1  0.94302189  0.24298783  0.55354568  1
  O  O12  1  0.09041770  0.30027941  0.52893004  1
  O  O13  1  0.30027941  0.52893004  0.09041770  1
  O  O14  1  0.06281168  0.91680134  0.25546446  1
  O  O15  1  0.52893004  0.09041770  0.30027941  1
  O  O16  1  0.24056992  0.60441862  0.44016856  1
  O  O17  1  0.98651028  0.82681009  0.60793074  1
  O  O18  1  0.25546446  0.06281168  0.91680134  1
  O  O19  1  0.44016856  0.24056992  0.60441862  1
  O  O20  1  0.60441862  0.44016856  0.24056992  1
  O  O21  1  0.19464315  0.39990669  0.96884494  1
  O  O22  1  0.08203984  0.74572622  0.91458856  1
  O  O23  1  0.39990669  0.96884494  0.19464315  1
  O  O24  1  0.60793074  0.98651028  0.82681009  1
  O  O25  1  0.91680134  0.25546446  0.06281168  1
  O  O26  1  0.82681009  0.60793074  0.98651028  1
  O  O27  1  0.40526769  0.57981628  0.74312184  1
  O  O28  1  0.57981628  0.74312184  0.40526769  1
  O  O29  1  0.74572622  0.91458856  0.08203984  1
  O  O30  1  0.96884494  0.19464315  0.39990669  1
  O  O31  1  0.74312184  0.40526769  0.57981628  1
  O  O32  1  0.47915605  0.90538973  0.68458781  1
  O  O33  1  0.91458856  0.08203984  0.74572622  1
  O  O34  1  0.68458781  0.47915605  0.90538973  1
  O  O35  1  0.90538973  0.68458781  0.47915605  1
