# generated using pymatgen
data_FeO
_symmetry_space_group_name_H-M   'P 1'
_cell_length_a   3.39604862
_cell_length_b   3.41059188
_cell_length_c   10.71766797
_cell_angle_alpha   91.45136143
_cell_angle_beta   89.27127081
_cell_angle_gamma   120.14175588
_symmetry_Int_Tables_number   1
_chemical_formula_structural   FeO
_chemical_formula_sum   'Fe4 O4'
_cell_volume   107.31813124
_cell_formula_units_Z   4
loop_
 _symmetry_equiv_pos_site_id
 _symmetry_equiv_pos_as_xyz
  1  'x, y, z'
loop_
 _atom_site_type_symbol
 _atom_site_label
 _atom_site_symmetry_multiplicity
 _atom_site_fract_x
 _atom_site_fract_y
 _atom_site_fract_z
 _atom_site_occupancy
  Fe  Fe0  1  0.33497754  0.66579918  0.97174225  1
  Fe  Fe1  1  0.99661905  0.00734083  0.22366433  1
  Fe  Fe2  1  0.00338095  0.01072178  0.72366433  1
  Fe  Fe3  1  0.66502246  0.33082164  0.47174225  1
  O  O4  1  0.33062914  0.66733572  0.77744897  1
  O  O5  1  0.00312189  0.99229908  0.52714445  1
  O  O6  1  0.99687811  0.98917618  0.02714445  1
  O  O7  1  0.66937086  0.33670658  0.27744897  1
