# generated using pymatgen
data_Fe2O3F
_symmetry_space_group_name_H-M   'P 1'
_cell_length_a   4.70036455
_cell_length_b   4.70036455
_cell_length_c   15.04797160
_cell_angle_alpha   90.00000000
_cell_angle_beta   90.00000000
_cell_angle_gamma   94.33750003
_symmetry_Int_Tables_number   1
_chemical_formula_structural   Fe2O3F
_chemical_formula_sum   'Fe10 O15 F5'
_cell_volume   331.50904010
_cell_formula_units_Z   5
loop_
 _symmetry_equiv_pos_site_id
 _symmetry_equiv_pos_as_xyz
  1  'x, y, z'
loop_
 _atom_site_type_symbol
 _atom_site_label
 _atom_site_symmetry_multiplicity
 _atom_site_fract_x
 _atom_site_fract_y
 _atom_site_fract_z
 _atom_site_occupancy
  Fe  Fe0  1  0.00052603  0.99947397  0.00008270  1
  Fe  Fe1  1  0.98777495  0.01222505  0.20000000  1
  Fe  Fe2  1  0.00052603  0.99947397  0.39991730  1
  Fe  Fe3  1  0.01465405  0.98534595  0.59983643  1
  Fe  Fe4  1  0.01465405  0.98534595  0.80016357  1
  Fe  Fe5  1  0.52923819  0.47076181  0.09986446  1
  Fe  Fe6  1  0.47354750  0.52645250  0.49914707  1
  Fe  Fe7  1  0.52923819  0.47076181  0.30013554  1
  Fe  Fe8  1  0.47705274  0.52294726  0.70000000  1
  Fe  Fe9  1  0.47354750  0.52645250  0.90085293  1
  O  O10  1  0.18013062  0.81986938  0.49683575  1
  O  O11  1  0.18723580  0.81276420  0.70000000  1
  O  O12  1  0.18013062  0.81986938  0.90316425  1
  O  O13  1  0.30803674  0.30625439  0.00003553  1
  O  O14  1  0.31577456  0.29534425  0.20000000  1
  O  O15  1  0.30803674  0.30625439  0.39996447  1
  O  O16  1  0.30246557  0.31387577  0.60008659  1
  O  O17  1  0.30246557  0.31387577  0.79991341  1
  O  O18  1  0.69374561  0.69196326  0.00003553  1
  O  O19  1  0.70465575  0.68422544  0.20000000  1
  O  O20  1  0.69374561  0.69196326  0.39996447  1
  O  O21  1  0.68612423  0.69753443  0.60008659  1
  O  O22  1  0.68612423  0.69753443  0.79991341  1
  O  O23  1  0.81987576  0.18012424  0.09695197  1
  O  O24  1  0.81987576  0.18012424  0.30304803  1
  F  F25  1  0.19949340  0.80050660  0.10212363  1
  F  F26  1  0.19949340  0.80050660  0.29787637  1
  F  F27  1  0.80369640  0.19630360  0.50158156  1
  F  F28  1  0.80369640  0.19630360  0.89841844  1
  F  F29  1  0.80443303  0.19556697  0.70000000  1
