# generated using pymatgen
data_Li2Cu(PO3)3
_symmetry_space_group_name_H-M   'P 1'
_cell_length_a   8.52369217
_cell_length_b   8.96752771
_cell_length_c   8.96627354
_cell_angle_alpha   89.99999981
_cell_angle_beta   90.00001224
_cell_angle_gamma   89.99991077
_symmetry_Int_Tables_number   1
_chemical_formula_structural   Li2Cu(PO3)3
_chemical_formula_sum   'Li8 Cu4 P12 O36'
_cell_volume   685.35008080
_cell_formula_units_Z   4
loop_
 _symmetry_equiv_pos_site_id
 _symmetry_equiv_pos_as_xyz
  1  'x, y, z'
loop_
 _atom_site_type_symbol
 _atom_site_label
 _atom_site_symmetry_multiplicity
 _atom_site_fract_x
 _atom_site_fract_y
 _atom_site_fract_z
 _atom_site_occupancy
  Li  Li0  1  0.11081487  0.42502629  0.91178876  1
  Li  Li1  1  0.74225761  0.77990489  0.79806602  1
  Li  Li2  1  0.25774987  0.27990576  0.70193690  1
  Li  Li3  1  0.88918426  0.92502733  0.58820943  1
  Li  Li4  1  0.38918540  0.57497357  0.41178862  1
  Li  Li5  1  0.75774439  0.22009505  0.29806521  1
  Li  Li6  1  0.24225568  0.72009435  0.20193687  1
  Li  Li7  1  0.61081607  0.07497266  0.08820964  1
  Cu  Cu8  1  0.90182176  0.14568412  0.88060780  1
  Cu  Cu9  1  0.09817680  0.64568434  0.61939129  1
  Cu  Cu10  1  0.59817325  0.85431427  0.38060491  1
  Cu  Cu11  1  0.40182218  0.35431870  0.11939397  1
  P  P12  1  0.04470716  0.81456573  0.94863634  1
  P  P13  1  0.28142539  0.06870024  0.93341389  1
  P  P14  1  0.43533147  0.55772955  0.76070279  1
  P  P15  1  0.56466902  0.05772984  0.73929775  1
  P  P16  1  0.71857747  0.56869847  0.56658816  1
  P  P17  1  0.95529395  0.31456211  0.55136220  1
  P  P18  1  0.45529301  0.18543434  0.44863631  1
  P  P19  1  0.21857543  0.93129942  0.43341346  1
  P  P20  1  0.06466933  0.44227070  0.26070222  1
  P  P21  1  0.93533105  0.94227012  0.23929721  1
  P  P22  1  0.78142348  0.43130141  0.06658820  1
  P  P23  1  0.54470661  0.68543809  0.05136240  1
  O  O24  1  0.20274557  0.91126918  0.97770673  1
  O  O25  1  0.88125324  0.38183458  0.93853322  1
  O  O26  1  0.09431619  0.65931613  0.91344063  1
  O  O27  1  0.47829815  0.68924134  0.87996038  1
  O  O28  1  0.15839596  0.17207934  0.86920719  1
  O  O29  1  0.65456310  0.12428445  0.86663901  1
  O  O30  1  0.36686115  0.42382134  0.83846163  1
  O  O31  1  0.92869964  0.89584178  0.85048034  1
  O  O32  1  0.38869056  0.01530954  0.79343294  1
  O  O33  1  0.61130933  0.51530633  0.70656710  1
  O  O34  1  0.07129717  0.39583239  0.64952038  1
  O  O35  1  0.63313842  0.92382036  0.66153912  1
  O  O36  1  0.34543733  0.62428348  0.63336061  1
  O  O37  1  0.84160360  0.67207722  0.63079574  1
  O  O38  1  0.52170080  0.18924091  0.62003838  1
  O  O39  1  0.90567955  0.15931089  0.58655565  1
  O  O40  1  0.11874474  0.88183233  0.56146690  1
  O  O41  1  0.79725545  0.41126808  0.52229259  1
  O  O42  1  0.29725400  0.08873079  0.47770684  1
  O  O43  1  0.61874683  0.61816471  0.43853346  1
  O  O44  1  0.40568406  0.34068325  0.41344086  1
  O  O45  1  0.02170188  0.31075905  0.37996047  1
  O  O46  1  0.34160464  0.82792050  0.36920758  1
  O  O47  1  0.84543791  0.87571491  0.36663952  1
  O  O48  1  0.13313938  0.57617954  0.33846221  1
  O  O49  1  0.57130107  0.10415890  0.35048014  1
  O  O50  1  0.11131037  0.98469042  0.29343236  1
  O  O51  1  0.88869035  0.48469353  0.20656715  1
  O  O52  1  0.42870367  0.60416689  0.14952078  1
  O  O53  1  0.86686185  0.07617951  0.16153938  1
  O  O54  1  0.15456277  0.37571618  0.13336189  1
  O  O55  1  0.65839594  0.32792287  0.13079592  1
  O  O56  1  0.97829970  0.81075961  0.12003828  1
  O  O57  1  0.59432124  0.84068924  0.08655560  1
  O  O58  1  0.38125464  0.11816765  0.06146712  1
  O  O59  1  0.70274420  0.58873143  0.02229251  1
