# generated using pymatgen
data_Fe10O9F11
_symmetry_space_group_name_H-M   'P 1'
_cell_length_a   4.78838947
_cell_length_b   4.79200973
_cell_length_c   15.38027615
_cell_angle_alpha   90.00000000
_cell_angle_beta   90.00000000
_cell_angle_gamma   93.42833702
_symmetry_Int_Tables_number   1
_chemical_formula_structural   Fe10O9F11
_chemical_formula_sum   'Fe10 O9 F11'
_cell_volume   352.28436655
_cell_formula_units_Z   1
loop_
 _symmetry_equiv_pos_site_id
 _symmetry_equiv_pos_as_xyz
  1  'x, y, z'
loop_
 _atom_site_type_symbol
 _atom_site_label
 _atom_site_symmetry_multiplicity
 _atom_site_fract_x
 _atom_site_fract_y
 _atom_site_fract_z
 _atom_site_occupancy
  Fe  Fe0  1  0.99310447  0.99290824  0.00290182  1
  Fe  Fe1  1  0.99310447  0.99290824  0.19709818  1
  Fe  Fe2  1  0.04166462  0.02283088  0.40489772  1
  Fe  Fe3  1  0.98963270  0.94368482  0.60000000  1
  Fe  Fe4  1  0.04166462  0.02283088  0.79510228  1
  Fe  Fe5  1  0.49815457  0.49813533  0.10000000  1
  Fe  Fe6  1  0.47245008  0.53204392  0.49772173  1
  Fe  Fe7  1  0.49260553  0.48354551  0.28960153  1
  Fe  Fe8  1  0.47245008  0.53204392  0.70227827  1
  Fe  Fe9  1  0.49260553  0.48354551  0.91039847  1
  O  O10  1  0.18958387  0.80797354  0.49964136  1
  O  O11  1  0.18958387  0.80797354  0.70035864  1
  O  O12  1  0.29599977  0.29350676  0.00138194  1
  O  O13  1  0.29599977  0.29350676  0.19861806  1
  O  O14  1  0.32138333  0.31921040  0.39941050  1
  O  O15  1  0.32138333  0.31921040  0.80058950  1
  O  O16  1  0.69489479  0.69174261  0.99880227  1
  O  O17  1  0.69489479  0.69174261  0.20119873  1
  O  O18  1  0.67658640  0.67681382  0.60000000  1
  F  F19  1  0.19898723  0.79030134  0.10000000  1
  F  F20  1  0.19959251  0.80745872  0.30511639  1
  F  F21  1  0.19959251  0.80745872  0.89488361  1
  F  F22  1  0.28574935  0.29689764  0.60000000  1
  F  F23  1  0.70779899  0.71335368  0.39918371  1
  F  F24  1  0.70779899  0.71335368  0.80081629  1
  F  F25  1  0.79065642  0.19798521  0.10000000  1
  F  F26  1  0.80890992  0.18935952  0.50124409  1
  F  F27  1  0.81213028  0.19415764  0.30702139  1
  F  F28  1  0.81213028  0.19415764  0.89297861  1
  F  F29  1  0.80890992  0.18935952  0.69875591  1
