# generated using pymatgen
data_Li3Fe4F19
_symmetry_space_group_name_H-M   'P 1'
_cell_length_a   5.26190248
_cell_length_b   10.55447025
_cell_length_c   12.48214075
_cell_angle_alpha   104.19743732
_cell_angle_beta   95.32519202
_cell_angle_gamma   100.99142237
_symmetry_Int_Tables_number   1
_chemical_formula_structural   Li3Fe4F19
_chemical_formula_sum   'Li6 Fe8 F38'
_cell_volume   652.58072446
_cell_formula_units_Z   2
loop_
 _symmetry_equiv_pos_site_id
 _symmetry_equiv_pos_as_xyz
  1  'x, y, z'
loop_
 _atom_site_type_symbol
 _atom_site_label
 _atom_site_symmetry_multiplicity
 _atom_site_fract_x
 _atom_site_fract_y
 _atom_site_fract_z
 _atom_site_occupancy
  Li  Li0  1  0.54579498  0.83927674  0.93063566  1
  Li  Li1  1  0.26040444  0.25121272  0.51363086  1
  Li  Li2  1  0.39718029  0.52106947  0.20847125  1
  Li  Li3  1  0.60281971  0.47893053  0.79152875  1
  Li  Li4  1  0.73959556  0.74878728  0.48636914  1
  Li  Li5  1  0.45420502  0.16072326  0.06936434  1
  Fe  Fe6  1  0.11294184  0.93578287  0.77962198  1
  Fe  Fe7  1  0.12182486  0.61705394  0.62737285  1
  Fe  Fe8  1  0.06202700  0.34611053  0.94982947  1
  Fe  Fe9  1  0.35571294  0.89222698  0.37071969  1
  Fe  Fe10  1  0.64428706  0.10777302  0.62928031  1
  Fe  Fe11  1  0.93797300  0.65388947  0.05017053  1
  Fe  Fe12  1  0.87817514  0.38294606  0.37262715  1
  Fe  Fe13  1  0.88705816  0.06421713  0.22037802  1
  F  F14  1  0.08720078  0.81486894  0.42948983  1
  F  F15  1  0.12178590  0.99032224  0.31324660  1
  F  F16  1  0.35363487  0.01939247  0.92077808  1
  F  F17  1  0.14706477  0.75770386  0.20147897  1
  F  F18  1  0.20550677  0.72441393  0.98857844  1
  F  F19  1  0.28613793  0.78961027  0.78958306  1
  F  F20  1  0.13275476  0.52873539  0.08863645  1
  F  F21  1  0.12663091  0.42102486  0.51108691  1
  F  F22  1  0.03019183  0.21749698  0.36151291  1
  F  F23  1  0.13622480  0.45371461  0.30778258  1
  F  F24  1  0.11824844  0.15346685  0.87343151  1
  F  F25  1  0.38216579  0.69154041  0.56445039  1
  F  F26  1  0.35016150  0.55054230  0.70655967  1
  F  F27  1  0.32055650  0.41446119  0.88389281  1
  F  F28  1  0.48606602  0.72985701  0.33487756  1
  F  F29  1  0.61242702  0.98077470  0.29794639  1
  F  F30  1  0.16274292  0.11435223  0.14975558  1
  F  F31  1  0.30225104  0.32453176  0.06009459  1
  F  F32  1  0.61985398  0.91830129  0.50231489  1
  F  F33  1  0.38014602  0.08169871  0.49768511  1
  F  F34  1  0.69774896  0.67546824  0.93990541  1
  F  F35  1  0.83725708  0.88564777  0.85024442  1
  F  F36  1  0.38757298  0.01922530  0.70205361  1
  F  F37  1  0.51393398  0.27014299  0.66512244  1
  F  F38  1  0.67944350  0.58553881  0.11610719  1
  F  F39  1  0.64983850  0.44945770  0.29344033  1
  F  F40  1  0.61783421  0.30845959  0.43554961  1
  F  F41  1  0.88175156  0.84653315  0.12656849  1
  F  F42  1  0.86377520  0.54628539  0.69221742  1
  F  F43  1  0.96980817  0.78250302  0.63848709  1
  F  F44  1  0.87336909  0.57897514  0.48891309  1
  F  F45  1  0.86724524  0.47126461  0.91136355  1
  F  F46  1  0.71386207  0.21038973  0.21041694  1
  F  F47  1  0.79449323  0.27558607  0.01142156  1
  F  F48  1  0.85293523  0.24229614  0.79852103  1
  F  F49  1  0.64636513  0.98060753  0.07922192  1
  F  F50  1  0.87821410  0.00967776  0.68675340  1
  F  F51  1  0.91279922  0.18513106  0.57051017  1
