# generated using pymatgen
data_Fe10O9F11
_symmetry_space_group_name_H-M   'P 1'
_cell_length_a   4.76085470
_cell_length_b   4.77491657
_cell_length_c   15.42073141
_cell_angle_alpha   90.00000000
_cell_angle_beta   90.00000000
_cell_angle_gamma   92.99103246
_symmetry_Int_Tables_number   1
_chemical_formula_structural   Fe10O9F11
_chemical_formula_sum   'Fe10 O9 F11'
_cell_volume   350.07705839
_cell_formula_units_Z   1
loop_
 _symmetry_equiv_pos_site_id
 _symmetry_equiv_pos_as_xyz
  1  'x, y, z'
loop_
 _atom_site_type_symbol
 _atom_site_label
 _atom_site_symmetry_multiplicity
 _atom_site_fract_x
 _atom_site_fract_y
 _atom_site_fract_z
 _atom_site_occupancy
  Fe  Fe0  1  0.99397572  0.99408054  0.00336034  1
  Fe  Fe1  1  0.99397572  0.99408054  0.19663966  1
  Fe  Fe2  1  0.03229364  0.01176397  0.40290958  1
  Fe  Fe3  1  0.04175756  0.98979079  0.60000000  1
  Fe  Fe4  1  0.03229364  0.01176397  0.79709042  1
  Fe  Fe5  1  0.49786188  0.49817539  0.10000000  1
  Fe  Fe6  1  0.45132520  0.50640253  0.49668998  1
  Fe  Fe7  1  0.49212683  0.48433249  0.28854142  1
  Fe  Fe8  1  0.45132520  0.50640253  0.70331002  1
  Fe  Fe9  1  0.49212683  0.48433249  0.91145858  1
  O  O10  1  0.19342428  0.81083391  0.49855433  1
  O  O11  1  0.19342428  0.81083391  0.70144567  1
  O  O12  1  0.29531397  0.29318229  0.00250517  1
  O  O13  1  0.29531397  0.29318229  0.19749483  1
  O  O14  1  0.31104183  0.31280639  0.39655513  1
  O  O15  1  0.30737239  0.31366719  0.60000000  1
  O  O16  1  0.31104183  0.31280639  0.80344487  1
  O  O17  1  0.69625696  0.69351680  -0.00004064  1
  O  O18  1  0.69625696  0.69351680  0.20004064  1
  F  F19  1  0.19780703  0.79341614  0.10000000  1
  F  F20  1  0.19631183  0.80416317  0.30342218  1
  F  F21  1  0.19631183  0.80416317  0.89657782  1
  F  F22  1  0.70478539  0.70649570  0.39844232  1
  F  F23  1  0.69629273  0.70253766  0.60000000  1
  F  F24  1  0.70478539  0.70649570  0.80155768  1
  F  F25  1  0.79347842  0.19688069  0.10000000  1
  F  F26  1  0.80841367  0.19421826  0.50005280  1
  F  F27  1  0.80744419  0.19097103  0.30490393  1
  F  F28  1  0.80744419  0.19097103  0.89509607  1
  F  F29  1  0.80841367  0.19421826  0.69994720  1
