# generated using pymatgen
data_CrBiO5
_symmetry_space_group_name_H-M   'P 1'
_cell_length_a   6.20755664
_cell_length_b   11.70522106
_cell_length_c   15.89966444
_cell_angle_alpha   90.00000000
_cell_angle_beta   90.00000000
_cell_angle_gamma   90.00000000
_symmetry_Int_Tables_number   1
_chemical_formula_structural   CrBiO5
_chemical_formula_sum   'Cr8 Bi8 O40'
_cell_volume   1155.28269908
_cell_formula_units_Z   8
loop_
 _symmetry_equiv_pos_site_id
 _symmetry_equiv_pos_as_xyz
  1  'x, y, z'
loop_
 _atom_site_type_symbol
 _atom_site_label
 _atom_site_symmetry_multiplicity
 _atom_site_fract_x
 _atom_site_fract_y
 _atom_site_fract_z
 _atom_site_occupancy
  Cr  Cr0  1  0.97884981  0.40046089  0.61742650  1
  Cr  Cr1  1  0.52115019  0.90046089  0.38257350  1
  Cr  Cr2  1  0.02115019  0.59953911  0.38257350  1
  Cr  Cr3  1  0.47884981  0.09953911  0.61742650  1
  Cr  Cr4  1  0.02115019  0.09953911  0.11742650  1
  Cr  Cr5  1  0.97884981  0.90046089  0.88257350  1
  Cr  Cr6  1  0.52115019  0.40046089  0.11742650  1
  Cr  Cr7  1  0.47884981  0.59953911  0.88257350  1
  Bi  Bi8  1  0.92778038  0.82197694  0.21439038  1
  Bi  Bi9  1  0.07221962  0.17802306  0.78560962  1
  Bi  Bi10  1  0.57221962  0.32197694  0.78560962  1
  Bi  Bi11  1  0.07221962  0.67802306  0.71439038  1
  Bi  Bi12  1  0.42778038  0.17802306  0.28560962  1
  Bi  Bi13  1  0.42778038  0.67802306  0.21439038  1
  Bi  Bi14  1  0.57221962  0.82197694  0.71439038  1
  Bi  Bi15  1  0.92778038  0.32197694  0.28560962  1
  O  O16  1  0.89012138  0.30406225  0.69898536  1
  O  O17  1  0.23624854  0.04584730  0.07881352  1
  O  O18  1  0.26375146  0.54584730  0.92118648  1
  O  O19  1  0.22668462  0.79323950  0.15252995  1
  O  O20  1  0.27331538  0.29323950  0.84747005  1
  O  O21  1  0.89012138  0.80406225  0.80101464  1
  O  O22  1  0.27331538  0.79323950  0.65252995  1
  O  O23  1  0.60987862  0.80406225  0.30101464  1
  O  O24  1  0.23624854  0.54584730  0.42118648  1
  O  O25  1  0.10987862  0.69593775  0.30101464  1
  O  O26  1  0.60987862  0.30406225  0.19898536  1
  O  O27  1  0.61045126  0.16829524  0.54741610  1
  O  O28  1  0.73624854  0.95415270  0.42118648  1
  O  O29  1  0.77331538  0.70676050  0.65252995  1
  O  O30  1  0.14280140  0.00384360  0.83843111  1
  O  O31  1  0.73624854  0.45415270  0.07881352  1
  O  O32  1  0.10987862  0.19593775  0.19898536  1
  O  O33  1  0.72668462  0.20676050  0.34747005  1
  O  O34  1  0.11045126  0.83170476  0.95258390  1
  O  O35  1  0.26375146  0.04584730  0.57881352  1
  O  O36  1  0.38954874  0.83170476  0.45258390  1
  O  O37  1  0.85719860  0.99615640  0.16156889  1
  O  O38  1  0.77331538  0.20676050  0.84747005  1
  O  O39  1  0.64280140  0.99615640  0.66156889  1
  O  O40  1  0.38954874  0.33170476  0.04741610  1
  O  O41  1  0.11045126  0.33170476  0.54741610  1
  O  O42  1  0.76375146  0.45415270  0.57881352  1
  O  O43  1  0.76375146  0.95415270  0.92118648  1
  O  O44  1  0.64280140  0.49615640  0.83843111  1
  O  O45  1  0.88954874  0.66829524  0.45258390  1
  O  O46  1  0.88954874  0.16829524  0.04741610  1
  O  O47  1  0.61045126  0.66829524  0.95258390  1
  O  O48  1  0.85719860  0.49615640  0.33843111  1
  O  O49  1  0.72668462  0.70676050  0.15252995  1
  O  O50  1  0.22668462  0.29323950  0.34747005  1
  O  O51  1  0.14280140  0.50384360  0.66156889  1
  O  O52  1  0.35719860  0.50384360  0.16156889  1
  O  O53  1  0.39012138  0.19593775  0.69898536  1
  O  O54  1  0.35719860  0.00384360  0.33843111  1
  O  O55  1  0.39012138  0.69593775  0.80101464  1
