# generated using pymatgen
data_FeO
_symmetry_space_group_name_H-M   'P 1'
_cell_length_a   5.30780222
_cell_length_b   5.30792306
_cell_length_c   10.60446960
_cell_angle_alpha   90.00256202
_cell_angle_beta   90.00461575
_cell_angle_gamma   119.99970588
_symmetry_Int_Tables_number   1
_chemical_formula_structural   FeO
_chemical_formula_sum   'Fe12 O12'
_cell_volume   258.73800071
_cell_formula_units_Z   12
loop_
 _symmetry_equiv_pos_site_id
 _symmetry_equiv_pos_as_xyz
  1  'x, y, z'
loop_
 _atom_site_type_symbol
 _atom_site_label
 _atom_site_symmetry_multiplicity
 _atom_site_fract_x
 _atom_site_fract_y
 _atom_site_fract_z
 _atom_site_occupancy
  Fe  Fe0  1  0.32726224  0.99317992  0.62481102  1
  Fe  Fe1  1  0.32721201  0.99309517  0.87519408  1
  Fe  Fe2  1  0.00689350  0.33412690  0.62479172  1
  Fe  Fe3  1  0.00685924  0.33409104  0.87518832  1
  Fe  Fe4  1  0.66591228  0.67280286  0.62479991  1
  Fe  Fe5  1  0.66591468  0.67277567  0.87518825  1
  Fe  Fe6  1  0.33411511  0.00690039  0.12478042  1
  Fe  Fe7  1  0.33408217  0.00684585  0.37519192  1
  Fe  Fe8  1  0.67279211  0.66592002  0.12481045  1
  Fe  Fe9  1  0.67277771  0.66591102  0.37521628  1
  Fe  Fe10  1  0.99307635  0.32718710  0.37520061  1
  Fe  Fe11  1  0.99314680  0.32724770  0.12480556  1
  O  O12  1  0.98878970  0.66501027  0.24999411  1
  O  O13  1  0.33333025  0.66665212  0.01447020  1
  O  O14  1  0.99998227  0.00001208  -0.00000935  1
  O  O15  1  0.00002445  -0.00000208  0.50002031  1
  O  O16  1  0.33331688  0.66665173  0.48554356  1
  O  O17  1  0.33496856  0.32375677  0.25002782  1
  O  O18  1  0.67620079  0.01119626  0.24999230  1
  O  O19  1  0.32384721  0.33505534  0.75000791  1
  O  O20  1  0.66667613  0.33333202  0.51447310  1
  O  O21  1  0.66667004  0.33333748  0.98552985  1
  O  O22  1  0.01119720  0.67623966  0.74998233  1
  O  O23  1  0.66505332  0.98887270  0.74998933  1
