# generated using pymatgen
data_LiVP3HO10
_symmetry_space_group_name_H-M   'P 1'
_cell_length_a   6.51199309
_cell_length_b   8.55310111
_cell_length_c   8.30144059
_cell_angle_alpha   101.67729375
_cell_angle_beta   116.81720819
_cell_angle_gamma   82.68509571
_symmetry_Int_Tables_number   1
_chemical_formula_structural   LiVP3HO10
_chemical_formula_sum   'Li2 V2 P6 H2 O20'
_cell_volume   403.75994024
_cell_formula_units_Z   2
loop_
 _symmetry_equiv_pos_site_id
 _symmetry_equiv_pos_as_xyz
  1  'x, y, z'
loop_
 _atom_site_type_symbol
 _atom_site_label
 _atom_site_symmetry_multiplicity
 _atom_site_fract_x
 _atom_site_fract_y
 _atom_site_fract_z
 _atom_site_occupancy
  Li  Li0  1  0.26193655  0.69969471  0.96863517  1
  Li  Li1  1  0.73806345  0.30030529  0.03136483  1
  V  V2  1  0.20804658  0.66428514  0.33755751  1
  V  V3  1  0.79195342  0.33571486  0.66244249  1
  P  P4  1  0.16866937  0.07847101  0.90267090  1
  P  P5  1  0.29827284  0.22856425  0.66983637  1
  P  P6  1  0.40563473  0.32965875  0.21406124  1
  P  P7  1  0.59436527  0.67034125  0.78593876  1
  P  P8  1  0.70172716  0.77143575  0.33016363  1
  P  P9  1  0.83133063  0.92152899  0.09732910  1
  H  H10  1  0.27995287  0.12892022  0.39913870  1
  H  H11  1  0.72004713  0.87107978  0.60086130  1
  O  O12  1  0.15435110  0.90419257  0.88450086  1
  O  O13  1  0.09337315  0.34423630  0.64544613  1
  O  O14  1  0.32834110  0.11310679  0.81200346  1
  O  O15  1  0.24797414  0.09748319  0.49241558  1
  O  O16  1  0.05716824  0.82272247  0.17625772  1
  O  O17  1  0.19834655  0.43954049  0.22527203  1
  O  O18  1  0.29659693  0.15343478  0.11571920  1
  O  O19  1  0.49502592  0.61986622  0.89590765  1
  O  O20  1  0.52791981  0.30149982  0.73670193  1
  O  O21  1  0.56950813  0.29648874  0.40795811  1
  O  O22  1  0.43049187  0.70351126  0.59204189  1
  O  O23  1  0.47208019  0.69850018  0.26329807  1
  O  O24  1  0.50497408  0.38013378  0.10409235  1
  O  O25  1  0.70340307  0.84656522  0.88428080  1
  O  O26  1  0.80165345  0.56045951  0.77472797  1
  O  O27  1  0.94283176  0.17727753  0.82374228  1
  O  O28  1  0.75202586  0.90251681  0.50758442  1
  O  O29  1  0.67165890  0.88689321  0.18799654  1
  O  O30  1  0.90662685  0.65576370  0.35455387  1
  O  O31  1  0.84564890  0.09580743  0.11549914  1
