# generated using pymatgen
data_Ta2CrNO5
_symmetry_space_group_name_H-M   'P 1'
_cell_length_a   4.77434494
_cell_length_b   4.77434494
_cell_length_c   9.21771878
_cell_angle_alpha   90.00000000
_cell_angle_beta   90.00000000
_cell_angle_gamma   90.28493728
_symmetry_Int_Tables_number   1
_chemical_formula_structural   Ta2CrNO5
_chemical_formula_sum   'Ta4 Cr2 N2 O10'
_cell_volume   210.10949056
_cell_formula_units_Z   2
loop_
 _symmetry_equiv_pos_site_id
 _symmetry_equiv_pos_as_xyz
  1  'x, y, z'
loop_
 _atom_site_type_symbol
 _atom_site_label
 _atom_site_symmetry_multiplicity
 _atom_site_fract_x
 _atom_site_fract_y
 _atom_site_fract_z
 _atom_site_occupancy
  Ta  Ta0  1  0.99736940  0.00263060  0.32645559  1
  Ta  Ta1  1  0.99736940  0.00263060  0.67354441  1
  Ta  Ta2  1  0.51591097  0.48408903  0.16878129  1
  Ta  Ta3  1  0.51591097  0.48408903  0.83121871  1
  Cr  Cr4  1  0.00033697  0.99966303  0.00000000  1
  Cr  Cr5  1  0.49678103  0.50321897  0.50000000  1
  N  N6  1  0.80168919  0.19831081  0.16861813  1
  N  N7  1  0.80168919  0.19831081  0.83138187  1
  O  O8  1  0.19539424  0.80460576  0.50000000  1
  O  O9  1  0.19651491  0.80348509  0.82801396  1
  O  O10  1  0.19651491  0.80348509  0.17198604  1
  O  O11  1  0.30089125  0.30685375  0.33272358  1
  O  O12  1  0.30089125  0.30685375  0.66727642  1
  O  O13  1  0.30268994  0.31286163  0.00000000  1
  O  O14  1  0.68713837  0.69731006  0.00000000  1
  O  O15  1  0.69314625  0.69910875  0.33272358  1
  O  O16  1  0.69314625  0.69910875  0.66727642  1
  O  O17  1  0.80661749  0.19338251  0.50000000  1
