# generated using pymatgen
data_Li2Ti2NiO6
_symmetry_space_group_name_H-M   'P 1'
_cell_length_a   5.16749732
_cell_length_b   5.16749645
_cell_length_c   10.37625175
_cell_angle_alpha   90.00000000
_cell_angle_beta   90.00000000
_cell_angle_gamma   120.78737569
_symmetry_Int_Tables_number   1
_chemical_formula_structural   Li2Ti2NiO6
_chemical_formula_sum   'Li4 Ti4 Ni2 O12'
_cell_volume   238.02954375
_cell_formula_units_Z   2
loop_
 _symmetry_equiv_pos_site_id
 _symmetry_equiv_pos_as_xyz
  1  'x, y, z'
loop_
 _atom_site_type_symbol
 _atom_site_label
 _atom_site_symmetry_multiplicity
 _atom_site_fract_x
 _atom_site_fract_y
 _atom_site_fract_z
 _atom_site_occupancy
  Li  Li0  1  0.16466912  0.66466912  0.75000000  1
  Li  Li1  1  0.33533088  0.83533088  0.25000000  1
  Li  Li2  1  0.66466912  0.16466912  0.75000000  1
  Li  Li3  1  0.83533088  0.33533088  0.25000000  1
  Ti  Ti4  1  0.16049014  0.83950986  0.50000000  1
  Ti  Ti5  1  0.33950986  0.66049014  0.00000000  1
  Ti  Ti6  1  0.66049014  0.33950986  0.00000000  1
  Ti  Ti7  1  0.83950986  0.16049014  0.50000000  1
  Ni  Ni8  1  0.00000000  0.00000000  0.00000000  1
  Ni  Ni9  1  0.50000000  0.50000000  0.50000000  1
  O  O10  1  0.00431181  0.64066877  0.10700774  1
  O  O11  1  0.99568819  0.35933123  0.89299226  1
  O  O12  1  0.14066877  0.50431181  0.39299226  1
  O  O13  1  0.49568819  0.85933123  0.60700774  1
  O  O14  1  0.15347364  0.15347364  0.59878613  1
  O  O15  1  0.34652636  0.34652636  0.09878613  1
  O  O16  1  0.65347364  0.65347364  0.90121387  1
  O  O17  1  0.35933123  0.99568819  0.89299226  1
  O  O18  1  0.84652636  0.84652636  0.40121387  1
  O  O19  1  0.50431181  0.14066877  0.39299226  1
  O  O20  1  0.85933123  0.49568819  0.60700774  1
  O  O21  1  0.64066877  0.00431181  0.10700774  1
