# generated using pymatgen
data_Li4Cu3Sn(PO4)4
_symmetry_space_group_name_H-M   'P 1'
_cell_length_a   4.82272142
_cell_length_b   10.66230512
_cell_length_c   6.00254318
_cell_angle_alpha   90.00000000
_cell_angle_beta   90.00000000
_cell_angle_gamma   91.92664879
_symmetry_Int_Tables_number   1
_chemical_formula_structural   Li4Cu3Sn(PO4)4
_chemical_formula_sum   'Li4 Cu3 Sn1 P4 O16'
_cell_volume   308.48424848
_cell_formula_units_Z   1
loop_
 _symmetry_equiv_pos_site_id
 _symmetry_equiv_pos_as_xyz
  1  'x, y, z'
loop_
 _atom_site_type_symbol
 _atom_site_label
 _atom_site_symmetry_multiplicity
 _atom_site_fract_x
 _atom_site_fract_y
 _atom_site_fract_z
 _atom_site_occupancy
  Li  Li0  1  0.02326539  0.97704066  0.98312055  1
  Li  Li1  1  0.02326539  0.97704066  0.51687945  1
  Li  Li2  1  0.49830572  0.51866580  0.51334435  1
  Li  Li3  1  0.49830572  0.51866580  0.98665565  1
  Cu  Cu4  1  0.99725594  0.72025710  0.75000000  1
  Cu  Cu5  1  0.47650081  0.19631369  0.75000000  1
  Cu  Cu6  1  0.51723179  0.77547097  0.25000000  1
  Sn  Sn7  1  0.98602703  0.28624507  0.25000000  1
  P  P8  1  0.08327352  0.59234263  0.25000000  1
  P  P9  1  0.40194391  0.10413326  0.25000000  1
  P  P10  1  0.59185002  0.90404094  0.75000000  1
  P  P11  1  0.91846476  0.40893167  0.75000000  1
  O  O12  1  0.21742935  0.45371520  0.25000000  1
  O  O13  1  0.21599152  0.65839976  0.04241503  1
  O  O14  1  0.21599152  0.65839976  0.45758497  1
  O  O15  1  0.23374491  0.41236838  0.75000000  1
  O  O16  1  0.27370113  0.90889552  0.75000000  1
  O  O17  1  0.26347549  0.17678502  0.04888791  1
  O  O18  1  0.26347549  0.17678502  0.45111209  1
  O  O19  1  0.29418320  0.96815019  0.25000000  1
  O  O20  1  0.73102567  0.03895094  0.75000000  1
  O  O21  1  0.71588950  0.83458445  0.54200346  1
  O  O22  1  0.71588950  0.83458445  0.95799654  1
  O  O23  1  0.72137227  0.12019970  0.25000000  1
  O  O24  1  0.76786033  0.57670706  0.25000000  1
  O  O25  1  0.78783211  0.33315064  0.54236378  1
  O  O26  1  0.78783211  0.33315064  0.95763622  1
  O  O27  1  0.77861489  0.53602504  0.75000000  1
