# generated using pymatgen
data_Fe10O9F11
_symmetry_space_group_name_H-M   'P 1'
_cell_length_a   4.74708724
_cell_length_b   4.76514156
_cell_length_c   15.56703365
_cell_angle_alpha   90.00000000
_cell_angle_beta   90.00000000
_cell_angle_gamma   91.93367945
_symmetry_Int_Tables_number   1
_chemical_formula_structural   Fe10O9F11
_chemical_formula_sum   'Fe10 O9 F11'
_cell_volume   351.93422729
_cell_formula_units_Z   1
loop_
 _symmetry_equiv_pos_site_id
 _symmetry_equiv_pos_as_xyz
  1  'x, y, z'
loop_
 _atom_site_type_symbol
 _atom_site_label
 _atom_site_symmetry_multiplicity
 _atom_site_fract_x
 _atom_site_fract_y
 _atom_site_fract_z
 _atom_site_occupancy
  Fe  Fe0  1  0.99016629  0.99053505  0.00000000  1
  Fe  Fe1  1  0.02697375  0.01301301  0.20636645  1
  Fe  Fe2  1  0.04238811  0.98882605  0.40031979  1
  Fe  Fe3  1  0.04238811  0.98882605  0.59968021  1
  Fe  Fe4  1  0.02697375  0.01301301  0.79363355  1
  Fe  Fe5  1  0.49002722  0.48589876  0.09430907  1
  Fe  Fe6  1  0.45912859  0.49337569  0.50000000  1
  Fe  Fe7  1  0.45506774  0.50114544  0.29798075  1
  Fe  Fe8  1  0.45506774  0.50114544  0.70201925  1
  Fe  Fe9  1  0.49002722  0.48589876  0.90569093  1
  O  O10  1  0.19534360  0.80532827  0.30055780  1
  O  O11  1  0.19809938  0.80342497  0.50000000  1
  O  O12  1  0.19534360  0.80532827  0.69944220  1
  O  O13  1  0.29259710  0.28994614  0.00000000  1
  O  O14  1  0.31380726  0.31541463  0.19482929  1
  O  O15  1  0.30662198  0.30800632  0.39904455  1
  O  O16  1  0.30662198  0.30800632  0.60095545  1
  O  O17  1  0.31380726  0.31541463  0.80517071  1
  O  O18  1  0.69693593  0.69321869  0.00000000  1
  F  F19  1  0.19498292  0.80201647  0.09809743  1
  F  F20  1  0.19498292  0.80201647  0.90190257  1
  F  F21  1  0.70217359  0.70505310  0.19614684  1
  F  F22  1  0.69692699  0.69997037  0.39905109  1
  F  F23  1  0.69692699  0.69997037  0.60094891  1
  F  F24  1  0.70217359  0.70505310  0.80385316  1
  F  F25  1  0.80484229  0.19036658  0.09967670  1
  F  F26  1  0.80712660  0.19209159  0.50000000  1
  F  F27  1  0.79881761  0.20366544  0.30134866  1
  F  F28  1  0.80484229  0.19036658  0.90032330  1
  F  F29  1  0.79881761  0.20366544  0.69865134  1
