# generated using pymatgen
data_FeOF
_symmetry_space_group_name_H-M   'P 1'
_cell_length_a   4.77175497
_cell_length_b   7.80676949
_cell_length_c   5.68002364
_cell_angle_alpha   94.95050930
_cell_angle_beta   94.00275690
_cell_angle_gamma   87.18793045
_symmetry_Int_Tables_number   1
_chemical_formula_structural   FeOF
_chemical_formula_sum   'Fe6 O6 F6'
_cell_volume   210.09140041
_cell_formula_units_Z   6
loop_
 _symmetry_equiv_pos_site_id
 _symmetry_equiv_pos_as_xyz
  1  'x, y, z'
loop_
 _atom_site_type_symbol
 _atom_site_label
 _atom_site_symmetry_multiplicity
 _atom_site_fract_x
 _atom_site_fract_y
 _atom_site_fract_z
 _atom_site_occupancy
  Fe  Fe0  1  0.52100626  0.67444857  0.13109653  1
  Fe  Fe1  1  0.48031773  0.01473158  0.49844704  1
  Fe  Fe2  1  0.50365110  0.32597397  0.84018606  1
  Fe  Fe3  1  0.00546283  0.66109510  0.69343596  1
  Fe  Fe4  1  0.00246161  0.34084500  0.32924945  1
  Fe  Fe5  1  0.98582416  0.98694931  0.00374295  1
  O  O6  1  0.81134800  0.76747123  0.95662672  1
  O  O7  1  0.69795566  0.09884315  0.79406781  1
  O  O8  1  0.70066332  0.43395399  0.13447351  1
  O  O9  1  0.30689360  0.55660492  0.86808820  1
  O  O10  1  0.29345895  0.23890105  0.53510250  1
  O  O11  1  0.31172782  0.90028347  0.20382917  1
  F  F12  1  0.79894448  0.43957919  0.62609323  1
  F  F13  1  0.80770125  0.10230612  0.29999551  1
  F  F14  1  0.70397602  0.76649399  0.46604662  1
  F  F15  1  0.19156935  0.22573993  0.04053392  1
  F  F16  1  0.18172833  0.57164046  0.38013726  1
  F  F17  1  0.19531053  0.89413797  0.69884758  1
