# generated using pymatgen
data_LiCo3(OF3)2
_symmetry_space_group_name_H-M   'P 1'
_cell_length_a   10.16030331
_cell_length_b   4.56046210
_cell_length_c   5.42272618
_cell_angle_alpha   90.00000000
_cell_angle_beta   96.01881180
_cell_angle_gamma   90.00000000
_symmetry_Int_Tables_number   1
_chemical_formula_structural   LiCo3(OF3)2
_chemical_formula_sum   'Li2 Co6 O4 F12'
_cell_volume   249.88059828
_cell_formula_units_Z   2
loop_
 _symmetry_equiv_pos_site_id
 _symmetry_equiv_pos_as_xyz
  1  'x, y, z'
loop_
 _atom_site_type_symbol
 _atom_site_label
 _atom_site_symmetry_multiplicity
 _atom_site_fract_x
 _atom_site_fract_y
 _atom_site_fract_z
 _atom_site_occupancy
  Li  Li0  1  0.00000000  0.00000000  0.00000000  1
  Li  Li1  1  0.50000000  0.50000000  0.00000000  1
  Co  Co2  1  0.00000000  0.50000000  0.50000000  1
  Co  Co3  1  0.24699312  0.98241518  0.73348900  1
  Co  Co4  1  0.25300688  0.48241518  0.26651100  1
  Co  Co5  1  0.50000000  0.00000000  0.50000000  1
  Co  Co6  1  0.74699312  0.51758482  0.73348900  1
  Co  Co7  1  0.75300688  0.01758482  0.26651100  1
  O  O8  1  0.17380643  0.68017999  0.51330943  1
  O  O9  1  0.32619357  0.18017999  0.48669057  1
  O  O10  1  0.67380643  0.81982001  0.51330943  1
  O  O11  1  0.82619357  0.31982001  0.48669057  1
  F  F12  1  0.07589493  0.19030481  0.71746249  1
  F  F13  1  0.07545222  0.30247694  0.22702903  1
  F  F14  1  0.18054811  0.78614353  0.01460759  1
  F  F15  1  0.31945189  0.28614353  0.98539241  1
  F  F16  1  0.42454778  0.80247694  0.77297097  1
  F  F17  1  0.42410507  0.69030481  0.28253751  1
  F  F18  1  0.57589493  0.30969519  0.71746249  1
  F  F19  1  0.57545222  0.19752306  0.22702903  1
  F  F20  1  0.68054811  0.71385647  0.01460759  1
  F  F21  1  0.81945189  0.21385647  0.98539241  1
  F  F22  1  0.92454778  0.69752306  0.77297097  1
  F  F23  1  0.92410507  0.80969519  0.28253751  1
