# generated using pymatgen
data_Na6V2B4AsO16
_symmetry_space_group_name_H-M   'P 1'
_cell_length_a   9.97668816
_cell_length_b   9.97668772
_cell_length_c   9.97668816
_cell_angle_alpha   60.00000041
_cell_angle_beta   119.99999972
_cell_angle_gamma   89.99999814
_symmetry_Int_Tables_number   1
_chemical_formula_structural   Na6V2B4AsO16
_chemical_formula_sum   'Na12 V4 B8 As2 O32'
_cell_volume   702.17307687
_cell_formula_units_Z   2
loop_
 _symmetry_equiv_pos_site_id
 _symmetry_equiv_pos_as_xyz
  1  'x, y, z'
loop_
 _atom_site_type_symbol
 _atom_site_label
 _atom_site_symmetry_multiplicity
 _atom_site_fract_x
 _atom_site_fract_y
 _atom_site_fract_z
 _atom_site_occupancy
  Na  Na0  1  0.08751673  0.66248327  0.17503345  1
  Na  Na1  1  0.08751673  0.08751673  0.75000000  1
  Na  Na2  1  0.33751673  0.33751673  0.25000000  1
  Na  Na3  1  0.66248327  0.08751673  0.32496655  1
  Na  Na4  1  0.91248327  0.33751673  0.25000000  1
  Na  Na5  1  0.33751673  0.91248327  0.25000000  1
  Na  Na6  1  0.08751673  0.66248327  0.75000000  1
  Na  Na7  1  0.66248327  0.08751673  0.75000000  1
  Na  Na8  1  0.33751673  0.91248327  0.67503345  1
  Na  Na9  1  0.66248327  0.66248327  0.75000000  1
  Na  Na10  1  0.91248327  0.91248327  0.25000000  1
  Na  Na11  1  0.91248327  0.33751673  0.82496655  1
  V  V12  1  0.50000000  0.00000000  0.00000000  1
  V  V13  1  0.50000000  0.50000000  0.00000000  1
  V  V14  1  0.00000000  0.50000000  0.50000000  1
  V  V15  1  0.50000000  0.50000000  0.50000000  1
  B  B16  1  0.36879537  0.71040154  0.07919691  1
  B  B17  1  0.28959846  0.28959846  0.57919691  1
  B  B18  1  0.71040154  0.36879537  0.42080309  1
  B  B19  1  0.28959846  0.28959846  0.92080309  1
  B  B20  1  0.28959846  0.63120463  0.57919691  1
  B  B21  1  0.71040154  0.71040154  0.07919691  1
  B  B22  1  0.63120463  0.28959846  0.92080309  1
  B  B23  1  0.71040154  0.71040154  0.42080309  1
  As  As24  1  0.12500000  0.12500000  0.25000000  1
  As  As25  1  0.87500000  0.87500000  0.75000000  1
  O  O26  1  0.05457938  0.05457938  0.10915776  1
  O  O27  1  0.05457938  0.05457938  0.39084224  1
  O  O28  1  0.05457938  0.33626385  0.10915776  1
  O  O29  1  0.40342355  0.13449695  0.03846293  1
  O  O30  1  0.33626385  0.05457938  0.39084224  1
  O  O31  1  0.13449695  0.40342355  0.46153707  1
  O  O32  1  0.63504039  0.32703911  0.03846293  1
  O  O33  1  0.32703911  0.13449695  0.73046266  1
  O  O34  1  0.36495961  0.59657645  0.23046266  1
  O  O35  1  0.59657645  0.36495961  0.26953734  1
  O  O36  1  0.13449695  0.32703911  0.76953734  1
  O  O37  1  0.40342355  0.32703911  0.53792050  1
  O  O38  1  0.36495961  0.86550305  0.03792050  1
  O  O39  1  0.67296089  0.59657645  0.03792050  1
  O  O40  1  0.13449695  0.63504039  0.53792050  1
  O  O41  1  0.32703911  0.63504039  0.46153707  1
  O  O42  1  0.67296089  0.36495961  0.53846293  1
  O  O43  1  0.32703911  0.40342355  0.96207950  1
  O  O44  1  0.86550305  0.36495961  0.46207950  1
  O  O45  1  0.63504039  0.13449695  0.96207950  1
  O  O46  1  0.59657645  0.67296089  0.46207950  1
  O  O47  1  0.40342355  0.63504039  0.73046266  1
  O  O48  1  0.86550305  0.67296089  0.23046266  1
  O  O49  1  0.63504039  0.40342355  0.76953734  1
  O  O50  1  0.67296089  0.86550305  0.26953734  1
  O  O51  1  0.36495961  0.67296089  0.96153707  1
  O  O52  1  0.86550305  0.59657645  0.53846293  1
  O  O53  1  0.66373615  0.94542162  0.60915776  1
  O  O54  1  0.59657645  0.86550305  0.96153707  1
  O  O55  1  0.94542162  0.66373615  0.89084224  1
  O  O56  1  0.94542162  0.94542162  0.60915776  1
  O  O57  1  0.94542162  0.94542162  0.89084224  1
