# generated using pymatgen
data_Li3CrNi3O8
_symmetry_space_group_name_H-M   'P 1'
_cell_length_a   5.83557622
_cell_length_b   5.76344299
_cell_length_c   5.88795716
_cell_angle_alpha   60.69127993
_cell_angle_beta   88.92457911
_cell_angle_gamma   119.58350141
_symmetry_Int_Tables_number   1
_chemical_formula_structural   Li3CrNi3O8
_chemical_formula_sum   'Li3 Cr1 Ni3 O8'
_cell_volume   141.03551612
_cell_formula_units_Z   1
loop_
 _symmetry_equiv_pos_site_id
 _symmetry_equiv_pos_as_xyz
  1  'x, y, z'
loop_
 _atom_site_type_symbol
 _atom_site_label
 _atom_site_symmetry_multiplicity
 _atom_site_fract_x
 _atom_site_fract_y
 _atom_site_fract_z
 _atom_site_occupancy
  Li  Li0  1  0.00002083  0.49999994  0.49999104  1
  Li  Li1  1  0.00001942  0.00003576  0.49998773  1
  Li  Li2  1  0.50000459  0.00000179  0.50000015  1
  Cr  Cr3  1  -0.00010961  0.99997383  0.00000871  1
  Ni  Ni4  1  -0.00005440  0.49989386  0.00005394  1
  Ni  Ni5  1  0.50001995  0.50003891  -0.00001417  1
  Ni  Ni6  1  0.50005644  0.00001806  0.99999533  1
  O  O7  1  0.25058482  0.52635426  0.19931182  1
  O  O8  1  0.77881818  0.51802846  0.22158706  1
  O  O9  1  0.24112483  0.00876712  0.22189130  1
  O  O10  1  0.77884088  0.03936609  0.22254335  1
  O  O11  1  0.22116052  0.96063626  0.77746053  1
  O  O12  1  0.75889692  0.99125081  0.77809617  1
  O  O13  1  0.22118115  0.48196035  0.77841863  1
  O  O14  1  0.74943448  0.47367349  0.80066441  1
