# generated using pymatgen
data_Li3CrP2O9
_symmetry_space_group_name_H-M   'P 1'
_cell_length_a   6.82362438
_cell_length_b   8.83854672
_cell_length_c   11.68512575
_cell_angle_alpha   89.98487594
_cell_angle_beta   90.53523555
_cell_angle_gamma   89.99512824
_symmetry_Int_Tables_number   1
_chemical_formula_structural   Li3CrP2O9
_chemical_formula_sum   'Li12 Cr4 P8 O36'
_cell_volume   704.70994157
_cell_formula_units_Z   4
loop_
 _symmetry_equiv_pos_site_id
 _symmetry_equiv_pos_as_xyz
  1  'x, y, z'
loop_
 _atom_site_type_symbol
 _atom_site_label
 _atom_site_symmetry_multiplicity
 _atom_site_fract_x
 _atom_site_fract_y
 _atom_site_fract_z
 _atom_site_occupancy
  Li  Li0  1  0.10714694  0.61025725  0.17050269  1
  Li  Li1  1  0.18325242  0.75481263  0.75803526  1
  Li  Li2  1  0.25935428  0.09440825  0.50648159  1
  Li  Li3  1  0.23990831  0.90568387  0.00632800  1
  Li  Li4  1  0.31639910  0.24542814  0.25897030  1
  Li  Li5  1  0.39283949  0.38937708  0.67081464  1
  Li  Li6  1  0.60722165  0.88942114  0.82914945  1
  Li  Li7  1  0.68359679  0.74523470  0.24113378  1
  Li  Li8  1  0.76018375  0.40568939  0.49364476  1
  Li  Li9  1  0.74058770  0.59435828  0.99355484  1
  Li  Li10  1  0.81675215  0.25473204  0.74171585  1
  Li  Li11  1  0.89295271  0.11030887  0.32964759  1
  Cr  Cr12  1  0.01890621  0.24482592  0.00482013  1
  Cr  Cr13  1  0.47926756  0.75468485  0.50327150  1
  Cr  Cr14  1  0.52020539  0.25452164  0.99674183  1
  Cr  Cr15  1  0.98097060  0.74465994  0.49508527  1
  P  P16  1  0.23074106  0.87248593  0.28815557  1
  P  P17  1  0.23557252  0.46351841  0.41838205  1
  P  P18  1  0.26465689  0.53638146  0.91900183  1
  P  P19  1  0.26912869  0.12806497  0.78845607  1
  P  P20  1  0.73077712  0.62799302  0.71153562  1
  P  P21  1  0.73539353  0.03643714  0.58092267  1
  P  P22  1  0.76454870  0.96344042  0.08164388  1
  P  P23  1  0.76934557  0.37243371  0.21186412  1
  O  O24  1  0.04891390  0.78263653  0.33764929  1
  O  O25  1  0.04398411  0.53078154  0.47324369  1
  O  O26  1  0.07759234  0.19826504  0.84107583  1
  O  O27  1  0.08805621  0.46355630  0.98502726  1
  O  O28  1  0.21025137  0.04011055  0.31911469  1
  O  O29  1  0.21539136  0.79282488  0.54606669  1
  O  O30  1  0.24431601  0.29528479  0.44380846  1
  O  O31  1  0.23338696  0.83134949  0.16196892  1
  O  O32  1  0.25423353  0.51220163  0.78926822  1
  O  O33  1  0.24662590  0.48736005  0.28891991  1
  O  O34  1  0.26572282  0.16841477  0.66185986  1
  O  O35  1  0.25737910  0.70498640  0.94331367  1
  O  O36  1  0.26332111  0.20762155  0.04296914  1
  O  O37  1  0.29195223  0.96019331  0.81914242  1
  O  O38  1  0.41394351  0.54060738  0.48340659  1
  O  O39  1  0.42322759  0.80137545  0.34344821  1
  O  O40  1  0.45857923  0.46685512  0.97293666  1
  O  O41  1  0.45434096  0.21591802  0.83904963  1
  O  O42  1  0.54561725  0.71584143  0.66078653  1
  O  O43  1  0.54126528  0.96700502  0.52722409  1
  O  O44  1  0.57679970  0.30133589  0.15670251  1
  O  O45  1  0.58623615  0.04053805  0.01639193  1
  O  O46  1  0.70782762  0.46014663  0.68092666  1
  O  O47  1  0.73623482  0.70761856  0.45695729  1
  O  O48  1  0.74259558  0.20509808  0.55674265  1
  O  O49  1  0.73407685  0.66838626  0.83808566  1
  O  O50  1  0.75350706  0.98732873  0.21108571  1
  O  O51  1  0.76688020  0.33131540  0.33807410  1
  O  O52  1  0.74571152  0.01219460  0.71066472  1
  O  O53  1  0.75589768  0.79524882  0.05622411  1
  O  O54  1  0.78482104  0.29263870  0.95422701  1
  O  O55  1  0.79002147  0.54008045  0.18086576  1
  O  O56  1  0.91206339  0.96378966  0.51486660  1
  O  O57  1  0.92224309  0.69828342  0.65891396  1
  O  O58  1  0.95598055  0.03087387  0.02676721  1
  O  O59  1  0.95129336  0.28277464  0.16236504  1
