# generated using pymatgen
data_Mn2V3O12
_symmetry_space_group_name_H-M   'P 1'
_cell_length_a   8.73193188
_cell_length_b   12.27701046
_cell_length_c   9.01217085
_cell_angle_alpha   90.00000000
_cell_angle_beta   90.00000000
_cell_angle_gamma   90.65096699
_symmetry_Int_Tables_number   1
_chemical_formula_structural   Mn2V3O12
_chemical_formula_sum   'Mn8 V12 O48'
_cell_volume   966.06055537
_cell_formula_units_Z   4
loop_
 _symmetry_equiv_pos_site_id
 _symmetry_equiv_pos_as_xyz
  1  'x, y, z'
loop_
 _atom_site_type_symbol
 _atom_site_label
 _atom_site_symmetry_multiplicity
 _atom_site_fract_x
 _atom_site_fract_y
 _atom_site_fract_z
 _atom_site_occupancy
  Mn  Mn0  1  0.25173139  0.88376517  0.02570146  1
  Mn  Mn1  1  0.24826861  0.61623483  0.52570146  1
  Mn  Mn2  1  0.25255035  0.38091647  0.97138661  1
  Mn  Mn3  1  0.24744965  0.11908353  0.47138661  1
  Mn  Mn4  1  0.75255035  0.88091647  0.52861339  1
  Mn  Mn5  1  0.74744965  0.61908353  0.02861339  1
  Mn  Mn6  1  0.75173139  0.38376517  0.47429854  1
  Mn  Mn7  1  0.74826861  0.11623483  0.97429854  1
  V  V8  1  0.03273534  0.49015094  0.24861702  1
  V  V9  1  0.10779396  0.85243888  0.38190678  1
  V  V10  1  0.11211466  0.14164511  0.11207702  1
  V  V11  1  0.39220604  0.64756112  0.88190678  1
  V  V12  1  0.38788534  0.35835489  0.61207702  1
  V  V13  1  0.46726466  0.00984906  0.74861702  1
  V  V14  1  0.53273534  0.99015094  0.25138298  1
  V  V15  1  0.61211466  0.64164511  0.38792298  1
  V  V16  1  0.60779396  0.35243888  0.11809322  1
  V  V17  1  0.88788534  0.85835489  0.88792298  1
  V  V18  1  0.89220604  0.14756112  0.61809322  1
  V  V19  1  0.96726466  0.50984906  0.75138298  1
  O  O20  1  0.07997983  0.44303317  0.87576027  1
  O  O21  1  0.08136474  0.89897722  0.89226255  1
  O  O22  1  0.07528871  0.61302170  0.65918606  1
  O  O23  1  0.07906637  0.18239628  0.57013657  1
  O  O24  1  0.10273055  0.58798019  0.37244366  1
  O  O25  1  0.12480353  0.84472044  0.18807991  1
  O  O26  1  0.14389221  0.98480382  0.43512109  1
  O  O27  1  0.13774854  0.25105008  0.99449664  1
  O  O28  1  0.16773724  0.17514920  0.29056336  1
  O  O29  1  0.18471014  0.42992362  0.15918183  1
  O  O30  1  0.23576940  0.76690352  0.47363679  1
  O  O31  1  0.26423060  0.73309648  0.97363679  1
  O  O32  1  0.23177003  0.03599179  0.05784713  1
  O  O33  1  0.26822997  0.46400821  0.55784713  1
  O  O34  1  0.31528986  0.07007638  0.65918183  1
  O  O35  1  0.33226276  0.32485080  0.79056336  1
  O  O36  1  0.35610779  0.51519618  0.93512109  1
  O  O37  1  0.36225146  0.24894992  0.49449664  1
  O  O38  1  0.37519647  0.65527956  0.68807991  1
  O  O39  1  0.39726945  0.91201981  0.87244366  1
  O  O40  1  0.42471129  0.88697830  0.15918606  1
  O  O41  1  0.41863526  0.60102278  0.39226255  1
  O  O42  1  0.42093363  0.31760372  0.07013657  1
  O  O43  1  0.42002017  0.05696683  0.37576027  1
  O  O44  1  0.57997983  0.94303317  0.62423973  1
  O  O45  1  0.57906637  0.68239628  0.92986343  1
  O  O46  1  0.58136474  0.39897722  0.60773745  1
  O  O47  1  0.57528871  0.11302170  0.84081394  1
  O  O48  1  0.60273055  0.08798019  0.12755634  1
  O  O49  1  0.62480353  0.34472044  0.31192009  1
  O  O50  1  0.63774854  0.75105008  0.50550336  1
  O  O51  1  0.64389221  0.48480382  0.06487891  1
  O  O52  1  0.66773724  0.67514920  0.20943664  1
  O  O53  1  0.68471014  0.92992362  0.34081817  1
  O  O54  1  0.73177003  0.53599179  0.44215287  1
  O  O55  1  0.76822997  0.96400821  0.94215287  1
  O  O56  1  0.73576940  0.26690352  0.02636321  1
  O  O57  1  0.76423060  0.23309648  0.52636321  1
  O  O58  1  0.81528986  0.57007638  0.84081817  1
  O  O59  1  0.83226276  0.82485080  0.70943664  1
  O  O60  1  0.86225146  0.74894992  0.00550336  1
  O  O61  1  0.85610779  0.01519618  0.56487891  1
  O  O62  1  0.87519647  0.15527956  0.81192009  1
  O  O63  1  0.89726945  0.41201981  0.62755634  1
  O  O64  1  0.92093363  0.81760372  0.42986343  1
  O  O65  1  0.92471129  0.38697830  0.34081394  1
  O  O66  1  0.91863526  0.10102278  0.10773745  1
  O  O67  1  0.92002017  0.55696683  0.12423973  1
