# generated using pymatgen
data_SrCaI4
_symmetry_space_group_name_H-M   'P 1'
_cell_length_a   8.10451824
_cell_length_b   16.32642796
_cell_length_c   8.37030009
_cell_angle_alpha   90.00000000
_cell_angle_beta   85.85845160
_cell_angle_gamma   90.00000000
_symmetry_Int_Tables_number   1
_chemical_formula_structural   SrCaI4
_chemical_formula_sum   'Sr4 Ca4 I16'
_cell_volume   1104.64782347
_cell_formula_units_Z   4
loop_
 _symmetry_equiv_pos_site_id
 _symmetry_equiv_pos_as_xyz
  1  'x, y, z'
loop_
 _atom_site_type_symbol
 _atom_site_label
 _atom_site_symmetry_multiplicity
 _atom_site_fract_x
 _atom_site_fract_y
 _atom_site_fract_z
 _atom_site_occupancy
  Sr  Sr0  1  0.34532220  0.86634635  0.89386713  1
  Sr  Sr1  1  0.34532220  0.63365365  0.39386713  1
  Sr  Sr2  1  0.65467780  0.36634635  0.60613287  1
  Sr  Sr3  1  0.65467780  0.13365365  0.10613287  1
  Ca  Ca4  1  0.22698742  0.13657616  0.74200282  1
  Ca  Ca5  1  0.22698742  0.36342384  0.24200282  1
  Ca  Ca6  1  0.77301258  0.63657616  0.75799718  1
  Ca  Ca7  1  0.77301258  0.86342384  0.25799718  1
  I  I8  1  0.12571597  0.70463465  0.72827240  1
  I  I9  1  0.26884169  0.44983852  0.56839431  1
  I  I10  1  0.40954001  0.27969911  0.92633992  1
  I  I11  1  0.12571597  0.79536535  0.22827240  1
  I  I12  1  0.23450412  0.97026522  0.59208683  1
  I  I13  1  0.26884169  0.05016148  0.06839431  1
  I  I14  1  0.40954001  0.22030089  0.42633992  1
  I  I15  1  0.23450412  0.52973478  0.09208783  1
  I  I16  1  0.76549588  0.47026522  0.90791317  1
  I  I17  1  0.59045999  0.77969911  0.57366008  1
  I  I18  1  0.73115831  0.94983852  0.93160569  1
  I  I19  1  0.76549588  0.02973478  0.40791217  1
  I  I20  1  0.87428403  0.20463465  0.77172760  1
  I  I21  1  0.59045999  0.72030089  0.07366008  1
  I  I22  1  0.73115831  0.55016148  0.43160569  1
  I  I23  1  0.87428403  0.29536535  0.27172760  1
