# generated using pymatgen
data_ZnCrBiO5
_symmetry_space_group_name_H-M   'P 1'
_cell_length_a   5.31438679
_cell_length_b   10.72320831
_cell_length_c   15.26619100
_cell_angle_alpha   90.00000000
_cell_angle_beta   90.00000000
_cell_angle_gamma   90.00000000
_symmetry_Int_Tables_number   1
_chemical_formula_structural   ZnCrBiO5
_chemical_formula_sum   'Zn8 Cr8 Bi8 O40'
_cell_volume   869.97864898
_cell_formula_units_Z   8
loop_
 _symmetry_equiv_pos_site_id
 _symmetry_equiv_pos_as_xyz
  1  'x, y, z'
loop_
 _atom_site_type_symbol
 _atom_site_label
 _atom_site_symmetry_multiplicity
 _atom_site_fract_x
 _atom_site_fract_y
 _atom_site_fract_z
 _atom_site_occupancy
  Zn  Zn0  1  0.49984027  0.35896317  0.45131406  1
  Zn  Zn1  1  -0.00015973  0.14103683  0.45131406  1
  Zn  Zn2  1  -0.00015973  0.64103683  0.04868594  1
  Zn  Zn3  1  0.00015973  0.35896317  0.95131406  1
  Zn  Zn4  1  0.50015973  0.14103683  0.95131406  1
  Zn  Zn5  1  0.00015973  0.85896317  0.54868594  1
  Zn  Zn6  1  0.50015973  0.64103683  0.54868594  1
  Zn  Zn7  1  0.49984027  0.85896317  0.04868594  1
  Cr  Cr8  1  0.97270790  0.39742504  0.59048370  1
  Cr  Cr9  1  0.52729210  0.89742504  0.40951630  1
  Cr  Cr10  1  0.02729210  0.60257496  0.40951630  1
  Cr  Cr11  1  0.47270790  0.10257496  0.59048370  1
  Cr  Cr12  1  0.02729210  0.10257496  0.09048370  1
  Cr  Cr13  1  0.97270790  0.89742504  0.90951630  1
  Cr  Cr14  1  0.52729210  0.39742504  0.09048370  1
  Cr  Cr15  1  0.47270790  0.60257496  0.90951630  1
  Bi  Bi16  1  0.97613786  0.85436147  0.22796639  1
  Bi  Bi17  1  0.02386214  0.14563853  0.77203361  1
  Bi  Bi18  1  0.52386214  0.35436147  0.77203361  1
  Bi  Bi19  1  0.02386214  0.64563853  0.72796639  1
  Bi  Bi20  1  0.47613786  0.14563853  0.27203361  1
  Bi  Bi21  1  0.47613786  0.64563853  0.22796639  1
  Bi  Bi22  1  0.52386214  0.85436147  0.72796639  1
  Bi  Bi23  1  0.97613786  0.35436147  0.27203361  1
  O  O24  1  0.92483217  0.33293327  0.69631945  1
  O  O25  1  0.31248019  0.04196819  0.05676645  1
  O  O26  1  0.18751981  0.54196819  0.94323355  1
  O  O27  1  0.28472735  0.77863437  0.14504761  1
  O  O28  1  0.21527265  0.27863437  0.85495239  1
  O  O29  1  0.92483217  0.83293327  0.80368055  1
  O  O30  1  0.21527265  0.77863437  0.64504761  1
  O  O31  1  0.57516783  0.83293327  0.30368055  1
  O  O32  1  0.31248019  0.54196819  0.44323355  1
  O  O33  1  0.07516783  0.66706673  0.30368055  1
  O  O34  1  0.57516783  0.33293327  0.19631945  1
  O  O35  1  0.64277308  0.20038258  0.52649012  1
  O  O36  1  0.81248019  0.95803181  0.44323355  1
  O  O37  1  0.71527265  0.72136563  0.64504761  1
  O  O38  1  0.17179457  0.02359136  0.88254015  1
  O  O39  1  0.81248019  0.45803181  0.05676645  1
  O  O40  1  0.07516783  0.16706673  0.19631945  1
  O  O41  1  0.78472735  0.22136563  0.35495239  1
  O  O42  1  0.14277308  0.79961742  0.97350988  1
  O  O43  1  0.18751981  0.04196819  0.55676645  1
  O  O44  1  0.35722692  0.79961742  0.47350988  1
  O  O45  1  0.82820543  0.97640864  0.11745985  1
  O  O46  1  0.71527265  0.22136563  0.85495239  1
  O  O47  1  0.67179457  0.97640864  0.61745985  1
  O  O48  1  0.35722692  0.29961742  0.02649012  1
  O  O49  1  0.14277308  0.29961742  0.52649012  1
  O  O50  1  0.68751981  0.45803181  0.55676645  1
  O  O51  1  0.68751981  0.95803181  0.94323355  1
  O  O52  1  0.67179457  0.47640864  0.88254015  1
  O  O53  1  0.85722692  0.70038258  0.47350988  1
  O  O54  1  0.85722692  0.20038258  0.02649012  1
  O  O55  1  0.64277308  0.70038258  0.97350988  1
  O  O56  1  0.82820543  0.47640864  0.38254015  1
  O  O57  1  0.78472735  0.72136563  0.14504761  1
  O  O58  1  0.28472735  0.27863437  0.35495239  1
  O  O59  1  0.17179457  0.52359136  0.61745985  1
  O  O60  1  0.32820543  0.52359136  0.11745985  1
  O  O61  1  0.42483217  0.16706673  0.69631945  1
  O  O62  1  0.32820543  0.02359136  0.38254015  1
  O  O63  1  0.42483217  0.66706673  0.80368055  1
