# generated using pymatgen
data_Li9Nb7V12O48
_symmetry_space_group_name_H-M   'P 1'
_cell_length_a   5.20824994
_cell_length_b   10.54542165
_cell_length_c   17.64956901
_cell_angle_alpha   90.49048053
_cell_angle_beta   89.61264573
_cell_angle_gamma   89.83770372
_symmetry_Int_Tables_number   1
_chemical_formula_structural   Li9Nb7V12O48
_chemical_formula_sum   'Li9 Nb7 V12 O48'
_cell_volume   969.30894135
_cell_formula_units_Z   1
loop_
 _symmetry_equiv_pos_site_id
 _symmetry_equiv_pos_as_xyz
  1  'x, y, z'
loop_
 _atom_site_type_symbol
 _atom_site_label
 _atom_site_symmetry_multiplicity
 _atom_site_fract_x
 _atom_site_fract_y
 _atom_site_fract_z
 _atom_site_occupancy
  Li  Li0  1  0.09172374  0.24589784  0.25019836  1
  Li  Li1  1  0.25186456  0.42437709  0.96624662  1
  Li  Li2  1  0.25578267  0.58312077  0.47246044  1
  Li  Li3  1  0.25596955  0.91688137  0.47140181  1
  Li  Li4  1  0.24624278  0.26236950  0.80047023  1
  Li  Li5  1  0.74985117  0.75351551  0.19125579  1
  Li  Li6  1  0.74437141  0.91933048  0.03002270  1
  Li  Li7  1  0.75641532  0.25416125  0.70569597  1
  Li  Li8  1  0.90923130  0.74801985  0.74720252  1
  Nb  Nb9  1  0.23535439  0.74683304  0.29975539  1
  Nb  Nb10  1  0.22924761  0.06744315  0.96852264  1
  Nb  Nb11  1  0.41208259  0.74776047  0.75366745  1
  Nb  Nb12  1  0.58419020  0.25057795  0.24865983  1
  Nb  Nb13  1  0.76487828  0.06996455  0.52425475  1
  Nb  Nb14  1  0.76327180  0.42943808  0.52294745  1
  Nb  Nb15  1  0.77379833  0.57816213  0.02909990  1
  V  V16  1  0.23272172  0.74843890  0.94347337  1
  V  V17  1  0.22956358  0.03101722  0.65903038  1
  V  V18  1  0.22541786  0.46833531  0.65580555  1
  V  V19  1  0.28290544  0.53038362  0.15969685  1
  V  V20  1  0.28234170  0.96944471  0.15690008  1
  V  V21  1  0.30132380  0.24825816  0.44221266  1
  V  V22  1  0.71208100  0.75021436  0.55729479  1
  V  V23  1  0.71826826  0.46842637  0.84236983  1
  V  V24  1  0.71527544  0.03487194  0.83535392  1
  V  V25  1  0.78460137  0.53044940  0.33946067  1
  V  V26  1  0.77762429  0.96925746  0.33886517  1
  V  V27  1  0.76883373  0.25028076  0.05606171  1
  O  O28  1  0.05482844  0.23581191  0.99844740  1
  O  O29  1  0.06360349  0.62499752  0.37138865  1
  O  O30  1  0.06841206  0.87515746  0.36740973  1
  O  O31  1  0.07272074  0.64053706  0.22233758  1
  O  O32  1  0.09082755  0.87585544  0.21800902  1
  O  O33  1  0.06287430  0.11771921  0.47006699  1
  O  O34  1  0.06161756  0.38083063  0.46855533  1
  O  O35  1  0.10185117  0.00403267  0.07583894  1
  O  O36  1  0.06564919  0.50099642  0.07399392  1
  O  O37  1  0.17435471  0.75170760  0.83984684  1
  O  O38  1  0.17512370  0.61731465  0.70295696  1
  O  O39  1  0.17603836  0.88204236  0.70288483  1
  O  O40  1  0.36482599  0.11440728  0.20386903  1
  O  O41  1  0.36743934  0.37435514  0.20516712  1
  O  O42  1  0.37353848  0.24722963  0.33863438  1
  O  O43  1  0.42165143  0.49275651  0.57514941  1
  O  O44  1  0.42567017  0.00895677  0.57775152  1
  O  O45  1  0.40130612  0.89474481  0.96615866  1
  O  O46  1  0.42790104  0.61980763  0.96833699  1
  O  O47  1  0.40849613  0.12040382  0.71669028  1
  O  O48  1  0.39872721  0.37258855  0.70863224  1
  O  O49  1  0.42504338  0.11515494  0.88188304  1
  O  O50  1  0.45276659  0.38762177  0.86844131  1
  O  O51  1  0.45361233  0.75009429  0.50032978  1
  O  O52  1  0.59459736  0.25026563  0.51421812  1
  O  O53  1  0.58134079  0.61503754  0.11989905  1
  O  O54  1  0.54882164  0.88961170  0.13065154  1
  O  O55  1  0.54129776  0.62813059  0.29281897  1
  O  O56  1  0.55145864  0.86449859  0.29524039  1
  O  O57  1  0.56840940  0.12617596  0.03411031  1
  O  O58  1  0.59908949  0.38643493  0.03485432  1
  O  O59  1  0.59851361  0.01401566  0.42910013  1
  O  O60  1  0.59870216  0.48547949  0.42724816  1
  O  O61  1  0.63182833  0.74985413  0.65432002  1
  O  O62  1  0.63845229  0.61680205  0.79147851  1
  O  O63  1  0.64178358  0.87590757  0.79330234  1
  O  O64  1  0.83671809  0.11697003  0.29364296  1
  O  O65  1  0.83663854  0.38065122  0.29279434  1
  O  O66  1  0.83098917  0.24736735  0.15472058  1
  O  O67  1  0.89873531  0.50661237  0.92592778  1
  O  O68  1  0.92710299  0.00286947  0.92363010  1
  O  O69  1  0.89602175  0.61149738  0.53624789  1
  O  O70  1  0.89708429  0.88765038  0.53622340  1
  O  O71  1  0.91877963  0.12469900  0.78663745  1
  O  O72  1  0.90767698  0.37767981  0.78659637  1
  O  O73  1  0.94011040  0.10780427  0.62490722  1
  O  O74  1  0.93421618  0.39209688  0.62302908  1
  O  O75  1  0.93752129  0.73953271  0.00723719  1
