# generated using pymatgen
data_Fe4O5F3
_symmetry_space_group_name_H-M   'P 1'
_cell_length_a   4.71137243
_cell_length_b   7.75251983
_cell_length_c   7.65594987
_cell_angle_alpha   75.65925119
_cell_angle_beta   91.08726561
_cell_angle_gamma   88.73394658
_symmetry_Int_Tables_number   1
_chemical_formula_structural   Fe4O5F3
_chemical_formula_sum   'Fe8 O10 F6'
_cell_volume   270.76776807
_cell_formula_units_Z   2
loop_
 _symmetry_equiv_pos_site_id
 _symmetry_equiv_pos_as_xyz
  1  'x, y, z'
loop_
 _atom_site_type_symbol
 _atom_site_label
 _atom_site_symmetry_multiplicity
 _atom_site_fract_x
 _atom_site_fract_y
 _atom_site_fract_z
 _atom_site_occupancy
  Fe  Fe0  1  0.45132668  0.13272379  0.63357590  1
  Fe  Fe1  1  0.50000000  0.37500000  0.87500000  1
  Fe  Fe2  1  0.50000000  0.87500000  0.37500000  1
  Fe  Fe3  1  0.54867332  0.61727621  0.11642410  1
  Fe  Fe4  1  0.04545544  0.75546566  0.75832990  1
  Fe  Fe5  1  0.02019042  0.52753120  0.49091821  1
  Fe  Fe6  1  0.97980958  0.22246880  0.25908179  1
  Fe  Fe7  1  0.95454456  0.99453434  0.99167010  1
  O  O8  1  0.81224533  0.77122149  0.96533555  1
  O  O9  1  0.79417730  0.01542250  0.22432023  1
  O  O10  1  0.67878300  0.16624311  0.84505482  1
  O  O11  1  0.69331087  0.65267085  0.34557133  1
  O  O12  1  0.69731710  0.38504324  0.09349624  1
  O  O13  1  0.32121700  0.58375689  0.90494518  1
  O  O14  1  0.30268290  0.36495676  0.65650376  1
  O  O15  1  0.30668913  0.09732915  0.40442867  1
  O  O16  1  0.20582270  0.73457750  0.52567977  1
  O  O17  1  0.18775467  0.97877851  0.78466445  1
  F  F18  1  0.80928018  0.28411333  0.47543735  1
  F  F19  1  0.81193964  0.54107831  0.71704391  1
  F  F20  1  0.70362734  0.91148783  0.60076586  1
  F  F21  1  0.29637266  0.83851217  0.14923414  1
  F  F22  1  0.18806036  0.20892169  0.03295609  1
  F  F23  1  0.19071982  0.46588667  0.27456265  1
