# generated using pymatgen
data_ThNb4O12
_symmetry_space_group_name_H-M   'P 1'
_cell_length_a   5.61616291
_cell_length_b   5.55610625
_cell_length_c   15.81244888
_cell_angle_alpha   90.00000000
_cell_angle_beta   90.00000000
_cell_angle_gamma   90.00000000
_symmetry_Int_Tables_number   1
_chemical_formula_structural   ThNb4O12
_chemical_formula_sum   'Th2 Nb8 O24'
_cell_volume   493.41162078
_cell_formula_units_Z   2
loop_
 _symmetry_equiv_pos_site_id
 _symmetry_equiv_pos_as_xyz
  1  'x, y, z'
loop_
 _atom_site_type_symbol
 _atom_site_label
 _atom_site_symmetry_multiplicity
 _atom_site_fract_x
 _atom_site_fract_y
 _atom_site_fract_z
 _atom_site_occupancy
  Th  Th0  1  0.25000000  0.23881331  0.00000000  1
  Th  Th1  1  0.75000000  0.76118669  0.50000000  1
  Nb  Nb2  1  0.25000000  0.73783962  0.13107811  1
  Nb  Nb3  1  0.25000000  0.76119640  0.62805754  1
  Nb  Nb4  1  0.25000000  0.76119640  0.37194246  1
  Nb  Nb5  1  0.25000000  0.73783962  0.86892189  1
  Nb  Nb6  1  0.75000000  0.26216038  0.36892189  1
  Nb  Nb7  1  0.75000000  0.23880360  0.87194246  1
  Nb  Nb8  1  0.75000000  0.23880360  0.12805754  1
  Nb  Nb9  1  0.75000000  0.26216038  0.63107811  1
  O  O10  1  0.00816044  0.00902862  0.13231226  1
  O  O11  1  0.01632822  0.48673216  0.09875740  1
  O  O12  1  0.99183956  0.99097138  0.36768774  1
  O  O13  1  0.98367178  0.51326784  0.40124260  1
  O  O14  1  0.99183956  0.99097138  0.63231226  1
  O  O15  1  0.98367178  0.51326784  0.59875740  1
  O  O16  1  0.00816044  0.00902862  0.86768774  1
  O  O17  1  0.01632822  0.48673216  0.90124260  1
  O  O18  1  0.25000000  0.68168617  0.25030379  1
  O  O19  1  0.25000000  0.68168617  0.74969621  1
  O  O20  1  0.25000000  0.83290268  0.00000000  1
  O  O21  1  0.25000000  0.80538465  0.50000000  1
  O  O22  1  0.51632822  0.51326784  0.59875740  1
  O  O23  1  0.48367178  0.48673216  0.09875740  1
  O  O24  1  0.48367178  0.48673216  0.90124260  1
  O  O25  1  0.50816044  0.99097138  0.63231226  1
  O  O26  1  0.51632822  0.51326784  0.40124260  1
  O  O27  1  0.49183956  0.00902862  0.86768774  1
  O  O28  1  0.49183956  0.00902862  0.13231226  1
  O  O29  1  0.50816044  0.99097138  0.36768774  1
  O  O30  1  0.75000000  0.19461535  0.00000000  1
  O  O31  1  0.75000000  0.31831383  0.24969621  1
  O  O32  1  0.75000000  0.16709732  0.50000000  1
  O  O33  1  0.75000000  0.31831383  0.75030379  1
