# generated using pymatgen
data_MgAs2WO7
_symmetry_space_group_name_H-M   'P 1'
_cell_length_a   7.23914607
_cell_length_b   10.22149920
_cell_length_c   10.67771480
_cell_angle_alpha   90.00000000
_cell_angle_beta   118.00068598
_cell_angle_gamma   90.00000000
_symmetry_Int_Tables_number   1
_chemical_formula_structural   MgAs2WO7
_chemical_formula_sum   'Mg4 As8 W4 O28'
_cell_volume   697.60955051
_cell_formula_units_Z   4
loop_
 _symmetry_equiv_pos_site_id
 _symmetry_equiv_pos_as_xyz
  1  'x, y, z'
loop_
 _atom_site_type_symbol
 _atom_site_label
 _atom_site_symmetry_multiplicity
 _atom_site_fract_x
 _atom_site_fract_y
 _atom_site_fract_z
 _atom_site_occupancy
  Mg  Mg0  1  0.34073682  0.91382125  0.87905301  1
  Mg  Mg1  1  0.65926318  0.41382125  0.62094699  1
  Mg  Mg2  1  0.65926318  0.08617875  0.12094699  1
  Mg  Mg3  1  0.34073682  0.58617875  0.37905301  1
  As  As4  1  0.42135606  0.22791187  0.79370305  1
  As  As5  1  0.57864394  0.72791187  0.70629695  1
  As  As6  1  0.57864394  0.77208813  0.20629695  1
  As  As7  1  0.42135606  0.27208813  0.29370205  1
  As  As8  1  0.97621970  0.33212217  0.99540739  1
  As  As9  1  0.02378030  0.83212217  0.50459261  1
  As  As10  1  0.02378030  0.66787783  0.00459261  1
  As  As11  1  0.97621970  0.16787783  0.49540739  1
  W  W12  1  0.84217178  0.10161093  0.75584064  1
  W  W13  1  0.15782822  0.60161093  0.74415936  1
  W  W14  1  0.15782822  0.89838907  0.24415936  1
  W  W15  1  0.84217178  0.39838907  0.25584064  1
  O  O16  1  0.84561072  0.29224820  0.10670647  1
  O  O17  1  0.15438928  0.79224820  0.39329353  1
  O  O18  1  0.15438928  0.70775180  0.89329353  1
  O  O19  1  0.84561072  0.20775180  0.60670647  1
  O  O20  1  0.36885127  0.49345438  0.80019529  1
  O  O21  1  0.63114873  0.99345438  0.69980471  1
  O  O22  1  0.63114873  0.50654562  0.19980471  1
  O  O23  1  0.36885127  0.00654562  0.30019529  1
  O  O24  1  0.50424713  0.08597557  0.90440722  1
  O  O25  1  0.49575287  0.58597557  0.59559278  1
  O  O26  1  0.49575287  0.91402443  0.09559278  1
  O  O27  1  0.50424713  0.41402443  0.40440722  1
  O  O28  1  0.24260953  0.14638428  0.62294408  1
  O  O29  1  0.75739047  0.64638428  0.87705592  1
  O  O30  1  0.75739047  0.85361572  0.37705592  1
  O  O31  1  0.24260953  0.35361572  0.12294408  1
  O  O32  1  0.94668242  0.00885267  0.22220136  1
  O  O33  1  0.05331758  0.50885267  0.27779864  1
  O  O34  1  0.05331758  0.99114733  0.77779864  1
  O  O35  1  0.94668242  0.49114733  0.72220136  1
  O  O36  1  0.63339728  0.24158433  0.23987648  1
  O  O37  1  0.36660272  0.74158433  0.26012352  1
  O  O38  1  0.36660272  0.75841567  0.76012352  1
  O  O39  1  0.63339728  0.25841567  0.73987648  1
  O  O40  1  0.98603489  0.34087659  0.45189428  1
  O  O41  1  0.01396511  0.84087659  0.04810572  1
  O  O42  1  0.01396511  0.65912341  0.54810572  1
  O  O43  1  0.98603489  0.15912341  0.95189428  1
