# generated using pymatgen
data_Fe10O9F11
_symmetry_space_group_name_H-M   'P 1'
_cell_length_a   4.78004291
_cell_length_b   4.78004291
_cell_length_c   15.41704156
_cell_angle_alpha   90.00000000
_cell_angle_beta   90.00000000
_cell_angle_gamma   95.58043890
_symmetry_Int_Tables_number   1
_chemical_formula_structural   Fe10O9F11
_chemical_formula_sum   'Fe10 O9 F11'
_cell_volume   350.59157159
_cell_formula_units_Z   1
loop_
 _symmetry_equiv_pos_site_id
 _symmetry_equiv_pos_as_xyz
  1  'x, y, z'
loop_
 _atom_site_type_symbol
 _atom_site_label
 _atom_site_symmetry_multiplicity
 _atom_site_fract_x
 _atom_site_fract_y
 _atom_site_fract_z
 _atom_site_occupancy
  Fe  Fe0  1  0.99468479  0.99468479  0.99806355  1
  Fe  Fe1  1  0.00002073  0.00002073  0.19974807  1
  Fe  Fe2  1  0.00002073  0.00002073  0.40025193  1
  Fe  Fe3  1  0.99468479  0.99468479  0.60193645  1
  Fe  Fe4  1  0.02387277  0.02387277  0.80000000  1
  Fe  Fe5  1  0.49939402  0.49939402  0.10224198  1
  Fe  Fe6  1  0.49939402  0.49939402  0.49775802  1
  Fe  Fe7  1  0.50020406  0.50020406  0.30000000  1
  Fe  Fe8  1  0.48857444  0.48857444  0.69363041  1
  Fe  Fe9  1  0.48857444  0.48857444  0.90636959  1
  O  O10  1  0.29396611  0.29396611  0.00308521  1
  O  O11  1  0.29930919  0.29930919  0.20066387  1
  O  O12  1  0.29930919  0.29930919  0.39933613  1
  O  O13  1  0.29396611  0.29396611  0.59691479  1
  O  O14  1  0.32739975  0.32739975  0.80000000  1
  O  O15  1  0.69758973  0.69758973  0.00060435  1
  O  O16  1  0.70018845  0.70018845  0.20037496  1
  O  O17  1  0.70018845  0.70018845  0.39962504  1
  O  O18  1  0.69758973  0.69758973  0.59939565  1
  F  F19  1  0.19003963  0.80529837  0.10015763  1
  F  F20  1  0.19280597  0.80702572  0.30000000  1
  F  F21  1  0.19003963  0.80529837  0.49984237  1
  F  F22  1  0.20165659  0.79836510  0.69560769  1
  F  F23  1  0.20165659  0.79836510  0.90439231  1
  F  F24  1  0.71052142  0.71052142  0.80000000  1
  F  F25  1  0.80529837  0.19003963  0.10015763  1
  F  F26  1  0.80529837  0.19003963  0.49984237  1
  F  F27  1  0.80702572  0.19280597  0.30000000  1
  F  F28  1  0.79836510  0.20165659  0.90439231  1
  F  F29  1  0.79836510  0.20165659  0.69560769  1
