# generated using pymatgen
data_Fe10O9F11
_symmetry_space_group_name_H-M   'P 1'
_cell_length_a   4.75187175
_cell_length_b   4.75985429
_cell_length_c   15.44768342
_cell_angle_alpha   90.31677415
_cell_angle_beta   89.98770550
_cell_angle_gamma   93.45560860
_symmetry_Int_Tables_number   1
_chemical_formula_structural   Fe10O9F11
_chemical_formula_sum   'Fe10 O9 F11'
_cell_volume   348.75844694
_cell_formula_units_Z   1
loop_
 _symmetry_equiv_pos_site_id
 _symmetry_equiv_pos_as_xyz
  1  'x, y, z'
loop_
 _atom_site_type_symbol
 _atom_site_label
 _atom_site_symmetry_multiplicity
 _atom_site_fract_x
 _atom_site_fract_y
 _atom_site_fract_z
 _atom_site_occupancy
  Fe  Fe0  1  0.99650922  0.99467490  0.99659844  1
  Fe  Fe1  1  0.00409911  0.00416083  0.20070407  1
  Fe  Fe2  1  0.97868013  0.96016179  0.40812091  1
  Fe  Fe3  1  0.04876708  0.00038652  0.60346281  1
  Fe  Fe4  1  0.02531897  0.01202552  0.79348886  1
  Fe  Fe5  1  0.50012752  0.49963127  0.09911863  1
  Fe  Fe6  1  0.47018976  0.52819371  0.49954078  1
  Fe  Fe7  1  0.51295852  0.50572581  0.29215804  1
  Fe  Fe8  1  0.45799295  0.50237937  0.70243473  1
  Fe  Fe9  1  0.49272193  0.48673889  0.90702361  1
  O  O10  1  0.18870696  0.80728513  0.49800400  1
  O  O11  1  0.20918521  0.80398422  0.69523521  1
  O  O12  1  0.29670902  0.29386952  0.00431984  1
  O  O13  1  0.30177086  0.29938774  0.20106346  1
  O  O14  1  0.31535232  0.31890205  0.59514008  1
  O  O15  1  0.31908255  0.32083348  0.80587319  1
  O  O16  1  0.70068624  0.69727038  0.00192938  1
  O  O17  1  0.70471982  0.70210450  0.19843482  1
  O  O18  1  0.67706930  0.67869572  0.39679263  1
  F  F19  1  0.19238994  0.80712266  0.10142882  1
  F  F20  1  0.18774403  0.80191904  0.30101829  1
  F  F21  1  0.20347518  0.79792403  0.90497256  1
  F  F22  1  0.28760105  0.28958307  0.39447101  1
  F  F23  1  0.70398971  0.70985395  0.59865610  1
  F  F24  1  0.70423963  0.70283132  0.80343870  1
  F  F25  1  0.80822016  0.19050839  0.10140757  1
  F  F26  1  0.80177428  0.19201132  0.49704998  1
  F  F27  1  0.80652346  0.18550895  0.30232074  1
  F  F28  1  0.80271414  0.19622945  0.90339143  1
  F  F29  1  0.80067994  0.21009546  0.69240433  1
