# generated using pymatgen
data_V3Cr2Sn(PO4)6
_symmetry_space_group_name_H-M   'P 1'
_cell_length_a   8.66337430
_cell_length_b   8.67482867
_cell_length_c   8.67482894
_cell_angle_alpha   59.99999838
_cell_angle_beta   59.95625310
_cell_angle_gamma   59.95625204
_symmetry_Int_Tables_number   1
_chemical_formula_structural   V3Cr2Sn(PO4)6
_chemical_formula_sum   'V3 Cr2 Sn1 P6 O24'
_cell_volume   460.68748081
_cell_formula_units_Z   1
loop_
 _symmetry_equiv_pos_site_id
 _symmetry_equiv_pos_as_xyz
  1  'x, y, z'
loop_
 _atom_site_type_symbol
 _atom_site_label
 _atom_site_symmetry_multiplicity
 _atom_site_fract_x
 _atom_site_fract_y
 _atom_site_fract_z
 _atom_site_occupancy
  V  V0  1  0.06870493  0.64376502  0.64376502  1
  V  V1  1  0.43065820  0.85644760  0.85644760  1
  V  V2  1  0.92744591  0.35751803  0.35751803  1
  Cr  Cr3  1  0.00759669  0.99746777  0.99746777  1
  Cr  Cr4  1  0.49792617  0.50069094  0.50069094  1
  Sn  Sn5  1  0.56618276  0.14460575  0.14460575  1
  P  P6  1  0.24530252  0.25192869  0.54843939  1
  P  P7  1  0.24530252  0.95432941  0.25192869  1
  P  P8  1  0.24530252  0.54843939  0.95432941  1
  P  P9  1  0.75037040  0.46093579  0.04256882  1
  P  P10  1  0.75037040  0.04256882  0.74612500  1
  P  P11  1  0.75037040  0.74612500  0.46093579  1
  O  O12  1  0.07152618  0.11471724  0.30840521  1
  O  O13  1  0.07152618  0.50535138  0.11471724  1
  O  O14  1  0.07152618  0.30840521  0.50535138  1
  O  O15  1  0.23086103  0.08876281  0.74280563  1
  O  O16  1  0.43401405  0.19035368  0.39339319  1
  O  O17  1  0.26399514  0.41336956  0.56407205  1
  O  O18  1  0.23086103  0.93756954  0.08876281  1
  O  O19  1  0.26399514  0.75856225  0.41336956  1
  O  O20  1  0.56945822  0.61334937  0.00605360  1
  O  O21  1  0.26399514  0.56407205  0.75856225  1
  O  O22  1  0.77347746  0.26036618  0.05622906  1
  O  O23  1  0.56945822  0.00605360  0.81113881  1
  O  O24  1  0.43401405  0.98223908  0.19035368  1
  O  O25  1  0.23086103  0.74280563  0.93756954  1
  O  O26  1  0.73111570  0.44106098  0.24043010  1
  O  O27  1  0.43401405  0.39339319  0.98223908  1
  O  O28  1  0.73111570  0.24043010  0.58739322  1
  O  O29  1  0.77347746  0.05622906  0.90992730  1
  O  O30  1  0.73111570  0.58739322  0.44106098  1
  O  O31  1  0.56945822  0.81113881  0.61334937  1
  O  O32  1  0.77347746  0.90992730  0.26036618  1
  O  O33  1  0.93037541  0.68543525  0.49722563  1
  O  O34  1  0.93037541  0.49722563  0.88696370  1
  O  O35  1  0.93037541  0.88696370  0.68543525  1
