# generated using pymatgen
data_Li2Ni3(P2O7)2
_symmetry_space_group_name_H-M   'P 1'
_cell_length_a   13.10421775
_cell_length_b   7.26579102
_cell_length_c   6.38359636
_cell_angle_alpha   90.00000000
_cell_angle_beta   85.31540345
_cell_angle_gamma   90.00000000
_symmetry_Int_Tables_number   1
_chemical_formula_structural   Li2Ni3(P2O7)2
_chemical_formula_sum   'Li4 Ni6 P8 O28'
_cell_volume   605.76779420
_cell_formula_units_Z   2
loop_
 _symmetry_equiv_pos_site_id
 _symmetry_equiv_pos_as_xyz
  1  'x, y, z'
loop_
 _atom_site_type_symbol
 _atom_site_label
 _atom_site_symmetry_multiplicity
 _atom_site_fract_x
 _atom_site_fract_y
 _atom_site_fract_z
 _atom_site_occupancy
  Li  Li0  1  0.02895321  0.30905734  0.46215648  1
  Li  Li1  1  0.39966628  0.24503936  0.93150924  1
  Li  Li2  1  0.60033372  0.74503936  0.06849076  1
  Li  Li3  1  0.97104679  0.80905734  0.53784352  1
  Ni  Ni4  1  0.09766524  0.01143381  0.18531138  1
  Ni  Ni5  1  0.27511234  0.61190974  0.72303196  1
  Ni  Ni6  1  0.39854996  0.10796373  0.42158493  1
  Ni  Ni7  1  0.60145004  0.60796373  0.57841507  1
  Ni  Ni8  1  0.72488766  0.11190974  0.27696804  1
  Ni  Ni9  1  0.90233476  0.51143381  0.81468862  1
  P  P10  1  0.11416980  0.31048590  0.91803662  1
  P  P11  1  0.16807608  0.98512026  0.64560877  1
  P  P12  1  0.30650815  0.79511591  0.14080906  1
  P  P13  1  0.42096030  0.51349519  0.37100781  1
  P  P14  1  0.57903970  0.01349519  0.62899219  1
  P  P15  1  0.69349185  0.29511591  0.85919094  1
  P  P16  1  0.83192392  0.48512026  0.35439123  1
  P  P17  1  0.88583020  0.81048590  0.08196338  1
  O  O18  1  0.03663209  0.38383449  0.77262281  1
  O  O19  1  0.07867899  0.29405485  0.15220418  1
  O  O20  1  0.12416334  0.08371640  0.86834728  1
  O  O21  1  0.08963785  0.05395153  0.49529077  1
  O  O22  1  0.15840384  0.77847841  0.68051684  1
  O  O23  1  0.22087861  0.38843119  0.86818128  1
  O  O24  1  0.19078632  0.80455341  0.16084201  1
  O  O25  1  0.27614578  0.05669313  0.60451062  1
  O  O26  1  0.32864501  0.65726158  0.33904634  1
  O  O27  1  0.40484524  0.47985849  0.60918560  1
  O  O28  1  0.35442731  0.69950871  0.94494086  1
  O  O29  1  0.40593089  0.33743662  0.24302091  1
  O  O30  1  0.36202076  0.97814179  0.17204140  1
  O  O31  1  0.52349282  0.61089716  0.31331931  1
  O  O32  1  0.47650718  0.11089716  0.68668069  1
  O  O33  1  0.63797924  0.47814179  0.82795860  1
  O  O34  1  0.59406911  0.83743662  0.75697909  1
  O  O35  1  0.64557269  0.19950871  0.05505914  1
  O  O36  1  0.59515476  0.97985849  0.39081440  1
  O  O37  1  0.67135499  0.15726158  0.66095366  1
  O  O38  1  0.72385422  0.55669313  0.39548938  1
  O  O39  1  0.80921368  0.30455341  0.83915799  1
  O  O40  1  0.77912139  0.88843119  0.13181872  1
  O  O41  1  0.84159616  0.27847841  0.31948316  1
  O  O42  1  0.91036215  0.55395153  0.50470923  1
  O  O43  1  0.87583666  0.58371640  0.13165272  1
  O  O44  1  0.92132101  0.79405485  0.84779582  1
  O  O45  1  0.96336791  0.88383449  0.22737719  1
