# generated using pymatgen
data_Li4Nb(P2O7)2
_symmetry_space_group_name_H-M   'P 1'
_cell_length_a   10.16698719
_cell_length_b   10.16693082
_cell_length_c   9.20133884
_cell_angle_alpha   89.99999753
_cell_angle_beta   90.00012130
_cell_angle_gamma   90.00004300
_symmetry_Int_Tables_number   1
_chemical_formula_structural   Li4Nb(P2O7)2
_chemical_formula_sum   'Li16 Nb4 P16 O56'
_cell_volume   951.11530171
_cell_formula_units_Z   4
loop_
 _symmetry_equiv_pos_site_id
 _symmetry_equiv_pos_as_xyz
  1  'x, y, z'
loop_
 _atom_site_type_symbol
 _atom_site_label
 _atom_site_symmetry_multiplicity
 _atom_site_fract_x
 _atom_site_fract_y
 _atom_site_fract_z
 _atom_site_occupancy
  Li  Li0  1  0.10732439  0.68576558  0.40127294  1
  Li  Li1  1  0.10732718  0.81423217  0.90127272  1
  Li  Li2  1  0.18576577  0.60732830  0.09872599  1
  Li  Li3  1  0.18576461  0.89267483  0.59872831  1
  Li  Li4  1  0.31423392  0.89267514  0.09872708  1
  Li  Li5  1  0.31423542  0.60732414  0.59872738  1
  Li  Li6  1  0.39267125  0.81423121  0.40127386  1
  Li  Li7  1  0.39267161  0.68576785  0.90127277  1
  Li  Li8  1  0.60732419  0.18576494  0.59872720  1
  Li  Li9  1  0.60732532  0.31423612  0.09872926  1
  Li  Li10  1  0.68576596  0.39267218  0.40127336  1
  Li  Li11  1  0.68576728  0.10732889  0.90127206  1
  Li  Li12  1  0.81423158  0.10732963  0.40127302  1
  Li  Li13  1  0.81423109  0.39267401  0.90127662  1
  Li  Li14  1  0.89267587  0.18576713  0.09872783  1
  Li  Li15  1  0.89267323  0.31423573  0.59872991  1
  Nb  Nb16  1  0.24999588  0.25000365  0.06775033  1
  Nb  Nb17  1  0.24999530  0.25000001  0.56775071  1
  Nb  Nb18  1  0.74999866  0.75000318  0.43225072  1
  Nb  Nb19  1  0.74999975  0.74999975  0.93224999  1
  P  P20  1  0.01823116  0.15489884  0.82264693  1
  P  P21  1  0.01823108  0.34509843  0.32263615  1
  P  P22  1  0.15490017  0.48176739  0.82264572  1
  P  P23  1  0.15489840  0.01823372  0.32263780  1
  P  P24  1  0.34510004  0.01823154  0.82264293  1
  P  P25  1  0.34509606  0.48177109  0.32263632  1
  P  P26  1  0.48176790  0.15490408  0.32263830  1
  P  P27  1  0.48176739  0.34510082  0.82264643  1
  P  P28  1  0.51823071  0.65490134  0.17735265  1
  P  P29  1  0.51823219  0.84509621  0.67736811  1
  P  P30  1  0.65489919  0.51823247  0.67736281  1
  P  P31  1  0.65490337  0.98176693  0.17735838  1
  P  P32  1  0.84509923  0.98176902  0.67736114  1
  P  P33  1  0.84509810  0.51823381  0.17735681  1
  P  P34  1  0.98176469  0.65490385  0.67736886  1
  P  P35  1  0.98176413  0.84510500  0.17735062  1
  O  O36  1  0.00998980  0.50998952  0.74999577  1
  O  O37  1  0.00999009  0.99001440  0.24999818  1
  O  O38  1  0.06367160  0.23955132  0.69241670  1
  O  O39  1  0.06366890  0.26045774  0.19242387  1
  O  O40  1  0.11073320  0.79263905  0.11514373  1
  O  O41  1  0.11073033  0.70736506  0.61514581  1
  O  O42  1  0.12352022  0.11754264  0.44332661  1
  O  O43  1  0.12352476  0.38245862  0.94332135  1
  O  O44  1  0.11754015  0.37647951  0.44333169  1
  O  O45  1  0.11753801  0.12352361  0.94332579  1
  O  O46  1  0.20736193  0.61073308  0.88485107  1
  O  O47  1  0.20736336  0.88927203  0.38485384  1
  O  O48  1  0.23954417  0.06367502  0.19241926  1
  O  O49  1  0.23955270  0.43632889  0.69241579  1
  O  O50  1  0.26044908  0.06367436  0.69241793  1
  O  O51  1  0.26044928  0.43633632  0.19241901  1
  O  O52  1  0.29263609  0.88926844  0.88485136  1
  O  O53  1  0.29263556  0.61073566  0.38485805  1
  O  O54  1  0.38245539  0.12352556  0.44332442  1
  O  O55  1  0.38245955  0.37647540  0.94332053  1
  O  O56  1  0.37647168  0.38245861  0.44332157  1
  O  O57  1  0.37647197  0.11754217  0.94332096  1
  O  O58  1  0.38926806  0.79263333  0.61514561  1
  O  O59  1  0.38926690  0.70736421  0.11514283  1
  O  O60  1  0.43632659  0.23955027  0.19242081  1
  O  O61  1  0.43632951  0.26045343  0.69241662  1
  O  O62  1  0.49000753  0.50999104  0.24999709  1
  O  O63  1  0.49000778  0.99001173  0.74999900  1
  O  O64  1  0.50999171  0.00999306  0.24999844  1
  O  O65  1  0.50998776  0.49000898  0.74999927  1
  O  O66  1  0.56366880  0.73955001  0.30758274  1
  O  O67  1  0.56367176  0.76045369  0.80757709  1
  O  O68  1  0.61073026  0.20736532  0.38485481  1
  O  O69  1  0.61073310  0.29263691  0.88485749  1
  O  O70  1  0.62352346  0.61754302  0.55667787  1
  O  O71  1  0.62352707  0.88246082  0.05667878  1
  O  O72  1  0.61753797  0.62352591  0.05667636  1
  O  O73  1  0.61754328  0.87647868  0.55667252  1
  O  O74  1  0.70736164  0.11073499  0.11514397  1
  O  O75  1  0.70736032  0.38926471  0.61513839  1
  O  O76  1  0.73954784  0.93633219  0.30758266  1
  O  O77  1  0.73954513  0.56366408  0.80757980  1
  O  O78  1  0.76045212  0.93633086  0.80757385  1
  O  O79  1  0.76044827  0.56367309  0.30758658  1
  O  O80  1  0.79263546  0.11073430  0.61514265  1
  O  O81  1  0.79263834  0.38926638  0.11514947  1
  O  O82  1  0.88245469  0.62352598  0.55667224  1
  O  O83  1  0.88246135  0.87647929  0.05667391  1
  O  O84  1  0.87647123  0.61754056  0.05668212  1
  O  O85  1  0.87647677  0.88245898  0.55667271  1
  O  O86  1  0.88926892  0.20736493  0.88485473  1
  O  O87  1  0.88926511  0.29263597  0.38485730  1
  O  O88  1  0.93632765  0.73954238  0.80758126  1
  O  O89  1  0.93632440  0.76045259  0.30758120  1
  O  O90  1  0.99000785  0.49001300  0.25000677  1
  O  O91  1  0.99000946  0.00999033  0.74999977  1
