# generated using pymatgen
data_LiMnPO4
_symmetry_space_group_name_H-M   'P 1'
_cell_length_a   15.65060480
_cell_length_b   5.17818391
_cell_length_c   8.89123766
_cell_angle_alpha   90.00000000
_cell_angle_beta   86.67477327
_cell_angle_gamma   90.00000000
_symmetry_Int_Tables_number   1
_chemical_formula_structural   LiMnPO4
_chemical_formula_sum   'Li8 Mn8 P8 O32'
_cell_volume   719.34794840
_cell_formula_units_Z   8
loop_
 _symmetry_equiv_pos_site_id
 _symmetry_equiv_pos_as_xyz
  1  'x, y, z'
loop_
 _atom_site_type_symbol
 _atom_site_label
 _atom_site_symmetry_multiplicity
 _atom_site_fract_x
 _atom_site_fract_y
 _atom_site_fract_z
 _atom_site_occupancy
  Li  Li0  1  0.99749572  0.24432083  0.20364483  1
  Li  Li1  1  0.23852371  0.26753137  0.37465584  1
  Li  Li2  1  0.26147629  0.76753137  0.62534416  1
  Li  Li3  1  0.50250428  0.74432083  0.79635517  1
  Li  Li4  1  0.49749572  0.25567917  0.20364483  1
  Li  Li5  1  0.73852371  0.23246863  0.37465584  1
  Li  Li6  1  0.76147629  0.73246863  0.62534416  1
  Li  Li7  1  0.00250428  0.75567917  0.79635517  1
  Mn  Mn8  1  0.07946149  0.26693056  0.57837379  1
  Mn  Mn9  1  0.14984490  0.73961601  0.08938675  1
  Mn  Mn10  1  0.35015510  0.23961601  0.91061325  1
  Mn  Mn11  1  0.42053851  0.76693056  0.42162621  1
  Mn  Mn12  1  0.57946149  0.23306944  0.57837379  1
  Mn  Mn13  1  0.64984490  0.76038399  0.08938675  1
  Mn  Mn14  1  0.85015510  0.26038399  0.91061325  1
  Mn  Mn15  1  0.92053851  0.73306944  0.42162621  1
  P  P16  1  0.11216366  0.78115804  0.43559209  1
  P  P17  1  0.12844220  0.24525782  0.90781525  1
  P  P18  1  0.37155780  0.74525782  0.09218475  1
  P  P19  1  0.38783634  0.28115804  0.56440791  1
  P  P20  1  0.61216366  0.71884196  0.43559209  1
  P  P21  1  0.62844220  0.25474218  0.90781525  1
  P  P22  1  0.87155780  0.75474218  0.09218475  1
  P  P23  1  0.88783634  0.21884196  0.56440791  1
  O  O24  1  0.03132791  0.75859905  0.54840632  1
  O  O25  1  0.07300538  0.39232148  0.79509364  1
  O  O26  1  0.08752052  0.89418876  0.28441256  1
  O  O27  1  0.14963084  0.50548117  0.41759889  1
  O  O28  1  0.17570169  0.96886184  0.51102782  1
  O  O29  1  0.10422339  0.95216191  0.90790117  1
  O  O30  1  0.10906800  0.35728476  0.06928505  1
  O  O31  1  0.22433042  0.28511222  0.85805603  1
  O  O32  1  0.27566958  0.78511222  0.14194397  1
  O  O33  1  0.39093200  0.85728476  0.93071495  1
  O  O34  1  0.39577661  0.45216191  0.09209883  1
  O  O35  1  0.32429831  0.46886184  0.48897218  1
  O  O36  1  0.35036916  0.00548117  0.58240111  1
  O  O37  1  0.41247948  0.39418876  0.71558744  1
  O  O38  1  0.42699462  0.89232148  0.20490636  1
  O  O39  1  0.46867209  0.25859905  0.45159368  1
  O  O40  1  0.53132791  0.74140095  0.54840632  1
  O  O41  1  0.57300538  0.10767852  0.79509364  1
  O  O42  1  0.58752052  0.60581124  0.28441256  1
  O  O43  1  0.64963084  0.99451883  0.41759889  1
  O  O44  1  0.67570169  0.53113816  0.51102782  1
  O  O45  1  0.60422339  0.54783809  0.90790117  1
  O  O46  1  0.60906800  0.14271524  0.06928505  1
  O  O47  1  0.72433042  0.21488778  0.85805603  1
  O  O48  1  0.77566958  0.71488778  0.14194397  1
  O  O49  1  0.89093200  0.64271524  0.93071495  1
  O  O50  1  0.89577661  0.04783809  0.09209883  1
  O  O51  1  0.82429831  0.03113816  0.48897218  1
  O  O52  1  0.85036916  0.49451883  0.58240111  1
  O  O53  1  0.91247948  0.10581124  0.71558744  1
  O  O54  1  0.92699462  0.60767852  0.20490636  1
  O  O55  1  0.96867209  0.24140095  0.45159368  1
