# generated using pymatgen
data_Li2SnP2O7
_symmetry_space_group_name_H-M   'P 1'
_cell_length_a   9.46399057
_cell_length_b   8.34480398
_cell_length_c   5.23579391
_cell_angle_alpha   108.28330597
_cell_angle_beta   90.00000000
_cell_angle_gamma   65.07433327
_symmetry_Int_Tables_number   1
_chemical_formula_structural   Li2SnP2O7
_chemical_formula_sum   'Li4 Sn2 P4 O14'
_cell_volume   351.83006677
_cell_formula_units_Z   2
loop_
 _symmetry_equiv_pos_site_id
 _symmetry_equiv_pos_as_xyz
  1  'x, y, z'
loop_
 _atom_site_type_symbol
 _atom_site_label
 _atom_site_symmetry_multiplicity
 _atom_site_fract_x
 _atom_site_fract_y
 _atom_site_fract_z
 _atom_site_occupancy
  Li  Li0  1  0.55219336  0.10836888  0.94730334  1
  Li  Li1  1  0.05219336  0.10836888  0.66106554  1
  Li  Li2  1  0.94780664  0.89163112  0.33893446  1
  Li  Li3  1  0.44780664  0.89163112  0.05269666  1
  Sn  Sn4  1  0.50000000  0.50000000  0.00000000  1
  Sn  Sn5  1  0.00000000  0.50000000  0.00000000  1
  P  P6  1  0.81816419  0.28362159  0.26919159  1
  P  P7  1  0.31816419  0.28362159  0.51443101  1
  P  P8  1  0.68183581  0.71637841  0.48556899  1
  P  P9  1  0.18183581  0.71637841  0.73080841  1
  O  O10  1  0.89187147  0.15597390  0.43203221  1
  O  O11  1  0.39187147  0.15597390  0.22394168  1
  O  O12  1  0.93570002  0.26964834  0.04926829  1
  O  O13  1  0.67633448  0.26100255  0.14810418  1
  O  O14  1  0.43570002  0.26964834  0.72037905  1
  O  O15  1  0.17633448  0.26100255  0.61289836  1
  O  O16  1  0.75000000  0.50000000  0.49795573  1
  O  O17  1  0.25000000  0.50000000  0.50204427  1
  O  O18  1  0.82366552  0.73899745  0.38710164  1
  O  O19  1  0.56429998  0.73035166  0.27962095  1
  O  O20  1  0.32366552  0.73899745  0.85189582  1
  O  O21  1  0.06429998  0.73035166  0.95073171  1
  O  O22  1  0.60812853  0.84402610  0.77605832  1
  O  O23  1  0.10812853  0.84402610  0.56796779  1
