# generated using pymatgen
data_LiVP2(HO4)2
_symmetry_space_group_name_H-M   'P 1'
_cell_length_a   9.80926193
_cell_length_b   9.80926193
_cell_length_c   8.63062686
_cell_angle_alpha   73.16334642
_cell_angle_beta   106.83665358
_cell_angle_gamma   62.73365744
_symmetry_Int_Tables_number   1
_chemical_formula_structural   LiVP2(HO4)2
_chemical_formula_sum   'Li4 V4 P8 H8 O32'
_cell_volume   613.33525003
_cell_formula_units_Z   4
loop_
 _symmetry_equiv_pos_site_id
 _symmetry_equiv_pos_as_xyz
  1  'x, y, z'
loop_
 _atom_site_type_symbol
 _atom_site_label
 _atom_site_symmetry_multiplicity
 _atom_site_fract_x
 _atom_site_fract_y
 _atom_site_fract_z
 _atom_site_occupancy
  Li  Li0  1  0.56007282  0.64502650  0.96737010  1
  Li  Li1  1  0.35497350  0.43992718  0.46737010  1
  Li  Li2  1  0.87785154  0.83228966  0.49143700  1
  Li  Li3  1  0.16771034  0.12214846  0.99143700  1
  V  V4  1  0.19654774  0.12665774  0.62813190  1
  V  V5  1  0.78251371  0.58129966  0.72223081  1
  V  V6  1  0.87334226  0.80345226  0.12813190  1
  V  V7  1  0.41870034  0.21748629  0.22223081  1
  P  P8  1  0.13913482  0.82833654  0.83274168  1
  P  P9  1  0.57710901  0.97473558  0.68382677  1
  P  P10  1  0.17166346  0.86086518  0.33274168  1
  P  P11  1  0.18560934  0.41159439  0.75379139  1
  P  P12  1  0.02526442  0.42289099  0.18382677  1
  P  P13  1  0.58840561  0.81439066  0.25379139  1
  P  P14  1  0.70553483  0.35177452  0.81737669  1
  P  P15  1  0.64822548  0.29446517  0.31737669  1
  H  H16  1  0.31469086  0.54790698  0.90079419  1
  H  H17  1  0.33474922  0.75605002  0.62653036  1
  H  H18  1  0.45209302  0.68530914  0.40079419  1
  H  H19  1  0.24394998  0.66525078  0.12653036  1
  H  H20  1  0.63869372  0.18502556  0.75537859  1
  H  H21  1  0.86258748  0.08713735  0.58988028  1
  H  H22  1  0.81497444  0.36130628  0.25537859  1
  H  H23  1  0.91286265  0.13741252  0.08988028  1
  O  O24  1  0.16863532  0.97242093  0.80595652  1
  O  O25  1  0.12703329  0.76922014  0.01777153  1
  O  O26  1  0.96975291  0.89269901  0.67327150  1
  O  O27  1  0.99743730  0.55286458  0.70774915  1
  O  O28  1  0.31080619  0.65918109  0.87025739  1
  O  O29  1  0.02757907  0.83136468  0.30595652  1
  O  O30  1  0.23077986  0.87296671  0.51777153  1
  O  O31  1  0.69126135  0.97532285  0.85689340  1
  O  O32  1  0.10730099  0.03024709  0.17327150  1
  O  O33  1  0.44259771  0.94608661  0.72255564  1
  O  O34  1  0.32143352  0.36579079  0.94887481  1
  O  O35  1  0.19590465  0.23901623  0.77847679  1
  O  O36  1  0.23303975  0.47067542  0.60975660  1
  O  O37  1  0.44713542  0.00256270  0.20774915  1
  O  O38  1  0.69990233  0.82461110  0.66253080  1
  O  O39  1  0.34081891  0.68919381  0.37025739  1
  O  O40  1  0.58383708  0.54660790  0.76279584  1
  O  O41  1  0.02467715  0.30873865  0.35689340  1
  O  O42  1  0.05391339  0.55740229  0.22255564  1
  O  O43  1  0.63420921  0.67856648  0.44887481  1
  O  O44  1  0.77673542  0.20632639  0.01543263  1
  O  O45  1  0.76098377  0.80409535  0.27847679  1
  O  O46  1  0.59774545  0.31052969  0.68798242  1
  O  O47  1  0.52932458  0.76696025  0.10975660  1
  O  O48  1  0.17538890  0.30009767  0.16253080  1
  O  O49  1  0.47309604  0.15325341  0.50574796  1
  O  O50  1  0.45339210  0.41616292  0.26279584  1
  O  O51  1  0.86510497  0.33079276  0.79734925  1
  O  O52  1  0.79367361  0.22326458  0.51543263  1
  O  O53  1  0.68947031  0.40225455  0.18798242  1
  O  O54  1  0.84674659  0.52690396  0.00574796  1
  O  O55  1  0.66920724  0.13489503  0.29734925  1
