# generated using pymatgen
data_H16S(N3O5)2
_symmetry_space_group_name_H-M   'P 1'
_cell_length_a   10.30711942
_cell_length_b   10.71464158
_cell_length_c   11.31070794
_cell_angle_alpha   90.00000000
_cell_angle_beta   90.00000000
_cell_angle_gamma   105.70351786
_symmetry_Int_Tables_number   1
_chemical_formula_structural   H16S(N3O5)2
_chemical_formula_sum   'H64 S4 N24 O40'
_cell_volume   1202.49836977
_cell_formula_units_Z   4
loop_
 _symmetry_equiv_pos_site_id
 _symmetry_equiv_pos_as_xyz
  1  'x, y, z'
loop_
 _atom_site_type_symbol
 _atom_site_label
 _atom_site_symmetry_multiplicity
 _atom_site_fract_x
 _atom_site_fract_y
 _atom_site_fract_z
 _atom_site_occupancy
  H  H0  1  0.10442735  0.98749173  0.40214888  1
  H  H1  1  0.39557265  0.01250827  0.90214888  1
  H  H2  1  0.89557265  0.01250827  0.59785112  1
  H  H3  1  0.60442735  0.98749173  0.09785112  1
  H  H4  1  0.18050157  0.13904969  0.44098709  1
  H  H5  1  0.31949843  0.86095031  0.94098709  1
  H  H6  1  0.81949843  0.86095031  0.55901291  1
  H  H7  1  0.68050157  0.13904969  0.05901291  1
  H  H8  1  0.02601677  0.10619562  0.37958506  1
  H  H9  1  0.47398323  0.89380438  0.87958506  1
  H  H10  1  0.97398323  0.89380438  0.62041494  1
  H  H11  1  0.52601677  0.10619562  0.12041494  1
  H  H12  1  0.16030550  0.10081664  0.29518118  1
  H  H13  1  0.33969450  0.89918336  0.79518118  1
  H  H14  1  0.83969450  0.89918336  0.70481882  1
  H  H15  1  0.66030550  0.10081664  0.20481882  1
  H  H16  1  0.00046622  0.64328131  0.29545703  1
  H  H17  1  0.49953378  0.35671869  0.79545703  1
  H  H18  1  0.99953378  0.35671869  0.70454297  1
  H  H19  1  0.50046622  0.64328131  0.20454297  1
  H  H20  1  0.86863997  0.64270584  0.37997264  1
  H  H21  1  0.63136003  0.35729416  0.87997264  1
  H  H22  1  0.13136003  0.35729416  0.62002736  1
  H  H23  1  0.36863997  0.64270584  0.12002736  1
  H  H24  1  0.02256092  0.67888819  0.44086899  1
  H  H25  1  0.47743908  0.32111181  0.94086899  1
  H  H26  1  0.97743908  0.32111181  0.55913101  1
  H  H27  1  0.52256092  0.67888819  0.05913101  1
  H  H28  1  0.94260301  0.52230253  0.39291140  1
  H  H29  1  0.55739699  0.47769747  0.89291140  1
  H  H30  1  0.05739699  0.47769747  0.60708860  1
  H  H31  1  0.44260301  0.52230253  0.10708860  1
  H  H32  1  0.47189040  0.30125655  0.32346666  1
  H  H33  1  0.02810960  0.69874345  0.82346666  1
  H  H34  1  0.52810960  0.69874345  0.67653334  1
  H  H35  1  0.97189040  0.30125655  0.17653334  1
  H  H36  1  0.52052206  0.39747352  0.44609849  1
  H  H37  1  0.97947794  0.60252648  0.94609849  1
  H  H38  1  0.47947794  0.60252648  0.55390151  1
  H  H39  1  0.02052206  0.39747352  0.05390151  1
  H  H40  1  0.58322348  0.45034412  0.31018639  1
  H  H41  1  0.91677652  0.54965588  0.81018639  1
  H  H42  1  0.41677652  0.54965588  0.68981361  1
  H  H43  1  0.08322348  0.45034412  0.18981361  1
  H  H44  1  0.62958749  0.33123766  0.37767267  1
  H  H45  1  0.87041251  0.66876234  0.87767267  1
  H  H46  1  0.37041251  0.66876234  0.62232733  1
  H  H47  1  0.12958749  0.33123766  0.12232733  1
  H  H48  1  0.82297212  0.85526264  0.19054499  1
  H  H49  1  0.67702788  0.14473736  0.69054499  1
  H  H50  1  0.17702788  0.14473736  0.80945501  1
  H  H51  1  0.32297212  0.85526264  0.30945501  1
  H  H52  1  0.97921322  0.87712626  0.13411016  1
  H  H53  1  0.52078678  0.12287374  0.63411016  1
  H  H54  1  0.02078678  0.12287374  0.86588984  1
  H  H55  1  0.47921322  0.87712626  0.36588984  1
  H  H56  1  0.85311320  0.88767957  0.04232008  1
  H  H57  1  0.64688680  0.11232043  0.54232008  1
  H  H58  1  0.14688680  0.11232043  0.95767992  1
  H  H59  1  0.35311320  0.88767957  0.45767992  1
  H  H60  1  0.91068436  0.00255915  0.14767201  1
  H  H61  1  0.58931564  0.99744085  0.64767201  1
  H  H62  1  0.08931564  0.99744085  0.85232799  1
  H  H63  1  0.41068436  0.00255915  0.35232799  1
  S  S64  1  0.82225757  0.20691346  0.37944244  1
  S  S65  1  0.67774243  0.79308654  0.87944244  1
  S  S66  1  0.17774243  0.79308654  0.62055756  1
  S  S67  1  0.32225757  0.20691346  0.12055756  1
  N  N68  1  0.11730338  0.08317362  0.37833568  1
  N  N69  1  0.38269662  0.91682638  0.87833568  1
  N  N70  1  0.88269662  0.91682638  0.62166432  1
  N  N71  1  0.61730338  0.08317362  0.12166432  1
  N  N72  1  0.95978108  0.62098948  0.37845161  1
  N  N73  1  0.54021892  0.37901052  0.87845161  1
  N  N74  1  0.04021892  0.37901052  0.62154839  1
  N  N75  1  0.45978108  0.62098948  0.12154839  1
  N  N76  1  0.54953331  0.37059104  0.36497169  1
  N  N77  1  0.95046669  0.62940896  0.86497169  1
  N  N78  1  0.45046669  0.62940896  0.63502831  1
  N  N79  1  0.04953331  0.37059104  0.13502831  1
  N  N80  1  0.89089114  0.90538859  0.12827568  1
  N  N81  1  0.60910886  0.09461141  0.62827568  1
  N  N82  1  0.10910886  0.09461141  0.87172432  1
  N  N83  1  0.39089114  0.90538859  0.37172432  1
  N  N84  1  0.19690567  0.83638257  0.12376501  1
  N  N85  1  0.30309433  0.16361743  0.62376501  1
  N  N86  1  0.80309433  0.16361743  0.87623499  1
  N  N87  1  0.69690567  0.83638257  0.37623499  1
  N  N88  1  0.28226082  0.51915058  0.36444624  1
  N  N89  1  0.21773918  0.48084942  0.86444624  1
  N  N90  1  0.71773918  0.48084942  0.63555376  1
  N  N91  1  0.78226082  0.51915058  0.13555376  1
  O  O92  1  0.67342645  0.14352293  0.38397028  1
  O  O93  1  0.82657355  0.85647707  0.88397028  1
  O  O94  1  0.32657355  0.85647707  0.61602972  1
  O  O95  1  0.17342645  0.14352293  0.11602972  1
  O  O96  1  0.87921186  0.16489276  0.26926494  1
  O  O97  1  0.62078814  0.83510724  0.76926494  1
  O  O98  1  0.12078814  0.83510724  0.73073506  1
  O  O99  1  0.37921186  0.16489276  0.23073506  1
  O  O100  1  0.88878616  0.16634888  0.48512919  1
  O  O101  1  0.61121384  0.83365112  0.98512919  1
  O  O102  1  0.11121384  0.83365112  0.51487081  1
  O  O103  1  0.38878616  0.16634888  0.01487081  1
  O  O104  1  0.84465377  0.35017430  0.38029880  1
  O  O105  1  0.65534623  0.64982570  0.88029880  1
  O  O106  1  0.15534623  0.64982570  0.61970120  1
  O  O107  1  0.34465377  0.35017430  0.11970120  1
  O  O108  1  0.13677882  0.83957569  0.22128130  1
  O  O109  1  0.36322118  0.16042431  0.72128130  1
  O  O110  1  0.86322118  0.16042431  0.77871870  1
  O  O111  1  0.63677882  0.83957569  0.27871870  1
  O  O112  1  0.13629888  0.83917206  0.02702172  1
  O  O113  1  0.36370112  0.16082794  0.52702172  1
  O  O114  1  0.86370112  0.16082794  0.97297828  1
  O  O115  1  0.63629888  0.83917206  0.47297828  1
  O  O116  1  0.31866363  0.83134322  0.12368884  1
  O  O117  1  0.18133637  0.16865678  0.62368884  1
  O  O118  1  0.68133637  0.16865678  0.87631116  1
  O  O119  1  0.81866363  0.83134322  0.37631116  1
  O  O120  1  0.40659292  0.57843589  0.37881027  1
  O  O121  1  0.09340708  0.42156411  0.87881027  1
  O  O122  1  0.59340708  0.42156411  0.62118973  1
  O  O123  1  0.90659292  0.57843589  0.12118973  1
  O  O124  1  0.21387847  0.56309408  0.28891419  1
  O  O125  1  0.28612153  0.43690592  0.78891419  1
  O  O126  1  0.78612153  0.43690592  0.71108581  1
  O  O127  1  0.71387847  0.56309408  0.21108581  1
  O  O128  1  0.22852711  0.41918674  0.42414533  1
  O  O129  1  0.27147289  0.58081326  0.92414533  1
  O  O130  1  0.77147289  0.58081326  0.57585467  1
  O  O131  1  0.72852711  0.41918674  0.07585467  1
