# generated using pymatgen
data_HoZrOs2
_symmetry_space_group_name_H-M   'P 1'
_cell_length_a   4.72238690
_cell_length_b   4.72239889
_cell_length_c   4.72240413
_cell_angle_alpha   60.00010654
_cell_angle_beta   60.00007425
_cell_angle_gamma   59.99999277
_symmetry_Int_Tables_number   1
_chemical_formula_structural   HoZrOs2
_chemical_formula_sum   'Ho1 Zr1 Os2'
_cell_volume   74.46855996
_cell_formula_units_Z   1
loop_
 _symmetry_equiv_pos_site_id
 _symmetry_equiv_pos_as_xyz
  1  'x, y, z'
loop_
 _atom_site_type_symbol
 _atom_site_label
 _atom_site_symmetry_multiplicity
 _atom_site_fract_x
 _atom_site_fract_y
 _atom_site_fract_z
 _atom_site_occupancy
  Ho  Ho0  1  0.25000148  0.25000103  0.25000090  1
  Zr  Zr1  1  0.74999888  0.75000038  0.75000100  1
  Os  Os2  1  0.00000023  -0.00000026  -0.00000024  1
  Os  Os3  1  0.49999941  0.49999885  0.49999834  1
