# generated using pymatgen
data_LiTi(Si2O5)2
_symmetry_space_group_name_H-M   'P 1'
_cell_length_a   5.00026475
_cell_length_b   7.10659521
_cell_length_c   11.70769804
_cell_angle_alpha   90.00000000
_cell_angle_beta   90.00000000
_cell_angle_gamma   90.00000000
_symmetry_Int_Tables_number   1
_chemical_formula_structural   LiTi(Si2O5)2
_chemical_formula_sum   'Li2 Ti2 Si8 O20'
_cell_volume   416.03138175
_cell_formula_units_Z   2
loop_
 _symmetry_equiv_pos_site_id
 _symmetry_equiv_pos_as_xyz
  1  'x, y, z'
loop_
 _atom_site_type_symbol
 _atom_site_label
 _atom_site_symmetry_multiplicity
 _atom_site_fract_x
 _atom_site_fract_y
 _atom_site_fract_z
 _atom_site_occupancy
  Li  Li0  1  0.50000000  0.50000000  0.29641702  1
  Li  Li1  1  0.50000000  0.00000000  0.79641702  1
  Ti  Ti2  1  0.00000000  0.50000000  0.37730072  1
  Ti  Ti3  1  0.00000000  0.00000000  0.87730072  1
  Si  Si4  1  0.08265189  0.21159022  0.16712326  1
  Si  Si5  1  0.08265189  0.28840978  0.66712326  1
  Si  Si6  1  0.41551367  0.70997742  0.01400960  1
  Si  Si7  1  0.41551367  0.79002258  0.51400960  1
  Si  Si8  1  0.58448633  0.29002258  0.01400960  1
  Si  Si9  1  0.58448633  0.20997742  0.51400960  1
  Si  Si10  1  0.91734811  0.71159022  0.66712326  1
  Si  Si11  1  0.91734811  0.78840978  0.16712326  1
  O  O12  1  0.00000000  0.00000000  0.20793387  1
  O  O13  1  0.00000000  0.50000000  0.70793387  1
  O  O14  1  0.81205702  0.31203099  0.11450864  1
  O  O15  1  0.81205702  0.18796901  0.61450864  1
  O  O16  1  0.19552689  0.33483632  0.27302599  1
  O  O17  1  0.19552689  0.16516368  0.77302599  1
  O  O18  1  0.29650378  0.66159939  0.41133929  1
  O  O19  1  0.29650378  0.83840061  0.91133929  1
  O  O20  1  0.68956340  0.80933027  0.06566048  1
  O  O21  1  0.68956340  0.69066973  0.56566048  1
  O  O22  1  0.50000000  0.50000000  0.97076689  1
  O  O23  1  0.50000000  0.00000000  0.47076689  1
  O  O24  1  0.31043660  0.30933027  0.56566048  1
  O  O25  1  0.31043660  0.19066973  0.06566048  1
  O  O26  1  0.70349622  0.33840061  0.41133929  1
  O  O27  1  0.70349622  0.16159939  0.91133929  1
  O  O28  1  0.80447311  0.83483632  0.77302599  1
  O  O29  1  0.80447311  0.66516368  0.27302599  1
  O  O30  1  0.18794298  0.81203099  0.61450864  1
  O  O31  1  0.18794298  0.68796901  0.11450864  1
