# generated using pymatgen
data_TmFeGe2
_symmetry_space_group_name_H-M   'P 1'
_cell_length_a   8.61201711
_cell_length_b   8.61201711
_cell_length_c   4.16508373
_cell_angle_alpha   90.00000000
_cell_angle_beta   90.00000000
_cell_angle_gamma   27.32802885
_symmetry_Int_Tables_number   1
_chemical_formula_structural   TmFeGe2
_chemical_formula_sum   'Tm2 Fe2 Ge4'
_cell_volume   141.81620422
_cell_formula_units_Z   2
loop_
 _symmetry_equiv_pos_site_id
 _symmetry_equiv_pos_as_xyz
  1  'x, y, z'
loop_
 _atom_site_type_symbol
 _atom_site_label
 _atom_site_symmetry_multiplicity
 _atom_site_fract_x
 _atom_site_fract_y
 _atom_site_fract_z
 _atom_site_occupancy
  Tm  Tm0  1  0.10958808  0.10958808  0.24999800  1
  Tm  Tm1  1  0.89041192  0.89041192  0.75000000  1
  Fe  Fe2  1  0.32109715  0.32109715  0.24999800  1
  Fe  Fe3  1  0.67890285  0.67890285  0.75000000  1
  Ge  Ge4  1  0.45571353  0.45571353  0.24999800  1
  Ge  Ge5  1  0.54428547  0.54428547  0.75000000  1
  Ge  Ge6  1  0.74766428  0.74766428  0.24999800  1
  Ge  Ge7  1  0.25233572  0.25233572  0.75000000  1
