# generated using pymatgen
data_CaSnS3
_symmetry_space_group_name_H-M   'P 1'
_cell_length_a   7.35966317
_cell_length_b   7.42323978
_cell_length_c   10.20858833
_cell_angle_alpha   90.00000000
_cell_angle_beta   90.00000000
_cell_angle_gamma   99.34913306
_symmetry_Int_Tables_number   1
_chemical_formula_structural   CaSnS3
_chemical_formula_sum   'Ca4 Sn4 S12'
_cell_volume   550.31281884
_cell_formula_units_Z   4
loop_
 _symmetry_equiv_pos_site_id
 _symmetry_equiv_pos_as_xyz
  1  'x, y, z'
loop_
 _atom_site_type_symbol
 _atom_site_label
 _atom_site_symmetry_multiplicity
 _atom_site_fract_x
 _atom_site_fract_y
 _atom_site_fract_z
 _atom_site_occupancy
  Ca  Ca0  1  0.24750092  0.90634862  0.59752676  1
  Ca  Ca1  1  0.25249908  0.09365138  0.09752676  1
  Ca  Ca2  1  0.75249908  0.09365138  0.40247324  1
  Ca  Ca3  1  0.74750092  0.90634862  0.90247324  1
  Sn  Sn4  1  0.99100355  0.65784524  0.19808228  1
  Sn  Sn5  1  0.50899645  0.34215476  0.69808228  1
  Sn  Sn6  1  0.00899645  0.34215476  0.80191772  1
  Sn  Sn7  1  0.49100355  0.65784524  0.30191772  1
  S  S8  1  0.80182520  0.54867127  0.72468627  1
  S  S9  1  0.69817480  0.45132873  0.22468627  1
  S  S10  1  0.19817480  0.45132873  0.27531373  1
  S  S11  1  0.30182520  0.54867127  0.77531373  1
  S  S12  1  0.06228407  0.77209405  0.98495200  1
  S  S13  1  0.43771593  0.22790595  0.48495200  1
  S  S14  1  0.93771593  0.22790595  0.01504800  1
  S  S15  1  0.56228407  0.77209405  0.51504800  1
  S  S16  1  0.06853318  0.92643009  0.33546691  1
  S  S17  1  0.43146682  0.07356991  0.83546691  1
  S  S18  1  0.93146682  0.07356991  0.66453309  1
  S  S19  1  0.56853318  0.92643009  0.16453309  1
