# generated using pymatgen
data_PuO2
_symmetry_space_group_name_H-M   'P 1'
_cell_length_a   5.07974489
_cell_length_b   5.07988082
_cell_length_c   3.54583889
_cell_angle_alpha   89.99995886
_cell_angle_beta   90.00077484
_cell_angle_gamma   90.01667583
_symmetry_Int_Tables_number   1
_chemical_formula_structural   PuO2
_chemical_formula_sum   'Pu2 O4'
_cell_volume   91.49859106
_cell_formula_units_Z   2
loop_
 _symmetry_equiv_pos_site_id
 _symmetry_equiv_pos_as_xyz
  1  'x, y, z'
loop_
 _atom_site_type_symbol
 _atom_site_label
 _atom_site_symmetry_multiplicity
 _atom_site_fract_x
 _atom_site_fract_y
 _atom_site_fract_z
 _atom_site_occupancy
  Pu  Pu0  1  0.00001282  -0.00006218  -0.00001761  1
  Pu  Pu1  1  0.50001326  0.50003208  0.49999864  1
  O  O2  1  0.31067068  0.31066757  0.99999665  1
  O  O3  1  0.68931417  0.68933360  0.00001391  1
  O  O4  1  0.81079607  0.18921908  0.49999733  1
  O  O5  1  0.18919400  0.81081085  0.50000509  1
