# generated using pymatgen
data_AgGeO3
_symmetry_space_group_name_H-M   'P 1'
_cell_length_a   10.32307438
_cell_length_b   9.27341121
_cell_length_c   12.64699355
_cell_angle_alpha   90.00000000
_cell_angle_beta   90.00000000
_cell_angle_gamma   90.00000000
_symmetry_Int_Tables_number   1
_chemical_formula_structural   AgGeO3
_chemical_formula_sum   'Ag16 Ge16 O48'
_cell_volume   1210.69813022
_cell_formula_units_Z   16
loop_
 _symmetry_equiv_pos_site_id
 _symmetry_equiv_pos_as_xyz
  1  'x, y, z'
loop_
 _atom_site_type_symbol
 _atom_site_label
 _atom_site_symmetry_multiplicity
 _atom_site_fract_x
 _atom_site_fract_y
 _atom_site_fract_z
 _atom_site_occupancy
  Ag  Ag0  1  -0.00000000  -0.00000000  0.00000000  1
  Ag  Ag1  1  -0.00000000  -0.00000000  0.25321878  1
  Ag  Ag2  1  -0.00000000  0.50000000  0.00000000  1
  Ag  Ag3  1  -0.00000000  0.00000000  0.50000000  1
  Ag  Ag4  1  -0.00000000  0.50000000  0.24895610  1
  Ag  Ag5  1  -0.00000000  -0.00000000  0.74678122  1
  Ag  Ag6  1  -0.00000000  0.50000000  0.50000000  1
  Ag  Ag7  1  -0.00000000  0.50000000  0.75104390  1
  Ag  Ag8  1  0.50000000  0.00000000  0.00000000  1
  Ag  Ag9  1  0.50000000  -0.00000000  0.24895610  1
  Ag  Ag10  1  0.50000000  -0.00000000  0.50000000  1
  Ag  Ag11  1  0.50000000  0.50000000  0.00000000  1
  Ag  Ag12  1  0.50000000  0.50000000  0.25321878  1
  Ag  Ag13  1  0.50000000  0.50000000  0.50000000  1
  Ag  Ag14  1  0.50000000  0.00000000  0.75104390  1
  Ag  Ag15  1  0.50000000  0.50000000  0.74678122  1
  Ge  Ge16  1  0.20446210  0.75183764  0.12521869  1
  Ge  Ge17  1  0.20446210  0.75183764  0.87478131  1
  Ge  Ge18  1  0.20593661  0.75177613  0.37510132  1
  Ge  Ge19  1  0.20593661  0.75177613  0.62489868  1
  Ge  Ge20  1  0.29406339  0.25177613  0.37510132  1
  Ge  Ge21  1  0.29406339  0.25177613  0.62489868  1
  Ge  Ge22  1  0.29553790  0.25183764  0.12521869  1
  Ge  Ge23  1  0.29553790  0.25183764  0.87478131  1
  Ge  Ge24  1  0.70446210  0.74816236  0.12521869  1
  Ge  Ge25  1  0.70446210  0.74816236  0.87478131  1
  Ge  Ge26  1  0.70593661  0.74822387  0.37510132  1
  Ge  Ge27  1  0.70593661  0.74822387  0.62489868  1
  Ge  Ge28  1  0.79406339  0.24822387  0.37510132  1
  Ge  Ge29  1  0.79406339  0.24822387  0.62489868  1
  Ge  Ge30  1  0.79553790  0.24816236  0.12521869  1
  Ge  Ge31  1  0.79553790  0.24816236  0.87478131  1
  O  O32  1  0.10384747  0.59841758  0.37422379  1
  O  O33  1  0.10384747  0.59841758  0.62577621  1
  O  O34  1  0.10838221  0.91025793  0.12643224  1
  O  O35  1  0.10838221  0.91025793  0.87356776  1
  O  O36  1  0.11071531  0.59184791  0.12473813  1
  O  O37  1  0.11071531  0.59184791  0.87526187  1
  O  O38  1  0.11907641  0.91673984  0.37658119  1
  O  O39  1  0.11907641  0.91673984  0.62341881  1
  O  O40  1  0.20353119  0.24628372  0.50000000  1
  O  O41  1  0.20572108  0.25331837  0.00000000  1
  O  O42  1  0.20431498  0.25091873  0.24979342  1
  O  O43  1  0.20431498  0.25091873  0.75020658  1
  O  O44  1  0.29568502  0.75091873  0.24979342  1
  O  O45  1  0.29568502  0.75091873  0.75020658  1
  O  O46  1  0.29427892  0.75331837  0.00000000  1
  O  O47  1  0.29646881  0.74628372  0.50000000  1
  O  O48  1  0.38092359  0.41673984  0.37658119  1
  O  O49  1  0.38092359  0.41673984  0.62341881  1
  O  O50  1  0.38928469  0.09184791  0.12473813  1
  O  O51  1  0.38928469  0.09184791  0.87526187  1
  O  O52  1  0.39161779  0.41025793  0.12643224  1
  O  O53  1  0.39161779  0.41025793  0.87356776  1
  O  O54  1  0.39615253  0.09841758  0.37422379  1
  O  O55  1  0.39615253  0.09841758  0.62577621  1
  O  O56  1  0.60384747  0.90158242  0.37422379  1
  O  O57  1  0.60384747  0.90158242  0.62577621  1
  O  O58  1  0.60838221  0.58974207  0.12643224  1
  O  O59  1  0.60838221  0.58974207  0.87356776  1
  O  O60  1  0.61071531  0.90815209  0.12473813  1
  O  O61  1  0.61071531  0.90815209  0.87526187  1
  O  O62  1  0.61907641  0.58326016  0.37658119  1
  O  O63  1  0.61907641  0.58326016  0.62341881  1
  O  O64  1  0.70353119  0.25371628  0.50000000  1
  O  O65  1  0.70572108  0.24668163  0.00000000  1
  O  O66  1  0.70431498  0.24908127  0.24979342  1
  O  O67  1  0.70431498  0.24908127  0.75020658  1
  O  O68  1  0.79568502  0.74908127  0.24979342  1
  O  O69  1  0.79568502  0.74908127  0.75020658  1
  O  O70  1  0.79427892  0.74668163  0.00000000  1
  O  O71  1  0.79646881  0.75371628  0.50000000  1
  O  O72  1  0.88092359  0.08326016  0.37658119  1
  O  O73  1  0.88092359  0.08326016  0.62341881  1
  O  O74  1  0.88928469  0.40815209  0.12473813  1
  O  O75  1  0.88928469  0.40815209  0.87526187  1
  O  O76  1  0.89161779  0.08974207  0.12643224  1
  O  O77  1  0.89161779  0.08974207  0.87356776  1
  O  O78  1  0.89615253  0.40158242  0.37422379  1
  O  O79  1  0.89615253  0.40158242  0.62577621  1
