# generated using pymatgen
data_Ca3Sn2S7
_symmetry_space_group_name_H-M   'P 1'
_cell_length_a   3.87676344
_cell_length_b   11.34247662
_cell_length_c   12.55014229
_cell_angle_alpha   90.00000000
_cell_angle_beta   90.00000000
_cell_angle_gamma   90.00000000
_symmetry_Int_Tables_number   1
_chemical_formula_structural   Ca3Sn2S7
_chemical_formula_sum   'Ca6 Sn4 S14'
_cell_volume   551.85609522
_cell_formula_units_Z   2
loop_
 _symmetry_equiv_pos_site_id
 _symmetry_equiv_pos_as_xyz
  1  'x, y, z'
loop_
 _atom_site_type_symbol
 _atom_site_label
 _atom_site_symmetry_multiplicity
 _atom_site_fract_x
 _atom_site_fract_y
 _atom_site_fract_z
 _atom_site_occupancy
  Ca  Ca0  1  0.00000000  0.50000000  0.00000000  1
  Ca  Ca1  1  0.00000000  0.00000000  0.50000000  1
  Ca  Ca2  1  0.00000000  0.10981014  0.14699395  1
  Ca  Ca3  1  0.00000000  0.89018986  0.85300605  1
  Ca  Ca4  1  0.00000000  0.60981014  0.35300605  1
  Ca  Ca5  1  0.00000000  0.39018986  0.64699395  1
  Sn  Sn6  1  0.50000000  0.22158183  0.89083329  1
  Sn  Sn7  1  0.50000000  0.77841817  0.10916671  1
  Sn  Sn8  1  0.50000000  0.72158183  0.60916671  1
  Sn  Sn9  1  0.50000000  0.27841817  0.39083329  1
  S  S10  1  0.00000000  0.14595345  0.78978359  1
  S  S11  1  0.00000000  0.85404655  0.21021641  1
  S  S12  1  0.00000000  0.64595345  0.71021641  1
  S  S13  1  0.00000000  0.35404655  0.28978359  1
  S  S14  1  0.50000000  0.20196189  0.56895616  1
  S  S15  1  0.50000000  0.79803811  0.43104384  1
  S  S16  1  0.50000000  0.70196189  0.93104384  1
  S  S17  1  0.50000000  0.29803811  0.06895616  1
  S  S18  1  0.50000000  0.42462172  0.81849479  1
  S  S19  1  0.50000000  0.57537828  0.18150521  1
  S  S20  1  0.50000000  0.92462172  0.68150521  1
  S  S21  1  0.50000000  0.07537828  0.31849479  1
  S  S22  1  0.50000000  0.50000000  0.50000000  1
  S  S23  1  0.50000000  0.00000000  0.00000000  1
