# generated using pymatgen
data_MnAs2O7
_symmetry_space_group_name_H-M   'P 1'
_cell_length_a   6.94237554
_cell_length_b   9.31318548
_cell_length_c   9.63071258
_cell_angle_alpha   90.00000000
_cell_angle_beta   105.70794793
_cell_angle_gamma   90.00000000
_symmetry_Int_Tables_number   1
_chemical_formula_structural   MnAs2O7
_chemical_formula_sum   'Mn4 As8 O28'
_cell_volume   599.42532438
_cell_formula_units_Z   4
loop_
 _symmetry_equiv_pos_site_id
 _symmetry_equiv_pos_as_xyz
  1  'x, y, z'
loop_
 _atom_site_type_symbol
 _atom_site_label
 _atom_site_symmetry_multiplicity
 _atom_site_fract_x
 _atom_site_fract_y
 _atom_site_fract_z
 _atom_site_occupancy
  Mn  Mn0  1  0.79956781  0.06612476  0.69736816  1
  Mn  Mn1  1  0.20043219  0.56612476  0.80263184  1
  Mn  Mn2  1  0.20043219  0.93387524  0.30263184  1
  Mn  Mn3  1  0.79956781  0.43387524  0.19736816  1
  As  As4  1  0.41019051  0.25133644  0.75071242  1
  As  As5  1  0.58980949  0.75133644  0.74928758  1
  As  As6  1  0.58980949  0.74866356  0.24928758  1
  As  As7  1  0.41019051  0.24866356  0.25071242  1
  As  As8  1  0.03117640  0.29561882  0.96396550  1
  As  As9  1  0.96882360  0.79561882  0.53603450  1
  As  As10  1  0.96882360  0.70438118  0.03603450  1
  As  As11  1  0.03117640  0.20438118  0.46396550  1
  O  O12  1  0.83867291  0.31406605  0.03983783  1
  O  O13  1  0.16132709  0.81406605  0.46016217  1
  O  O14  1  0.16132709  0.68593395  0.96016217  1
  O  O15  1  0.83867291  0.18593395  0.53983783  1
  O  O16  1  0.37768912  0.43397391  0.74331761  1
  O  O17  1  0.62231088  0.93397391  0.75668239  1
  O  O18  1  0.62231088  0.56602609  0.25668239  1
  O  O19  1  0.37768912  0.06602609  0.24331761  1
  O  O20  1  0.37308537  0.16173833  0.89742767  1
  O  O21  1  0.62691463  0.66173833  0.60257233  1
  O  O22  1  0.62691463  0.83826167  0.10257233  1
  O  O23  1  0.37308537  0.33826167  0.39742767  1
  O  O24  1  0.25359974  0.16087025  0.59856565  1
  O  O25  1  0.74640026  0.66087025  0.90143435  1
  O  O26  1  0.74640026  0.83912975  0.40143435  1
  O  O27  1  0.25359974  0.33912975  0.09856565  1
  O  O28  1  0.02777718  0.08091893  0.33151210  1
  O  O29  1  0.97222282  0.58091893  0.16848790  1
  O  O30  1  0.97222282  0.91908107  0.66848790  1
  O  O31  1  0.02777718  0.41908107  0.83151210  1
  O  O32  1  0.64621887  0.27302718  0.23396244  1
  O  O33  1  0.35378113  0.77302718  0.26603756  1
  O  O34  1  0.35378113  0.72697282  0.76603756  1
  O  O35  1  0.64621887  0.22697282  0.73396244  1
  O  O36  1  0.03342164  0.37218644  0.38792060  1
  O  O37  1  0.96657836  0.87218644  0.11207940  1
  O  O38  1  0.96657836  0.62781356  0.61207940  1
  O  O39  1  0.03342164  0.12781356  0.88792060  1
