# generated using pymatgen
data_LiNi(PO3)4
_symmetry_space_group_name_H-M   'P 1'
_cell_length_a   7.54325322
_cell_length_b   9.09041680
_cell_length_c   14.25597859
_cell_angle_alpha   90.00000000
_cell_angle_beta   95.09258723
_cell_angle_gamma   90.00000000
_symmetry_Int_Tables_number   1
_chemical_formula_structural   LiNi(PO3)4
_chemical_formula_sum   'Li4 Ni4 P16 O48'
_cell_volume   973.69238290
_cell_formula_units_Z   4
loop_
 _symmetry_equiv_pos_site_id
 _symmetry_equiv_pos_as_xyz
  1  'x, y, z'
loop_
 _atom_site_type_symbol
 _atom_site_label
 _atom_site_symmetry_multiplicity
 _atom_site_fract_x
 _atom_site_fract_y
 _atom_site_fract_z
 _atom_site_occupancy
  Li  Li0  1  0.01997385  0.57903849  0.91892009  1
  Li  Li1  1  0.48002615  0.07903849  0.58107991  1
  Li  Li2  1  0.51997385  0.92096151  0.41892009  1
  Li  Li3  1  0.98002615  0.42096151  0.08107991  1
  Ni  Ni4  1  0.00226118  0.63674983  0.35316231  1
  Ni  Ni5  1  0.50226118  0.86325017  0.85316231  1
  Ni  Ni6  1  0.49773882  0.13674983  0.14683769  1
  Ni  Ni7  1  0.99773882  0.36325017  0.64683769  1
  P  P8  1  0.05948484  0.28729269  0.42782295  1
  P  P9  1  0.12042721  0.05421441  0.77735175  1
  P  P10  1  0.18147602  0.23508499  0.95355007  1
  P  P11  1  0.22924947  0.06303817  0.30346291  1
  P  P12  1  0.31852398  0.73508499  0.54644993  1
  P  P13  1  0.37957279  0.55421441  0.72264825  1
  P  P14  1  0.27075053  0.56303817  0.19653709  1
  P  P15  1  0.55948484  0.21270731  0.92782295  1
  P  P16  1  0.44051516  0.78729269  0.07217705  1
  P  P17  1  0.72924947  0.43696183  0.80346291  1
  P  P18  1  0.62042721  0.44578559  0.27735175  1
  P  P19  1  0.68147602  0.26491501  0.45355007  1
  P  P20  1  0.77075053  0.93696183  0.69653709  1
  P  P21  1  0.81852398  0.76491501  0.04644993  1
  P  P22  1  0.87957279  0.94578559  0.22264825  1
  P  P23  1  0.94051516  0.71270731  0.57217705  1
  O  O24  1  0.07141652  0.37281055  0.95806820  1
  O  O25  1  0.07910728  0.12689738  0.87729270  1
  O  O26  1  0.04962096  0.05482337  0.23568861  1
  O  O27  1  0.10505023  0.30113816  0.53214567  1
  O  O28  1  0.11813897  0.16274060  0.69851670  1
  O  O29  1  0.13896502  0.77803275  0.59595182  1
  O  O30  1  0.08904627  0.42332455  0.37159068  1
  O  O31  1  0.21881866  0.45819028  0.70912072  1
  O  O32  1  0.17422708  0.15324167  0.39419989  1
  O  O33  1  0.14021309  0.65579627  0.24433748  1
  O  O34  1  0.28118134  0.95819028  0.79087928  1
  O  O35  1  0.29887865  0.91743413  0.33853817  1
  O  O36  1  0.27182731  0.65473384  0.45549276  1
  O  O37  1  0.36103498  0.27803275  0.90404818  1
  O  O38  1  0.38186103  0.66274060  0.80148330  1
  O  O39  1  0.39494977  0.80113816  0.96785433  1
  O  O40  1  0.22817269  0.15473384  0.04450724  1
  O  O41  1  0.20112135  0.41743413  0.16146183  1
  O  O42  1  0.42089272  0.62689738  0.62270730  1
  O  O43  1  0.35978691  0.15579627  0.25566252  1
  O  O44  1  0.42858348  0.87281055  0.54193180  1
  O  O45  1  0.32577292  0.65324167  0.10580011  1
  O  O46  1  0.54962096  0.44517663  0.73568861  1
  O  O47  1  0.41095373  0.92332455  0.12840932  1
  O  O48  1  0.58904627  0.07667545  0.87159068  1
  O  O49  1  0.45037904  0.55482337  0.26431139  1
  O  O50  1  0.67422708  0.34675833  0.89419989  1
  O  O51  1  0.57141652  0.12718945  0.45806820  1
  O  O52  1  0.64021309  0.84420373  0.74433748  1
  O  O53  1  0.57910728  0.37310262  0.37729270  1
  O  O54  1  0.79887865  0.58256587  0.83853817  1
  O  O55  1  0.77182731  0.84526616  0.95549276  1
  O  O56  1  0.60505023  0.19886184  0.03214567  1
  O  O57  1  0.61813897  0.33725940  0.19851670  1
  O  O58  1  0.63896502  0.72196725  0.09595182  1
  O  O59  1  0.72817269  0.34526616  0.54450724  1
  O  O60  1  0.70112135  0.08256587  0.66146183  1
  O  O61  1  0.71881866  0.04180972  0.20912072  1
  O  O62  1  0.85978691  0.34420373  0.75566252  1
  O  O63  1  0.82577292  0.84675833  0.60580011  1
  O  O64  1  0.78118134  0.54180972  0.29087928  1
  O  O65  1  0.91095373  0.57667545  0.62840932  1
  O  O66  1  0.86103498  0.22196725  0.40404818  1
  O  O67  1  0.88186103  0.83725940  0.30148330  1
  O  O68  1  0.89494977  0.69886184  0.46785433  1
  O  O69  1  0.95037904  0.94517663  0.76431139  1
  O  O70  1  0.92089272  0.87310262  0.12270730  1
  O  O71  1  0.92858348  0.62718945  0.04193180  1
