# generated using pymatgen
data_CsTlF3
_symmetry_space_group_name_H-M   'P 1'
_cell_length_a   4.78205016
_cell_length_b   4.78204942
_cell_length_c   4.78204991
_cell_angle_alpha   90.08065735
_cell_angle_beta   90.08065760
_cell_angle_gamma   90.08065736
_symmetry_Int_Tables_number   1
_chemical_formula_structural   CsTlF3
_chemical_formula_sum   'Cs1 Tl1 F3'
_cell_volume   109.35559275
_cell_formula_units_Z   1
loop_
 _symmetry_equiv_pos_site_id
 _symmetry_equiv_pos_as_xyz
  1  'x, y, z'
loop_
 _atom_site_type_symbol
 _atom_site_label
 _atom_site_symmetry_multiplicity
 _atom_site_fract_x
 _atom_site_fract_y
 _atom_site_fract_z
 _atom_site_occupancy
  Cs  Cs0  1  0.05393027  0.05393227  0.05393227  1
  Tl  Tl1  1  0.54721039  0.54721039  0.54721139  1
  F  F2  1  0.54317755  0.04650423  0.54317755  1
  F  F3  1  0.54317655  0.54317555  0.04650723  1
  F  F4  1  0.04650523  0.54317555  0.54317755  1
