# generated using pymatgen
data_CsTlF3
_symmetry_space_group_name_H-M   'P 1'
_cell_length_a   4.79672169
_cell_length_b   4.79687578
_cell_length_c   4.79599419
_cell_angle_alpha   89.84843159
_cell_angle_beta   89.70267465
_cell_angle_gamma   89.96216831
_symmetry_Int_Tables_number   1
_chemical_formula_structural   CsTlF3
_chemical_formula_sum   'Cs1 Tl1 F3'
_cell_volume   110.35046903
_cell_formula_units_Z   1
loop_
 _symmetry_equiv_pos_site_id
 _symmetry_equiv_pos_as_xyz
  1  'x, y, z'
loop_
 _atom_site_type_symbol
 _atom_site_label
 _atom_site_symmetry_multiplicity
 _atom_site_fract_x
 _atom_site_fract_y
 _atom_site_fract_z
 _atom_site_occupancy
  Cs  Cs0  1  0.98839930  0.99817069  0.99572720  1
  Tl  Tl1  1  0.48794570  0.49964296  0.49712080  1
  F  F2  1  0.48629377  0.99985736  0.49365930  1
  F  F3  1  0.98781145  0.50484295  0.50627795  1
  F  F4  1  0.48955277  0.49748705  0.99721675  1
