# generated using pymatgen
data_Ca3Ta2Mn2O12
_symmetry_space_group_name_H-M   'P 1'
_cell_length_a   5.32129326
_cell_length_b   5.51328351
_cell_length_c   7.76813507
_cell_angle_alpha   90.00000000
_cell_angle_beta   90.00000000
_cell_angle_gamma   90.23900488
_symmetry_Int_Tables_number   1
_chemical_formula_structural   Ca3Ta2Mn2O12
_chemical_formula_sum   'Ca3 Ta2 Mn2 O12'
_cell_volume   227.89799786
_cell_formula_units_Z   1
loop_
 _symmetry_equiv_pos_site_id
 _symmetry_equiv_pos_as_xyz
  1  'x, y, z'
loop_
 _atom_site_type_symbol
 _atom_site_label
 _atom_site_symmetry_multiplicity
 _atom_site_fract_x
 _atom_site_fract_y
 _atom_site_fract_z
 _atom_site_occupancy
  Ca  Ca0  1  0.01499282  0.96342473  0.25000000  1
  Ca  Ca1  1  0.51401750  0.55803022  0.75000000  1
  Ca  Ca2  1  0.98732919  0.03666476  0.75000000  1
  Ta  Ta3  1  0.00470180  0.49780563  0.00749502  1
  Ta  Ta4  1  0.00470180  0.49780563  0.49250498  1
  Mn  Mn5  1  0.50228802  0.00576796  0.00572642  1
  Mn  Mn6  1  0.50228802  0.00576796  0.49427358  1
  O  O7  1  0.78492775  0.79096887  0.53958790  1
  O  O8  1  0.28413499  0.72481485  0.46815656  1
  O  O9  1  0.20509005  0.20195010  0.46832282  1
  O  O10  1  0.71321053  0.28106078  0.95076823  1
  O  O11  1  0.07431649  0.48673193  0.75000000  1
  O  O12  1  0.71321053  0.28106078  0.54923177  1
  O  O13  1  0.28413499  0.72481485  0.03184344  1
  O  O14  1  0.78492775  0.79096887  0.96041210  1
  O  O15  1  0.58414898  0.02031925  0.25000000  1
  O  O16  1  0.20509005  0.20195010  0.03167718  1
  O  O17  1  0.42207203  0.97820330  0.75000000  1
  O  O18  1  0.92038970  0.51819841  0.25000000  1
