# generated using pymatgen
data_Li3Fe2(PO3)7
_symmetry_space_group_name_H-M   'P 1'
_cell_length_a   6.85411620
_cell_length_b   7.13161245
_cell_length_c   19.07468135
_cell_angle_alpha   87.93083967
_cell_angle_beta   100.28473420
_cell_angle_gamma   113.81173001
_symmetry_Int_Tables_number   1
_chemical_formula_structural   Li3Fe2(PO3)7
_chemical_formula_sum   'Li6 Fe4 P14 O42'
_cell_volume   838.64363952
_cell_formula_units_Z   2
loop_
 _symmetry_equiv_pos_site_id
 _symmetry_equiv_pos_as_xyz
  1  'x, y, z'
loop_
 _atom_site_type_symbol
 _atom_site_label
 _atom_site_symmetry_multiplicity
 _atom_site_fract_x
 _atom_site_fract_y
 _atom_site_fract_z
 _atom_site_occupancy
  Li  Li0  1  0.25456294  0.79530642  0.75638276  1
  Li  Li1  1  0.44355637  0.24260479  0.57318114  1
  Li  Li2  1  0.83828001  0.85774964  0.88007842  1
  Li  Li3  1  0.16171999  0.14225036  0.11992158  1
  Li  Li4  1  0.55644363  0.75739521  0.42681886  1
  Li  Li5  1  0.74543706  0.20469358  0.24361724  1
  Fe  Fe6  1  0.60471187  0.81373688  0.61682716  1
  Fe  Fe7  1  0.37679085  0.14049724  0.87382057  1
  Fe  Fe8  1  0.62320915  0.85950276  0.12617943  1
  Fe  Fe9  1  0.39528813  0.18626412  0.38317284  1
  P  P10  1  0.29712977  0.72704895  0.96500495  1
  P  P11  1  0.19141914  0.77648950  0.49797503  1
  P  P12  1  0.01774982  0.69430640  0.06862555  1
  P  P13  1  0.09140547  0.42599167  0.40023625  1
  P  P14  1  0.04245747  0.11155505  0.72172611  1
  P  P15  1  0.35465174  0.83240263  0.26866985  1
  P  P16  1  0.46510914  0.46328879  0.75014312  1
  P  P17  1  0.53489086  0.53671121  0.24985688  1
  P  P18  1  0.64534826  0.16759737  0.73133015  1
  P  P19  1  0.95754253  0.88844495  0.27827389  1
  P  P20  1  0.90859453  0.57400833  0.59976375  1
  P  P21  1  0.98225018  0.30569360  0.93137445  1
  P  P22  1  0.80858086  0.22351050  0.50202497  1
  P  P23  1  0.70287023  0.27295105  0.03499505  1
  O  O24  1  0.09786132  0.75609381  0.99112723  1
  O  O25  1  0.97794115  0.71644977  0.53248476  1
  O  O26  1  0.30864433  0.81906023  0.89279202  1
  O  O27  1  0.07147568  0.65305414  0.66576147  1
  O  O28  1  0.22151698  0.48325841  0.95716973  1
  O  O29  1  0.02365976  0.12695725  0.90830043  1
  O  O30  1  0.09269298  0.64661801  0.42275680  1
  O  O31  1  0.27753820  0.00161593  0.48596830  1
  O  O32  1  0.09667952  0.77475484  0.25342713  1
  O  O33  1  0.50000393  0.79876230  0.02086068  1
  O  O34  1  0.11585653  0.00567462  0.78468432  1
  O  O35  1  0.24955067  0.29668547  0.69930689  1
  O  O36  1  0.33826036  0.68691583  0.54145423  1
  O  O37  1  0.16371503  0.61359146  0.11395754  1
  O  O38  1  0.32643297  0.45865919  0.40442832  1
  O  O39  1  0.43289924  0.43480115  0.82626931  1
  O  O40  1  0.45362855  0.91675203  0.34479114  1
  O  O41  1  0.45988456  0.95888271  0.21027645  1
  O  O42  1  0.07765854  0.01785692  0.34439640  1
  O  O43  1  0.51526195  0.67065655  0.71979854  1
  O  O44  1  0.34760219  0.60593886  0.26384525  1
  O  O45  1  0.65239781  0.39406114  0.73615475  1
  O  O46  1  0.48473805  0.32934345  0.28020146  1
  O  O47  1  0.92234146  0.98214308  0.65560360  1
  O  O48  1  0.54011544  0.04111729  0.78972355  1
  O  O49  1  0.54637145  0.08324797  0.65520886  1
  O  O50  1  0.56710076  0.56519885  0.17373069  1
  O  O51  1  0.67356703  0.54134081  0.59557168  1
  O  O52  1  0.83628497  0.38640854  0.88604246  1
  O  O53  1  0.66173964  0.31308417  0.45854577  1
  O  O54  1  0.75044933  0.70331453  0.30069311  1
  O  O55  1  0.88414347  0.99432538  0.21531568  1
  O  O56  1  0.49999607  0.20123770  0.97913932  1
  O  O57  1  0.90332048  0.22524516  0.74657287  1
  O  O58  1  0.72246180  0.99838407  0.51403170  1
  O  O59  1  0.90730702  0.35338199  0.57724320  1
  O  O60  1  0.97634024  0.87304275  0.09169957  1
  O  O61  1  0.77848302  0.51674159  0.04283027  1
  O  O62  1  0.92852432  0.34694586  0.33423853  1
  O  O63  1  0.69135567  0.18093977  0.10720798  1
  O  O64  1  0.02205885  0.28355023  0.46751524  1
  O  O65  1  0.90213868  0.24390619  0.00887277  1
