# generated using pymatgen
data_MgFe2(SiO3)4
_symmetry_space_group_name_H-M   'P 1'
_cell_length_a   5.22163949
_cell_length_b   9.63553498
_cell_length_c   18.50604455
_cell_angle_alpha   90.00073878
_cell_angle_beta   90.00160244
_cell_angle_gamma   90.00036706
_symmetry_Int_Tables_number   1
_chemical_formula_structural   MgFe2(SiO3)4
_chemical_formula_sum   'Mg4 Fe8 Si16 O48'
_cell_volume   931.09998521
_cell_formula_units_Z   4
loop_
 _symmetry_equiv_pos_site_id
 _symmetry_equiv_pos_as_xyz
  1  'x, y, z'
loop_
 _atom_site_type_symbol
 _atom_site_label
 _atom_site_symmetry_multiplicity
 _atom_site_fract_x
 _atom_site_fract_y
 _atom_site_fract_z
 _atom_site_occupancy
  Mg  Mg0  1  0.39331658  0.83903467  0.37625565  1
  Mg  Mg1  1  0.10677087  0.83899086  0.87626814  1
  Mg  Mg2  1  0.39327808  0.33899035  0.12373745  1
  Mg  Mg3  1  0.10667896  0.33902181  0.62374853  1
  Fe  Fe4  1  0.37564170  0.02897456  0.12450859  1
  Fe  Fe5  1  0.61177495  0.97992651  0.87442227  1
  Fe  Fe6  1  0.88830680  0.97995928  0.37440465  1
  Fe  Fe7  1  0.12440257  0.02899962  0.62451509  1
  Fe  Fe8  1  0.37558872  0.52902244  0.37548102  1
  Fe  Fe9  1  0.61171085  0.48000065  0.62558942  1
  Fe  Fe10  1  0.88824982  0.47991765  0.12558153  1
  Fe  Fe11  1  0.12436473  0.52897903  0.87548834  1
  Si  Si12  1  0.57507568  0.65983174  0.22771555  1
  Si  Si13  1  0.72979916  0.83097395  0.52878327  1
  Si  Si14  1  0.77021671  0.83089606  0.02879327  1
  Si  Si15  1  0.92491978  0.15985436  0.77228541  1
  Si  Si16  1  0.08205106  0.33519077  0.27611810  1
  Si  Si17  1  0.41793816  0.83517605  0.72388673  1
  Si  Si18  1  0.22856765  0.66795236  0.52770342  1
  Si  Si19  1  0.72979493  0.33091394  0.97120527  1
  Si  Si20  1  0.77017776  0.33097022  0.47121733  1
  Si  Si21  1  0.92491431  0.65983443  0.72772142  1
  Si  Si22  1  0.41794762  0.33521239  0.77611495  1
  Si  Si23  1  0.57507704  0.15982909  0.27228390  1
  Si  Si24  1  0.27139056  0.16795720  0.47230036  1
  Si  Si25  1  0.08204704  0.83519028  0.22387877  1
  Si  Si26  1  0.27143831  0.66789405  0.02771176  1
  Si  Si27  1  0.22858395  0.16788880  0.97228014  1
  O  O28  1  0.90697290  0.50719013  0.68724070  1
  O  O29  1  0.31310232  0.02479980  0.92985656  1
  O  O30  1  0.09525131  0.48248360  0.31663616  1
  O  O31  1  0.70457201  0.36458624  0.05891114  1
  O  O32  1  0.25328029  0.17067365  0.06035773  1
  O  O33  1  0.92119678  0.19564239  0.95497463  1
  O  O34  1  0.95820437  0.66615539  0.81497094  1
  O  O35  1  0.08198166  0.85835211  0.31231648  1
  O  O36  1  0.70457792  0.86465564  0.44108151  1
  O  O37  1  0.95822997  0.16615486  0.68504050  1
  O  O38  1  0.40475260  0.48250677  0.81664650  1
  O  O39  1  0.79539889  0.36465162  0.55892110  1
  O  O40  1  0.64994098  0.95811286  0.07215584  1
  O  O41  1  0.41807702  0.85831501  0.81233203  1
  O  O42  1  0.59305245  0.00719407  0.31276225  1
  O  O43  1  0.31309182  0.52488112  0.57013977  1
  O  O44  1  0.40478681  0.98248652  0.68336983  1
  O  O45  1  0.16307135  0.75038322  0.69545928  1
  O  O46  1  0.33685280  0.75036321  0.19544742  1
  O  O47  1  0.57881500  0.69564589  0.04502527  1
  O  O48  1  0.79545187  0.86456895  0.94108621  1
  O  O49  1  0.54178116  0.66617329  0.31495962  1
  O  O50  1  0.85005473  0.45810619  0.92784507  1
  O  O51  1  0.16311622  0.25037656  0.80455274  1
  O  O52  1  0.24669639  0.17072103  0.56036843  1
  O  O53  1  0.54178411  0.16615145  0.18502913  1
  O  O54  1  0.64992553  0.45816029  0.42784493  1
  O  O55  1  0.25327416  0.67074117  0.43963348  1
  O  O56  1  0.18693766  0.52479676  0.07013740  1
  O  O57  1  0.65843320  0.73443232  0.70108749  1
  O  O58  1  0.09524705  0.98250067  0.18334881  1
  O  O59  1  0.84150800  0.73449577  0.20108613  1
  O  O60  1  0.84151523  0.23445715  0.29891029  1
  O  O61  1  0.85007276  0.95815641  0.57216154  1
  O  O62  1  0.24673272  0.67067924  0.93964487  1
  O  O63  1  0.18690685  0.02486452  0.42985844  1
  O  O64  1  0.33689887  0.25035808  0.30454239  1
  O  O65  1  0.06800122  0.79128173  0.05413714  1
  O  O66  1  0.43199092  0.79136984  0.55412196  1
  O  O67  1  0.65850635  0.23450102  0.79890760  1
  O  O68  1  0.43200088  0.29128893  0.94586715  1
  O  O69  1  0.57876528  0.19571378  0.45499156  1
  O  O70  1  0.06796391  0.29135081  0.44588023  1
  O  O71  1  0.41802343  0.35837054  0.68767555  1
  O  O72  1  0.59306818  0.50720094  0.18722432  1
  O  O73  1  0.92118179  0.69571054  0.54500667  1
  O  O74  1  0.08195880  0.35832249  0.18767183  1
  O  O75  1  0.90696916  0.00721234  0.81277305  1
