# generated using pymatgen
data_Zn3Bi2O7
_symmetry_space_group_name_H-M   'P 1'
_cell_length_a   5.55905089
_cell_length_b   5.66612280
_cell_length_c   10.41071368
_cell_angle_alpha   105.79101305
_cell_angle_beta   90.00000000
_cell_angle_gamma   90.00000000
_symmetry_Int_Tables_number   1
_chemical_formula_structural   Zn3Bi2O7
_chemical_formula_sum   'Zn6 Bi4 O14'
_cell_volume   315.54396573
_cell_formula_units_Z   2
loop_
 _symmetry_equiv_pos_site_id
 _symmetry_equiv_pos_as_xyz
  1  'x, y, z'
loop_
 _atom_site_type_symbol
 _atom_site_label
 _atom_site_symmetry_multiplicity
 _atom_site_fract_x
 _atom_site_fract_y
 _atom_site_fract_z
 _atom_site_occupancy
  Zn  Zn0  1  0.74543549  0.73842712  1.00000000  1
  Zn  Zn1  1  0.24543549  0.26157288  0.00000000  1
  Zn  Zn2  1  0.78302278  0.58515092  0.57978779  1
  Zn  Zn3  1  0.28302278  0.41484908  0.42021221  1
  Zn  Zn4  1  0.78302278  0.00536213  0.42021221  1
  Zn  Zn5  1  0.28302278  0.99463787  0.57978779  1
  Bi  Bi6  1  0.75465528  0.36498794  0.20969250  1
  Bi  Bi7  1  0.25465528  0.63501206  0.79030750  1
  Bi  Bi8  1  0.25465528  0.84470457  0.20969250  1
  Bi  Bi9  1  0.75465528  0.15529543  0.79030750  1
  O  O10  1  0.64569233  0.92305235  0.58437623  1
  O  O11  1  0.14569233  0.07694765  0.41562377  1
  O  O12  1  0.14569233  0.66132288  0.58437623  1
  O  O13  1  0.64569233  0.33867712  0.41562377  1
  O  O14  1  0.09184448  0.25586544  0.70788625  1
  O  O15  1  0.59184448  0.74413456  0.29211375  1
  O  O16  1  0.59184448  0.45202081  0.70788625  1
  O  O17  1  0.09184448  0.54797919  0.29211375  1
  O  O18  1  0.90997516  0.83645168  0.85120867  1
  O  O19  1  0.40997516  0.16354832  0.14879133  1
  O  O20  1  0.90418644  0.39915946  0.00000000  1
  O  O21  1  0.40418644  0.60084054  1.00000000  1
  O  O22  1  0.90997516  0.98524301  0.14879133  1
  O  O23  1  0.40997516  0.01475699  0.85120867  1
