# generated using pymatgen
data_Mg2NiN2
_symmetry_space_group_name_H-M   'P 1'
_cell_length_a   4.21796469
_cell_length_b   5.54257238
_cell_length_c   6.24786167
_cell_angle_alpha   66.26575754
_cell_angle_beta   70.28770746
_cell_angle_gamma   67.56645488
_symmetry_Int_Tables_number   1
_chemical_formula_structural   Mg2NiN2
_chemical_formula_sum   'Mg4 Ni2 N4'
_cell_volume   120.64430478
_cell_formula_units_Z   2
loop_
 _symmetry_equiv_pos_site_id
 _symmetry_equiv_pos_as_xyz
  1  'x, y, z'
loop_
 _atom_site_type_symbol
 _atom_site_label
 _atom_site_symmetry_multiplicity
 _atom_site_fract_x
 _atom_site_fract_y
 _atom_site_fract_z
 _atom_site_occupancy
  Mg  Mg0  1  0.67330591  0.22327935  0.42290749  1
  Mg  Mg1  1  0.31765441  0.78495577  0.57415101  1
  Mg  Mg2  1  0.03452512  0.67350816  0.25352514  1
  Mg  Mg3  1  0.95898445  0.33044815  0.74466069  1
  Ni  Ni4  1  0.36903936  0.13113191  0.12262041  1
  Ni  Ni5  1  0.62304708  0.86858336  0.87731783  1
  N  N6  1  0.17793622  0.24092177  0.39900327  1
  N  N7  1  0.81726328  0.76100332  0.59916141  1
  N  N8  1  0.46737812  0.26167727  0.79662524  1
  N  N9  1  0.52795205  0.73652994  0.20171551  1
