# generated using pymatgen
data_Mg(CoO2)2
_symmetry_space_group_name_H-M   'P 1'
_cell_length_a   2.82956429
_cell_length_b   8.69342712
_cell_length_c   10.01413256
_cell_angle_alpha   89.99184209
_cell_angle_beta   90.00001359
_cell_angle_gamma   90.00005982
_symmetry_Int_Tables_number   1
_chemical_formula_structural   Mg(CoO2)2
_chemical_formula_sum   'Mg4 Co8 O16'
_cell_volume   246.33374841
_cell_formula_units_Z   4
loop_
 _symmetry_equiv_pos_site_id
 _symmetry_equiv_pos_as_xyz
  1  'x, y, z'
loop_
 _atom_site_type_symbol
 _atom_site_label
 _atom_site_symmetry_multiplicity
 _atom_site_fract_x
 _atom_site_fract_y
 _atom_site_fract_z
 _atom_site_occupancy
  Mg  Mg0  1  0.74999978  0.75910495  0.66177657  1
  Mg  Mg1  1  0.24999898  0.24084551  0.33824575  1
  Mg  Mg2  1  0.75000064  0.25911803  0.83827188  1
  Mg  Mg3  1  0.24999891  0.74092190  0.16172684  1
  Co  Co4  1  0.75000053  0.94906699  0.88255169  1
  Co  Co5  1  0.24999968  0.05095614  0.11741097  1
  Co  Co6  1  0.74999995  0.44905742  0.61743086  1
  Co  Co7  1  0.24999992  0.55093430  0.38255721  1
  Co  Co8  1  0.75000013  0.90710641  0.40333039  1
  Co  Co9  1  0.24999961  0.09285711  0.59666693  1
  Co  Co10  1  0.74999975  0.40713360  0.09672146  1
  Co  Co11  1  0.24999963  0.59282863  0.90332317  1
  O  O12  1  0.75000116  0.69367824  0.32871045  1
  O  O13  1  0.24999930  0.30633877  0.67126143  1
  O  O14  1  0.75000069  0.19362516  0.17126124  1
  O  O15  1  0.24999964  0.80634892  0.82873225  1
  O  O16  1  0.75000029  0.61693285  0.03854230  1
  O  O17  1  0.24999978  0.38307492  0.96145498  1
  O  O18  1  0.75000101  0.11692903  0.46143180  1
  O  O19  1  0.24999922  0.88306332  0.53858877  1
  O  O20  1  0.74999991  0.55525245  0.78420058  1
  O  O21  1  0.25000054  0.44470871  0.21581666  1
  O  O22  1  0.74999987  0.05528544  0.71578416  1
  O  O23  1  0.25000057  0.94478605  0.28417265  1
  O  O24  1  0.74999869  0.90812466  0.07054407  1
  O  O25  1  0.25000175  0.09187375  0.92947852  1
  O  O26  1  0.74999865  0.40812392  0.42948215  1
  O  O27  1  0.25000142  0.59192282  0.57052427  1
