# generated using pymatgen
data_Mg2MnN2
_symmetry_space_group_name_H-M   'P 1'
_cell_length_a   4.34430645
_cell_length_b   5.45703118
_cell_length_c   6.33445230
_cell_angle_alpha   62.73649260
_cell_angle_beta   69.94567641
_cell_angle_gamma   66.54387813
_symmetry_Int_Tables_number   1
_chemical_formula_structural   Mg2MnN2
_chemical_formula_sum   'Mg4 Mn2 N4'
_cell_volume   120.05999442
_cell_formula_units_Z   2
loop_
 _symmetry_equiv_pos_site_id
 _symmetry_equiv_pos_as_xyz
  1  'x, y, z'
loop_
 _atom_site_type_symbol
 _atom_site_label
 _atom_site_symmetry_multiplicity
 _atom_site_fract_x
 _atom_site_fract_y
 _atom_site_fract_z
 _atom_site_occupancy
  Mg  Mg0  1  0.67306287  0.25151067  0.40236459  1
  Mg  Mg1  1  0.32693713  0.74848933  0.59763541  1
  Mg  Mg2  1  0.02192981  0.70585446  0.25028492  1
  Mg  Mg3  1  0.97807019  0.29414554  0.74971508  1
  Mn  Mn4  1  0.36349211  0.15038432  0.12263245  1
  Mn  Mn5  1  0.63650789  0.84961568  0.87736755  1
  N  N6  1  0.18050502  0.24935320  0.38963776  1
  N  N7  1  0.81949498  0.75064680  0.61036224  1
  N  N8  1  0.48529215  0.25079742  0.77861828  1
  N  N9  1  0.51470785  0.74920258  0.22138172  1
