# generated using pymatgen
data_MgTi2(PO5)2
_symmetry_space_group_name_H-M   'P 1'
_cell_length_a   6.72734632
_cell_length_b   6.72734617
_cell_length_c   8.99840205
_cell_angle_alpha   102.33881556
_cell_angle_beta   102.33881896
_cell_angle_gamma   115.36204744
_symmetry_Int_Tables_number   1
_chemical_formula_structural   MgTi2(PO5)2
_chemical_formula_sum   'Mg2 Ti4 P4 O20'
_cell_volume   337.31850113
_cell_formula_units_Z   2
loop_
 _symmetry_equiv_pos_site_id
 _symmetry_equiv_pos_as_xyz
  1  'x, y, z'
loop_
 _atom_site_type_symbol
 _atom_site_label
 _atom_site_symmetry_multiplicity
 _atom_site_fract_x
 _atom_site_fract_y
 _atom_site_fract_z
 _atom_site_occupancy
  Mg  Mg0  1  0.50409909  0.00409909  0.50000000  1
  Mg  Mg1  1  0.25409909  0.25409909  0.00000000  1
  Ti  Ti2  1  0.88010442  0.61615169  0.26284002  1
  Ti  Ti3  1  0.35331167  0.61726340  0.73715998  1
  Ti  Ti4  1  0.86726340  0.10331167  0.23715998  1
  Ti  Ti5  1  0.86615169  0.63010442  0.76284002  1
  P  P6  1  0.03412598  0.03717357  0.58283858  1
  P  P7  1  0.70128739  0.20433499  0.91716142  1
  P  P8  1  0.45433499  0.45128739  0.41716142  1
  P  P9  1  0.28717357  0.78412598  0.08283858  1
  O  O10  1  0.58708322  0.55498031  0.30806445  1
  O  O11  1  0.66092882  0.66521097  0.83809040  1
  O  O12  1  0.30406293  0.58462018  0.97169310  1
  O  O13  1  0.80498031  0.33708322  0.80806445  1
  O  O14  1  0.21510770  0.24280206  0.30032901  1
  O  O15  1  0.42943769  0.64962943  0.52586249  1
  O  O16  1  0.07283842  0.57712057  0.66190960  1
  O  O17  1  0.82712057  0.82283842  0.16190960  1
  O  O18  1  0.91521097  0.41092882  0.33809040  1
  O  O19  1  0.16477868  0.69247305  0.19967099  1
  O  O20  1  0.24691586  0.27901977  0.69193555  1
  O  O21  1  0.49280206  0.96510770  0.80032901  1
  O  O22  1  0.94247305  0.91477868  0.69967099  1
  O  O23  1  0.15357620  0.87376795  0.97413751  1
  O  O24  1  0.12376795  0.90357620  0.47413751  1
  O  O25  1  0.89962943  0.17943769  0.02586249  1
  O  O26  1  0.83462018  0.05406293  0.47169310  1
  O  O27  1  0.61292608  0.33236983  0.02830690  1
  O  O28  1  0.52901977  0.99691586  0.19193555  1
  O  O29  1  0.58236983  0.36292608  0.52830690  1
