# generated using pymatgen
data_Mg2CrSbO6
_symmetry_space_group_name_H-M   'P 1'
_cell_length_a   5.17034602
_cell_length_b   5.36153289
_cell_length_c   7.63488148
_cell_angle_alpha   90.00000000
_cell_angle_beta   90.00000000
_cell_angle_gamma   90.51400997
_symmetry_Int_Tables_number   1
_chemical_formula_structural   Mg2CrSbO6
_chemical_formula_sum   'Mg4 Cr2 Sb2 O12'
_cell_volume   211.63788179
_cell_formula_units_Z   2
loop_
 _symmetry_equiv_pos_site_id
 _symmetry_equiv_pos_as_xyz
  1  'x, y, z'
loop_
 _atom_site_type_symbol
 _atom_site_label
 _atom_site_symmetry_multiplicity
 _atom_site_fract_x
 _atom_site_fract_y
 _atom_site_fract_z
 _atom_site_occupancy
  Mg  Mg0  1  0.51883947  0.57158756  0.75000000  1
  Mg  Mg1  1  0.48116053  0.42841244  0.25000000  1
  Mg  Mg2  1  0.00485748  0.03773631  0.75000000  1
  Mg  Mg3  1  0.99514252  0.96226369  0.25000000  1
  Cr  Cr4  1  0.50000000  0.00000000  0.50000000  1
  Cr  Cr5  1  0.50000000  0.00000000  0.00000000  1
  Sb  Sb6  1  0.00000000  0.50000000  0.50000000  1
  Sb  Sb7  1  0.00000000  0.50000000  0.00000000  1
  O  O8  1  0.31787667  0.67958952  0.43000662  1
  O  O9  1  0.17592513  0.18882110  0.06989046  1
  O  O10  1  0.68212333  0.32041048  0.93000662  1
  O  O11  1  0.82407487  0.81117890  0.56989046  1
  O  O12  1  0.17592513  0.18882110  0.43010954  1
  O  O13  1  0.82407487  0.81117890  0.93010954  1
  O  O14  1  0.86223061  0.57190402  0.25000000  1
  O  O15  1  0.31787667  0.67958952  0.06999338  1
  O  O16  1  0.37553220  0.92906016  0.75000000  1
  O  O17  1  0.68212333  0.32041048  0.56999338  1
  O  O18  1  0.13776939  0.42809598  0.75000000  1
  O  O19  1  0.62446780  0.07093984  0.25000000  1
