# generated using pymatgen
data_Al5(NiO4)3
_symmetry_space_group_name_H-M   'P 1'
_cell_length_a   5.67111765
_cell_length_b   5.67111806
_cell_length_c   17.15776946
_cell_angle_alpha   59.53850001
_cell_angle_beta   59.53849382
_cell_angle_gamma   61.32762310
_symmetry_Int_Tables_number   1
_chemical_formula_structural   Al5(NiO4)3
_chemical_formula_sum   'Al10 Ni6 O24'
_cell_volume   391.13200443
_cell_formula_units_Z   2
loop_
 _symmetry_equiv_pos_site_id
 _symmetry_equiv_pos_as_xyz
  1  'x, y, z'
loop_
 _atom_site_type_symbol
 _atom_site_label
 _atom_site_symmetry_multiplicity
 _atom_site_fract_x
 _atom_site_fract_y
 _atom_site_fract_z
 _atom_site_occupancy
  Al  Al0  1  0.11631169  0.11631169  0.04222381  1
  Al  Al1  1  0.11903292  0.11903292  0.38056670  1
  Al  Al2  1  0.11854306  0.11854306  0.70867904  1
  Al  Al3  1  0.49964610  0.49964610  0.99440105  1
  Al  Al4  1  0.50035390  0.50035390  0.67226595  1
  Al  Al5  1  0.49705337  0.49705337  0.17450224  1
  Al  Al6  1  0.50294663  0.50294663  0.49216476  1
  Al  Al7  1  0.88096708  0.88096708  0.28610030  1
  Al  Al8  1  0.88368831  0.88368831  0.62444319  1
  Al  Al9  1  0.88145694  0.88145694  0.95798696  1
  Ni  Ni10  1  0.49676120  0.99510044  0.16953211  1
  Ni  Ni11  1  0.50323880  0.00489956  0.49713489  1
  Ni  Ni12  1  0.50000000  0.00000000  0.83333300  1
  Ni  Ni13  1  0.99510044  0.49676120  0.16953211  1
  Ni  Ni14  1  0.00489956  0.50323880  0.49713489  1
  Ni  Ni15  1  0.00000000  0.50000000  0.83333300  1
  O  O16  1  0.25672027  0.25672027  0.08160911  1
  O  O17  1  0.24372805  0.24372805  0.42594486  1
  O  O18  1  0.25939671  0.25939671  0.74440148  1
  O  O19  1  0.26341002  0.71946796  0.08685862  1
  O  O20  1  0.24680207  0.73874567  0.42640458  1
  O  O21  1  0.24685404  0.73900502  0.74363261  1
  O  O22  1  0.25771586  0.25771586  0.25028143  1
  O  O23  1  0.26356565  0.26356565  0.57848875  1
  O  O24  1  0.24240287  0.24240287  0.91286609  1
  O  O25  1  0.71946796  0.26341002  0.08685862  1
  O  O26  1  0.73874567  0.24680307  0.42640458  1
  O  O27  1  0.73900502  0.24685404  0.74363261  1
  O  O28  1  0.26125433  0.75319693  0.24026142  1
  O  O29  1  0.28053204  0.73659098  0.57980838  1
  O  O30  1  0.26099498  0.75314596  0.92303439  1
  O  O31  1  0.75319793  0.26125433  0.24026142  1
  O  O32  1  0.73659098  0.28053204  0.57980838  1
  O  O33  1  0.75314696  0.26099498  0.92303439  1
  O  O34  1  0.73643435  0.73643435  0.08817825  1
  O  O35  1  0.74228414  0.74228414  0.41638557  1
  O  O36  1  0.75759713  0.75759713  0.75379991  1
  O  O37  1  0.75627195  0.75627195  0.24072214  1
  O  O38  1  0.74327973  0.74327973  0.58505689  1
  O  O39  1  0.74060329  0.74060329  0.92226552  1
