# generated using pymatgen
data_Sr6YTl3(Cu2O7)3
_symmetry_space_group_name_H-M   'P 1'
_cell_length_a   3.67834715
_cell_length_b   11.03246645
_cell_length_c   12.74075129
_cell_angle_alpha   90.00000000
_cell_angle_beta   90.00000000
_cell_angle_gamma   90.00000000
_symmetry_Int_Tables_number   1
_chemical_formula_structural   Sr6YTl3(Cu2O7)3
_chemical_formula_sum   'Sr6 Y1 Tl3 Cu6 O21'
_cell_volume   517.03550529
_cell_formula_units_Z   1
loop_
 _symmetry_equiv_pos_site_id
 _symmetry_equiv_pos_as_xyz
  1  'x, y, z'
loop_
 _atom_site_type_symbol
 _atom_site_label
 _atom_site_symmetry_multiplicity
 _atom_site_fract_x
 _atom_site_fract_y
 _atom_site_fract_z
 _atom_site_occupancy
  Sr  Sr0  1  0.50000000  0.16596308  0.79298616  1
  Sr  Sr1  1  0.50000000  0.50000000  0.79397819  1
  Sr  Sr2  1  0.50000000  0.83403692  0.79298616  1
  Sr  Sr3  1  0.50000000  0.16596308  0.20701384  1
  Sr  Sr4  1  0.50000000  0.50000000  0.20602181  1
  Sr  Sr5  1  0.50000000  0.83403692  0.20701384  1
  Y  Y6  1  0.50000000  0.50000000  0.50000000  1
  Tl  Tl7  1  0.00000000  0.00000000  0.00000000  1
  Tl  Tl8  1  0.00000000  0.33192909  0.00000000  1
  Tl  Tl9  1  0.00000000  0.66807091  0.00000000  1
  Cu  Cu10  1  0.00000000  0.00000000  0.61071000  1
  Cu  Cu11  1  0.00000000  0.31982143  0.62174994  1
  Cu  Cu12  1  0.00000000  0.68017857  0.62174994  1
  Cu  Cu13  1  0.00000000  0.00000000  0.38929000  1
  Cu  Cu14  1  0.00000000  0.31982143  0.37825006  1
  Cu  Cu15  1  0.00000000  0.68017857  0.37825006  1
  O  O16  1  0.50000000  0.00000000  0.63774690  1
  O  O17  1  0.50000000  0.34472818  0.62851425  1
  O  O18  1  0.50000000  0.65527182  0.62851425  1
  O  O19  1  0.00000000  0.15980681  0.65303292  1
  O  O20  1  0.00000000  0.50000000  0.61215189  1
  O  O21  1  0.00000000  0.84019319  0.65303292  1
  O  O22  1  0.50000000  0.00000000  0.36225310  1
  O  O23  1  0.50000000  0.34472818  0.37148575  1
  O  O24  1  0.50000000  0.65527182  0.37148575  1
  O  O25  1  0.00000000  0.15980681  0.34696708  1
  O  O26  1  0.00000000  0.50000000  0.38784811  1
  O  O27  1  0.00000000  0.84019319  0.34696708  1
  O  O28  1  0.00000000  0.00000000  0.83895064  1
  O  O29  1  0.00000000  0.33586061  0.83351301  1
  O  O30  1  0.00000000  0.66413939  0.83351301  1
  O  O31  1  0.00000000  0.00000000  0.16104936  1
  O  O32  1  0.00000000  0.33586061  0.16648699  1
  O  O33  1  0.00000000  0.66413939  0.16648699  1
  O  O34  1  0.50000000  0.17280262  0.00000000  1
  O  O35  1  0.50000000  0.50000000  0.00000000  1
  O  O36  1  0.50000000  0.82719738  0.00000000  1
