# generated using pymatgen
data_Ca2CrN2
_symmetry_space_group_name_H-M   'P 1'
_cell_length_a   5.00983912
_cell_length_b   6.02244582
_cell_length_c   6.63783030
_cell_angle_alpha   63.23104029
_cell_angle_beta   67.82911950
_cell_angle_gamma   65.42206834
_symmetry_Int_Tables_number   1
_chemical_formula_structural   Ca2CrN2
_chemical_formula_sum   'Ca4 Cr2 N4'
_cell_volume   158.09235571
_cell_formula_units_Z   2
loop_
 _symmetry_equiv_pos_site_id
 _symmetry_equiv_pos_as_xyz
  1  'x, y, z'
loop_
 _atom_site_type_symbol
 _atom_site_label
 _atom_site_symmetry_multiplicity
 _atom_site_fract_x
 _atom_site_fract_y
 _atom_site_fract_z
 _atom_site_occupancy
  Ca  Ca0  1  0.68059632  0.25246353  0.38634483  1
  Ca  Ca1  1  0.31940368  0.74753647  0.61365517  1
  Ca  Ca2  1  0.03843439  0.70401697  0.21911324  1
  Ca  Ca3  1  0.96156561  0.29598303  0.78088676  1
  Cr  Cr4  1  0.36840254  0.12864449  0.13455143  1
  Cr  Cr5  1  0.63159746  0.87135551  0.86544857  1
  N  N6  1  0.19377320  0.24059038  0.37186422  1
  N  N7  1  0.80622680  0.75940962  0.62813578  1
  N  N8  1  0.48833613  0.22161850  0.80170924  1
  N  N9  1  0.51166387  0.77838150  0.19829076  1
