# generated using pymatgen
data_Zn(CuO2)2
_symmetry_space_group_name_H-M   'P 1'
_cell_length_a   5.94035473
_cell_length_b   5.95818234
_cell_length_c   23.73324950
_cell_angle_alpha   59.86124451
_cell_angle_beta   60.04239251
_cell_angle_gamma   59.90067467
_symmetry_Int_Tables_number   1
_chemical_formula_structural   Zn(CuO2)2
_chemical_formula_sum   'Zn8 Cu16 O32'
_cell_volume   593.09320087
_cell_formula_units_Z   8
loop_
 _symmetry_equiv_pos_site_id
 _symmetry_equiv_pos_as_xyz
  1  'x, y, z'
loop_
 _atom_site_type_symbol
 _atom_site_label
 _atom_site_symmetry_multiplicity
 _atom_site_fract_x
 _atom_site_fract_y
 _atom_site_fract_z
 _atom_site_occupancy
  Zn  Zn0  1  0.14406352  0.11983874  0.02906525  1
  Zn  Zn1  1  0.00039320  0.49985825  0.12497207  1
  Zn  Zn2  1  0.14074635  0.11644444  0.28159094  1
  Zn  Zn3  1  0.00022258  0.49817918  0.37585476  1
  Zn  Zn4  1  0.00032360  0.50001720  0.62491025  1
  Zn  Zn5  1  0.50059232  0.50045762  0.49962336  1
  Zn  Zn6  1  0.00013775  0.50181415  0.87405849  1
  Zn  Zn7  1  0.49944980  0.49931959  0.75047725  1
  Cu  Cu8  1  0.49974183  0.49970268  0.12507028  1
  Cu  Cu9  1  0.49993276  0.50008410  0.24997451  1
  Cu  Cu10  1  0.49974183  0.00027436  0.12507028  1
  Cu  Cu11  1  0.13091005  0.11758899  0.53347774  1
  Cu  Cu12  1  0.49969144  0.49873989  0.37499836  1
  Cu  Cu13  1  0.86890646  0.87708417  0.21923130  1
  Cu  Cu14  1  0.13354788  0.12072126  0.78125240  1
  Cu  Cu15  1  0.49969144  0.00157625  0.37499836  1
  Cu  Cu16  1  0.49999161  0.50007117  0.62488112  1
  Cu  Cu17  1  0.86718950  0.87960357  0.46840059  1
  Cu  Cu18  1  0.49999161  0.00041275  0.62488112  1
  Cu  Cu19  1  0.50089059  0.99939184  0.87447589  1
  Cu  Cu20  1  0.50089059  0.50181402  0.87447589  1
  Cu  Cu21  1  0.86861945  0.88210822  0.71679053  1
  Cu  Cu22  1  0.50019256  0.49920844  0.00034789  1
  Cu  Cu23  1  0.86928118  0.87853746  0.96841072  1
  O  O24  1  0.27947995  0.25411351  0.06371555  1
  O  O25  1  0.27909076  0.25291617  0.17876923  1
  O  O26  1  0.27947995  0.71154633  0.06371555  1
  O  O27  1  0.73703816  0.25495842  0.06326150  1
  O  O28  1  0.25633041  0.74740560  0.18721410  1
  O  O29  1  0.28081434  0.25523986  0.31421953  1
  O  O30  1  0.71699999  0.28317818  0.18762106  1
  O  O31  1  0.27012040  0.24709953  0.43391963  1
  O  O32  1  0.28081434  0.70706768  0.31421953  1
  O  O33  1  0.71625817  0.75017322  0.07084860  1
  O  O34  1  0.72914909  0.25450260  0.31546193  1
  O  O35  1  0.71699999  0.74933760  0.18762106  1
  O  O36  1  0.26998872  0.24261780  0.56726486  1
  O  O37  1  0.26269026  0.75565120  0.43150158  1
  O  O38  1  0.73177849  0.27903612  0.43225262  1
  O  O39  1  0.26976850  0.24935494  0.68288065  1
  O  O40  1  0.26998872  0.71833305  0.56726486  1
  O  O41  1  0.72331243  0.75077650  0.31878339  1
  O  O42  1  0.73463473  0.24839083  0.56714590  1
  O  O43  1  0.73177849  0.76017592  0.43225262  1
  O  O44  1  0.26413787  0.75183384  0.68304836  1
  O  O45  1  0.26901151  0.23978974  0.81688459  1
  O  O46  1  0.73057186  0.28046259  0.68276987  1
  O  O47  1  0.28113139  0.25526634  0.92708348  1
  O  O48  1  0.26901151  0.72365840  0.81688459  1
  O  O49  1  0.73132233  0.75099158  0.56667388  1
  O  O50  1  0.74432297  0.24696228  0.81543812  1
  O  O51  1  0.73057186  0.75788809  0.68276987  1
  O  O52  1  0.25934272  0.74421124  0.93805895  1
  O  O53  1  0.71784914  0.28437847  0.93737409  1
  O  O54  1  0.72322292  0.75156006  0.81841399  1
  O  O55  1  0.71784914  0.74827501  0.93737409  1
