# generated using pymatgen
data_CaV5O7
_symmetry_space_group_name_H-M   'P 1'
_cell_length_a   3.09697074
_cell_length_b   5.39420726
_cell_length_c   18.11935039
_cell_angle_alpha   90.00000000
_cell_angle_beta   90.00000000
_cell_angle_gamma   106.68229283
_symmetry_Int_Tables_number   1
_chemical_formula_structural   CaV5O7
_chemical_formula_sum   'Ca2 V10 O14'
_cell_volume   289.95635523
_cell_formula_units_Z   2
loop_
 _symmetry_equiv_pos_site_id
 _symmetry_equiv_pos_as_xyz
  1  'x, y, z'
loop_
 _atom_site_type_symbol
 _atom_site_label
 _atom_site_symmetry_multiplicity
 _atom_site_fract_x
 _atom_site_fract_y
 _atom_site_fract_z
 _atom_site_occupancy
  Ca  Ca0  1  0.79025759  0.58051319  0.75000000  1
  Ca  Ca1  1  0.20974341  0.41948581  0.25000000  1
  V  V2  1  0.27363620  0.54727039  0.57500138  1
  V  V3  1  0.45827887  0.91655674  0.15188335  1
  V  V4  1  -0.00000000  -0.00000000  0.50000000  1
  V  V5  1  -0.00000000  -0.00000000  0.00000000  1
  V  V6  1  0.54172113  0.08344226  0.84811765  1
  V  V7  1  0.72636380  0.45272861  0.42499862  1
  V  V8  1  0.72636380  0.45272861  0.07500138  1
  V  V9  1  0.27363620  0.54727039  0.92499862  1
  V  V10  1  0.54172113  0.08344226  0.65188235  1
  V  V11  1  0.45827887  0.91655674  0.34811765  1
  O  O12  1  0.63327826  0.26655552  0.96014990  1
  O  O13  1  0.36672274  0.73344548  0.03985010  1
  O  O14  1  0.36672274  0.73344548  0.46014990  1
  O  O15  1  0.63327826  0.26655552  0.53985010  1
  O  O16  1  0.16741795  0.33483789  0.82704283  1
  O  O17  1  0.83258205  0.66516211  0.17295717  1
  O  O18  1  0.83258205  0.66516211  0.32704383  1
  O  O19  1  0.16741795  0.33483789  0.67295717  1
  O  O20  1  0.91636327  0.83272554  0.88955935  1
  O  O21  1  0.08363673  0.16727446  0.11044065  1
  O  O22  1  0.08363673  0.16727446  0.38955935  1
  O  O23  1  0.91636327  0.83272554  0.61044065  1
  O  O24  1  0.45921184  0.91842467  0.75000000  1
  O  O25  1  0.54078916  0.08157733  0.25000000  1
