# generated using pymatgen
data_Mg3Cu2(Si2O7)2
_symmetry_space_group_name_H-M   'P 1'
_cell_length_a   7.63564677
_cell_length_b   9.41061703
_cell_length_c   9.41986839
_cell_angle_alpha   63.80493061
_cell_angle_beta   66.09039918
_cell_angle_gamma   66.06542405
_symmetry_Int_Tables_number   1
_chemical_formula_structural   Mg3Cu2(Si2O7)2
_chemical_formula_sum   'Mg6 Cu4 Si8 O28'
_cell_volume   533.59685859
_cell_formula_units_Z   2
loop_
 _symmetry_equiv_pos_site_id
 _symmetry_equiv_pos_as_xyz
  1  'x, y, z'
loop_
 _atom_site_type_symbol
 _atom_site_label
 _atom_site_symmetry_multiplicity
 _atom_site_fract_x
 _atom_site_fract_y
 _atom_site_fract_z
 _atom_site_occupancy
  Mg  Mg0  1  0.92959416  0.87844991  0.45171452  1
  Mg  Mg1  1  0.25975859  0.62155009  0.04828548  1
  Mg  Mg2  1  0.74024141  0.37844991  0.95171452  1
  Mg  Mg3  1  0.60849211  0.25000000  0.75000000  1
  Mg  Mg4  1  0.07040584  0.12155009  0.54828548  1
  Mg  Mg5  1  0.39150789  0.75000000  0.25000000  1
  Cu  Cu6  1  0.21998204  0.25000000  0.75000000  1
  Cu  Cu7  1  0.78001796  0.75000000  0.25000000  1
  Cu  Cu8  1  0.00000000  0.00000000  0.00000000  1
  Cu  Cu9  1  0.00000000  0.50000000  0.50000000  1
  Si  Si10  1  0.44174913  0.30078271  0.32940743  1
  Si  Si11  1  0.92805973  0.80078271  0.82940743  1
  Si  Si12  1  0.48796780  0.89447303  0.87043020  1
  Si  Si13  1  0.74712998  0.39447303  0.37043020  1
  Si  Si14  1  0.07194027  0.19921729  0.17059257  1
  Si  Si15  1  0.51203220  0.10552697  0.12956980  1
  Si  Si16  1  0.25287002  0.60552697  0.62956980  1
  Si  Si17  1  0.55825087  0.69921729  0.67059257  1
  O  O18  1  0.18157293  0.68387418  0.46163805  1
  O  O19  1  0.01494242  0.59311747  0.27847805  1
  O  O20  1  0.54760931  0.90767039  0.18023802  1
  O  O21  1  0.11346206  0.09311747  0.77847805  1
  O  O22  1  0.78579373  0.69201173  0.54464915  1
  O  O23  1  0.92822338  0.37394152  0.20335061  1
  O  O24  1  0.36448128  0.40767039  0.68023802  1
  O  O25  1  0.02245460  0.80798827  0.95535085  1
  O  O26  1  0.07177662  0.62605848  0.79664939  1
  O  O27  1  0.39839704  0.71970415  0.58333760  1
  O  O28  1  0.98505758  0.40688253  0.72152195  1
  O  O29  1  0.21420627  0.30798827  0.45535085  1
  O  O30  1  0.50551651  0.12605848  0.29664939  1
  O  O31  1  0.67291384  0.18387418  0.96163805  1
  O  O32  1  0.29856121  0.21970415  0.08333760  1
  O  O33  1  0.97754540  0.19201173  0.04464915  1
  O  O34  1  0.07528642  0.04994799  0.34253645  1
  O  O35  1  0.60160296  0.28029585  0.41666240  1
  O  O36  1  0.46776986  0.45005201  0.15746355  1
  O  O37  1  0.70143879  0.78029585  0.91666240  1
  O  O38  1  0.49448349  0.87394152  0.70335061  1
  O  O39  1  0.88653794  0.90688253  0.22152195  1
  O  O40  1  0.53223014  0.54994799  0.84253645  1
  O  O41  1  0.45239069  0.09232961  0.81976198  1
  O  O42  1  0.92471358  0.95005201  0.65746355  1
  O  O43  1  0.63551872  0.59232961  0.31976198  1
  O  O44  1  0.32708616  0.81612582  0.03836195  1
  O  O45  1  0.81842707  0.31612582  0.53836195  1
