# generated using pymatgen
data_MgTiF5
_symmetry_space_group_name_H-M   'P 1'
_cell_length_a   5.27383097
_cell_length_b   7.45088030
_cell_length_c   9.80203703
_cell_angle_alpha   90.00000000
_cell_angle_beta   90.00000000
_cell_angle_gamma   109.41919275
_symmetry_Int_Tables_number   1
_chemical_formula_structural   MgTiF5
_chemical_formula_sum   'Mg4 Ti4 F20'
_cell_volume   363.25625225
_cell_formula_units_Z   4
loop_
 _symmetry_equiv_pos_site_id
 _symmetry_equiv_pos_as_xyz
  1  'x, y, z'
loop_
 _atom_site_type_symbol
 _atom_site_label
 _atom_site_symmetry_multiplicity
 _atom_site_fract_x
 _atom_site_fract_y
 _atom_site_fract_z
 _atom_site_occupancy
  Mg  Mg0  1  0.48059434  0.75285954  0.00969443  1
  Mg  Mg1  1  0.51940566  0.74714046  0.50969443  1
  Mg  Mg2  1  0.51940566  0.24714046  0.99030557  1
  Mg  Mg3  1  0.48059434  0.25285954  0.49030557  1
  Ti  Ti4  1  0.90405850  0.60464336  0.75415530  1
  Ti  Ti5  1  0.09594150  0.89535664  0.25415530  1
  Ti  Ti6  1  0.09594150  0.39535664  0.24584470  1
  Ti  Ti7  1  0.90405850  0.10464336  0.74584470  1
  F  F8  1  0.61094059  0.58002960  0.88979751  1
  F  F9  1  0.38905941  0.91997040  0.38979751  1
  F  F10  1  0.38905941  0.41997040  0.11020249  1
  F  F11  1  0.61094059  0.08002960  0.61020249  1
  F  F12  1  0.64482761  0.49143094  0.60606100  1
  F  F13  1  0.35517239  0.00856906  0.10606100  1
  F  F14  1  0.35517239  0.50856906  0.39393900  1
  F  F15  1  0.64482761  0.99143094  0.89393900  1
  F  F16  1  0.84342826  0.80395050  0.40107472  1
  F  F17  1  0.15657174  0.69604950  0.90107472  1
  F  F18  1  0.15657174  0.19604950  0.59892528  1
  F  F19  1  0.84342826  0.30395050  0.09892528  1
  F  F20  1  0.78096760  0.83804110  0.13490047  1
  F  F21  1  0.21903240  0.66195890  0.63490047  1
  F  F22  1  0.21903240  0.16195890  0.86509953  1
  F  F23  1  0.78096760  0.33804110  0.36509953  1
  F  F24  1  0.82026232  0.83263238  0.67791680  1
  F  F25  1  0.17973768  0.66736762  0.17791680  1
  F  F26  1  0.17973768  0.16736762  0.32208320  1
  F  F27  1  0.82026232  0.33263238  0.82208320  1
