# generated using pymatgen
data_Ca2Ni2O5
_symmetry_space_group_name_H-M   'P 1'
_cell_length_a   3.78554737
_cell_length_b   5.35035579
_cell_length_c   10.31448369
_cell_angle_alpha   90.00342152
_cell_angle_beta   90.00002157
_cell_angle_gamma   90.00003276
_symmetry_Int_Tables_number   1
_chemical_formula_structural   Ca2Ni2O5
_chemical_formula_sum   'Ca4 Ni4 O10'
_cell_volume   208.90981332
_cell_formula_units_Z   2
loop_
 _symmetry_equiv_pos_site_id
 _symmetry_equiv_pos_as_xyz
  1  'x, y, z'
loop_
 _atom_site_type_symbol
 _atom_site_label
 _atom_site_symmetry_multiplicity
 _atom_site_fract_x
 _atom_site_fract_y
 _atom_site_fract_z
 _atom_site_occupancy
  Ca  Ca0  1  0.50000061  0.19546223  0.87050008  1
  Ca  Ca1  1  0.50000056  0.80460042  0.12942751  1
  Ca  Ca2  1  0.50000058  0.69534754  0.62959495  1
  Ca  Ca3  1  0.50000068  0.30458662  0.37048650  1
  Ni  Ni4  1  -0.00000058  0.22852658  0.62586770  1
  Ni  Ni5  1  0.00000246  0.77149058  0.37413169  1
  Ni  Ni6  1  -0.00000043  0.27137439  0.12591726  1
  Ni  Ni7  1  -0.00000005  0.72860567  0.87409743  1
  O  O8  1  0.00000061  0.49997300  0.49998106  1
  O  O9  1  0.00000020  0.08002921  0.28816144  1
  O  O10  1  0.00000046  0.58003179  0.21181154  1
  O  O11  1  0.00000010  0.41995142  0.78813809  1
  O  O12  1  0.50000015  0.29020857  0.10089473  1
  O  O13  1  0.50000048  0.70963746  0.89913407  1
  O  O14  1  0.00000077  0.91995237  0.71181076  1
  O  O15  1  0.50000009  0.20981766  0.60085513  1
  O  O16  1  0.00000053  0.00008926  0.99998714  1
  O  O17  1  0.50000079  0.79031424  0.39920291  1
