# generated using pymatgen
data_MgNiBiP2O9
_symmetry_space_group_name_H-M   'P 1'
_cell_length_a   6.61688963
_cell_length_b   7.74618573
_cell_length_c   14.21493826
_cell_angle_alpha   90.02620005
_cell_angle_beta   89.97577303
_cell_angle_gamma   90.03179598
_symmetry_Int_Tables_number   1
_chemical_formula_structural   MgNiBiP2O9
_chemical_formula_sum   'Mg4 Ni4 Bi4 P8 O36'
_cell_volume   728.59573235
_cell_formula_units_Z   4
loop_
 _symmetry_equiv_pos_site_id
 _symmetry_equiv_pos_as_xyz
  1  'x, y, z'
loop_
 _atom_site_type_symbol
 _atom_site_label
 _atom_site_symmetry_multiplicity
 _atom_site_fract_x
 _atom_site_fract_y
 _atom_site_fract_z
 _atom_site_occupancy
  Mg  Mg0  1  0.75071384  0.95728607  0.79811219  1
  Mg  Mg1  1  0.75019886  0.54378540  0.29806565  1
  Mg  Mg2  1  0.24943163  0.04268339  0.20185320  1
  Mg  Mg3  1  0.24975188  0.45621456  0.70190276  1
  Ni  Ni4  1  0.50009475  0.00017504  0.00007076  1
  Ni  Ni5  1  0.50003355  0.49997028  0.49997144  1
  Ni  Ni6  1  0.00018016  0.50013506  0.49996206  1
  Ni  Ni7  1  0.00025209  0.99994822  0.00006604  1
  Bi  Bi8  1  0.75045552  0.36717155  0.88310804  1
  Bi  Bi9  1  0.24942374  0.63274494  0.11684257  1
  Bi  Bi10  1  0.25068176  0.86654176  0.61676504  1
  Bi  Bi11  1  0.74928387  0.13345505  0.38323804  1
  P  P12  1  0.25007650  0.34145332  0.90566621  1
  P  P13  1  0.74979871  0.65862634  0.09438945  1
  P  P14  1  0.75038751  0.84094506  0.59410292  1
  P  P15  1  0.24958729  0.15903442  0.40594766  1
  P  P16  1  0.74987391  0.35847095  0.67714855  1
  P  P17  1  0.25013228  0.64138832  0.32281293  1
  P  P18  1  0.25008893  0.85905135  0.82319766  1
  P  P19  1  0.74984990  0.14093205  0.17678842  1
  O  O20  1  0.04859241  0.63608574  0.37924562  1
  O  O21  1  0.54864465  0.36428557  0.62097572  1
  O  O22  1  0.95103322  0.13488342  0.12033427  1
  O  O23  1  0.45159448  0.86494420  0.87961913  1
  O  O24  1  0.95143070  0.36401354  0.62078806  1
  O  O25  1  0.45138005  0.63563672  0.37899444  1
  O  O26  1  0.04881579  0.86500832  0.87961801  1
  O  O27  1  0.54828039  0.13521350  0.12044256  1
  O  O28  1  0.24937218  0.33038336  0.45961206  1
  O  O29  1  0.75081844  0.66957092  0.54041900  1
  O  O30  1  0.74965590  0.83075455  0.04065418  1
  O  O31  1  0.25027467  0.16923126  0.95933055  1
  O  O32  1  0.75213597  0.09668691  0.92822326  1
  O  O33  1  0.24833336  0.90351130  0.07179159  1
  O  O34  1  0.25020500  0.59754521  0.57342637  1
  O  O35  1  0.74982865  0.40245636  0.42656349  1
  O  O36  1  0.74981048  0.19506051  0.74121406  1
  O  O37  1  0.25018271  0.80493862  0.25879084  1
  O  O38  1  0.24900599  0.69534767  0.75963420  1
  O  O39  1  0.75087835  0.30463041  0.24035487  1
  O  O40  1  0.42641586  0.14378093  0.33354501  1
  O  O41  1  0.92759608  0.85746736  0.66598796  1
  O  O42  1  0.57270029  0.64357553  0.16626024  1
  O  O43  1  0.07356820  0.35628781  0.83341319  1
  O  O44  1  0.57347454  0.85605962  0.66642618  1
  O  O45  1  0.07227416  0.14263169  0.33407681  1
  O  O46  1  0.42718717  0.35632396  0.83367281  1
  O  O47  1  0.92622284  0.64381143  0.16659426  1
  O  O48  1  0.74971984  0.98356287  0.24762320  1
  O  O49  1  0.25041104  0.01642867  0.75236125  1
  O  O50  1  0.24962025  0.48326128  0.25265674  1
  O  O51  1  0.75024025  0.51672981  0.74740574  1
  O  O52  1  0.74916090  0.99904267  0.52844570  1
  O  O53  1  0.25088022  0.00095570  0.47156502  1
  O  O54  1  0.24930946  0.49817791  0.97161509  1
  O  O55  1  0.75064785  0.50170254  0.02830794  1
