# generated using pymatgen
data_Al2V3(SiO4)3
_symmetry_space_group_name_H-M   'P 1'
_cell_length_a   10.17775690
_cell_length_b   10.17775648
_cell_length_c   10.17775660
_cell_angle_alpha   109.47122085
_cell_angle_beta   109.47122001
_cell_angle_gamma   109.47122208
_symmetry_Int_Tables_number   1
_chemical_formula_structural   Al2V3(SiO4)3
_chemical_formula_sum   'Al8 V12 Si12 O48'
_cell_volume   811.58552632
_cell_formula_units_Z   4
loop_
 _symmetry_equiv_pos_site_id
 _symmetry_equiv_pos_as_xyz
  1  'x, y, z'
loop_
 _atom_site_type_symbol
 _atom_site_label
 _atom_site_symmetry_multiplicity
 _atom_site_fract_x
 _atom_site_fract_y
 _atom_site_fract_z
 _atom_site_occupancy
  Al  Al0  1  0.50000000  0.00000000  0.00000000  1
  Al  Al1  1  0.00000000  0.00000000  0.00000000  1
  Al  Al2  1  0.00000000  0.50000000  0.00000000  1
  Al  Al3  1  0.00000000  0.00000000  0.50000000  1
  Al  Al4  1  0.00000000  0.50000000  0.50000100  1
  Al  Al5  1  0.50000000  0.00000000  0.50000100  1
  Al  Al6  1  0.50000000  0.50000000  0.00000000  1
  Al  Al7  1  0.50000000  0.50000000  0.50000000  1
  V  V8  1  0.25000000  0.87500100  0.62500000  1
  V  V9  1  0.87500000  0.62500000  0.25000000  1
  V  V10  1  0.62500100  0.87500100  0.75000100  1
  V  V11  1  0.87500100  0.75000100  0.62500100  1
  V  V12  1  0.62500000  0.25000000  0.87500000  1
  V  V13  1  0.75000000  0.62500000  0.87500000  1
  V  V14  1  0.75000000  0.12500000  0.37500000  1
  V  V15  1  0.12500000  0.37500000  0.75000000  1
  V  V16  1  0.37500000  0.12500000  0.25000000  1
  V  V17  1  0.12500000  0.25000000  0.37500000  1
  V  V18  1  0.37500000  0.75000100  0.12500000  1
  V  V19  1  0.25000000  0.37500000  0.12500000  1
  Si  Si20  1  0.25000000  0.12500000  0.87500000  1
  Si  Si21  1  0.87500000  0.25000000  0.12500000  1
  Si  Si22  1  0.62500000  0.75000100  0.37500000  1
  Si  Si23  1  0.25000000  0.62500000  0.37500100  1
  Si  Si24  1  0.37500000  0.62500000  0.75000000  1
  Si  Si25  1  0.75000000  0.37500000  0.62500000  1
  Si  Si26  1  0.87500000  0.12500000  0.75000000  1
  Si  Si27  1  0.12500000  0.75000100  0.87500000  1
  Si  Si28  1  0.12500000  0.87500100  0.25000000  1
  Si  Si29  1  0.62500000  0.37500000  0.25000000  1
  Si  Si30  1  0.37500000  0.25000000  0.62500000  1
  Si  Si31  1  0.75000000  0.87500100  0.12500000  1
  O  O32  1  0.30024042  0.48774755  0.38170967  1
  O  O33  1  0.01225245  0.31249287  0.89396212  1
  O  O34  1  0.11829033  0.60603788  0.91853075  1
  O  O35  1  0.19975858  0.58146925  0.18750713  1
  O  O36  1  0.19975858  0.11828933  0.01225145  1
  O  O37  1  0.58146825  0.18750613  0.19975858  1
  O  O38  1  0.60603688  0.18750613  0.48774755  1
  O  O39  1  0.18750713  0.19975858  0.58147025  1
  O  O40  1  0.89396312  0.38170967  0.58146925  1
  O  O41  1  0.31249387  0.91853075  0.30024142  1
  O  O42  1  0.91853075  0.30024142  0.31249387  1
  O  O43  1  0.01225245  0.19975858  0.11828933  1
  O  O44  1  0.18750713  0.48774755  0.60603788  1
  O  O45  1  0.58146925  0.89396312  0.38171067  1
  O  O46  1  0.11828933  0.01225145  0.19975858  1
  O  O47  1  0.48774755  0.60603788  0.18750613  1
  O  O48  1  0.38170967  0.58146925  0.89396212  1
  O  O49  1  0.89396212  0.01225145  0.31249287  1
  O  O50  1  0.60603688  0.91853075  0.11829033  1
  O  O51  1  0.10603688  0.61828933  0.41853075  1
  O  O52  1  0.48774755  0.38170967  0.30024042  1
  O  O53  1  0.38170967  0.30024142  0.48774755  1
  O  O54  1  0.31249387  0.89396312  0.01225245  1
  O  O55  1  0.30024042  0.31249287  0.91852975  1
  O  O56  1  0.69975858  0.51225145  0.61829033  1
  O  O57  1  0.98774755  0.68750613  0.10603688  1
  O  O58  1  0.88171067  0.39396312  0.08146925  1
  O  O59  1  0.80024142  0.41853075  0.81249387  1
  O  O60  1  0.80024042  0.88171067  0.98774855  1
  O  O61  1  0.41853075  0.81249287  0.80024042  1
  O  O62  1  0.39396312  0.81249287  0.51225145  1
  O  O63  1  0.81249387  0.80024142  0.41853075  1
  O  O64  1  0.69975858  0.68750613  0.08146925  1
  O  O65  1  0.68750713  0.10603788  0.98774755  1
  O  O66  1  0.61828933  0.69975958  0.51225245  1
  O  O67  1  0.51225245  0.61828933  0.69975858  1
  O  O68  1  0.08146925  0.88171067  0.39396212  1
  O  O69  1  0.39396212  0.08146825  0.88170967  1
  O  O70  1  0.10603788  0.98774755  0.68750613  1
  O  O71  1  0.61829033  0.41853075  0.10603688  1
  O  O72  1  0.51225245  0.39396312  0.81249387  1
  O  O73  1  0.88171067  0.98774755  0.80024142  1
  O  O74  1  0.41853175  0.10603788  0.61829033  1
  O  O75  1  0.81249287  0.51225145  0.39396312  1
  O  O76  1  0.98774755  0.80024142  0.88171067  1
  O  O77  1  0.08147025  0.69975958  0.68750713  1
  O  O78  1  0.68750613  0.08146825  0.69975858  1
  O  O79  1  0.91853075  0.11828933  0.60603688  1
