# generated using pymatgen
data_Mg3V2(Si2O7)2
_symmetry_space_group_name_H-M   'P 1'
_cell_length_a   7.68667307
_cell_length_b   9.49700324
_cell_length_c   9.24822157
_cell_angle_alpha   63.51061573
_cell_angle_beta   65.44442051
_cell_angle_gamma   66.12833353
_symmetry_Int_Tables_number   1
_chemical_formula_structural   Mg3V2(Si2O7)2
_chemical_formula_sum   'Mg6 V4 Si8 O28'
_cell_volume   529.27497062
_cell_formula_units_Z   2
loop_
 _symmetry_equiv_pos_site_id
 _symmetry_equiv_pos_as_xyz
  1  'x, y, z'
loop_
 _atom_site_type_symbol
 _atom_site_label
 _atom_site_symmetry_multiplicity
 _atom_site_fract_x
 _atom_site_fract_y
 _atom_site_fract_z
 _atom_site_occupancy
  Mg  Mg0  1  0.91821667  0.90481868  0.44852959  1
  Mg  Mg1  1  0.27156494  0.59518132  0.05147041  1
  Mg  Mg2  1  0.72843506  0.40481868  0.94852959  1
  Mg  Mg3  1  0.61142176  0.25000000  0.75000000  1
  Mg  Mg4  1  0.08178333  0.09518132  0.55147041  1
  Mg  Mg5  1  0.38857824  0.75000000  0.25000000  1
  V  V6  1  0.20223300  0.25000000  0.75000000  1
  V  V7  1  0.79776700  0.75000000  0.25000000  1
  V  V8  1  0.00000000  0.00000000  0.00000000  1
  V  V9  1  0.00000000  0.50000000  0.50000000  1
  Si  Si10  1  0.46589897  0.29105597  0.34309362  1
  Si  Si11  1  0.89995044  0.79105597  0.84309362  1
  Si  Si12  1  0.48009368  0.89603388  0.86214073  1
  Si  Si13  1  0.76173271  0.39603388  0.36214073  1
  Si  Si14  1  0.10004956  0.20894403  0.15690638  1
  Si  Si15  1  0.51990632  0.10396612  0.13785927  1
  Si  Si16  1  0.23826729  0.60396612  0.63785927  1
  Si  Si17  1  0.53410103  0.70894403  0.65690638  1
  O  O18  1  0.15270821  0.67427871  0.47189535  1
  O  O19  1  0.04227600  0.57735557  0.25953588  1
  O  O20  1  0.53330961  0.91497096  0.18258159  1
  O  O21  1  0.12083255  0.07735557  0.75953588  1
  O  O22  1  0.74739692  0.68689039  0.51328868  1
  O  O23  1  0.93362622  0.37721858  0.18552651  1
  O  O24  1  0.36913684  0.41497096  0.68258159  1
  O  O25  1  0.94757599  0.81310961  0.98671132  1
  O  O26  1  0.06637378  0.62278142  0.81447349  1
  O  O27  1  0.35902397  0.74119040  0.57851667  1
  O  O28  1  0.95772400  0.42264443  0.74046412  1
  O  O29  1  0.25260308  0.31310961  0.48671132  1
  O  O30  1  0.49637231  0.12278142  0.31447349  1
  O  O31  1  0.70111674  0.17427871  0.97189535  1
  O  O32  1  0.32126895  0.24119040  0.07851667  1
  O  O33  1  0.05242401  0.18689039  0.01328868  1
  O  O34  1  0.09124829  0.06231045  0.33814673  1
  O  O35  1  0.64097603  0.25880960  0.42148333  1
  O  O36  1  0.49170447  0.43768955  0.16185327  1
  O  O37  1  0.67873105  0.75880960  0.92148333  1
  O  O38  1  0.50362769  0.87721858  0.68552651  1
  O  O39  1  0.87916745  0.92264443  0.24046412  1
  O  O40  1  0.50829553  0.56231045  0.83814673  1
  O  O41  1  0.46669039  0.08502904  0.81741841  1
  O  O42  1  0.90875171  0.93768955  0.66185327  1
  O  O43  1  0.63086316  0.58502904  0.31741841  1
  O  O44  1  0.29888326  0.82572129  0.02810465  1
  O  O45  1  0.84729179  0.32572129  0.52810465  1
