# generated using pymatgen
data_Ca3Ga2(FeO5)2
_symmetry_space_group_name_H-M   'P 1'
_cell_length_a   5.49973682
_cell_length_b   5.81426253
_cell_length_c   13.92537889
_cell_angle_alpha   91.54140730
_cell_angle_beta   89.98727312
_cell_angle_gamma   89.99359695
_symmetry_Int_Tables_number   1
_chemical_formula_structural   Ca3Ga2(FeO5)2
_chemical_formula_sum   'Ca6 Ga4 Fe4 O20'
_cell_volume   445.12949560
_cell_formula_units_Z   2
loop_
 _symmetry_equiv_pos_site_id
 _symmetry_equiv_pos_as_xyz
  1  'x, y, z'
loop_
 _atom_site_type_symbol
 _atom_site_label
 _atom_site_symmetry_multiplicity
 _atom_site_fract_x
 _atom_site_fract_y
 _atom_site_fract_z
 _atom_site_occupancy
  Ca  Ca0  1  0.51975829  0.04574350  0.11428903  1
  Ca  Ca1  1  0.47866791  0.95217607  0.88886693  1
  Ca  Ca2  1  0.48362395  0.97105914  0.59253119  1
  Ca  Ca3  1  0.02176049  0.45209101  0.38884139  1
  Ca  Ca4  1  0.01603964  0.47086688  0.09245525  1
  Ca  Ca5  1  0.98003736  0.54569098  0.61432548  1
  Ga  Ga6  1  0.43713254  0.41574496  0.75153572  1
  Ga  Ga7  1  0.06270708  0.91565242  0.25154339  1
  Ga  Ga8  1  0.94246363  0.09989681  0.75396675  1
  Ga  Ga9  1  0.55759795  0.59998511  0.25397813  1
  Fe  Fe10  1  0.51043914  0.49188494  0.99470071  1
  Fe  Fe11  1  0.50304948  0.48543148  0.49741259  1
  Fe  Fe12  1  0.98929623  0.99172147  0.49469621  1
  Fe  Fe13  1  0.99703157  0.98522937  0.99736421  1
  O  O14  1  0.39646122  0.87489569  0.24717311  1
  O  O15  1  0.22292546  0.75058307  0.48580492  1
  O  O16  1  0.27728691  0.25043634  0.98587964  1
  O  O17  1  0.52034767  0.56887949  0.86352338  1
  O  O18  1  0.75553192  0.21840975  0.98475234  1
  O  O19  1  0.73709640  0.74206048  0.02159051  1
  O  O20  1  0.74460807  0.71836159  0.48478079  1
  O  O21  1  0.97140482  0.07909955  0.14215934  1
  O  O22  1  0.90385159  0.62472406  0.24717799  1
  O  O23  1  0.10345167  0.37481398  0.74715088  1
  O  O24  1  0.76282739  0.24202895  0.52173375  1
  O  O25  1  0.47960009  0.43792838  0.13818333  1
  O  O26  1  0.52848635  0.57927532  0.64220052  1
  O  O27  1  0.59621433  0.12480706  0.74718070  1
  O  O28  1  0.25006336  0.27819917  0.52357063  1
  O  O29  1  0.97941396  0.06886208  0.36355236  1
  O  O30  1  0.03556162  0.93619053  0.86085120  1
  O  O31  1  0.24991548  0.77783257  0.02354341  1
  O  O32  1  0.46466446  0.43625647  0.36089830  1
  O  O33  1  0.02071196  0.93786633  0.63815493  1
