# generated using pymatgen
data_Mg2SbMoO6
_symmetry_space_group_name_H-M   'P 1'
_cell_length_a   5.34283924
_cell_length_b   5.46457935
_cell_length_c   7.81609813
_cell_angle_alpha   90.00000000
_cell_angle_beta   90.00000000
_cell_angle_gamma   89.40962726
_symmetry_Int_Tables_number   1
_chemical_formula_structural   Mg2SbMoO6
_chemical_formula_sum   'Mg4 Sb2 Mo2 O12'
_cell_volume   228.18957108
_cell_formula_units_Z   2
loop_
 _symmetry_equiv_pos_site_id
 _symmetry_equiv_pos_as_xyz
  1  'x, y, z'
loop_
 _atom_site_type_symbol
 _atom_site_label
 _atom_site_symmetry_multiplicity
 _atom_site_fract_x
 _atom_site_fract_y
 _atom_site_fract_z
 _atom_site_occupancy
  Mg  Mg0  1  0.50742953  0.55512445  0.75000000  1
  Mg  Mg1  1  0.49257047  0.44487555  0.25000000  1
  Mg  Mg2  1  0.01297203  0.03131819  0.75000000  1
  Mg  Mg3  1  0.98702797  0.96868181  0.25000000  1
  Sb  Sb4  1  0.00000000  0.50000000  0.50000000  1
  Sb  Sb5  1  0.00000000  0.50000000  0.00000000  1
  Mo  Mo6  1  0.50000000  0.00000000  0.50000000  1
  Mo  Mo7  1  0.50000000  0.00000000  0.00000000  1
  O  O8  1  0.31360518  0.66420405  0.42935805  1
  O  O9  1  0.15682719  0.18633464  0.07136449  1
  O  O10  1  0.68639482  0.33579595  0.92935805  1
  O  O11  1  0.84317281  0.81366536  0.57136449  1
  O  O12  1  0.15682719  0.18633464  0.42863551  1
  O  O13  1  0.84317281  0.81366536  0.92863551  1
  O  O14  1  0.86219462  0.58340318  0.25000000  1
  O  O15  1  0.31360518  0.66420405  0.07064195  1
  O  O16  1  0.36725343  0.90566586  0.75000000  1
  O  O17  1  0.68639482  0.33579595  0.57064195  1
  O  O18  1  0.13780538  0.41659682  0.75000000  1
  O  O19  1  0.63274657  0.09433414  0.25000000  1
