# generated using pymatgen
data_YTe(WO4)2
_symmetry_space_group_name_H-M   'P 1'
_cell_length_a   5.13829218
_cell_length_b   6.59951905
_cell_length_c   11.00033098
_cell_angle_alpha   75.09369872
_cell_angle_beta   95.13725684
_cell_angle_gamma   89.25134580
_symmetry_Int_Tables_number   1
_chemical_formula_structural   YTe(WO4)2
_chemical_formula_sum   'Y2 Te2 W4 O16'
_cell_volume   358.77034701
_cell_formula_units_Z   2
loop_
 _symmetry_equiv_pos_site_id
 _symmetry_equiv_pos_as_xyz
  1  'x, y, z'
loop_
 _atom_site_type_symbol
 _atom_site_label
 _atom_site_symmetry_multiplicity
 _atom_site_fract_x
 _atom_site_fract_y
 _atom_site_fract_z
 _atom_site_occupancy
  Y  Y0  1  0.21709415  0.72992570  0.27476914  1
  Y  Y1  1  0.78312741  0.26982597  0.72528499  1
  Te  Te2  1  0.71196869  0.35516103  0.24927284  1
  Te  Te3  1  0.28814361  0.64481083  0.75070380  1
  W  W4  1  0.24394154  0.14839144  0.49388612  1
  W  W5  1  0.24788836  0.14999771  0.00201860  1
  W  W6  1  0.75656724  0.85128491  0.50605722  1
  W  W7  1  0.75152348  0.85043658  0.99805677  1
  O  O8  1  0.39271417  0.30545995  0.10055709  1
  O  O9  1  0.06373270  0.39893697  0.36546702  1
  O  O10  1  0.60673010  0.69487835  0.89958468  1
  O  O11  1  0.93670791  0.60067688  0.63443838  1
  O  O12  1  0.44943662  0.87176884  0.60835495  1
  O  O13  1  0.00909071  0.97596606  0.88948774  1
  O  O14  1  0.55105375  0.12788809  0.39155285  1
  O  O15  1  0.99020169  0.02450287  0.11048325  1
  O  O16  1  0.92229299  0.63231273  0.12530234  1
  O  O17  1  0.59137219  0.71256784  0.39890411  1
  O  O18  1  0.07731493  0.36815500  0.87477173  1
  O  O19  1  0.40916984  0.28708963  0.60102303  1
  O  O20  1  0.45647263  0.87204848  0.10056249  1
  O  O21  1  0.54289981  0.12828321  0.89951686  1
  O  O22  1  0.07991500  0.92509314  0.40845922  1
  O  O23  1  0.92063748  0.07453581  0.59148578  1
