# generated using pymatgen
data_Mn2Zn3(Si2O7)2
_symmetry_space_group_name_H-M   'P 1'
_cell_length_a   7.76952154
_cell_length_b   9.64711999
_cell_length_c   9.21037961
_cell_angle_alpha   63.67181934
_cell_angle_beta   65.05293489
_cell_angle_gamma   66.25379317
_symmetry_Int_Tables_number   1
_chemical_formula_structural   Mn2Zn3(Si2O7)2
_chemical_formula_sum   'Mn4 Zn6 Si8 O28'
_cell_volume   540.90110784
_cell_formula_units_Z   2
loop_
 _symmetry_equiv_pos_site_id
 _symmetry_equiv_pos_as_xyz
  1  'x, y, z'
loop_
 _atom_site_type_symbol
 _atom_site_label
 _atom_site_symmetry_multiplicity
 _atom_site_fract_x
 _atom_site_fract_y
 _atom_site_fract_z
 _atom_site_occupancy
  Mn  Mn0  1  0.21070321  0.25000000  0.75000000  1
  Mn  Mn1  1  0.78929679  0.75000000  0.25000000  1
  Mn  Mn2  1  0.00000000  0.00000000  0.00000000  1
  Mn  Mn3  1  0.00000000  0.50000000  0.50000000  1
  Zn  Zn4  1  0.94415536  0.89412551  0.43696571  1
  Zn  Zn5  1  0.27524658  0.60587449  0.06303429  1
  Zn  Zn6  1  0.72475342  0.39412551  0.93696571  1
  Zn  Zn7  1  0.60426682  0.25000000  0.75000000  1
  Zn  Zn8  1  0.05584464  0.10587449  0.56303429  1
  Zn  Zn9  1  0.39573318  0.75000000  0.25000000  1
  Si  Si10  1  0.46003321  0.29607275  0.33504724  1
  Si  Si11  1  0.90884579  0.79607275  0.83504724  1
  Si  Si12  1  0.48503751  0.89566210  0.86424447  1
  Si  Si13  1  0.75505692  0.39566210  0.36424447  1
  Si  Si14  1  0.09115421  0.20392725  0.16495276  1
  Si  Si15  1  0.51496249  0.10433790  0.13575553  1
  Si  Si16  1  0.24494308  0.60433790  0.63575553  1
  Si  Si17  1  0.53996679  0.70392725  0.66495276  1
  O  O18  1  0.17344954  0.67533124  0.46287580  1
  O  O19  1  0.03450335  0.58820043  0.26206491  1
  O  O20  1  0.54557441  0.91222203  0.18613537  1
  O  O21  1  0.11523131  0.08820043  0.76206491  1
  O  O22  1  0.76102167  0.67783326  0.53208706  1
  O  O23  1  0.93865507  0.37147239  0.19602067  1
  O  O24  1  0.35606718  0.41222203  0.68613537  1
  O  O25  1  0.97094198  0.82216674  0.96791294  1
  O  O26  1  0.06134493  0.62852761  0.80397933  1
  O  O27  1  0.37986575  0.72555060  0.57891337  1
  O  O28  1  0.96549665  0.41179957  0.73793509  1
  O  O29  1  0.23897833  0.32216674  0.46791294  1
  O  O30  1  0.50614913  0.12852761  0.30397933  1
  O  O31  1  0.68834241  0.17533124  0.96287580  1
  O  O32  1  0.31567028  0.22555060  0.07891337  1
  O  O33  1  0.02905802  0.17783326  0.03208706  1
  O  O34  1  0.09276218  0.06095722  0.34630469  1
  O  O35  1  0.62013425  0.27444940  0.42108663  1
  O  O36  1  0.50002309  0.43904278  0.15369531  1
  O  O37  1  0.68432972  0.77444940  0.92108663  1
  O  O38  1  0.49385087  0.87147239  0.69602067  1
  O  O39  1  0.88476869  0.91179957  0.23793509  1
  O  O40  1  0.49997691  0.56095722  0.84630469  1
  O  O41  1  0.45442559  0.08777797  0.81386463  1
  O  O42  1  0.90723782  0.93904278  0.65369531  1
  O  O43  1  0.64393282  0.58777797  0.31386463  1
  O  O44  1  0.31165759  0.82466876  0.03712420  1
  O  O45  1  0.82655046  0.32466876  0.53712420  1
