# generated using pymatgen
data_Zn2CoWO6
_symmetry_space_group_name_H-M   'P 1'
_cell_length_a   5.24984774
_cell_length_b   5.27220346
_cell_length_c   7.87711747
_cell_angle_alpha   90.00000000
_cell_angle_beta   88.78660340
_cell_angle_gamma   90.00000000
_symmetry_Int_Tables_number   1
_chemical_formula_structural   Zn2CoWO6
_chemical_formula_sum   'Zn4 Co2 W2 O12'
_cell_volume   217.97605794
_cell_formula_units_Z   2
loop_
 _symmetry_equiv_pos_site_id
 _symmetry_equiv_pos_as_xyz
  1  'x, y, z'
loop_
 _atom_site_type_symbol
 _atom_site_label
 _atom_site_symmetry_multiplicity
 _atom_site_fract_x
 _atom_site_fract_y
 _atom_site_fract_z
 _atom_site_occupancy
  Zn  Zn0  1  0.00891917  0.03096235  0.25521426  1
  Zn  Zn1  1  0.49108083  0.53096335  0.24478574  1
  Zn  Zn2  1  0.99108183  0.96903865  0.74478574  1
  Zn  Zn3  1  0.50891817  0.46903765  0.75521426  1
  Co  Co4  1  0.50000000  0.00000000  0.00000000  1
  Co  Co5  1  0.00000100  0.49999900  0.50000000  1
  W  W6  1  0.50000000  0.00000000  0.49999900  1
  W  W7  1  0.00000000  0.49999900  0.00000000  1
  O  O8  1  0.65625622  0.31276061  0.41997209  1
  O  O9  1  0.84374378  0.81276161  0.08002791  1
  O  O10  1  0.34374278  0.68723939  0.58002791  1
  O  O11  1  0.15625722  0.18723839  0.91997209  1
  O  O12  1  0.18132773  0.16991315  0.55556533  1
  O  O13  1  0.31867227  0.66991215  0.94443467  1
  O  O14  1  0.81867327  0.83008685  0.44443467  1
  O  O15  1  0.68132673  0.33008785  0.05556533  1
  O  O16  1  0.11797833  0.41205641  0.23311276  1
  O  O17  1  0.38202267  0.91205741  0.26688624  1
  O  O18  1  0.61797833  0.08794259  0.73311376  1
  O  O19  1  0.88202267  0.58794359  0.76688724  1
