# generated using pymatgen
data_Zn2NiWO6
_symmetry_space_group_name_H-M   'P 1'
_cell_length_a   5.21222357
_cell_length_b   5.25541568
_cell_length_c   7.74147248
_cell_angle_alpha   90.00000000
_cell_angle_beta   88.93119991
_cell_angle_gamma   90.00000000
_symmetry_Int_Tables_number   1
_chemical_formula_structural   Zn2NiWO6
_chemical_formula_sum   'Zn4 Ni2 W2 O12'
_cell_volume   212.02062783
_cell_formula_units_Z   2
loop_
 _symmetry_equiv_pos_site_id
 _symmetry_equiv_pos_as_xyz
  1  'x, y, z'
loop_
 _atom_site_type_symbol
 _atom_site_label
 _atom_site_symmetry_multiplicity
 _atom_site_fract_x
 _atom_site_fract_y
 _atom_site_fract_z
 _atom_site_occupancy
  Zn  Zn0  1  0.00649960  0.03513711  0.25325447  1
  Zn  Zn1  1  0.49350040  0.53513811  0.24674553  1
  Zn  Zn2  1  0.99350140  0.96486389  0.74674553  1
  Zn  Zn3  1  0.50649860  0.46486289  0.75325447  1
  Ni  Ni4  1  0.50000000  0.00000000  0.00000000  1
  Ni  Ni5  1  0.00000100  0.49999900  0.50000000  1
  W  W6  1  0.50000000  0.00000000  0.49999900  1
  W  W7  1  0.00000000  0.49999900  0.00000000  1
  O  O8  1  0.66145960  0.31431826  0.42469638  1
  O  O9  1  0.83854040  0.81431926  0.07530362  1
  O  O10  1  0.33853940  0.68568174  0.57530362  1
  O  O11  1  0.16146060  0.18568074  0.92469638  1
  O  O12  1  0.18201257  0.17271452  0.55767017  1
  O  O13  1  0.31798743  0.67271352  0.94232983  1
  O  O14  1  0.81798843  0.82728548  0.44232983  1
  O  O15  1  0.68201157  0.32728648  0.05767017  1
  O  O16  1  0.11824781  0.42031013  0.23817444  1
  O  O17  1  0.38175319  0.92031113  0.26182456  1
  O  O18  1  0.61824781  0.07968887  0.73817544  1
  O  O19  1  0.88175319  0.57968987  0.76182556  1
