# generated using pymatgen
data_SnO2
_symmetry_space_group_name_H-M   'P 1'
_cell_length_a   3.22456533
_cell_length_b   9.33467615
_cell_length_c   11.35355028
_cell_angle_alpha   89.99908674
_cell_angle_beta   90.00003305
_cell_angle_gamma   90.00004270
_symmetry_Int_Tables_number   1
_chemical_formula_structural   SnO2
_chemical_formula_sum   'Sn8 O16'
_cell_volume   341.74496391
_cell_formula_units_Z   8
loop_
 _symmetry_equiv_pos_site_id
 _symmetry_equiv_pos_as_xyz
  1  'x, y, z'
loop_
 _atom_site_type_symbol
 _atom_site_label
 _atom_site_symmetry_multiplicity
 _atom_site_fract_x
 _atom_site_fract_y
 _atom_site_fract_z
 _atom_site_occupancy
  Sn  Sn0  1  0.24999900  0.41263881  0.10270140  1
  Sn  Sn1  1  0.74999999  0.08736478  0.60266040  1
  Sn  Sn2  1  0.25000001  0.91268386  0.39730291  1
  Sn  Sn3  1  0.75000000  0.58734659  0.89732776  1
  Sn  Sn4  1  0.74999900  0.55242931  0.38302210  1
  Sn  Sn5  1  0.25000000  0.44754238  0.61701744  1
  Sn  Sn6  1  0.74999999  0.05245492  0.11697918  1
  Sn  Sn7  1  0.25000001  0.94755038  0.88298975  1
  O  O8  1  0.24999901  0.92099213  0.07124942  1
  O  O9  1  0.74999999  0.07899171  0.92871379  1
  O  O10  1  0.24999901  0.42101678  0.42874843  1
  O  O11  1  0.74999999  0.57900361  0.57127900  1
  O  O12  1  0.25000000  0.03355849  0.71389125  1
  O  O13  1  0.74999900  0.96643185  0.28608731  1
  O  O14  1  0.24999900  0.53355571  0.78610967  1
  O  O15  1  0.74999900  0.46642979  0.21392109  1
  O  O16  1  0.24999999  0.61569058  0.01306621  1
  O  O17  1  0.74999901  0.38430713  0.98695275  1
  O  O18  1  0.25000000  0.11569649  0.48693345  1
  O  O19  1  0.74999900  0.88431917  0.51304498  1
  O  O20  1  0.74999901  0.80455579  0.85219688  1
  O  O21  1  0.24999999  0.19542959  0.14778993  1
  O  O22  1  0.25000000  0.69546343  0.35221214  1
  O  O23  1  0.74999900  0.30454671  0.64780174  1
