# generated using pymatgen
data_Ca(BiO2)2
_symmetry_space_group_name_H-M   'P 1'
_cell_length_a   3.41437217
_cell_length_b   10.25341509
_cell_length_c   12.54953561
_cell_angle_alpha   90.00020137
_cell_angle_beta   89.99987778
_cell_angle_gamma   89.99993995
_symmetry_Int_Tables_number   1
_chemical_formula_structural   Ca(BiO2)2
_chemical_formula_sum   'Ca4 Bi8 O16'
_cell_volume   439.34638007
_cell_formula_units_Z   4
loop_
 _symmetry_equiv_pos_site_id
 _symmetry_equiv_pos_as_xyz
  1  'x, y, z'
loop_
 _atom_site_type_symbol
 _atom_site_label
 _atom_site_symmetry_multiplicity
 _atom_site_fract_x
 _atom_site_fract_y
 _atom_site_fract_z
 _atom_site_occupancy
  Ca  Ca0  1  0.74999998  0.23970013  0.34894698  1
  Ca  Ca1  1  0.24999779  0.76027768  0.65106283  1
  Ca  Ca2  1  0.74999890  0.73971124  0.15106282  1
  Ca  Ca3  1  0.25000094  0.26027999  0.84894392  1
  Bi  Bi4  1  0.24999922  0.41644091  0.10860104  1
  Bi  Bi5  1  0.74999915  0.08355574  0.60860746  1
  Bi  Bi6  1  0.24999772  0.91642905  0.39139596  1
  Bi  Bi7  1  0.75000044  0.58357091  0.89139203  1
  Bi  Bi8  1  0.75000011  0.57094996  0.37877495  1
  Bi  Bi9  1  0.24999547  0.42903476  0.62122627  1
  Bi  Bi10  1  0.74999531  0.07096212  0.12122730  1
  Bi  Bi11  1  0.25000978  0.92903648  0.87877808  1
  O  O12  1  0.25000152  0.91776902  0.09286916  1
  O  O13  1  0.74999830  0.08223067  0.90713594  1
  O  O14  1  0.24999875  0.41775889  0.40712580  1
  O  O15  1  0.75000012  0.58222679  0.59285311  1
  O  O16  1  0.24999908  0.01738099  0.71581506  1
  O  O17  1  0.74999907  0.98261049  0.28419259  1
  O  O18  1  0.25000038  0.51742979  0.78417089  1
  O  O19  1  0.74999941  0.48262820  0.21579852  1
  O  O20  1  0.24999905  0.62832956  0.04097833  1
  O  O21  1  0.75000178  0.37167954  0.95901108  1
  O  O22  1  0.24999840  0.12832097  0.45902952  1
  O  O23  1  0.74999847  0.87167177  0.54098084  1
  O  O24  1  0.74999855  0.79187181  0.79100536  1
  O  O25  1  0.24999992  0.20813248  0.20899946  1
  O  O26  1  0.24999834  0.70813295  0.29100928  1
  O  O27  1  0.75000108  0.29187511  0.70900540  1
