# generated using pymatgen
data_Ca2BiWO6
_symmetry_space_group_name_H-M   'P 1'
_cell_length_a   5.67421262
_cell_length_b   5.96014233
_cell_length_c   8.29650570
_cell_angle_alpha   90.00000000
_cell_angle_beta   89.38043170
_cell_angle_gamma   90.00000000
_symmetry_Int_Tables_number   1
_chemical_formula_structural   Ca2BiWO6
_chemical_formula_sum   'Ca4 Bi2 W2 O12'
_cell_volume   280.56407468
_cell_formula_units_Z   2
loop_
 _symmetry_equiv_pos_site_id
 _symmetry_equiv_pos_as_xyz
  1  'x, y, z'
loop_
 _atom_site_type_symbol
 _atom_site_label
 _atom_site_symmetry_multiplicity
 _atom_site_fract_x
 _atom_site_fract_y
 _atom_site_fract_z
 _atom_site_occupancy
  Ca  Ca0  1  0.98728641  0.05636425  0.25197016  1
  Ca  Ca1  1  0.51271359  0.55636525  0.24802984  1
  Ca  Ca2  1  0.01271459  0.94363675  0.74802984  1
  Ca  Ca3  1  0.48728541  0.44363575  0.75197016  1
  Bi  Bi4  1  0.50000000  0.00000000  0.00000000  1
  Bi  Bi5  1  0.00000100  0.49999900  0.50000000  1
  W  W6  1  0.50000000  0.00000000  0.49999900  1
  W  W7  1  0.00000000  0.49999900  0.00000000  1
  O  O8  1  0.66656075  0.28765983  0.42469672  1
  O  O9  1  0.83343925  0.78766083  0.07530328  1
  O  O10  1  0.33343825  0.71234017  0.57530328  1
  O  O11  1  0.16656175  0.21233917  0.92469672  1
  O  O12  1  0.21548823  0.17002419  0.55711136  1
  O  O13  1  0.28451177  0.67002319  0.94288864  1
  O  O14  1  0.78451277  0.82997581  0.44288864  1
  O  O15  1  0.71548723  0.32997681  0.05711136  1
  O  O16  1  0.12476468  0.43551525  0.22771813  1
  O  O17  1  0.37523632  0.93551625  0.27228087  1
  O  O18  1  0.62476468  0.06448375  0.72771913  1
  O  O19  1  0.87523632  0.56448475  0.77228187  1
