# generated using pymatgen
data_BiO2
_symmetry_space_group_name_H-M   'P 1'
_cell_length_a   6.16627831
_cell_length_b   7.05486711
_cell_length_c   26.77227802
_cell_angle_alpha   58.23776946
_cell_angle_beta   61.16755137
_cell_angle_gamma   55.17972707
_symmetry_Int_Tables_number   1
_chemical_formula_structural   BiO2
_chemical_formula_sum   'Bi16 O32'
_cell_volume   784.91242408
_cell_formula_units_Z   16
loop_
 _symmetry_equiv_pos_site_id
 _symmetry_equiv_pos_as_xyz
  1  'x, y, z'
loop_
 _atom_site_type_symbol
 _atom_site_label
 _atom_site_symmetry_multiplicity
 _atom_site_fract_x
 _atom_site_fract_y
 _atom_site_fract_z
 _atom_site_occupancy
  Bi  Bi0  1  0.46523381  0.51417710  0.12458427  1
  Bi  Bi1  1  0.59130684  0.42785561  0.26323153  1
  Bi  Bi2  1  0.46578972  0.02161502  0.12444059  1
  Bi  Bi3  1  0.12699965  0.18167894  0.50290760  1
  Bi  Bi4  1  0.77860230  0.34322032  0.38367498  1
  Bi  Bi5  1  0.79965050  0.86310857  0.24387575  1
  Bi  Bi6  1  0.86550057  0.32701403  0.74624936  1
  Bi  Bi7  1  0.78235791  0.84504372  0.38255690  1
  Bi  Bi8  1  0.48839083  0.50672700  0.62562299  1
  Bi  Bi9  1  0.14163478  0.66975568  0.50476884  1
  Bi  Bi10  1  0.49294855  0.00461480  0.62476727  1
  Bi  Bi11  1  0.24680382  0.13227711  0.87281801  1
  Bi  Bi12  1  0.25178438  0.62682554  0.87297979  1
  Bi  Bi13  1  0.85263409  0.82986250  0.74580514  1
  Bi  Bi14  1  0.42370102  0.55305135  0.99202831  1
  Bi  Bi15  1  0.53689968  0.01879223  0.98073142  1
  O  O16  1  0.28015411  0.26034627  0.04740153  1
  O  O17  1  0.24426199  0.28950688  0.16891513  1
  O  O18  1  0.27970518  0.76912337  0.04733863  1
  O  O19  1  0.66991338  0.28995311  0.06246385  1
  O  O20  1  0.25512403  0.76071471  0.18057216  1
  O  O21  1  0.55551904  0.05950411  0.31566034  1
  O  O22  1  0.71643789  0.25827143  0.18550314  1
  O  O23  1  0.53562400  0.11826379  0.42864109  1
  O  O24  1  0.55938576  0.62270959  0.31453778  1
  O  O25  1  0.67287933  0.75837275  0.07747284  1
  O  O26  1  0.92965282  0.13829869  0.32191213  1
  O  O27  1  0.71721165  0.78264164  0.18549003  1
  O  O28  1  0.28078598  0.27214016  0.54677064  1
  O  O29  1  0.56242478  0.60419578  0.43602476  1
  O  O30  1  0.00885300  0.06581381  0.45211676  1
  O  O31  1  0.24407793  0.29147297  0.67295958  1
  O  O32  1  0.25993463  0.75442728  0.55483844  1
  O  O33  1  0.02117172  0.58386330  0.33151361  1
  O  O34  1  0.72815219  0.23726602  0.58170874  1
  O  O35  1  0.02756188  0.61091986  0.44738791  1
  O  O36  1  0.23291799  0.78331155  0.67039286  1
  O  O37  1  0.00330589  0.42440588  0.78828182  1
  O  O38  1  0.72014608  0.25272416  0.69730802  1
  O  O39  1  0.17714252  0.28397925  0.93920117  1
  O  O40  1  0.01185941  0.92423391  0.78427623  1
  O  O41  1  0.73655651  0.71646136  0.57600947  1
  O  O42  1  0.51117910  0.34773962  0.82233596  1
  O  O43  1  0.71726285  0.73350046  0.70046192  1
  O  O44  1  0.09287873  0.80488290  0.94770312  1
  O  O45  1  0.59459070  0.39241381  0.92421472  1
  O  O46  1  0.47717291  0.88511686  0.81433471  1
  O  O47  1  0.59354958  0.81474419  0.92482820  1
