# generated using pymatgen
data_Te2MoWS2
_symmetry_space_group_name_H-M   'P 1'
_cell_length_a   3.35827507
_cell_length_b   3.35825621
_cell_length_c   23.87798058
_cell_angle_alpha   89.99962291
_cell_angle_beta   89.99999966
_cell_angle_gamma   120.00017768
_symmetry_Int_Tables_number   1
_chemical_formula_structural   Te2MoWS2
_chemical_formula_sum   'Te2 Mo1 W1 S2'
_cell_volume   233.21556934
_cell_formula_units_Z   1
loop_
 _symmetry_equiv_pos_site_id
 _symmetry_equiv_pos_as_xyz
  1  'x, y, z'
loop_
 _atom_site_type_symbol
 _atom_site_label
 _atom_site_symmetry_multiplicity
 _atom_site_fract_x
 _atom_site_fract_y
 _atom_site_fract_z
 _atom_site_occupancy
  Te  Te0  1  0.33335273  0.66670626  0.53042490  1
  Te  Te1  1  0.33335609  0.66671302  0.37240775  1
  Mo  Mo2  1  0.66669085  0.33338199  0.45142390  1
  W  W3  1  0.33331174  0.66662317  0.15043633  1
  S  S4  1  0.66664624  0.33329169  0.08682640  1
  S  S5  1  0.66664235  0.33328387  0.21408472  1
