# generated using pymatgen
data_Mg6SnBi
_symmetry_space_group_name_H-M   'P 1'
_cell_length_a   6.68312604
_cell_length_b   6.68312550
_cell_length_c   5.32745537
_cell_angle_alpha   90.00000000
_cell_angle_beta   90.00000000
_cell_angle_gamma   124.55180371
_symmetry_Int_Tables_number   1
_chemical_formula_structural   Mg6SnBi
_chemical_formula_sum   'Mg6 Sn1 Bi1'
_cell_volume   195.97590136
_cell_formula_units_Z   1
loop_
 _symmetry_equiv_pos_site_id
 _symmetry_equiv_pos_as_xyz
  1  'x, y, z'
loop_
 _atom_site_type_symbol
 _atom_site_label
 _atom_site_symmetry_multiplicity
 _atom_site_fract_x
 _atom_site_fract_y
 _atom_site_fract_z
 _atom_site_occupancy
  Mg  Mg0  1  0.16028894  0.83061570  0.25000000  1
  Mg  Mg1  1  0.66938430  0.33971106  0.25000000  1
  Mg  Mg2  1  0.67158540  0.82841460  0.25000000  1
  Mg  Mg3  1  0.33666897  0.66281673  0.75000000  1
  Mg  Mg4  1  0.83718327  0.16333103  0.75000000  1
  Mg  Mg5  1  0.82762469  0.67237531  0.75000000  1
  Sn  Sn6  1  0.14304603  0.35695397  0.25000000  1
  Bi  Bi7  1  0.35421839  0.14578161  0.75000000  1
