# generated using pymatgen
data_Cr3N4
_symmetry_space_group_name_H-M   'P 1'
_cell_length_a   2.75289834
_cell_length_b   7.63536507
_cell_length_c   7.64861286
_cell_angle_alpha   120.13672696
_cell_angle_beta   90.00000000
_cell_angle_gamma   90.00000000
_symmetry_Int_Tables_number   1
_chemical_formula_structural   Cr3N4
_chemical_formula_sum   'Cr6 N8'
_cell_volume   139.03792940
_cell_formula_units_Z   2
loop_
 _symmetry_equiv_pos_site_id
 _symmetry_equiv_pos_as_xyz
  1  'x, y, z'
loop_
 _atom_site_type_symbol
 _atom_site_label
 _atom_site_symmetry_multiplicity
 _atom_site_fract_x
 _atom_site_fract_y
 _atom_site_fract_z
 _atom_site_occupancy
  Cr  Cr0  1  0.26091657  0.47542107  0.12971625  1
  Cr  Cr1  1  0.26086909  0.87028540  0.34696528  1
  Cr  Cr2  1  0.26088250  0.65502425  0.52501434  1
  Cr  Cr3  1  0.76091657  0.52457893  0.87028375  1
  Cr  Cr4  1  0.76086909  0.12971460  0.65303472  1
  Cr  Cr5  1  0.76088250  0.34497575  0.47498566  1
  N  N6  1  0.26077470  0.35987525  0.31088867  1
  N  N7  1  0.26076661  0.68859903  0.04873209  1
  N  N8  1  0.26079001  0.95110975  0.64042197  1
  N  N9  1  0.76077470  0.64012475  0.68911133  1
  N  N10  1  0.76076661  0.31140097  0.95126791  1
  N  N11  1  0.76079001  0.04889025  0.35957803  1
  N  N12  1  0.26080051  0.33287984  0.66621254  1
  N  N13  1  0.76080051  0.66712016  0.33378746  1
