# generated using pymatgen
data_Mg6GaBi
_symmetry_space_group_name_H-M   'P 1'
_cell_length_a   6.33715243
_cell_length_b   6.56772358
_cell_length_c   5.25441116
_cell_angle_alpha   90.00000000
_cell_angle_beta   90.00000000
_cell_angle_gamma   121.21105890
_symmetry_Int_Tables_number   1
_chemical_formula_structural   Mg6GaBi
_chemical_formula_sum   'Mg6 Ga1 Bi1'
_cell_volume   187.03952727
_cell_formula_units_Z   1
loop_
 _symmetry_equiv_pos_site_id
 _symmetry_equiv_pos_as_xyz
  1  'x, y, z'
loop_
 _atom_site_type_symbol
 _atom_site_label
 _atom_site_symmetry_multiplicity
 _atom_site_fract_x
 _atom_site_fract_y
 _atom_site_fract_z
 _atom_site_occupancy
  Mg  Mg0  1  0.66831766  0.33339781  0.25000000  1
  Mg  Mg1  1  0.66831766  0.83491885  0.25000000  1
  Mg  Mg2  1  0.33344225  0.17587803  0.75000000  1
  Mg  Mg3  1  0.33344225  0.65756522  0.75000000  1
  Mg  Mg4  1  0.83781442  0.16890771  0.75000000  1
  Mg  Mg5  1  0.82787496  0.66393798  0.75000000  1
  Ga  Ga6  1  0.16484194  0.33242047  0.25000000  1
  Bi  Bi7  1  0.16594885  0.83297393  0.25000000  1
