# generated using pymatgen
data_MgBi3O7
_symmetry_space_group_name_H-M   'P 1'
_cell_length_a   5.60390229
_cell_length_b   10.82931100
_cell_length_c   10.80785975
_cell_angle_alpha   90.00000000
_cell_angle_beta   90.00000000
_cell_angle_gamma   90.00000000
_symmetry_Int_Tables_number   1
_chemical_formula_structural   MgBi3O7
_chemical_formula_sum   'Mg4 Bi12 O28'
_cell_volume   655.89010763
_cell_formula_units_Z   4
loop_
 _symmetry_equiv_pos_site_id
 _symmetry_equiv_pos_as_xyz
  1  'x, y, z'
loop_
 _atom_site_type_symbol
 _atom_site_label
 _atom_site_symmetry_multiplicity
 _atom_site_fract_x
 _atom_site_fract_y
 _atom_site_fract_z
 _atom_site_occupancy
  Mg  Mg0  1  0.69044449  0.75000000  0.86189686  1
  Mg  Mg1  1  0.19044449  0.25000000  0.63810314  1
  Mg  Mg2  1  0.30955551  0.25000000  0.13810314  1
  Mg  Mg3  1  0.80955551  0.75000000  0.36189686  1
  Bi  Bi4  1  0.31633473  0.98347107  0.37206785  1
  Bi  Bi5  1  0.81633473  0.01652893  0.12793215  1
  Bi  Bi6  1  0.68366527  0.48347107  0.62793215  1
  Bi  Bi7  1  0.18366527  0.51652893  0.87206785  1
  Bi  Bi8  1  0.26807613  0.75000000  0.14041146  1
  Bi  Bi9  1  0.76807613  0.25000000  0.35958854  1
  Bi  Bi10  1  0.73192387  0.25000000  0.85958854  1
  Bi  Bi11  1  0.23192387  0.75000000  0.64041146  1
  Bi  Bi12  1  0.81633473  0.48347107  0.12793215  1
  Bi  Bi13  1  0.31633473  0.51652893  0.37206785  1
  Bi  Bi14  1  0.18366527  0.98347107  0.87206785  1
  Bi  Bi15  1  0.68366527  0.01652893  0.62793215  1
  O  O16  1  0.98597911  0.12898242  0.77008760  1
  O  O17  1  0.48597911  0.87101758  0.72991240  1
  O  O18  1  0.01402089  0.62898242  0.22991240  1
  O  O19  1  0.51402089  0.37101758  0.27008760  1
  O  O20  1  0.01402089  0.87101758  0.22991240  1
  O  O21  1  0.51402089  0.12898242  0.27008760  1
  O  O22  1  0.98597911  0.37101758  0.77008760  1
  O  O23  1  0.48597911  0.62898242  0.72991240  1
  O  O24  1  0.49000412  0.11894743  0.79088850  1
  O  O25  1  0.99000412  0.88105257  0.70911150  1
  O  O26  1  0.50999588  0.61894743  0.20911150  1
  O  O27  1  0.00999588  0.38105257  0.29088850  1
  O  O28  1  0.50999588  0.88105257  0.20911150  1
  O  O29  1  0.00999588  0.11894743  0.29088850  1
  O  O30  1  0.49000412  0.38105257  0.79088850  1
  O  O31  1  0.99000412  0.61894743  0.70911150  1
  O  O32  1  0.15734687  0.75000000  0.45245628  1
  O  O33  1  0.65734687  0.25000000  0.04754372  1
  O  O34  1  0.84265313  0.25000000  0.54754372  1
  O  O35  1  0.34265313  0.75000000  0.95245628  1
  O  O36  1  0.14595876  0.39998874  0.04390310  1
  O  O37  1  0.64595876  0.60001126  0.45609690  1
  O  O38  1  0.85404124  0.89998874  0.95609690  1
  O  O39  1  0.35404124  0.10001126  0.54390310  1
  O  O40  1  0.85404124  0.60001126  0.95609690  1
  O  O41  1  0.35404124  0.39998874  0.54390310  1
  O  O42  1  0.14595876  0.10001126  0.04390310  1
  O  O43  1  0.64595876  0.89998874  0.45609690  1
