# generated using pymatgen
data_Na3Fe2(GeO4)3
_symmetry_space_group_name_H-M   'P 1'
_cell_length_a   10.74237582
_cell_length_b   10.74237550
_cell_length_c   10.74237615
_cell_angle_alpha   109.47122004
_cell_angle_beta   109.47121939
_cell_angle_gamma   109.47121984
_symmetry_Int_Tables_number   1
_chemical_formula_structural   Na3Fe2(GeO4)3
_chemical_formula_sum   'Na12 Fe8 Ge12 O48'
_cell_volume   954.28731267
_cell_formula_units_Z   4
loop_
 _symmetry_equiv_pos_site_id
 _symmetry_equiv_pos_as_xyz
  1  'x, y, z'
loop_
 _atom_site_type_symbol
 _atom_site_label
 _atom_site_symmetry_multiplicity
 _atom_site_fract_x
 _atom_site_fract_y
 _atom_site_fract_z
 _atom_site_occupancy
  Na  Na0  1  0.62500000  0.25000000  0.87500000  1
  Na  Na1  1  0.87500000  0.75000000  0.62500000  1
  Na  Na2  1  0.75000000  0.62500000  0.87500000  1
  Na  Na3  1  0.25000000  0.87500000  0.62500000  1
  Na  Na4  1  0.87500000  0.62500000  0.25000000  1
  Na  Na5  1  0.62500000  0.87500000  0.75000000  1
  Na  Na6  1  0.37500000  0.75000000  0.12500000  1
  Na  Na7  1  0.12500000  0.25000000  0.37500000  1
  Na  Na8  1  0.25000000  0.37500000  0.12500000  1
  Na  Na9  1  0.75000000  0.12500000  0.37500000  1
  Na  Na10  1  0.12500000  0.37500000  0.75000000  1
  Na  Na11  1  0.37500000  0.12500000  0.25000000  1
  Fe  Fe12  1  0.50000000  0.50000000  0.50000000  1
  Fe  Fe13  1  0.50000000  0.50000000  -0.00000000  1
  Fe  Fe14  1  0.50000000  -0.00000000  0.50000000  1
  Fe  Fe15  1  -0.00000000  0.50000000  0.50000000  1
  Fe  Fe16  1  0.50000000  -0.00000000  -0.00000000  1
  Fe  Fe17  1  -0.00000000  -0.00000000  0.50000000  1
  Fe  Fe18  1  -0.00000000  0.50000000  -0.00000000  1
  Fe  Fe19  1  -0.00000000  -0.00000000  -0.00000000  1
  Ge  Ge20  1  0.87500000  0.12500000  0.75000000  1
  Ge  Ge21  1  0.12500000  0.87500000  0.25000000  1
  Ge  Ge22  1  0.25000000  0.62500000  0.37500000  1
  Ge  Ge23  1  0.12500000  0.75000000  0.87500000  1
  Ge  Ge24  1  0.75000000  0.87500000  0.12500000  1
  Ge  Ge25  1  0.37500000  0.25000000  0.62500000  1
  Ge  Ge26  1  0.62500000  0.75000000  0.37500000  1
  Ge  Ge27  1  0.87500000  0.25000000  0.12500000  1
  Ge  Ge28  1  0.25000000  0.12500000  0.87500000  1
  Ge  Ge29  1  0.75000000  0.37500000  0.62500000  1
  Ge  Ge30  1  0.37500000  0.62500000  0.75000000  1
  Ge  Ge31  1  0.62500000  0.37500000  0.25000000  1
  O  O32  1  0.80443883  0.41902230  0.81687914  1
  O  O33  1  0.08097770  0.88541652  0.39785684  1
  O  O34  1  0.68312086  0.10214316  0.98755869  1
  O  O35  1  0.69556117  0.51244131  0.61458348  1
  O  O36  1  0.69556117  0.68312086  0.08097770  1
  O  O37  1  0.51244131  0.61458348  0.69556117  1
  O  O38  1  0.10214316  0.61458348  0.41902230  1
  O  O39  1  0.61458348  0.69556117  0.51244131  1
  O  O40  1  0.39785684  0.81687914  0.51244131  1
  O  O41  1  0.88541652  0.98755869  0.80443883  1
  O  O42  1  0.98755869  0.80443883  0.88541652  1
  O  O43  1  0.08097770  0.69556117  0.68312086  1
  O  O44  1  0.61458348  0.41902230  0.10214316  1
  O  O45  1  0.51244131  0.39785684  0.81687914  1
  O  O46  1  0.68312086  0.08097770  0.69556117  1
  O  O47  1  0.41902230  0.10214316  0.61458348  1
  O  O48  1  0.81687914  0.51244131  0.39785684  1
  O  O49  1  0.39785684  0.08097770  0.88541652  1
  O  O50  1  0.10214316  0.98755869  0.68312086  1
  O  O51  1  0.60214316  0.18312086  0.48755869  1
  O  O52  1  0.98755869  0.68312086  0.10214316  1
  O  O53  1  0.81687914  0.80443883  0.41902230  1
  O  O54  1  0.88541652  0.39785684  0.08097770  1
  O  O55  1  0.80443883  0.88541652  0.98755869  1
  O  O56  1  0.19556117  0.58097770  0.18312086  1
  O  O57  1  0.91902230  0.11458348  0.60214316  1
  O  O58  1  0.31687914  0.89785684  0.01244131  1
  O  O59  1  0.30443883  0.48755869  0.38541652  1
  O  O60  1  0.30443883  0.31687914  0.91902230  1
  O  O61  1  0.48755869  0.38541652  0.30443883  1
  O  O62  1  0.89785684  0.38541652  0.58097770  1
  O  O63  1  0.38541652  0.30443883  0.48755869  1
  O  O64  1  0.19556117  0.11458348  0.01244131  1
  O  O65  1  0.11458348  0.60214316  0.91902230  1
  O  O66  1  0.18312086  0.19556117  0.58097770  1
  O  O67  1  0.58097770  0.18312086  0.19556117  1
  O  O68  1  0.01244131  0.31687914  0.89785684  1
  O  O69  1  0.89785684  0.01244131  0.31687914  1
  O  O70  1  0.60214316  0.91902230  0.11458348  1
  O  O71  1  0.18312086  0.48755869  0.60214316  1
  O  O72  1  0.58097770  0.89785684  0.38541652  1
  O  O73  1  0.31687914  0.91902230  0.30443883  1
  O  O74  1  0.48755869  0.60214316  0.18312086  1
  O  O75  1  0.38541652  0.58097770  0.89785684  1
  O  O76  1  0.91902230  0.30443883  0.31687914  1
  O  O77  1  0.01244131  0.19556117  0.11458348  1
  O  O78  1  0.11458348  0.01244131  0.19556117  1
  O  O79  1  0.41902230  0.81687914  0.80443883  1
