# generated using pymatgen
data_CaMg(SiO3)2
_symmetry_space_group_name_H-M   'P 1'
_cell_length_a   9.88961571
_cell_length_b   8.35869762
_cell_length_c   5.40613372
_cell_angle_alpha   90.00000000
_cell_angle_beta   89.32122124
_cell_angle_gamma   90.00000000
_symmetry_Int_Tables_number   1
_chemical_formula_structural   CaMg(SiO3)2
_chemical_formula_sum   'Ca4 Mg4 Si8 O24'
_cell_volume   446.86293867
_cell_formula_units_Z   4
loop_
 _symmetry_equiv_pos_site_id
 _symmetry_equiv_pos_as_xyz
  1  'x, y, z'
loop_
 _atom_site_type_symbol
 _atom_site_label
 _atom_site_symmetry_multiplicity
 _atom_site_fract_x
 _atom_site_fract_y
 _atom_site_fract_z
 _atom_site_occupancy
  Ca  Ca0  1  0.72964930  0.44761062  0.60232848  1
  Ca  Ca1  1  0.27035070  0.94761062  0.89767152  1
  Ca  Ca2  1  0.27035070  0.55238938  0.39767152  1
  Ca  Ca3  1  0.72964930  0.05238938  0.10232848  1
  Mg  Mg4  1  0.23197835  0.33396527  0.87723703  1
  Mg  Mg5  1  0.76802165  0.83396527  0.62276297  1
  Mg  Mg6  1  0.76802165  0.66603473  0.12276297  1
  Mg  Mg7  1  0.23197835  0.16603473  0.37723703  1
  Si  Si8  1  0.49682390  0.32959226  0.03386054  1
  Si  Si9  1  0.50317610  0.82959226  0.46613946  1
  Si  Si10  1  0.50317610  0.67040774  0.96613946  1
  Si  Si11  1  0.49682390  0.17040774  0.53386054  1
  Si  Si12  1  0.03754708  0.65320641  0.77110161  1
  Si  Si13  1  0.96245292  0.15320641  0.72889839  1
  Si  Si14  1  0.96245292  0.34679359  0.22889839  1
  Si  Si15  1  0.03754708  0.84679359  0.27110161  1
  O  O16  1  0.12020696  0.49328968  0.71576242  1
  O  O17  1  0.87979304  0.99328968  0.78423758  1
  O  O18  1  0.87979304  0.50671032  0.28423758  1
  O  O19  1  0.12020696  0.00671032  0.21576242  1
  O  O20  1  0.58282446  0.22944221  0.79401283  1
  O  O21  1  0.41717554  0.72944221  0.70598717  1
  O  O22  1  0.41717554  0.77055779  0.20598717  1
  O  O23  1  0.58282446  0.27055779  0.29401283  1
  O  O24  1  0.38645729  0.00944198  0.52650738  1
  O  O25  1  0.61354271  0.50944198  0.97349262  1
  O  O26  1  0.61354271  0.99055802  0.47349262  1
  O  O27  1  0.38645729  0.49055802  0.02650738  1
  O  O28  1  0.36742042  0.30802825  0.55716563  1
  O  O29  1  0.63257958  0.80802825  0.94283437  1
  O  O30  1  0.63257958  0.69197175  0.44283437  1
  O  O31  1  0.36742042  0.19197175  0.05716563  1
  O  O32  1  0.12608119  0.14734797  0.71638063  1
  O  O33  1  0.87391881  0.64734797  0.78361937  1
  O  O34  1  0.87391881  0.85265203  0.28361937  1
  O  O35  1  0.12608119  0.35265203  0.21638063  1
  O  O36  1  0.09633540  0.77074391  0.53790839  1
  O  O37  1  0.90366460  0.27074391  0.96209161  1
  O  O38  1  0.90366460  0.22925609  0.46209161  1
  O  O39  1  0.09633540  0.72925609  0.03790839  1
