# generated using pymatgen
data_Zn2SiO4
_symmetry_space_group_name_H-M   'P 1'
_cell_length_a   4.84969667
_cell_length_b   10.43784657
_cell_length_c   6.09910564
_cell_angle_alpha   90.00000000
_cell_angle_beta   90.00000000
_cell_angle_gamma   90.00000000
_symmetry_Int_Tables_number   1
_chemical_formula_structural   Zn2SiO4
_chemical_formula_sum   'Zn8 Si4 O16'
_cell_volume   308.73910464
_cell_formula_units_Z   4
loop_
 _symmetry_equiv_pos_site_id
 _symmetry_equiv_pos_as_xyz
  1  'x, y, z'
loop_
 _atom_site_type_symbol
 _atom_site_label
 _atom_site_symmetry_multiplicity
 _atom_site_fract_x
 _atom_site_fract_y
 _atom_site_fract_z
 _atom_site_occupancy
  Zn  Zn0  1  0.50000000  0.50000000  0.00000000  1
  Zn  Zn1  1  -0.00000000  0.00000000  0.50000000  1
  Zn  Zn2  1  0.50000000  0.50000000  0.50000000  1
  Zn  Zn3  1  -0.00000000  0.00000000  0.00000000  1
  Zn  Zn4  1  0.51499795  0.77996140  0.25000000  1
  Zn  Zn5  1  0.98500205  0.27996140  0.25000000  1
  Zn  Zn6  1  0.48500205  0.22003860  0.75000000  1
  Zn  Zn7  1  0.01499795  0.72003860  0.75000000  1
  Si  Si8  1  0.07399922  0.59605993  0.25000000  1
  Si  Si9  1  0.42600078  0.09605993  0.25000000  1
  Si  Si10  1  0.92600078  0.40394007  0.75000000  1
  Si  Si11  1  0.57399922  0.90394007  0.75000000  1
  O  O12  1  0.73611384  0.59367523  0.25000000  1
  O  O13  1  0.76388616  0.09367523  0.25000000  1
  O  O14  1  0.26388616  0.40632477  0.75000000  1
  O  O15  1  0.23611384  0.90632477  0.75000000  1
  O  O16  1  0.28386708  0.94898458  0.25000000  1
  O  O17  1  0.21613292  0.44898458  0.25000000  1
  O  O18  1  0.71613292  0.05101542  0.75000000  1
  O  O19  1  0.78386708  0.55101542  0.75000000  1
  O  O20  1  0.22016662  0.66439354  0.03373603  1
  O  O21  1  0.27983338  0.16439354  0.46626397  1
  O  O22  1  0.77983338  0.33560646  0.53373603  1
  O  O23  1  0.72016662  0.83560646  0.96626397  1
  O  O24  1  0.77983338  0.33560646  0.96626397  1
  O  O25  1  0.72016662  0.83560646  0.53373603  1
  O  O26  1  0.22016662  0.66439354  0.46626397  1
  O  O27  1  0.27983338  0.16439354  0.03373603  1
