# generated using pymatgen
data_AlPO4
_symmetry_space_group_name_H-M   'P 1'
_cell_length_a   6.19983238
_cell_length_b   7.60132685
_cell_length_c   8.69773283
_cell_angle_alpha   98.36879575
_cell_angle_beta   104.48430719
_cell_angle_gamma   102.25244780
_symmetry_Int_Tables_number   1
_chemical_formula_structural   AlPO4
_chemical_formula_sum   'Al6 P6 O24'
_cell_volume   379.18780143
_cell_formula_units_Z   6
loop_
 _symmetry_equiv_pos_site_id
 _symmetry_equiv_pos_as_xyz
  1  'x, y, z'
loop_
 _atom_site_type_symbol
 _atom_site_label
 _atom_site_symmetry_multiplicity
 _atom_site_fract_x
 _atom_site_fract_y
 _atom_site_fract_z
 _atom_site_occupancy
  Al  Al0  1  0.23810637  0.31161490  0.58080750  1
  Al  Al1  1  0.76189363  0.68838510  0.41919250  1
  Al  Al2  1  0.53172464  0.10520687  0.78988142  1
  Al  Al3  1  0.46827536  0.89479313  0.21011858  1
  Al  Al4  1  0.01572548  0.70104944  0.97790774  1
  Al  Al5  1  0.98427452  0.29895056  0.02209226  1
  P  P6  1  0.99093480  0.99278166  0.74012611  1
  P  P7  1  0.00906520  0.00721834  0.25987389  1
  P  P8  1  0.80053975  0.40365174  0.65690828  1
  P  P9  1  0.19946025  0.59634826  0.34309172  1
  P  P10  1  0.47795190  0.69930983  0.86960297  1
  P  P11  1  0.52204810  0.30069017  0.13039703  1
  O  O12  1  0.05360570  0.85968762  0.84515839  1
  O  O13  1  0.94639430  0.14031238  0.15484161  1
  O  O14  1  0.22432379  0.12116748  0.73271063  1
  O  O15  1  0.77567621  0.87883252  0.26728937  1
  O  O16  1  0.86361582  0.11973502  0.82665385  1
  O  O17  1  0.13638418  0.88026498  0.17334615  1
  O  O18  1  0.82869040  0.90509979  0.57321888  1
  O  O19  1  0.17130960  0.09490021  0.42678112  1
  O  O20  1  0.93734538  0.47000452  0.84478217  1
  O  O21  1  0.06265462  0.52999548  0.15521783  1
  O  O22  1  0.73869680  0.56099098  0.58331740  1
  O  O23  1  0.26130320  0.43900902  0.41668260  1
  O  O24  1  0.93427184  0.30057887  0.56925828  1
  O  O25  1  0.06572816  0.69942113  0.43074172  1
  O  O26  1  0.56136097  0.26606272  0.64963609  1
  O  O27  1  0.43863903  0.73393728  0.35036391  1
  O  O28  1  0.64493009  0.26863978  0.98908537  1
  O  O29  1  0.35506991  0.73136022  0.01091463  1
  O  O30  1  0.47902825  0.86670083  0.78848977  1
  O  O31  1  0.52097175  0.13329917  0.21151023  1
  O  O32  1  0.71903452  0.69551519  0.96112603  1
  O  O33  1  0.28096548  0.30448481  0.03887397  1
  O  O34  1  0.34425428  0.52153113  0.74936833  1
  O  O35  1  0.65574572  0.47846887  0.25063167  1
