# generated using pymatgen
data_Mn2Zn(PO5)2
_symmetry_space_group_name_H-M   'P 1'
_cell_length_a   6.58792211
_cell_length_b   6.58792168
_cell_length_c   9.14431051
_cell_angle_alpha   102.18939018
_cell_angle_beta   102.18938954
_cell_angle_gamma   114.44675439
_symmetry_Int_Tables_number   1
_chemical_formula_structural   Mn2Zn(PO5)2
_chemical_formula_sum   'Mn4 Zn2 P4 O20'
_cell_volume   332.67685253
_cell_formula_units_Z   2
loop_
 _symmetry_equiv_pos_site_id
 _symmetry_equiv_pos_as_xyz
  1  'x, y, z'
loop_
 _atom_site_type_symbol
 _atom_site_label
 _atom_site_symmetry_multiplicity
 _atom_site_fract_x
 _atom_site_fract_y
 _atom_site_fract_z
 _atom_site_occupancy
  Mn  Mn0  1  0.87256105  0.61868366  0.25146228  1
  Mn  Mn1  1  0.36722038  0.62109677  0.74853772  1
  Mn  Mn2  1  0.87109677  0.11722038  0.24853772  1
  Mn  Mn3  1  0.86868366  0.62256105  0.75146228  1
  Zn  Zn4  1  0.49655750  0.99655750  0.50000000  1
  Zn  Zn5  1  0.24655750  0.24655750  0.00000000  1
  P  P6  1  0.03667979  0.03774454  0.58503058  1
  P  P7  1  0.70165022  0.20271396  0.91496942  1
  P  P8  1  0.45271396  0.45165022  0.41496942  1
  P  P9  1  0.28774454  0.78667979  0.08503058  1
  O  O10  1  0.58487740  0.55524261  0.30648695  1
  O  O11  1  0.66134303  0.66628699  0.83771569  1
  O  O12  1  0.30818205  0.58351025  0.97491107  1
  O  O13  1  0.80524261  0.33487740  0.80648695  1
  O  O14  1  0.21494581  0.23917176  0.30158791  1
  O  O15  1  0.42730866  0.65290977  0.52300838  1
  O  O16  1  0.07362733  0.57857130  0.66228431  1
  O  O17  1  0.82857130  0.82362733  0.16228431  1
  O  O18  1  0.91628699  0.41134303  0.33771569  1
  O  O19  1  0.16335690  0.68758284  0.19841209  1
  O  O20  1  0.24875566  0.27839044  0.69351305  1
  O  O21  1  0.48917176  0.96494581  0.80158791  1
  O  O22  1  0.93758284  0.91335690  0.69841209  1
  O  O23  1  0.15430129  0.87990239  0.97699162  1
  O  O24  1  0.12990239  0.90430129  0.47699162  1
  O  O25  1  0.90290977  0.17730866  0.02300838  1
  O  O26  1  0.83351025  0.05818205  0.47491107  1
  O  O27  1  0.60859818  0.33326998  0.02508893  1
  O  O28  1  0.52839044  0.99875566  0.19351305  1
  O  O29  1  0.58326998  0.35859818  0.52508893  1
