# generated using pymatgen
data_HfMg14Zn
_symmetry_space_group_name_H-M   'P 1'
_cell_length_a   6.36272772
_cell_length_b   6.36272721
_cell_length_c   10.08092784
_cell_angle_alpha   90.00000000
_cell_angle_beta   90.00000000
_cell_angle_gamma   120.00000267
_symmetry_Int_Tables_number   1
_chemical_formula_structural   HfMg14Zn
_chemical_formula_sum   'Hf1 Mg14 Zn1'
_cell_volume   353.44168483
_cell_formula_units_Z   1
loop_
 _symmetry_equiv_pos_site_id
 _symmetry_equiv_pos_as_xyz
  1  'x, y, z'
loop_
 _atom_site_type_symbol
 _atom_site_label
 _atom_site_symmetry_multiplicity
 _atom_site_fract_x
 _atom_site_fract_y
 _atom_site_fract_z
 _atom_site_occupancy
  Hf  Hf0  1  0.16666700  0.33333300  0.62500000  1
  Mg  Mg1  1  0.16455927  0.83227914  0.12500000  1
  Mg  Mg2  1  0.17320133  0.83660016  0.62500000  1
  Mg  Mg3  1  0.66772086  0.33544073  0.12500000  1
  Mg  Mg4  1  0.66339984  0.32679867  0.62500000  1
  Mg  Mg5  1  0.66772086  0.83227914  0.12500000  1
  Mg  Mg6  1  0.66339984  0.83660016  0.62500000  1
  Mg  Mg7  1  0.32833460  0.17166540  0.37247801  1
  Mg  Mg8  1  0.32833460  0.17166540  0.87752199  1
  Mg  Mg9  1  0.32833460  0.65667019  0.37247801  1
  Mg  Mg10  1  0.32833460  0.65667019  0.87752199  1
  Mg  Mg11  1  0.84332981  0.17166540  0.37247801  1
  Mg  Mg12  1  0.84332981  0.17166540  0.87752199  1
  Mg  Mg13  1  0.83333300  0.66666700  0.37863635  1
  Mg  Mg14  1  0.83333300  0.66666700  0.87136365  1
  Zn  Zn15  1  0.16666700  0.33333300  0.12500000  1
