# generated using pymatgen
data_CeHfMg14
_symmetry_space_group_name_H-M   'P 1'
_cell_length_a   6.53908674
_cell_length_b   6.28840581
_cell_length_c   10.44646584
_cell_angle_alpha   90.00000000
_cell_angle_beta   90.00000000
_cell_angle_gamma   118.73977074
_symmetry_Int_Tables_number   1
_chemical_formula_structural   CeHfMg14
_chemical_formula_sum   'Ce1 Hf1 Mg14'
_cell_volume   376.64641355
_cell_formula_units_Z   1
loop_
 _symmetry_equiv_pos_site_id
 _symmetry_equiv_pos_as_xyz
  1  'x, y, z'
loop_
 _atom_site_type_symbol
 _atom_site_label
 _atom_site_symmetry_multiplicity
 _atom_site_fract_x
 _atom_site_fract_y
 _atom_site_fract_z
 _atom_site_occupancy
  Ce  Ce0  1  0.16023688  0.33011794  0.12500000  1
  Hf  Hf1  1  0.17573871  0.83786886  0.12500000  1
  Mg  Mg2  1  0.16510277  0.33255088  0.62500000  1
  Mg  Mg3  1  0.16134980  0.83067440  0.62500000  1
  Mg  Mg4  1  0.66255538  0.32948622  0.12500000  1
  Mg  Mg5  1  0.66387602  0.33360979  0.62500000  1
  Mg  Mg6  1  0.66255538  0.83306817  0.12500000  1
  Mg  Mg7  1  0.66387602  0.83026523  0.62500000  1
  Mg  Mg8  1  0.33636344  0.16491474  0.38059256  1
  Mg  Mg9  1  0.33636344  0.16491474  0.86940744  1
  Mg  Mg10  1  0.33636344  0.67144971  0.38059256  1
  Mg  Mg11  1  0.33636344  0.67144971  0.86940744  1
  Mg  Mg12  1  0.83058150  0.16529125  0.38327022  1
  Mg  Mg13  1  0.83058150  0.16529125  0.86672978  1
  Mg  Mg14  1  0.83904614  0.66952357  0.36923053  1
  Mg  Mg15  1  0.83904614  0.66952357  0.88076947  1
