# generated using pymatgen
data_Te2MoW2(SeS)2
_symmetry_space_group_name_H-M   'P 1'
_cell_length_a   3.35015895
_cell_length_b   3.35019850
_cell_length_c   32.04871011
_cell_angle_alpha   90.02236549
_cell_angle_beta   90.00000000
_cell_angle_gamma   119.99960940
_symmetry_Int_Tables_number   1
_chemical_formula_structural   Te2MoW2(SeS)2
_chemical_formula_sum   'Te2 Mo1 W2 Se2 S2'
_cell_volume   311.51488574
_cell_formula_units_Z   1
loop_
 _symmetry_equiv_pos_site_id
 _symmetry_equiv_pos_as_xyz
  1  'x, y, z'
loop_
 _atom_site_type_symbol
 _atom_site_label
 _atom_site_symmetry_multiplicity
 _atom_site_fract_x
 _atom_site_fract_y
 _atom_site_fract_z
 _atom_site_occupancy
  Te  Te0  1  0.66646417  0.33292733  0.51999260  1
  Te  Te1  1  0.66704045  0.33407989  0.63887402  1
  Mo  Mo2  1  0.33305650  0.66611300  0.11316956  1
  W  W3  1  0.33337522  0.66675045  0.57939847  1
  W  W4  1  0.66681221  0.33362442  0.34830131  1
  Se  Se5  1  0.66644706  0.33289312  0.06123771  1
  Se  Se6  1  0.66649816  0.33299531  0.16519858  1
  S  S7  1  0.33357844  0.66715789  0.39583072  1
  S  S8  1  0.33332879  0.66665859  0.30083804  1
