# generated using pymatgen
data_Mg14ZrGa
_symmetry_space_group_name_H-M   'P 1'
_cell_length_a   6.37367004
_cell_length_b   6.21851360
_cell_length_c   10.24707130
_cell_angle_alpha   90.00000000
_cell_angle_beta   90.00000000
_cell_angle_gamma   119.19794885
_symmetry_Int_Tables_number   1
_chemical_formula_structural   Mg14ZrGa
_chemical_formula_sum   'Mg14 Zr1 Ga1'
_cell_volume   354.53579521
_cell_formula_units_Z   1
loop_
 _symmetry_equiv_pos_site_id
 _symmetry_equiv_pos_as_xyz
  1  'x, y, z'
loop_
 _atom_site_type_symbol
 _atom_site_label
 _atom_site_symmetry_multiplicity
 _atom_site_fract_x
 _atom_site_fract_y
 _atom_site_fract_z
 _atom_site_occupancy
  Mg  Mg0  1  0.16614460  0.33307180  0.62500000  1
  Mg  Mg1  1  0.16521262  0.83260581  0.62500000  1
  Mg  Mg2  1  0.66304202  0.32828531  0.12500000  1
  Mg  Mg3  1  0.66581801  0.33410160  0.62500000  1
  Mg  Mg4  1  0.66304202  0.83475571  0.12500000  1
  Mg  Mg5  1  0.66581801  0.83171541  0.62500000  1
  Mg  Mg6  1  0.33246425  0.16711217  0.37202215  1
  Mg  Mg7  1  0.33246425  0.16711217  0.87797785  1
  Mg  Mg8  1  0.33246425  0.66535308  0.37202215  1
  Mg  Mg9  1  0.33246425  0.66535308  0.87797785  1
  Mg  Mg10  1  0.83796933  0.16898517  0.37517172  1
  Mg  Mg11  1  0.83796933  0.16898517  0.87482828  1
  Mg  Mg12  1  0.83693019  0.66846559  0.37019822  1
  Mg  Mg13  1  0.83693019  0.66846559  0.87980178  1
  Zr  Zr14  1  0.15980651  0.32990275  0.12500000  1
  Ga  Ga15  1  0.17146016  0.83572958  0.12500000  1
