# generated using pymatgen
data_LaYMg14
_symmetry_space_group_name_H-M   'P 1'
_cell_length_a   6.69523931
_cell_length_b   6.69523871
_cell_length_c   10.32648904
_cell_angle_alpha   90.00000000
_cell_angle_beta   90.00000000
_cell_angle_gamma   120.00000290
_symmetry_Int_Tables_number   1
_chemical_formula_structural   LaYMg14
_chemical_formula_sum   'La1 Y1 Mg14'
_cell_volume   400.88100470
_cell_formula_units_Z   1
loop_
 _symmetry_equiv_pos_site_id
 _symmetry_equiv_pos_as_xyz
  1  'x, y, z'
loop_
 _atom_site_type_symbol
 _atom_site_label
 _atom_site_symmetry_multiplicity
 _atom_site_fract_x
 _atom_site_fract_y
 _atom_site_fract_z
 _atom_site_occupancy
  La  La0  1  0.16666700  0.33333300  0.62500000  1
  Y  Y1  1  0.16666700  0.33333300  0.12500000  1
  Mg  Mg2  1  0.17152874  0.83576387  0.12500000  1
  Mg  Mg3  1  0.17309344  0.83654622  0.62500000  1
  Mg  Mg4  1  0.66423613  0.32847126  0.12500000  1
  Mg  Mg5  1  0.66345378  0.32690656  0.62500000  1
  Mg  Mg6  1  0.66423613  0.83576387  0.12500000  1
  Mg  Mg7  1  0.66345378  0.83654622  0.62500000  1
  Mg  Mg8  1  0.33765973  0.16234027  0.37274304  1
  Mg  Mg9  1  0.33765973  0.16234027  0.87725696  1
  Mg  Mg10  1  0.33765973  0.67532045  0.37274304  1
  Mg  Mg11  1  0.33765973  0.67532045  0.87725696  1
  Mg  Mg12  1  0.82467955  0.16234027  0.37274304  1
  Mg  Mg13  1  0.82467955  0.16234027  0.87725696  1
  Mg  Mg14  1  0.83333300  0.66666700  0.37645188  1
  Mg  Mg15  1  0.83333300  0.66666700  0.87354812  1
