# generated using pymatgen
data_YMg14Cu
_symmetry_space_group_name_H-M   'P 1'
_cell_length_a   6.40575455
_cell_length_b   6.40575402
_cell_length_c   10.23967846
_cell_angle_alpha   90.00000000
_cell_angle_beta   90.00000000
_cell_angle_gamma   120.00000269
_symmetry_Int_Tables_number   1
_chemical_formula_structural   YMg14Cu
_chemical_formula_sum   'Y1 Mg14 Cu1'
_cell_volume   363.87941746
_cell_formula_units_Z   1
loop_
 _symmetry_equiv_pos_site_id
 _symmetry_equiv_pos_as_xyz
  1  'x, y, z'
loop_
 _atom_site_type_symbol
 _atom_site_label
 _atom_site_symmetry_multiplicity
 _atom_site_fract_x
 _atom_site_fract_y
 _atom_site_fract_z
 _atom_site_occupancy
  Y  Y0  1  0.16666700  0.33333300  0.12500000  1
  Mg  Mg1  1  0.17918657  0.83959279  0.12500000  1
  Mg  Mg2  1  0.16279521  0.83139710  0.62500000  1
  Mg  Mg3  1  0.66040721  0.32081343  0.12500000  1
  Mg  Mg4  1  0.66860290  0.33720479  0.62500000  1
  Mg  Mg5  1  0.66040721  0.83959279  0.12500000  1
  Mg  Mg6  1  0.66860290  0.83139710  0.62500000  1
  Mg  Mg7  1  0.32920555  0.17079445  0.38892565  1
  Mg  Mg8  1  0.32920555  0.17079445  0.86107435  1
  Mg  Mg9  1  0.32920555  0.65841210  0.38892565  1
  Mg  Mg10  1  0.32920555  0.65841210  0.86107435  1
  Mg  Mg11  1  0.84158790  0.17079445  0.38892565  1
  Mg  Mg12  1  0.84158790  0.17079445  0.86107435  1
  Mg  Mg13  1  0.83333300  0.66666700  0.36910454  1
  Mg  Mg14  1  0.83333300  0.66666700  0.88089546  1
  Cu  Cu15  1  0.16666700  0.33333300  0.62500000  1
