# generated using pymatgen
data_ZnMo2(PO5)2
_symmetry_space_group_name_H-M   'P 1'
_cell_length_a   7.03804679
_cell_length_b   7.03804646
_cell_length_c   8.84943533
_cell_angle_alpha   103.18430481
_cell_angle_beta   103.18430745
_cell_angle_gamma   115.24103459
_symmetry_Int_Tables_number   1
_chemical_formula_structural   ZnMo2(PO5)2
_chemical_formula_sum   'Zn2 Mo4 P4 O20'
_cell_volume   358.73635655
_cell_formula_units_Z   2
loop_
 _symmetry_equiv_pos_site_id
 _symmetry_equiv_pos_as_xyz
  1  'x, y, z'
loop_
 _atom_site_type_symbol
 _atom_site_label
 _atom_site_symmetry_multiplicity
 _atom_site_fract_x
 _atom_site_fract_y
 _atom_site_fract_z
 _atom_site_occupancy
  Zn  Zn0  1  0.51254944  0.01254944  0.50000000  1
  Zn  Zn1  1  0.26254944  0.26254944  0.00000000  1
  Mo  Mo2  1  0.87277598  0.62012020  0.25260174  1
  Mo  Mo3  1  0.36751846  0.62017325  0.74739826  1
  Mo  Mo4  1  0.87017325  0.11751846  0.24739826  1
  Mo  Mo5  1  0.87012020  0.62277598  0.75260174  1
  P  P6  1  0.03887556  0.04098757  0.59337313  1
  P  P7  1  0.69550243  0.19761444  0.90662687  1
  P  P8  1  0.44761444  0.44550243  0.40662687  1
  P  P9  1  0.29098757  0.78887556  0.09337313  1
  O  O10  1  0.56673465  0.53769774  0.29234138  1
  O  O11  1  0.66205859  0.66463225  0.84092868  1
  O  O12  1  0.30562958  0.59189838  0.97769279  1
  O  O13  1  0.78769774  0.31673465  0.79234138  1
  O  O14  1  0.21629584  0.24039874  0.28812504  1
  O  O15  1  0.43210076  0.64025030  0.52214282  1
  O  O16  1  0.07112991  0.57370357  0.65907132  1
  O  O17  1  0.82370357  0.82112991  0.15907132  1
  O  O18  1  0.91463225  0.41205859  0.34092868  1
  O  O19  1  0.17817081  0.70227370  0.21187496  1
  O  O20  1  0.24535636  0.27439427  0.70765862  1
  O  O21  1  0.49039874  0.96629584  0.78812504  1
  O  O22  1  0.95227370  0.92817081  0.71187496  1
  O  O23  1  0.15995895  0.86810748  0.97785718  1
  O  O24  1  0.11810748  0.90995895  0.47785718  1
  O  O25  1  0.89025030  0.18210076  0.02214282  1
  O  O26  1  0.84189838  0.05562958  0.47769279  1
  O  O27  1  0.61420559  0.32793679  0.02230721  1
  O  O28  1  0.52439427  0.99535636  0.20765862  1
  O  O29  1  0.57793679  0.36420559  0.52230721  1
