# generated using pymatgen
data_YMg14Al
_symmetry_space_group_name_H-M   'P 1'
_cell_length_a   6.43188503
_cell_length_b   6.43188450
_cell_length_c   10.34133387
_cell_angle_alpha   90.00000000
_cell_angle_beta   90.00000000
_cell_angle_gamma   120.00000268
_symmetry_Int_Tables_number   1
_chemical_formula_structural   YMg14Al
_chemical_formula_sum   'Y1 Mg14 Al1'
_cell_volume   370.49614136
_cell_formula_units_Z   1
loop_
 _symmetry_equiv_pos_site_id
 _symmetry_equiv_pos_as_xyz
  1  'x, y, z'
loop_
 _atom_site_type_symbol
 _atom_site_label
 _atom_site_symmetry_multiplicity
 _atom_site_fract_x
 _atom_site_fract_y
 _atom_site_fract_z
 _atom_site_occupancy
  Y  Y0  1  0.16666700  0.33333300  0.62500000  1
  Mg  Mg1  1  0.16370613  0.83185256  0.12500000  1
  Mg  Mg2  1  0.17563049  0.83781475  0.62500000  1
  Mg  Mg3  1  0.66814744  0.33629387  0.12500000  1
  Mg  Mg4  1  0.66218525  0.32436951  0.62500000  1
  Mg  Mg5  1  0.66814744  0.83185256  0.12500000  1
  Mg  Mg6  1  0.66218525  0.83781475  0.62500000  1
  Mg  Mg7  1  0.33221789  0.16778211  0.36853068  1
  Mg  Mg8  1  0.33221789  0.16778211  0.88146932  1
  Mg  Mg9  1  0.33221789  0.66443677  0.36853068  1
  Mg  Mg10  1  0.33221789  0.66443677  0.88146932  1
  Mg  Mg11  1  0.83556323  0.16778211  0.36853068  1
  Mg  Mg12  1  0.83556323  0.16778211  0.88146932  1
  Mg  Mg13  1  0.83333300  0.66666700  0.38123294  1
  Mg  Mg14  1  0.83333300  0.66666700  0.86876706  1
  Al  Al15  1  0.16666700  0.33333300  0.12500000  1
