# generated using pymatgen
data_Te2MoWSeS
_symmetry_space_group_name_H-M   'P 1'
_cell_length_a   3.39637407
_cell_length_b   3.39637021
_cell_length_c   38.80381924
_cell_angle_alpha   89.99988613
_cell_angle_beta   90.00000000
_cell_angle_gamma   120.00003765
_symmetry_Int_Tables_number   1
_chemical_formula_structural   Te2MoWSeS
_chemical_formula_sum   'Te4 Mo2 W2 Se2 S2'
_cell_volume   387.64615426
_cell_formula_units_Z   2
loop_
 _symmetry_equiv_pos_site_id
 _symmetry_equiv_pos_as_xyz
  1  'x, y, z'
loop_
 _atom_site_type_symbol
 _atom_site_label
 _atom_site_symmetry_multiplicity
 _atom_site_fract_x
 _atom_site_fract_y
 _atom_site_fract_z
 _atom_site_occupancy
  Te  Te0  1  0.33335952  0.66672004  0.32998706  1
  Te  Te1  1  0.66664510  0.33328919  0.42114400  1
  Te  Te2  1  0.66662345  0.33324591  0.51826722  1
  Te  Te3  1  0.33335426  0.66670952  0.23352202  1
  Mo  Mo4  1  0.33330957  0.66661913  0.09390997  1
  Mo  Mo5  1  0.66669331  0.33338663  0.28173114  1
  W  W6  1  0.33331321  0.66662643  0.46974022  1
  W  W7  1  0.66669634  0.33339269  0.65753163  1
  Se  Se8  1  0.66664477  0.33328854  0.05141764  1
  Se  Se9  1  0.66664506  0.33328913  0.13644418  1
  S  S10  1  0.33335673  0.66671446  0.69638414  1
  S  S11  1  0.33335867  0.66671835  0.61866879  1
