# generated using pymatgen
data_Te2MoWS2
_symmetry_space_group_name_H-M   'P 1'
_cell_length_a   3.35565656
_cell_length_b   3.35565981
_cell_length_c   38.31834622
_cell_angle_alpha   90.00040160
_cell_angle_beta   90.00000000
_cell_angle_gamma   119.99996796
_symmetry_Int_Tables_number   1
_chemical_formula_structural   Te2MoWS2
_chemical_formula_sum   'Te4 Mo2 W2 S4'
_cell_volume   373.67406917
_cell_formula_units_Z   2
loop_
 _symmetry_equiv_pos_site_id
 _symmetry_equiv_pos_as_xyz
  1  'x, y, z'
loop_
 _atom_site_type_symbol
 _atom_site_label
 _atom_site_symmetry_multiplicity
 _atom_site_fract_x
 _atom_site_fract_y
 _atom_site_fract_z
 _atom_site_occupancy
  Te  Te0  1  0.33335759  0.66671618  0.70694959  1
  Te  Te1  1  0.66664241  0.33328382  0.04450841  1
  Te  Te2  1  0.66665035  0.33329969  0.14329911  1
  Te  Te3  1  0.33334965  0.66670031  0.60815889  1
  Mo  Mo4  1  0.33331170  0.66662339  0.09388855  1
  Mo  Mo5  1  0.66668830  0.33337661  0.65756945  1
  W  W6  1  0.33330543  0.66661085  0.46964782  1
  W  W7  1  0.66669457  0.33338915  0.28181018  1
  S  S8  1  0.33335660  0.66671421  0.32144419  1
  S  S9  1  0.66664340  0.33328579  0.43001381  1
  S  S10  1  0.66664425  0.33328750  0.50929067  1
  S  S11  1  0.33335575  0.66671250  0.24216733  1
