# generated using pymatgen
data_ZnCo2(PO5)2
_symmetry_space_group_name_H-M   'P 1'
_cell_length_a   6.46080342
_cell_length_b   6.46080292
_cell_length_c   9.08544018
_cell_angle_alpha   102.03865496
_cell_angle_beta   102.03865332
_cell_angle_gamma   114.41839027
_symmetry_Int_Tables_number   1
_chemical_formula_structural   ZnCo2(PO5)2
_chemical_formula_sum   'Zn2 Co4 P4 O20'
_cell_volume   318.68517529
_cell_formula_units_Z   2
loop_
 _symmetry_equiv_pos_site_id
 _symmetry_equiv_pos_as_xyz
  1  'x, y, z'
loop_
 _atom_site_type_symbol
 _atom_site_label
 _atom_site_symmetry_multiplicity
 _atom_site_fract_x
 _atom_site_fract_y
 _atom_site_fract_z
 _atom_site_occupancy
  Zn  Zn0  1  0.49459503  0.99459503  0.50000000  1
  Zn  Zn1  1  0.24459503  0.24459503  1.00000000  1
  Co  Co2  1  0.87190672  0.61769838  0.25181399  1
  Co  Co3  1  0.36588339  0.62009073  0.74818601  1
  Co  Co4  1  0.87009073  0.11588339  0.24818601  1
  Co  Co5  1  0.86769838  0.62190672  0.75181399  1
  P  P6  1  0.03693422  0.03749481  0.58413969  1
  P  P7  1  0.70279453  0.20335512  0.91586031  1
  P  P8  1  0.45335512  0.45279453  0.41586031  1
  P  P9  1  0.28749481  0.78693422  0.08413969  1
  O  O10  1  0.58305189  0.55567181  0.30196681  1
  O  O11  1  0.66042294  0.66234466  0.83253740  1
  O  O12  1  0.31325451  0.58396166  0.97639721  1
  O  O13  1  0.80567181  0.33305189  0.80196681  1
  O  O14  1  0.21146572  0.23626243  0.29921280  1
  O  O15  1  0.42493109  0.65447901  0.52260695  1
  O  O16  1  0.07788554  0.57980726  0.66746260  1
  O  O17  1  0.82980726  0.82788554  0.16746260  1
  O  O18  1  0.91234466  0.41042294  0.33253740  1
  O  O19  1  0.16225292  0.68705063  0.20078720  1
  O  O20  1  0.25370500  0.28108608  0.69803319  1
  O  O21  1  0.48626243  0.96146572  0.79921280  1
  O  O22  1  0.93705063  0.91225292  0.70078720  1
  O  O23  1  0.15232613  0.88187305  0.97739305  1
  O  O24  1  0.13187305  0.90232613  0.47739305  1
  O  O25  1  0.90447901  0.17493109  0.02260695  1
  O  O26  1  0.83396166  0.06325451  0.47639721  1
  O  O27  1  0.60756445  0.33685730  0.02360279  1
  O  O28  1  0.53108608  0.00370500  0.19803319  1
  O  O29  1  0.58685730  0.35756445  0.52360279  1
