# generated using pymatgen
data_Te2MoWS2
_symmetry_space_group_name_H-M   'P 1'
_cell_length_a   3.35580244
_cell_length_b   3.35574242
_cell_length_c   38.30585906
_cell_angle_alpha   89.99997300
_cell_angle_beta   90.00000000
_cell_angle_gamma   120.00059164
_symmetry_Int_Tables_number   1
_chemical_formula_structural   Te2MoWS2
_chemical_formula_sum   'Te4 Mo2 W2 S4'
_cell_volume   373.57538486
_cell_formula_units_Z   2
loop_
 _symmetry_equiv_pos_site_id
 _symmetry_equiv_pos_as_xyz
  1  'x, y, z'
loop_
 _atom_site_type_symbol
 _atom_site_label
 _atom_site_symmetry_multiplicity
 _atom_site_fract_x
 _atom_site_fract_y
 _atom_site_fract_z
 _atom_site_occupancy
  Te  Te0  1  0.66663152  0.33326203  0.04460794  1
  Te  Te1  1  0.66664762  0.33329423  0.42036092  1
  Te  Te2  1  0.66664816  0.33329533  0.14323766  1
  Te  Te3  1  0.66664753  0.33329406  0.51899509  1
  Mo  Mo4  1  0.33330775  0.66661551  0.09389112  1
  Mo  Mo5  1  0.33331102  0.66662204  0.46964742  1
  W  W6  1  0.66671342  0.33342684  0.28177678  1
  W  W7  1  0.66668981  0.33337961  0.65754187  1
  S  S8  1  0.33334784  0.66669667  0.32142748  1
  S  S9  1  0.33335679  0.66671459  0.69719411  1
  S  S10  1  0.33334338  0.66668777  0.24217181  1
  S  S11  1  0.33335516  0.66671131  0.61789578  1
