# generated using pymatgen
data_YMg14Ni
_symmetry_space_group_name_H-M   'P 1'
_cell_length_a   6.49131213
_cell_length_b   6.19191846
_cell_length_c   10.21785650
_cell_angle_alpha   90.00000000
_cell_angle_beta   90.00000000
_cell_angle_gamma   118.48567178
_symmetry_Int_Tables_number   1
_chemical_formula_structural   YMg14Ni
_chemical_formula_sum   'Y1 Mg14 Ni1'
_cell_volume   360.97321314
_cell_formula_units_Z   1
loop_
 _symmetry_equiv_pos_site_id
 _symmetry_equiv_pos_as_xyz
  1  'x, y, z'
loop_
 _atom_site_type_symbol
 _atom_site_label
 _atom_site_symmetry_multiplicity
 _atom_site_fract_x
 _atom_site_fract_y
 _atom_site_fract_z
 _atom_site_occupancy
  Y  Y0  1  0.13051302  0.31525601  0.12500000  1
  Mg  Mg1  1  0.16764268  0.33382084  0.62500000  1
  Mg  Mg2  1  0.16150398  0.83075149  0.62500000  1
  Mg  Mg3  1  0.62344648  0.29737390  0.12500000  1
  Mg  Mg4  1  0.66386383  0.33641113  0.62500000  1
  Mg  Mg5  1  0.62344648  0.82607158  0.12500000  1
  Mg  Mg6  1  0.66386383  0.82745170  0.62500000  1
  Mg  Mg7  1  0.33926648  0.16621701  0.37313933  1
  Mg  Mg8  1  0.33926648  0.16621701  0.87686067  1
  Mg  Mg9  1  0.33926648  0.67305047  0.37313933  1
  Mg  Mg10  1  0.33926648  0.67305047  0.87686067  1
  Mg  Mg11  1  0.83319707  0.16659903  0.38664007  1
  Mg  Mg12  1  0.83319707  0.16659903  0.86335993  1
  Mg  Mg13  1  0.87141062  0.68570581  0.34046734  1
  Mg  Mg14  1  0.87141062  0.68570581  0.90953266  1
  Ni  Ni15  1  0.19943840  0.84971870  0.12500000  1
