# generated using pymatgen
data_Mg14TiVO16
_symmetry_space_group_name_H-M   'P 1'
_cell_length_a   8.57906912
_cell_length_b   8.57238118
_cell_length_c   4.26804867
_cell_angle_alpha   90.00000000
_cell_angle_beta   90.00000000
_cell_angle_gamma   90.00000000
_symmetry_Int_Tables_number   1
_chemical_formula_structural   Mg14TiVO16
_chemical_formula_sum   'Mg14 Ti1 V1 O16'
_cell_volume   313.88531958
_cell_formula_units_Z   1
loop_
 _symmetry_equiv_pos_site_id
 _symmetry_equiv_pos_as_xyz
  1  'x, y, z'
loop_
 _atom_site_type_symbol
 _atom_site_label
 _atom_site_symmetry_multiplicity
 _atom_site_fract_x
 _atom_site_fract_y
 _atom_site_fract_z
 _atom_site_occupancy
  Mg  Mg0  1  0.50000000  -0.00000000  0.00000000  1
  Mg  Mg1  1  0.50000000  0.50000000  0.00000000  1
  Mg  Mg2  1  0.00000000  0.24793680  0.50000000  1
  Mg  Mg3  1  0.00000000  0.75206320  0.50000000  1
  Mg  Mg4  1  0.50000000  0.24960318  0.50000000  1
  Mg  Mg5  1  0.50000000  0.75039682  0.50000000  1
  Mg  Mg6  1  0.25132090  0.00000000  0.50000000  1
  Mg  Mg7  1  0.25274434  0.50000000  0.50000000  1
  Mg  Mg8  1  0.74867910  0.00000000  0.50000000  1
  Mg  Mg9  1  0.74725566  0.50000000  0.50000000  1
  Mg  Mg10  1  0.25104177  0.25027516  -0.00000000  1
  Mg  Mg11  1  0.25104177  0.74972484  -0.00000000  1
  Mg  Mg12  1  0.74895823  0.25027516  0.00000000  1
  Mg  Mg13  1  0.74895823  0.74972484  0.00000000  1
  Ti  Ti14  1  0.00000000  0.50000000  0.00000000  1
  V  V15  1  0.00000000  -0.00000000  0.00000000  1
  O  O16  1  0.25554684  -0.00000000  0.00000000  1
  O  O17  1  0.25834957  0.50000000  0.00000000  1
  O  O18  1  0.74445316  0.00000000  -0.00000000  1
  O  O19  1  0.74165043  0.50000000  -0.00000000  1
  O  O20  1  0.24894683  0.24995179  0.50000000  1
  O  O21  1  0.24894683  0.75004821  0.50000000  1
  O  O22  1  0.75105317  0.24995179  0.50000000  1
  O  O23  1  0.75105317  0.75004821  0.50000000  1
  O  O24  1  0.00000000  -0.00000000  0.50000000  1
  O  O25  1  0.00000000  0.50000000  0.50000000  1
  O  O26  1  0.50000000  -0.00000000  0.50000000  1
  O  O27  1  0.50000000  0.50000000  0.50000000  1
  O  O28  1  0.00000000  0.24935645  -0.00000000  1
  O  O29  1  0.00000000  0.75064355  0.00000000  1
  O  O30  1  0.50000000  0.24932301  -0.00000000  1
  O  O31  1  0.50000000  0.75067699  0.00000000  1
