# generated using pymatgen
data_CeMg
_symmetry_space_group_name_H-M   'P 1'
_cell_length_a   5.75193489
_cell_length_b   3.17470163
_cell_length_c   17.24871975
_cell_angle_alpha   90.00000000
_cell_angle_beta   90.00000000
_cell_angle_gamma   90.00000000
_symmetry_Int_Tables_number   1
_chemical_formula_structural   CeMg
_chemical_formula_sum   'Ce6 Mg6'
_cell_volume   314.97330124
_cell_formula_units_Z   6
loop_
 _symmetry_equiv_pos_site_id
 _symmetry_equiv_pos_as_xyz
  1  'x, y, z'
loop_
 _atom_site_type_symbol
 _atom_site_label
 _atom_site_symmetry_multiplicity
 _atom_site_fract_x
 _atom_site_fract_y
 _atom_site_fract_z
 _atom_site_occupancy
  Ce  Ce0  1  -0.00000000  0.50000000  0.49302270  1
  Ce  Ce1  1  -0.00000000  0.50000000  0.84835816  1
  Ce  Ce2  1  0.50000000  0.50000000  0.71715050  1
  Ce  Ce3  1  -0.00000000  -0.00000000  0.99302270  1
  Ce  Ce4  1  -0.00000000  -0.00000000  0.34835816  1
  Ce  Ce5  1  0.50000000  0.00000000  0.21715050  1
  Mg  Mg6  1  -0.00000000  -0.00000000  0.66575995  1
  Mg  Mg7  1  0.50000000  0.00000000  0.54851230  1
  Mg  Mg8  1  0.50000000  -0.00000000  0.89386339  1
  Mg  Mg9  1  -0.00000000  0.50000000  0.16575995  1
  Mg  Mg10  1  0.50000000  0.50000000  0.04851230  1
  Mg  Mg11  1  0.50000000  0.50000000  0.39386339  1
