# generated using pymatgen
data_MgBi
_symmetry_space_group_name_H-M   'P 1'
_cell_length_a   11.82105012
_cell_length_b   3.56550400
_cell_length_c   5.32417090
_cell_angle_alpha   90.00000000
_cell_angle_beta   101.47202808
_cell_angle_gamma   90.00000000
_symmetry_Int_Tables_number   1
_chemical_formula_structural   MgBi
_chemical_formula_sum   'Mg4 Bi4'
_cell_volume   219.92001849
_cell_formula_units_Z   4
loop_
 _symmetry_equiv_pos_site_id
 _symmetry_equiv_pos_as_xyz
  1  'x, y, z'
loop_
 _atom_site_type_symbol
 _atom_site_label
 _atom_site_symmetry_multiplicity
 _atom_site_fract_x
 _atom_site_fract_y
 _atom_site_fract_z
 _atom_site_occupancy
  Mg  Mg0  1  0.62710155  0.50000000  0.79144280  1
  Mg  Mg1  1  0.87289845  -0.00000000  0.20855720  1
  Mg  Mg2  1  0.12710155  0.00000000  0.79144280  1
  Mg  Mg3  1  0.37289845  0.50000000  0.20855720  1
  Bi  Bi4  1  0.88155069  0.50000000  0.72197565  1
  Bi  Bi5  1  0.61844931  0.00000000  0.27802435  1
  Bi  Bi6  1  0.38155069  0.00000000  0.72197565  1
  Bi  Bi7  1  0.11844931  0.50000000  0.27802435  1
