# generated using pymatgen
data_CaMg
_symmetry_space_group_name_H-M   'P 1'
_cell_length_a   13.24202852
_cell_length_b   3.64049076
_cell_length_c   8.27834129
_cell_angle_alpha   90.00000000
_cell_angle_beta   105.80903580
_cell_angle_gamma   90.00000000
_symmetry_Int_Tables_number   1
_chemical_formula_structural   CaMg
_chemical_formula_sum   'Ca6 Mg6'
_cell_volume   383.98288434
_cell_formula_units_Z   6
loop_
 _symmetry_equiv_pos_site_id
 _symmetry_equiv_pos_as_xyz
  1  'x, y, z'
loop_
 _atom_site_type_symbol
 _atom_site_label
 _atom_site_symmetry_multiplicity
 _atom_site_fract_x
 _atom_site_fract_y
 _atom_site_fract_z
 _atom_site_occupancy
  Ca  Ca0  1  0.02007308  0.00000000  0.00643895  1
  Ca  Ca1  1  0.37778238  0.00000000  0.27387383  1
  Ca  Ca2  1  0.32602447  0.00000000  0.66711062  1
  Ca  Ca3  1  0.52007308  0.50000000  0.00643895  1
  Ca  Ca4  1  0.87778238  0.50000000  0.27387383  1
  Ca  Ca5  1  0.82602447  0.50000000  0.66711062  1
  Mg  Mg6  1  0.16105195  0.50000000  0.34158517  1
  Mg  Mg7  1  0.05744874  -0.00000000  0.60790470  1
  Mg  Mg8  1  0.22428637  0.50000000  0.93641972  1
  Mg  Mg9  1  0.66105195  -0.00000000  0.34158517  1
  Mg  Mg10  1  0.55744874  0.50000000  0.60790470  1
  Mg  Mg11  1  0.72428637  0.00000000  0.93641972  1
