# generated using pymatgen
data_MgBiWO5
_symmetry_space_group_name_H-M   'P 1'
_cell_length_a   5.43302671
_cell_length_b   8.01557797
_cell_length_c   11.88723177
_cell_angle_alpha   90.00000000
_cell_angle_beta   90.00000000
_cell_angle_gamma   104.66131644
_symmetry_Int_Tables_number   1
_chemical_formula_structural   MgBiWO5
_chemical_formula_sum   'Mg4 Bi4 W4 O20'
_cell_volume   500.81916651
_cell_formula_units_Z   4
loop_
 _symmetry_equiv_pos_site_id
 _symmetry_equiv_pos_as_xyz
  1  'x, y, z'
loop_
 _atom_site_type_symbol
 _atom_site_label
 _atom_site_symmetry_multiplicity
 _atom_site_fract_x
 _atom_site_fract_y
 _atom_site_fract_z
 _atom_site_occupancy
  Mg  Mg0  1  0.60844597  0.17329872  0.92020907  1
  Mg  Mg1  1  0.39155403  0.82670128  0.07979093  1
  Mg  Mg2  1  0.89155403  0.32670128  0.42020907  1
  Mg  Mg3  1  0.10844597  0.67329872  0.57979093  1
  Bi  Bi4  1  0.09900950  0.15432815  0.10299641  1
  Bi  Bi5  1  0.90099050  0.84567185  0.89700359  1
  Bi  Bi6  1  0.59900950  0.65432815  0.39700359  1
  Bi  Bi7  1  0.40099050  0.34567185  0.60299641  1
  W  W8  1  0.76555831  0.97634407  0.63807478  1
  W  W9  1  0.23444169  0.02365593  0.36192522  1
  W  W10  1  0.73444169  0.52365593  0.13807478  1
  W  W11  1  0.26555831  0.47634407  0.86192522  1
  O  O12  1  0.54785052  0.32442218  0.06562867  1
  O  O13  1  0.98508914  0.33189668  0.92786083  1
  O  O14  1  0.51756778  0.66171306  0.18682504  1
  O  O15  1  0.75585199  0.51346556  0.52887587  1
  O  O16  1  0.78159593  0.47804173  0.29581240  1
  O  O17  1  0.28159593  0.97804173  0.20418760  1
  O  O18  1  0.48508914  0.83189668  0.57213917  1
  O  O19  1  0.51491086  0.16810332  0.42786083  1
  O  O20  1  0.24414801  0.48653444  0.47112413  1
  O  O21  1  0.95214948  0.17557782  0.56562867  1
  O  O22  1  0.21840407  0.52195827  0.70418760  1
  O  O23  1  0.45214948  0.67557782  0.93437133  1
  O  O24  1  0.04785052  0.82442218  0.43437133  1
  O  O25  1  0.71840407  0.02195827  0.79581240  1
  O  O26  1  0.74414801  0.98653444  0.02887587  1
  O  O27  1  0.25585199  0.01346556  0.97112413  1
  O  O28  1  0.48243222  0.33828694  0.81317496  1
  O  O29  1  0.01491086  0.66810332  0.07213917  1
  O  O30  1  0.98243222  0.83828694  0.68682504  1
  O  O31  1  0.01756778  0.16171306  0.31317496  1
