# generated using pymatgen
data_KNaMg30O31
_symmetry_space_group_name_H-M   'P 1'
_cell_length_a   8.48454217
_cell_length_b   8.64850058
_cell_length_c   8.68911206
_cell_angle_alpha   90.00000000
_cell_angle_beta   90.00000000
_cell_angle_gamma   90.00000000
_symmetry_Int_Tables_number   1
_chemical_formula_structural   KNaMg30O31
_chemical_formula_sum   'K1 Na1 Mg30 O31'
_cell_volume   637.59459910
_cell_formula_units_Z   1
loop_
 _symmetry_equiv_pos_site_id
 _symmetry_equiv_pos_as_xyz
  1  'x, y, z'
loop_
 _atom_site_type_symbol
 _atom_site_label
 _atom_site_symmetry_multiplicity
 _atom_site_fract_x
 _atom_site_fract_y
 _atom_site_fract_z
 _atom_site_occupancy
  K  K0  1  0.07046097  -0.00000000  0.00000000  1
  Na  Na1  1  0.99366865  -0.00000000  0.50000000  1
  Mg  Mg2  1  0.99160471  0.50000000  0.00000000  1
  Mg  Mg3  1  0.99613394  0.50000000  0.50000000  1
  Mg  Mg4  1  0.52030828  -0.00000000  0.00000000  1
  Mg  Mg5  1  0.50141475  -0.00000000  0.50000000  1
  Mg  Mg6  1  0.50434816  0.50000000  0.00000000  1
  Mg  Mg7  1  0.50082852  0.50000000  0.50000000  1
  Mg  Mg8  1  0.99711217  0.24904127  0.25299969  1
  Mg  Mg9  1  0.99711217  0.24904127  0.74700031  1
  Mg  Mg10  1  0.99711217  0.75095873  0.25299969  1
  Mg  Mg11  1  0.99711217  0.75095873  0.74700031  1
  Mg  Mg12  1  0.49889103  0.24759957  0.24874218  1
  Mg  Mg13  1  0.49889103  0.24759957  0.75125782  1
  Mg  Mg14  1  0.49889103  0.75240043  0.24874218  1
  Mg  Mg15  1  0.49889103  0.75240043  0.75125782  1
  Mg  Mg16  1  0.24405796  -0.00000000  0.27950750  1
  Mg  Mg17  1  0.24405796  -0.00000000  0.72049250  1
  Mg  Mg18  1  0.24742279  0.50000000  0.25413508  1
  Mg  Mg19  1  0.24742279  0.50000000  0.74586492  1
  Mg  Mg20  1  0.75937991  -0.00000000  0.24937869  1
  Mg  Mg21  1  0.75937991  -0.00000000  0.75062131  1
  Mg  Mg22  1  0.74891415  0.50000000  0.25093187  1
  Mg  Mg23  1  0.74891415  0.50000000  0.74906813  1
  Mg  Mg24  1  0.24801515  0.27786435  0.00000000  1
  Mg  Mg25  1  0.24676469  0.25310540  0.50000000  1
  Mg  Mg26  1  0.24801515  0.72213565  0.00000000  1
  Mg  Mg27  1  0.24676469  0.74689460  0.50000000  1
  Mg  Mg28  1  0.75799265  0.24548142  0.00000000  1
  Mg  Mg29  1  0.74999640  0.24753916  0.50000000  1
  Mg  Mg30  1  0.75799265  0.75451858  0.00000000  1
  Mg  Mg31  1  0.74999640  0.75246084  0.50000000  1
  O  O32  1  0.26547029  -0.00000000  0.50000000  1
  O  O33  1  0.25636486  0.50000000  0.00000000  1
  O  O34  1  0.25310436  0.50000000  0.50000000  1
  O  O35  1  0.74921722  -0.00000000  0.00000000  1
  O  O36  1  0.73220747  -0.00000000  0.50000000  1
  O  O37  1  0.74392414  0.50000000  0.00000000  1
  O  O38  1  0.74477245  0.50000000  0.50000000  1
  O  O39  1  0.24793394  0.24423291  0.24306706  1
  O  O40  1  0.24793394  0.24423291  0.75693294  1
  O  O41  1  0.24793394  0.75576709  0.24306706  1
  O  O42  1  0.24793394  0.75576709  0.75693294  1
  O  O43  1  0.74750407  0.24921446  0.24897873  1
  O  O44  1  0.74750407  0.24921446  0.75102127  1
  O  O45  1  0.74750407  0.75078554  0.24897873  1
  O  O46  1  0.74750407  0.75078554  0.75102127  1
  O  O47  1  0.00165896  -0.00000000  0.25776902  1
  O  O48  1  0.00165896  -0.00000000  0.74223098  1
  O  O49  1  0.00018604  0.50000000  0.25075754  1
  O  O50  1  0.00018604  0.50000000  0.74924246  1
  O  O51  1  0.48844494  -0.00000000  0.23966742  1
  O  O52  1  0.48844494  -0.00000000  0.76033258  1
  O  O53  1  0.49653198  0.50000000  0.24824590  1
  O  O54  1  0.49653198  0.50000000  0.75175410  1
  O  O55  1  0.00243969  0.27073289  0.00000000  1
  O  O56  1  0.00092249  0.26540982  0.50000000  1
  O  O57  1  0.00243969  0.72926711  0.00000000  1
  O  O58  1  0.00092249  0.73459018  0.50000000  1
  O  O59  1  0.49151539  0.24422318  0.00000000  1
  O  O60  1  0.49596005  0.25140630  0.50000000  1
  O  O61  1  0.49151539  0.75577682  0.00000000  1
  O  O62  1  0.49596005  0.74859370  0.50000000  1
