# generated using pymatgen
data_Mg30FeBiO32
_symmetry_space_group_name_H-M   'P 1'
_cell_length_a   8.62683797
_cell_length_b   8.62683797
_cell_length_c   8.66542556
_cell_angle_alpha   90.00000000
_cell_angle_beta   90.00000000
_cell_angle_gamma   90.00000000
_symmetry_Int_Tables_number   1
_chemical_formula_structural   Mg30FeBiO32
_chemical_formula_sum   'Mg30 Fe1 Bi1 O32'
_cell_volume   644.90118974
_cell_formula_units_Z   1
loop_
 _symmetry_equiv_pos_site_id
 _symmetry_equiv_pos_as_xyz
  1  'x, y, z'
loop_
 _atom_site_type_symbol
 _atom_site_label
 _atom_site_symmetry_multiplicity
 _atom_site_fract_x
 _atom_site_fract_y
 _atom_site_fract_z
 _atom_site_occupancy
  Mg  Mg0  1  0.00000000  0.50000000  0.00000000  1
  Mg  Mg1  1  0.00000000  0.50000000  0.50000000  1
  Mg  Mg2  1  0.50000000  0.00000000  0.00000000  1
  Mg  Mg3  1  0.50000000  0.00000000  0.50000000  1
  Mg  Mg4  1  0.50000000  0.50000000  0.00000000  1
  Mg  Mg5  1  0.50000000  0.50000000  0.50000000  1
  Mg  Mg6  1  0.00000000  0.25717489  0.24296500  1
  Mg  Mg7  1  0.00000000  0.25717489  0.75703500  1
  Mg  Mg8  1  0.00000000  0.74282511  0.24296500  1
  Mg  Mg9  1  0.00000000  0.74282511  0.75703500  1
  Mg  Mg10  1  0.50000000  0.25103235  0.24843940  1
  Mg  Mg11  1  0.50000000  0.25103235  0.75156060  1
  Mg  Mg12  1  0.50000000  0.74896765  0.24843940  1
  Mg  Mg13  1  0.50000000  0.74896765  0.75156060  1
  Mg  Mg14  1  0.25717489  0.00000000  0.24296500  1
  Mg  Mg15  1  0.25717489  0.00000000  0.75703500  1
  Mg  Mg16  1  0.25103235  0.50000000  0.24843940  1
  Mg  Mg17  1  0.25103235  0.50000000  0.75156060  1
  Mg  Mg18  1  0.74282511  0.00000000  0.24296500  1
  Mg  Mg19  1  0.74282511  0.00000000  0.75703500  1
  Mg  Mg20  1  0.74896765  0.50000000  0.24843940  1
  Mg  Mg21  1  0.74896765  0.50000000  0.75156060  1
  Mg  Mg22  1  0.25030157  0.25030157  0.00000000  1
  Mg  Mg23  1  0.25685662  0.25685662  0.50000000  1
  Mg  Mg24  1  0.25030157  0.74969843  0.00000000  1
  Mg  Mg25  1  0.25685662  0.74314338  0.50000000  1
  Mg  Mg26  1  0.74969843  0.25030157  0.00000000  1
  Mg  Mg27  1  0.74314338  0.25685662  0.50000000  1
  Mg  Mg28  1  0.74969843  0.74969843  0.00000000  1
  Mg  Mg29  1  0.74314338  0.74314338  0.50000000  1
  Fe  Fe30  1  0.00000000  0.00000000  0.00000000  1
  Bi  Bi31  1  0.00000000  0.00000000  0.50000000  1
  O  O32  1  0.26114916  0.00000000  0.00000000  1
  O  O33  1  0.26928990  0.00000000  0.50000000  1
  O  O34  1  0.25181692  0.50000000  0.00000000  1
  O  O35  1  0.25298207  0.50000000  0.50000000  1
  O  O36  1  0.73885084  0.00000000  0.00000000  1
  O  O37  1  0.73071010  0.00000000  0.50000000  1
  O  O38  1  0.74818308  0.50000000  0.00000000  1
  O  O39  1  0.74701793  0.50000000  0.50000000  1
  O  O40  1  0.24945316  0.24945316  0.25075324  1
  O  O41  1  0.24945316  0.24945316  0.74924676  1
  O  O42  1  0.24945316  0.75054684  0.25075324  1
  O  O43  1  0.24945316  0.75054684  0.74924676  1
  O  O44  1  0.75054684  0.24945316  0.25075324  1
  O  O45  1  0.75054684  0.24945316  0.74924676  1
  O  O46  1  0.75054684  0.75054684  0.25075324  1
  O  O47  1  0.75054684  0.75054684  0.74924676  1
  O  O48  1  0.00000000  0.00000000  0.22645762  1
  O  O49  1  0.00000000  0.00000000  0.77354238  1
  O  O50  1  0.00000000  0.50000000  0.24868140  1
  O  O51  1  0.00000000  0.50000000  0.75131860  1
  O  O52  1  0.50000000  0.00000000  0.24868140  1
  O  O53  1  0.50000000  0.00000000  0.75131860  1
  O  O54  1  0.50000000  0.50000000  0.24987972  1
  O  O55  1  0.50000000  0.50000000  0.75012028  1
  O  O56  1  0.00000000  0.26114916  0.00000000  1
  O  O57  1  0.00000000  0.26928990  0.50000000  1
  O  O58  1  0.00000000  0.73885084  0.00000000  1
  O  O59  1  0.00000000  0.73071010  0.50000000  1
  O  O60  1  0.50000000  0.25181692  0.00000000  1
  O  O61  1  0.50000000  0.25298207  0.50000000  1
  O  O62  1  0.50000000  0.74818308  0.00000000  1
  O  O63  1  0.50000000  0.74701793  0.50000000  1
