# generated using pymatgen
data_Zn2CuWO6
_symmetry_space_group_name_H-M   'P 1'
_cell_length_a   5.37711714
_cell_length_b   5.91429168
_cell_length_c   7.32489661
_cell_angle_alpha   85.19925309
_cell_angle_beta   137.05361834
_cell_angle_gamma   121.66363161
_symmetry_Int_Tables_number   1
_chemical_formula_structural   Zn2CuWO6
_chemical_formula_sum   'Zn2 Cu1 W1 O6'
_cell_volume   115.52453730
_cell_formula_units_Z   1
loop_
 _symmetry_equiv_pos_site_id
 _symmetry_equiv_pos_as_xyz
  1  'x, y, z'
loop_
 _atom_site_type_symbol
 _atom_site_label
 _atom_site_symmetry_multiplicity
 _atom_site_fract_x
 _atom_site_fract_y
 _atom_site_fract_z
 _atom_site_occupancy
  Zn  Zn0  1  0.96629555  0.53682573  0.24875281  1
  Zn  Zn1  1  0.98623657  0.52926697  0.79914678  1
  Cu  Cu2  1  0.00164481  0.98335778  0.50156067  1
  W  W3  1  0.00392874  0.98820987  0.99664543  1
  O  O4  1  0.74033548  0.81103041  0.11689191  1
  O  O5  1  0.28033097  0.13269268  0.88727380  1
  O  O6  1  0.60698296  0.37509203  0.37648991  1
  O  O7  1  0.63761446  0.10731951  0.76462867  1
  O  O8  1  0.32748007  0.80456979  0.20094540  1
  O  O9  1  0.48541338  0.57569522  0.64046962  1
