# generated using pymatgen
data_KLiMg30O31
_symmetry_space_group_name_H-M   'P 1'
_cell_length_a   8.58726131
_cell_length_b   8.63544950
_cell_length_c   8.58585429
_cell_angle_alpha   90.00000000
_cell_angle_beta   90.00000000
_cell_angle_gamma   90.00000000
_symmetry_Int_Tables_number   1
_chemical_formula_structural   KLiMg30O31
_chemical_formula_sum   'K1 Li1 Mg30 O31'
_cell_volume   636.68283475
_cell_formula_units_Z   1
loop_
 _symmetry_equiv_pos_site_id
 _symmetry_equiv_pos_as_xyz
  1  'x, y, z'
loop_
 _atom_site_type_symbol
 _atom_site_label
 _atom_site_symmetry_multiplicity
 _atom_site_fract_x
 _atom_site_fract_y
 _atom_site_fract_z
 _atom_site_occupancy
  K  K0  1  0.99556838  -0.00000000  -0.00000000  1
  Li  Li1  1  0.99678131  0.50000000  0.50000000  1
  Mg  Mg2  1  0.97882892  -0.00000000  0.50000000  1
  Mg  Mg3  1  0.99857468  0.50000000  -0.00000000  1
  Mg  Mg4  1  0.49988614  -0.00000000  -0.00000000  1
  Mg  Mg5  1  0.52004606  -0.00000000  0.50000000  1
  Mg  Mg6  1  0.50119607  0.50000000  -0.00000000  1
  Mg  Mg7  1  0.50139709  0.50000000  0.50000000  1
  Mg  Mg8  1  0.00139632  0.25553357  0.25442801  1
  Mg  Mg9  1  0.00139632  0.25553357  0.74557199  1
  Mg  Mg10  1  0.00139632  0.74446643  0.25442801  1
  Mg  Mg11  1  0.00139632  0.74446643  0.74557199  1
  Mg  Mg12  1  0.49913242  0.25066389  0.25095346  1
  Mg  Mg13  1  0.49913242  0.25066389  0.74904654  1
  Mg  Mg14  1  0.49913242  0.74933611  0.25095346  1
  Mg  Mg15  1  0.49913242  0.74933611  0.74904654  1
  Mg  Mg16  1  0.24945204  -0.00000000  0.22932616  1
  Mg  Mg17  1  0.24945204  -0.00000000  0.77067384  1
  Mg  Mg18  1  0.24698954  0.50000000  0.24936437  1
  Mg  Mg19  1  0.24698954  0.50000000  0.75063563  1
  Mg  Mg20  1  0.74858257  -0.00000000  0.24841834  1
  Mg  Mg21  1  0.74858257  -0.00000000  0.75158166  1
  Mg  Mg22  1  0.75411037  0.50000000  0.25186599  1
  Mg  Mg23  1  0.75411037  0.50000000  0.74813401  1
  Mg  Mg24  1  0.24996907  0.25616831  -0.00000000  1
  Mg  Mg25  1  0.24352826  0.27426794  0.50000000  1
  Mg  Mg26  1  0.24996907  0.74383169  -0.00000000  1
  Mg  Mg27  1  0.24352826  0.72573206  0.50000000  1
  Mg  Mg28  1  0.74944496  0.25370108  -0.00000000  1
  Mg  Mg29  1  0.75548964  0.25684177  0.50000000  1
  Mg  Mg30  1  0.74944496  0.74629892  -0.00000000  1
  Mg  Mg31  1  0.75548964  0.74315823  0.50000000  1
  O  O32  1  0.27316951  -0.00000000  -0.00000000  1
  O  O33  1  0.25613017  0.50000000  -0.00000000  1
  O  O34  1  0.25957239  0.50000000  0.50000000  1
  O  O35  1  0.72433517  -0.00000000  -0.00000000  1
  O  O36  1  0.74803660  -0.00000000  0.50000000  1
  O  O37  1  0.74470764  0.50000000  -0.00000000  1
  O  O38  1  0.74115368  0.50000000  0.50000000  1
  O  O39  1  0.25074329  0.24568834  0.25466925  1
  O  O40  1  0.25074329  0.24568834  0.74533075  1
  O  O41  1  0.25074329  0.75431166  0.25466925  1
  O  O42  1  0.25074329  0.75431166  0.74533075  1
  O  O43  1  0.75016815  0.24720085  0.25134956  1
  O  O44  1  0.75016815  0.24720085  0.74865044  1
  O  O45  1  0.75016815  0.75279915  0.25134956  1
  O  O46  1  0.75016815  0.75279915  0.74865044  1
  O  O47  1  0.01402540  -0.00000000  0.27712848  1
  O  O48  1  0.01402540  -0.00000000  0.72287152  1
  O  O49  1  0.00142515  0.50000000  0.24990068  1
  O  O50  1  0.00142515  0.50000000  0.75009932  1
  O  O51  1  0.49248263  -0.00000000  0.26081136  1
  O  O52  1  0.49248263  -0.00000000  0.73918864  1
  O  O53  1  0.49915143  0.50000000  0.25159027  1
  O  O54  1  0.49915143  0.50000000  0.74840973  1
  O  O55  1  0.00210399  0.27260542  -0.00000000  1
  O  O56  1  0.00439072  0.24391978  0.50000000  1
  O  O57  1  0.00210399  0.72739458  -0.00000000  1
  O  O58  1  0.00439072  0.75608022  0.50000000  1
  O  O59  1  0.49847687  0.25256079  -0.00000000  1
  O  O60  1  0.49280510  0.24328033  0.50000000  1
  O  O61  1  0.49847687  0.74743921  -0.00000000  1
  O  O62  1  0.49280510  0.75671967  0.50000000  1
