# generated using pymatgen
data_Ca3Fe4(MoO4)6
_symmetry_space_group_name_H-M   'P 1'
_cell_length_a   7.24934634
_cell_length_b   8.73702861
_cell_length_c   10.60895088
_cell_angle_alpha   105.34826675
_cell_angle_beta   106.34195303
_cell_angle_gamma   104.24044977
_symmetry_Int_Tables_number   1
_chemical_formula_structural   Ca3Fe4(MoO4)6
_chemical_formula_sum   'Ca3 Fe4 Mo6 O24'
_cell_volume   583.32616744
_cell_formula_units_Z   1
loop_
 _symmetry_equiv_pos_site_id
 _symmetry_equiv_pos_as_xyz
  1  'x, y, z'
loop_
 _atom_site_type_symbol
 _atom_site_label
 _atom_site_symmetry_multiplicity
 _atom_site_fract_x
 _atom_site_fract_y
 _atom_site_fract_z
 _atom_site_occupancy
  Ca  Ca0  1  -0.00000000  0.50000000  0.50000000  1
  Ca  Ca1  1  0.29283422  0.30114571  0.79590752  1
  Ca  Ca2  1  0.70716578  0.69885429  0.20409248  1
  Fe  Fe3  1  0.37284101  0.96059523  0.59967395  1
  Fe  Fe4  1  0.62715899  0.03940477  0.40032605  1
  Fe  Fe5  1  0.04325776  0.20653599  0.01332752  1
  Fe  Fe6  1  0.95674224  0.79346401  0.98667248  1
  Mo  Mo7  1  0.78795875  0.33962230  0.73280831  1
  Mo  Mo8  1  0.21204125  0.66037770  0.26719169  1
  Mo  Mo9  1  0.88492972  0.90372441  0.67003035  1
  Mo  Mo10  1  0.39211187  0.74630531  0.86764710  1
  Mo  Mo11  1  0.11507028  0.09627559  0.32996965  1
  Mo  Mo12  1  0.60788813  0.25369469  0.13235290  1
  O  O13  1  0.84178797  0.68849908  0.58186177  1
  O  O14  1  0.15821203  0.31150092  0.41813823  1
  O  O15  1  0.24085606  0.53303211  0.73938745  1
  O  O16  1  0.75914394  0.46696789  0.26061255  1
  O  O17  1  0.79394488  0.28324733  0.54921766  1
  O  O18  1  0.20605512  0.71675267  0.45078234  1
  O  O19  1  0.67001097  0.95841144  0.58358047  1
  O  O20  1  0.32998903  0.04158856  0.41641953  1
  O  O21  1  0.62648476  0.74371551  0.98890106  1
  O  O22  1  0.37351524  0.25628449  0.01109894  1
  O  O23  1  0.47830447  0.78133320  0.28370940  1
  O  O24  1  0.52169553  0.21866680  0.71629060  1
  O  O25  1  0.11521424  0.01982213  0.65300418  1
  O  O26  1  0.07970339  0.05968930  0.14696762  1
  O  O27  1  0.92029661  0.94031070  0.85303238  1
  O  O28  1  0.56466393  0.12545002  0.23253894  1
  O  O29  1  0.43533607  0.87454998  0.76746106  1
  O  O30  1  0.17368610  0.44562353  0.16473669  1
  O  O31  1  0.82631390  0.55437647  0.83526331  1
  O  O32  1  0.99399295  0.27347448  0.83650476  1
  O  O33  1  0.00600705  0.72652552  0.16349524  1
  O  O34  1  0.24492884  0.81292393  0.96383219  1
  O  O35  1  0.75507116  0.18707607  0.03616781  1
  O  O36  1  0.88478576  0.98017787  0.34699582  1
