# generated using pymatgen
data_CuMo2O7
_symmetry_space_group_name_H-M   'P 1'
_cell_length_a   9.24916589
_cell_length_b   11.63828824
_cell_length_c   10.62940195
_cell_angle_alpha   92.99377396
_cell_angle_beta   90.00000000
_cell_angle_gamma   90.00000000
_symmetry_Int_Tables_number   1
_chemical_formula_structural   CuMo2O7
_chemical_formula_sum   'Cu6 Mo12 O42'
_cell_volume   1142.63463742
_cell_formula_units_Z   6
loop_
 _symmetry_equiv_pos_site_id
 _symmetry_equiv_pos_as_xyz
  1  'x, y, z'
loop_
 _atom_site_type_symbol
 _atom_site_label
 _atom_site_symmetry_multiplicity
 _atom_site_fract_x
 _atom_site_fract_y
 _atom_site_fract_z
 _atom_site_occupancy
  Cu  Cu0  1  0.93281164  0.80566800  0.41171987  1
  Cu  Cu1  1  0.06718836  0.19433200  0.58828013  1
  Cu  Cu2  1  0.43151376  0.50000000  0.25000000  1
  Cu  Cu3  1  0.93281164  0.19433200  0.08828013  1
  Cu  Cu4  1  0.56848624  0.50000000  0.75000000  1
  Cu  Cu5  1  0.06718836  0.80566800  0.91171987  1
  Mo  Mo6  1  0.20703324  0.15921796  0.29169179  1
  Mo  Mo7  1  0.75221185  0.16783218  0.38008377  1
  Mo  Mo8  1  0.24778815  0.16783218  0.88008377  1
  Mo  Mo9  1  0.79296676  0.15921796  0.79169179  1
  Mo  Mo10  1  0.29410411  0.46911981  0.96013848  1
  Mo  Mo11  1  0.75221185  0.83216782  0.11991623  1
  Mo  Mo12  1  0.70589589  0.46911981  0.46013848  1
  Mo  Mo13  1  0.24778815  0.83216782  0.61991623  1
  Mo  Mo14  1  0.29410411  0.53088019  0.53986152  1
  Mo  Mo15  1  0.70589589  0.53088019  0.03986152  1
  Mo  Mo16  1  0.79296676  0.84078204  0.70830821  1
  Mo  Mo17  1  0.20703324  0.84078204  0.20830821  1
  O  O18  1  0.79004351  0.19422966  0.95850682  1
  O  O19  1  0.78975724  0.83413094  0.28561598  1
  O  O20  1  0.83001908  -0.00000000  0.75000000  1
  O  O21  1  0.87257525  0.50327686  0.10222547  1
  O  O22  1  0.35929788  0.94518948  0.59016703  1
  O  O23  1  0.92854309  0.24129086  0.71465619  1
  O  O24  1  0.33685388  0.30948073  0.93666000  1
  O  O25  1  0.12742475  0.50327686  0.60222547  1
  O  O26  1  0.71247594  0.48573300  0.87552737  1
  O  O27  1  0.35929788  0.05481052  0.90983297  1
  O  O28  1  0.71247594  0.51426700  0.62447263  1
  O  O29  1  0.42937793  0.54736454  0.87573711  1
  O  O30  1  0.91749322  0.84805938  0.03268245  1
  O  O31  1  0.07145691  0.24129086  0.21465619  1
  O  O32  1  0.66314612  0.69051927  0.06334000  1
  O  O33  1  0.33685388  0.69051927  0.56334000  1
  O  O34  1  0.92854309  0.75870914  0.78534381  1
  O  O35  1  0.64070212  0.05481052  0.40983297  1
  O  O36  1  0.20995649  0.19422966  0.45850682  1
  O  O37  1  0.57062207  0.45263546  0.12426289  1
  O  O38  1  0.37256727  0.80258344  0.26653421  1
  O  O39  1  0.28752406  0.51426700  0.12447263  1
  O  O40  1  0.08250678  0.84805938  0.53268245  1
  O  O41  1  0.28752406  0.48573300  0.37552737  1
  O  O42  1  0.87257525  0.49672314  0.39777453  1
  O  O43  1  0.57062207  0.54736454  0.37573711  1
  O  O44  1  0.12742475  0.49672314  0.89777453  1
  O  O45  1  0.62743273  0.80258344  0.76653421  1
  O  O46  1  0.62743273  0.19741656  0.73346579  1
  O  O47  1  0.08250678  0.15194062  0.96731755  1
  O  O48  1  0.07145691  0.75870914  0.28534381  1
  O  O49  1  0.79004351  0.80577034  0.54149318  1
  O  O50  1  0.16998092  -0.00000000  0.25000000  1
  O  O51  1  0.21024276  0.83413094  0.78561598  1
  O  O52  1  0.64070212  0.94518948  0.09016703  1
  O  O53  1  0.91749322  0.15194062  0.46731755  1
  O  O54  1  0.20995649  0.80577034  0.04149318  1
  O  O55  1  0.78975724  0.16586906  0.21438402  1
  O  O56  1  0.42937793  0.45263546  0.62426289  1
  O  O57  1  0.66314612  0.30948073  0.43665900  1
  O  O58  1  0.21024276  0.16586906  0.71438402  1
  O  O59  1  0.37256727  0.19741656  0.23346579  1
