# generated using pymatgen
data_ZnCo2P2O9
_symmetry_space_group_name_H-M   'P 1'
_cell_length_a   6.18216103
_cell_length_b   7.17688775
_cell_length_c   14.32179998
_cell_angle_alpha   90.67972388
_cell_angle_beta   90.12349183
_cell_angle_gamma   89.54203449
_symmetry_Int_Tables_number   1
_chemical_formula_structural   ZnCo2P2O9
_chemical_formula_sum   'Zn4 Co8 P8 O36'
_cell_volume   635.37293832
_cell_formula_units_Z   4
loop_
 _symmetry_equiv_pos_site_id
 _symmetry_equiv_pos_as_xyz
  1  'x, y, z'
loop_
 _atom_site_type_symbol
 _atom_site_label
 _atom_site_symmetry_multiplicity
 _atom_site_fract_x
 _atom_site_fract_y
 _atom_site_fract_z
 _atom_site_occupancy
  Zn  Zn0  1  0.74941586  0.89700745  0.77223809  1
  Zn  Zn1  1  0.74911749  0.59943703  0.27779161  1
  Zn  Zn2  1  0.25090792  0.40047404  0.72211767  1
  Zn  Zn3  1  0.25054769  0.10272143  0.22775771  1
  Co  Co4  1  0.75151599  0.35182065  0.87968096  1
  Co  Co5  1  0.24849405  0.64868432  0.12015456  1
  Co  Co6  1  0.24986169  0.85028435  0.62180255  1
  Co  Co7  1  0.75013104  0.14973928  0.37819547  1
  Co  Co8  1  0.50009867  0.00000594  0.00007875  1
  Co  Co9  1  0.49999195  0.50002116  0.49996893  1
  Co  Co10  1  0.00001716  0.50003233  0.49995757  1
  Co  Co11  1  0.99981429  0.00009892  0.00000311  1
  P  P12  1  0.25291816  0.36435091  0.92900954  1
  P  P13  1  0.74712231  0.63548260  0.07102280  1
  P  P14  1  0.74973490  0.86371570  0.56868086  1
  P  P15  1  0.25026029  0.13628867  0.43132003  1
  P  P16  1  0.75049020  0.38663449  0.69766191  1
  P  P17  1  0.75031479  0.11709633  0.19895543  1
  P  P18  1  0.24971529  0.88292698  0.80105323  1
  P  P19  1  0.24949681  0.61350887  0.30231624  1
  O  O20  1  0.03557465  0.60726352  0.36123952  1
  O  O21  1  0.53663698  0.39363810  0.63837777  1
  O  O22  1  0.96337044  0.10201549  0.14027068  1
  O  O23  1  0.46354574  0.89634304  0.85927737  1
  O  O24  1  0.96444226  0.39270103  0.63879174  1
  O  O25  1  0.46336332  0.60630647  0.36161563  1
  O  O26  1  0.03664546  0.89798464  0.85972572  1
  O  O27  1  0.53649272  0.10369417  0.14072008  1
  O  O28  1  0.25052693  0.33435688  0.48034452  1
  O  O29  1  0.74947424  0.66563778  0.51967049  1
  O  O30  1  0.74261478  0.82905735  0.02148274  1
  O  O31  1  0.25739046  0.17076207  0.97848863  1
  O  O32  1  0.73580815  0.13293009  0.95554514  1
  O  O33  1  0.26438211  0.86695410  0.04462363  1
  O  O34  1  0.24945522  0.63881599  0.54486909  1
  O  O35  1  0.75055087  0.36118417  0.45512427  1
  O  O36  1  0.75135105  0.20344713  0.75633313  1
  O  O37  1  0.24854839  0.79678866  0.24378353  1
  O  O38  1  0.25001430  0.69784190  0.74242511  1
  O  O39  1  0.74998520  0.30215755  0.25758750  1
  O  O40  1  0.44013166  0.13200391  0.36058916  1
  O  O41  1  0.94029812  0.86717212  0.63932946  1
  O  O42  1  0.55995293  0.62658888  0.14216706  1
  O  O43  1  0.05801093  0.36691130  0.86063701  1
  O  O44  1  0.55986312  0.86799828  0.63941595  1
  O  O45  1  0.05968550  0.13283697  0.36068323  1
  O  O46  1  0.44011241  0.37332140  0.85780277  1
  O  O47  1  0.94194426  0.63293099  0.13936572  1
  O  O48  1  0.75161084  0.48223682  0.99903391  1
  O  O49  1  0.24900325  0.03887447  0.72506015  1
  O  O50  1  0.24880981  0.45131306  0.22892483  1
  O  O51  1  0.75107286  0.54898382  0.77099747  1
  O  O52  1  0.74946578  0.01244743  0.49729727  1
  O  O53  1  0.25053301  0.98756778  0.50271224  1
  O  O54  1  0.24838292  0.51742507  0.00097350  1
  O  O55  1  0.75099376  0.96116912  0.27494694  1
