# generated using pymatgen
data_LaCrCuO6
_symmetry_space_group_name_H-M   'P 1'
_cell_length_a   4.73336621
_cell_length_b   7.19929080
_cell_length_c   4.63676947
_cell_angle_alpha   67.60138100
_cell_angle_beta   109.13131656
_cell_angle_gamma   88.87363158
_symmetry_Int_Tables_number   1
_chemical_formula_structural   LaCrCuO6
_chemical_formula_sum   'La1 Cr1 Cu1 O6'
_cell_volume   136.11483999
_cell_formula_units_Z   1
loop_
 _symmetry_equiv_pos_site_id
 _symmetry_equiv_pos_as_xyz
  1  'x, y, z'
loop_
 _atom_site_type_symbol
 _atom_site_label
 _atom_site_symmetry_multiplicity
 _atom_site_fract_x
 _atom_site_fract_y
 _atom_site_fract_z
 _atom_site_occupancy
  La  La0  1  0.83602663  0.23252711  0.52198598  1
  Cr  Cr1  1  0.95699819  0.66781828  0.85326877  1
  Cu  Cu2  1  0.51527136  0.97163007  0.02782038  1
  O  O3  1  0.36222131  0.15643493  0.59795648  1
  O  O4  1  0.14416640  0.47133778  0.85828903  1
  O  O5  1  0.80180956  0.57896431  0.14294156  1
  O  O6  1  0.17398341  0.83878811  0.93389219  1
  O  O7  1  0.80000468  0.13033231  0.07614224  1
  O  O8  1  0.66975545  0.79357809  0.48811836  1
