# generated using pymatgen
data_Ge2BiO6
_symmetry_space_group_name_H-M   'P 1'
_cell_length_a   5.70597608
_cell_length_b   9.63533667
_cell_length_c   10.90279439
_cell_angle_alpha   90.00000000
_cell_angle_beta   107.23244109
_cell_angle_gamma   90.00000000
_symmetry_Int_Tables_number   1
_chemical_formula_structural   Ge2BiO6
_chemical_formula_sum   'Ge8 Bi4 O24'
_cell_volume   572.51702866
_cell_formula_units_Z   4
loop_
 _symmetry_equiv_pos_site_id
 _symmetry_equiv_pos_as_xyz
  1  'x, y, z'
loop_
 _atom_site_type_symbol
 _atom_site_label
 _atom_site_symmetry_multiplicity
 _atom_site_fract_x
 _atom_site_fract_y
 _atom_site_fract_z
 _atom_site_occupancy
  Ge  Ge0  1  0.81721119  0.32227207  0.04775095  1
  Ge  Ge1  1  0.68278881  0.82227207  0.95224905  1
  Ge  Ge2  1  0.18278881  0.67772793  0.95224905  1
  Ge  Ge3  1  0.31721119  0.17772793  0.04775095  1
  Ge  Ge4  1  0.13129178  0.33224996  0.47494680  1
  Ge  Ge5  1  0.36870822  0.83224996  0.52505320  1
  Ge  Ge6  1  0.86870822  0.66775004  0.52505320  1
  Ge  Ge7  1  0.63129178  0.16775004  0.47494680  1
  Bi  Bi8  1  0.00253905  0.62384864  0.23958908  1
  Bi  Bi9  1  0.49746095  0.12384864  0.76041092  1
  Bi  Bi10  1  0.99746095  0.37615136  0.76041092  1
  Bi  Bi11  1  0.50253905  0.87615136  0.23958908  1
  O  O12  1  0.34628059  0.25086788  0.40913206  1
  O  O13  1  0.15371941  0.75086788  0.59086794  1
  O  O14  1  0.65371941  0.74913212  0.59086794  1
  O  O15  1  0.84628059  0.24913212  0.40913206  1
  O  O16  1  0.14378239  0.30594729  0.10028535  1
  O  O17  1  0.35621761  0.80594729  0.89971465  1
  O  O18  1  0.85621761  0.69405271  0.89971565  1
  O  O19  1  0.64378239  0.19405271  0.10028435  1
  O  O20  1  0.62577792  0.99374435  0.42072929  1
  O  O21  1  0.87422208  0.49374435  0.57927071  1
  O  O22  1  0.37422208  0.00625565  0.57927071  1
  O  O23  1  0.12577792  0.50625565  0.42072929  1
  O  O24  1  0.25608934  0.01778378  0.10779480  1
  O  O25  1  0.24391066  0.51778378  0.89220520  1
  O  O26  1  0.74391066  0.98221622  0.89220520  1
  O  O27  1  0.75608934  0.48221622  0.10779480  1
  O  O28  1  0.73081390  0.30523961  0.87459247  1
  O  O29  1  0.76918610  0.80523961  0.12540753  1
  O  O30  1  0.26918610  0.69476039  0.12540753  1
  O  O31  1  0.23081390  0.19476039  0.87459247  1
  O  O32  1  0.24498760  0.30500104  0.64837451  1
  O  O33  1  0.25501240  0.80500104  0.35162549  1
  O  O34  1  0.75501240  0.69499896  0.35162549  1
  O  O35  1  0.74498760  0.19499896  0.64837451  1
