# generated using pymatgen
data_ZnFeNiP2O9
_symmetry_space_group_name_H-M   'P 1'
_cell_length_a   6.23124466
_cell_length_b   7.38674542
_cell_length_c   14.20968598
_cell_angle_alpha   90.10615945
_cell_angle_beta   89.99873350
_cell_angle_gamma   89.99821514
_symmetry_Int_Tables_number   1
_chemical_formula_structural   ZnFeNiP2O9
_chemical_formula_sum   'Zn4 Fe4 Ni4 P8 O36'
_cell_volume   654.05108404
_cell_formula_units_Z   4
loop_
 _symmetry_equiv_pos_site_id
 _symmetry_equiv_pos_as_xyz
  1  'x, y, z'
loop_
 _atom_site_type_symbol
 _atom_site_label
 _atom_site_symmetry_multiplicity
 _atom_site_fract_x
 _atom_site_fract_y
 _atom_site_fract_z
 _atom_site_occupancy
  Zn  Zn0  1  0.74998819  0.92928686  0.78008667  1
  Zn  Zn1  1  0.74999707  0.57095341  0.27993875  1
  Zn  Zn2  1  0.25000064  0.07002538  0.21988584  1
  Zn  Zn3  1  0.25000924  0.42706196  0.72160202  1
  Fe  Fe4  1  0.74999831  0.35326894  0.88259894  1
  Fe  Fe5  1  0.24999724  0.64659932  0.11733492  1
  Fe  Fe6  1  0.25001281  0.85397214  0.61662117  1
  Fe  Fe7  1  0.74998088  0.14597444  0.38331624  1
  Ni  Ni8  1  0.49993413  0.00001844  0.99995959  1
  Ni  Ni9  1  0.49981341  0.50070380  0.49964509  1
  Ni  Ni10  1  0.00028355  0.50071663  0.49967646  1
  Ni  Ni11  1  0.00003815  0.00001862  0.99994781  1
  P  P12  1  0.24999516  0.35717208  0.93005224  1
  P  P13  1  0.74999628  0.64274009  0.07003402  1
  P  P14  1  0.75000444  0.85643745  0.56997844  1
  P  P15  1  0.24999141  0.14453287  0.43044206  1
  P  P16  1  0.75000170  0.37938720  0.69607196  1
  P  P17  1  0.24999221  0.62036483  0.30370951  1
  P  P18  1  0.24999570  0.87912033  0.80307858  1
  P  P19  1  0.74999703  0.12032482  0.19656752  1
  O  O20  1  0.03686128  0.60914720  0.36161772  1
  O  O21  1  0.53678428  0.39044124  0.63833767  1
  O  O22  1  0.96274392  0.10927800  0.13856145  1
  O  O23  1  0.46259564  0.89013107  0.86118785  1
  O  O24  1  0.96321650  0.39045454  0.63833422  1
  O  O25  1  0.46314114  0.60915505  0.36160782  1
  O  O26  1  0.03738864  0.89013289  0.86119093  1
  O  O27  1  0.53725985  0.10927926  0.13856601  1
  O  O28  1  0.25000694  0.33435865  0.47743408  1
  O  O29  1  0.75000144  0.66671435  0.52273607  1
  O  O30  1  0.75000004  0.83191483  0.02273373  1
  O  O31  1  0.24999291  0.16783746  0.97706861  1
  O  O32  1  0.74999089  0.13117292  0.94847703  1
  O  O33  1  0.24999655  0.86862920  0.05136163  1
  O  O34  1  0.25003591  0.63451307  0.54904110  1
  O  O35  1  0.75001689  0.36720565  0.44996280  1
  O  O36  1  0.75001518  0.20029228  0.75555545  1
  O  O37  1  0.24998289  0.79958035  0.24463927  1
  O  O38  1  0.25000559  0.70008819  0.74317120  1
  O  O39  1  0.74998862  0.29976849  0.25612841  1
  O  O40  1  0.43916731  0.12905363  0.36058987  1
  O  O41  1  0.93921604  0.87076817  0.63992764  1
  O  O42  1  0.56089172  0.62878946  0.14021844  1
  O  O43  1  0.06108064  0.37123150  0.85969618  1
  O  O44  1  0.56079390  0.87080090  0.63993679  1
  O  O45  1  0.06081718  0.12906562  0.36059690  1
  O  O46  1  0.43892191  0.37122976  0.85969475  1
  O  O47  1  0.93909128  0.62878089  0.14021906  1
  O  O48  1  0.75000834  0.96963056  0.27282431  1
  O  O49  1  0.24999043  0.03030183  0.72700833  1
  O  O50  1  0.24999880  0.46980273  0.22730493  1
  O  O51  1  0.74999221  0.52987680  0.77273299  1
  O  O52  1  0.74999219  0.00233375  0.49581505  1
  O  O53  1  0.24999621  0.99980631  0.50523082  1
  O  O54  1  0.24999176  0.50459553  0.00368216  1
  O  O55  1  0.74999946  0.49515925  0.99626492  1
