# generated using pymatgen
data_MgCoNiP2O9
_symmetry_space_group_name_H-M   'P 1'
_cell_length_a   6.23268345
_cell_length_b   7.22943123
_cell_length_c   14.22576817
_cell_angle_alpha   88.78507436
_cell_angle_beta   89.99922291
_cell_angle_gamma   89.99984414
_symmetry_Int_Tables_number   1
_chemical_formula_structural   MgCoNiP2O9
_chemical_formula_sum   'Mg4 Co4 Ni4 P8 O36'
_cell_volume   640.85132234
_cell_formula_units_Z   4
loop_
 _symmetry_equiv_pos_site_id
 _symmetry_equiv_pos_as_xyz
  1  'x, y, z'
loop_
 _atom_site_type_symbol
 _atom_site_label
 _atom_site_symmetry_multiplicity
 _atom_site_fract_x
 _atom_site_fract_y
 _atom_site_fract_z
 _atom_site_occupancy
  Mg  Mg0  1  0.74994089  0.89104354  0.77694849  1
  Mg  Mg1  1  0.74998402  0.64488229  0.27041160  1
  Mg  Mg2  1  0.24992820  0.10913185  0.22305515  1
  Mg  Mg3  1  0.25005576  0.35523607  0.72958074  1
  Co  Co4  1  0.74993890  0.35076721  0.88014672  1
  Co  Co5  1  0.24994458  0.64917549  0.11986986  1
  Co  Co6  1  0.25005030  0.85306054  0.62266272  1
  Co  Co7  1  0.75005038  0.14696643  0.37733865  1
  Ni  Ni8  1  0.49993880  0.99993161  -0.00000538  1
  Ni  Ni9  1  0.50009748  0.50002369  0.49996032  1
  Ni  Ni10  1  0.00014175  0.50003943  0.50003472  1
  Ni  Ni11  1  0.99981315  -0.00002579  0.00000213  1
  P  P12  1  0.24992956  0.35938572  0.93400942  1
  P  P13  1  0.74994902  0.64064092  0.06608365  1
  P  P14  1  0.75004591  0.86391991  0.57105365  1
  P  P15  1  0.25007200  0.13626293  0.42883386  1
  P  P16  1  0.75003458  0.38321986  0.69794763  1
  P  P17  1  0.25001208  0.61673045  0.30201521  1
  P  P18  1  0.24993262  0.89349024  0.80490126  1
  P  P19  1  0.74991285  0.10648651  0.19515123  1
  O  O20  1  0.03757639  0.60396661  0.35844964  1
  O  O21  1  0.53758141  0.39604611  0.64155449  1
  O  O22  1  0.96257156  0.10470580  0.13807430  1
  O  O23  1  0.46256027  0.89525357  0.86190588  1
  O  O24  1  0.96252860  0.39604346  0.64158069  1
  O  O25  1  0.46255126  0.60395507  0.35838590  1
  O  O26  1  0.03734452  0.89528718  0.86189557  1
  O  O27  1  0.53728964  0.10472472  0.13810592  1
  O  O28  1  0.25010582  0.32319663  0.47914982  1
  O  O29  1  0.75007790  0.67699770  0.52076499  1
  O  O30  1  0.74989244  0.83444684  0.01820261  1
  O  O31  1  0.24987951  0.16551303  0.98181547  1
  O  O32  1  0.74986995  0.14909357  0.94718742  1
  O  O33  1  0.24988987  0.85087891  0.05281652  1
  O  O34  1  0.25027256  0.64336877  0.54747246  1
  O  O35  1  0.75011989  0.35667565  0.45249251  1
  O  O36  1  0.74999753  0.19989275  0.75853900  1
  O  O37  1  0.24995450  0.80003778  0.24143217  1
  O  O38  1  0.24997395  0.71433218  0.74416384  1
  O  O39  1  0.75001203  0.28564723  0.25584118  1
  O  O40  1  0.43943878  0.12786499  0.35735879  1
  O  O41  1  0.93951634  0.87200202  0.64268517  1
  O  O42  1  0.56199884  0.62838247  0.13804678  1
  O  O43  1  0.06195588  0.37155156  0.86192692  1
  O  O44  1  0.56059514  0.87207187  0.64270601  1
  O  O45  1  0.06064892  0.12791147  0.35736812  1
  O  O46  1  0.43793507  0.37146615  0.86191571  1
  O  O47  1  0.93791091  0.62841998  0.13805074  1
  O  O48  1  0.75000053  0.93973819  0.26810131  1
  O  O49  1  0.24999051  0.06025670  0.73190804  1
  O  O50  1  0.24995343  0.46266743  0.22441575  1
  O  O51  1  0.74998207  0.53725591  0.77558880  1
  O  O52  1  0.75001456  0.02395731  0.50134879  1
  O  O53  1  0.25005496  0.97612972  0.49885089  1
  O  O54  1  0.25009698  0.50368194  0.00782335  1
  O  O55  1  0.75008662  0.49620983  0.99207484  1
