# generated using pymatgen
data_MgTiSb(PO4)3
_symmetry_space_group_name_H-M   'P 1'
_cell_length_a   8.38961203
_cell_length_b   8.38961215
_cell_length_c   8.38961194
_cell_angle_alpha   63.98504069
_cell_angle_beta   63.98504088
_cell_angle_gamma   63.98504522
_symmetry_Int_Tables_number   1
_chemical_formula_structural   MgTiSb(PO4)3
_chemical_formula_sum   'Mg2 Ti2 Sb2 P6 O24'
_cell_volume   454.20319577
_cell_formula_units_Z   2
loop_
 _symmetry_equiv_pos_site_id
 _symmetry_equiv_pos_as_xyz
  1  'x, y, z'
loop_
 _atom_site_type_symbol
 _atom_site_label
 _atom_site_symmetry_multiplicity
 _atom_site_fract_x
 _atom_site_fract_y
 _atom_site_fract_z
 _atom_site_occupancy
  Mg  Mg0  1  0.99597205  0.99597205  0.99597205  1
  Mg  Mg1  1  0.49597205  0.49597205  0.49597205  1
  Ti  Ti2  1  0.15041660  0.15041660  0.15041660  1
  Ti  Ti3  1  0.65041660  0.65041660  0.65041660  1
  Sb  Sb4  1  0.33640435  0.33640435  0.33640435  1
  Sb  Sb5  1  0.83640435  0.83640435  0.83640435  1
  P  P6  1  0.06666814  0.43161292  0.75483271  1
  P  P7  1  0.43161292  0.75483271  0.06666814  1
  P  P8  1  0.75483271  0.06666814  0.43161292  1
  P  P9  1  0.25483271  0.93161292  0.56666814  1
  P  P10  1  0.56666814  0.25483271  0.93161292  1
  P  P11  1  0.93161292  0.56666814  0.25483271  1
  O  O12  1  0.06661813  0.56759540  0.32862265  1
  O  O13  1  0.32862265  0.06661813  0.56759540  1
  O  O14  1  0.07028018  0.23873566  0.90668396  1
  O  O15  1  0.56759540  0.32862265  0.06661813  1
  O  O16  1  0.06759540  0.56661813  0.82862265  1
  O  O17  1  0.24636625  0.41711427  0.58473128  1
  O  O18  1  0.23873566  0.90668396  0.07028018  1
  O  O19  1  0.41711427  0.58473128  0.24636625  1
  O  O20  1  0.20206312  0.00354952  0.38172880  1
  O  O21  1  0.58473128  0.24636626  0.41711427  1
  O  O22  1  0.08473128  0.91711427  0.74636625  1
  O  O23  1  0.38172880  0.20206312  0.00354952  1
  O  O24  1  0.56661813  0.82862265  0.06759540  1
  O  O25  1  0.90668396  0.07028018  0.23873566  1
  O  O26  1  0.40668396  0.73873566  0.57028018  1
  O  O27  1  0.82862265  0.06759540  0.56661813  1
  O  O28  1  0.57028018  0.40668396  0.73873566  1
  O  O29  1  0.74636625  0.08473128  0.91711427  1
  O  O30  1  0.73873566  0.57028018  0.40668396  1
  O  O31  1  0.00354952  0.38172880  0.20206312  1
  O  O32  1  0.50354952  0.70206312  0.88172880  1
  O  O33  1  0.91711427  0.74636625  0.08473128  1
  O  O34  1  0.70206312  0.88172880  0.50354952  1
  O  O35  1  0.88172880  0.50354952  0.70206312  1
