# generated using pymatgen
data_Zn3Fe4(BiO4)6
_symmetry_space_group_name_H-M   'P 1'
_cell_length_a   6.65394444
_cell_length_b   7.98049591
_cell_length_c   11.60035323
_cell_angle_alpha   104.58521973
_cell_angle_beta   101.80932206
_cell_angle_gamma   109.95084314
_symmetry_Int_Tables_number   1
_chemical_formula_structural   Zn3Fe4(BiO4)6
_chemical_formula_sum   'Zn3 Fe4 Bi6 O24'
_cell_volume   531.01375183
_cell_formula_units_Z   1
loop_
 _symmetry_equiv_pos_site_id
 _symmetry_equiv_pos_as_xyz
  1  'x, y, z'
loop_
 _atom_site_type_symbol
 _atom_site_label
 _atom_site_symmetry_multiplicity
 _atom_site_fract_x
 _atom_site_fract_y
 _atom_site_fract_z
 _atom_site_occupancy
  Zn  Zn0  1  -0.00000000  0.50000000  0.50000000  1
  Zn  Zn1  1  0.31952411  0.28099446  0.79483445  1
  Zn  Zn2  1  0.68047589  0.71900554  0.20516555  1
  Fe  Fe3  1  0.35867951  0.95712245  0.59120606  1
  Fe  Fe4  1  0.64132049  0.04287755  0.40879394  1
  Fe  Fe5  1  0.00867766  0.19982159  0.98186346  1
  Fe  Fe6  1  0.99132234  0.80017841  0.01813654  1
  Bi  Bi7  1  0.86901772  0.40117324  0.73318474  1
  Bi  Bi8  1  0.13098228  0.59882676  0.26681526  1
  Bi  Bi9  1  0.82082281  0.87862442  0.68715727  1
  Bi  Bi10  1  0.50112061  0.80185903  0.89537485  1
  Bi  Bi11  1  0.17917719  0.12137558  0.31284273  1
  Bi  Bi12  1  0.49887939  0.19814097  0.10462515  1
  O  O13  1  0.84581338  0.60693852  0.63478108  1
  O  O14  1  0.15418662  0.39306148  0.36521892  1
  O  O15  1  0.25494142  0.51128862  0.79582760  1
  O  O16  1  0.74505858  0.48871138  0.20417240  1
  O  O17  1  0.88828877  0.28143215  0.54791478  1
  O  O18  1  0.11171123  0.71856785  0.45208522  1
  O  O19  1  0.61745515  0.91536338  0.53925745  1
  O  O20  1  0.38254485  0.08463662  0.46074255  1
  O  O21  1  0.68309959  0.75204847  0.04133744  1
  O  O22  1  0.31690041  0.24795153  0.95866256  1
  O  O23  1  0.46658902  0.77397986  0.28791643  1
  O  O24  1  0.53341098  0.22602014  0.71208357  1
  O  O25  1  0.13789487  0.00446444  0.66548301  1
  O  O26  1  0.13522048  0.10469504  0.11818781  1
  O  O27  1  0.86477952  0.89530496  0.88181219  1
  O  O28  1  0.52968051  0.17995074  0.28976163  1
  O  O29  1  0.47031949  0.82004926  0.71023837  1
  O  O30  1  0.12916719  0.44998147  0.09495398  1
  O  O31  1  0.87083281  0.55001853  0.90504602  1
  O  O32  1  0.94064382  0.18808284  0.80056238  1
  O  O33  1  0.05935618  0.81191716  0.19943762  1
  O  O34  1  0.30092849  0.88439485  0.00071329  1
  O  O35  1  0.69907151  0.11560515  0.99928671  1
  O  O36  1  0.86210513  0.99553556  0.33451699  1
