# generated using pymatgen
data_Mg(CuO2)2
_symmetry_space_group_name_H-M   'P 1'
_cell_length_a   5.93123069
_cell_length_b   5.93105438
_cell_length_c   17.74709346
_cell_angle_alpha   59.93095046
_cell_angle_beta   59.91548351
_cell_angle_gamma   59.99068897
_symmetry_Int_Tables_number   1
_chemical_formula_structural   Mg(CuO2)2
_chemical_formula_sum   'Mg6 Cu12 O24'
_cell_volume   440.91354326
_cell_formula_units_Z   6
loop_
 _symmetry_equiv_pos_site_id
 _symmetry_equiv_pos_as_xyz
  1  'x, y, z'
loop_
 _atom_site_type_symbol
 _atom_site_label
 _atom_site_symmetry_multiplicity
 _atom_site_fract_x
 _atom_site_fract_y
 _atom_site_fract_z
 _atom_site_occupancy
  Mg  Mg0  1  0.12113055  0.12123885  0.04549015  1
  Mg  Mg1  1  0.12348255  0.12358740  0.37647921  1
  Mg  Mg2  1  0.49829106  0.49821393  0.00170808  1
  Mg  Mg3  1  0.12241400  0.12242602  0.71089870  1
  Mg  Mg4  1  0.87770651  0.87764464  0.28899525  1
  Mg  Mg5  1  0.87413749  0.87400918  0.62593340  1
  Cu  Cu6  1  0.00123568  0.50017821  0.16612179  1
  Cu  Cu7  1  0.50022073  0.50026107  0.16608141  1
  Cu  Cu8  1  0.00016587  0.49992845  0.49997919  1
  Cu  Cu9  1  0.50015185  0.00123985  0.16613081  1
  Cu  Cu10  1  0.49996772  0.49999563  0.33340657  1
  Cu  Cu11  1  0.49997222  0.49998495  0.49994364  1
  Cu  Cu12  1  0.00008242  0.49871262  0.83416510  1
  Cu  Cu13  1  0.49991412  0.00017978  0.49997668  1
  Cu  Cu14  1  0.49869385  0.00008337  0.83415943  1
  Cu  Cu15  1  0.50122130  0.50124183  0.66543696  1
  Cu  Cu16  1  0.49869221  0.49872648  0.83418579  1
  Cu  Cu17  1  0.87763318  0.87765836  0.95561351  1
  O  O18  1  0.25458701  0.25437823  0.09196176  1
  O  O19  1  0.25848897  0.25832520  0.24138124  1
  O  O20  1  0.25466648  0.71487802  0.09207908  1
  O  O21  1  0.71477255  0.25459963  0.09208746  1
  O  O22  1  0.29056523  0.73834558  0.24411786  1
  O  O23  1  0.26195631  0.26201432  0.42017933  1
  O  O24  1  0.73829413  0.29049385  0.24411267  1
  O  O25  1  0.74600394  0.74604063  0.08752342  1
  O  O26  1  0.26207595  0.71548989  0.42012255  1
  O  O27  1  0.25984206  0.25999960  0.57336742  1
  O  O28  1  0.73868345  0.73885821  0.24415016  1
  O  O29  1  0.71537861  0.26219391  0.42010787  1
  O  O30  1  0.28317629  0.73897726  0.57954633  1
  O  O31  1  0.26354091  0.26350237  0.75330345  1
  O  O32  1  0.73905790  0.28308601  0.57954190  1
  O  O33  1  0.74052907  0.74039075  0.42625845  1
  O  O34  1  0.25974921  0.25950135  0.90709122  1
  O  O35  1  0.26359999  0.71281727  0.75331336  1
  O  O36  1  0.73923215  0.73922206  0.57950110  1
  O  O37  1  0.71262472  0.26360178  0.75336485  1
  O  O38  1  0.27731246  0.74691307  0.90972428  1
  O  O39  1  0.73689403  0.73711891  0.76294031  1
  O  O40  1  0.74701782  0.27710752  0.90972547  1
  O  O41  1  0.74683449  0.74682996  0.90979180  1
