# generated using pymatgen
data_LaZnFeWO6
_symmetry_space_group_name_H-M   'P 1'
_cell_length_a   5.91970978
_cell_length_b   5.55825109
_cell_length_c   7.84341021
_cell_angle_alpha   89.34752353
_cell_angle_beta   90.00000000
_cell_angle_gamma   90.00000000
_symmetry_Int_Tables_number   1
_chemical_formula_structural   LaZnFeWO6
_chemical_formula_sum   'La2 Zn2 Fe2 W2 O12'
_cell_volume   258.05682248
_cell_formula_units_Z   2
loop_
 _symmetry_equiv_pos_site_id
 _symmetry_equiv_pos_as_xyz
  1  'x, y, z'
loop_
 _atom_site_type_symbol
 _atom_site_label
 _atom_site_symmetry_multiplicity
 _atom_site_fract_x
 _atom_site_fract_y
 _atom_site_fract_z
 _atom_site_occupancy
  La  La0  1  0.05759918  0.98023810  0.24801599  1
  La  La1  1  0.44240082  0.48023810  0.74801599  1
  Zn  Zn2  1  0.39366068  0.47739965  0.25371694  1
  Zn  Zn3  1  0.10633932  0.97739965  0.75371694  1
  Fe  Fe4  1  0.52216270  0.99953840  0.00269855  1
  Fe  Fe5  1  0.97783730  0.49953840  0.50269855  1
  W  W6  1  0.52409375  0.00096957  0.49688277  1
  W  W7  1  0.97590625  0.50096957  0.99688277  1
  O  O8  1  0.03448366  0.63161622  0.75249599  1
  O  O9  1  0.18101882  0.20341712  0.93943607  1
  O  O10  1  0.21622309  0.17197028  0.55006941  1
  O  O11  1  0.28377691  0.67197028  0.05006941  1
  O  O12  1  0.31898118  0.70341712  0.43943607  1
  O  O13  1  0.46551634  0.13161622  0.25249499  1
  O  O14  1  0.49488432  0.90318166  0.74783183  1
  O  O15  1  0.68337852  0.30432760  0.55122803  1
  O  O16  1  0.71106611  0.32733939  0.95762343  1
  O  O17  1  0.78893389  0.82733939  0.45762343  1
  O  O18  1  0.81662148  0.80432760  0.05122803  1
  O  O19  1  0.00511568  0.40318166  0.24783183  1
