# generated using pymatgen
data_LaZnFeMoO6
_symmetry_space_group_name_H-M   'P 1'
_cell_length_a   5.95719529
_cell_length_b   5.53378271
_cell_length_c   7.79437033
_cell_angle_alpha   89.79745202
_cell_angle_beta   90.00000000
_cell_angle_gamma   90.00000000
_symmetry_Int_Tables_number   1
_chemical_formula_structural   LaZnFeMoO6
_chemical_formula_sum   'La2 Zn2 Fe2 Mo2 O12'
_cell_volume   256.94623739
_cell_formula_units_Z   2
loop_
 _symmetry_equiv_pos_site_id
 _symmetry_equiv_pos_as_xyz
  1  'x, y, z'
loop_
 _atom_site_type_symbol
 _atom_site_label
 _atom_site_symmetry_multiplicity
 _atom_site_fract_x
 _atom_site_fract_y
 _atom_site_fract_z
 _atom_site_occupancy
  La  La0  1  0.06915947  0.98062090  0.24770189  1
  La  La1  1  0.43084053  0.48062090  0.74770189  1
  Zn  Zn2  1  0.38991794  0.47753129  0.25309970  1
  Zn  Zn3  1  0.11008206  0.97753129  0.75309970  1
  Fe  Fe4  1  0.52561973  0.99472515  0.00348560  1
  Fe  Fe5  1  0.97438027  0.49472515  0.50348560  1
  Mo  Mo6  1  0.52980461  0.99923020  0.49677785  1
  Mo  Mo7  1  0.97019539  0.49923020  0.99677785  1
  O  O8  1  0.03249904  0.63238347  0.75236635  1
  O  O9  1  0.18280005  0.20290651  0.94177876  1
  O  O10  1  0.21184260  0.17468998  0.55061697  1
  O  O11  1  0.28815740  0.67468998  0.05061697  1
  O  O12  1  0.31719995  0.70290651  0.44177876  1
  O  O13  1  0.46750096  0.13238347  0.25236535  1
  O  O14  1  0.49422371  0.90875690  0.74757796  1
  O  O15  1  0.67877530  0.30435264  0.55359882  1
  O  O16  1  0.71720356  0.32480196  0.95299611  1
  O  O17  1  0.78279644  0.82480196  0.45299611  1
  O  O18  1  0.82122470  0.80435264  0.05359882  1
  O  O19  1  0.00577629  0.40875690  0.24757796  1
