# generated using pymatgen
data_MgTiAg(PO4)3
_symmetry_space_group_name_H-M   'P 1'
_cell_length_a   8.56030491
_cell_length_b   8.56030529
_cell_length_c   8.56030505
_cell_angle_alpha   61.97227296
_cell_angle_beta   61.97227211
_cell_angle_gamma   61.97227524
_symmetry_Int_Tables_number   1
_chemical_formula_structural   MgTiAg(PO4)3
_chemical_formula_sum   'Mg2 Ti2 Ag2 P6 O24'
_cell_volume   463.13194181
_cell_formula_units_Z   2
loop_
 _symmetry_equiv_pos_site_id
 _symmetry_equiv_pos_as_xyz
  1  'x, y, z'
loop_
 _atom_site_type_symbol
 _atom_site_label
 _atom_site_symmetry_multiplicity
 _atom_site_fract_x
 _atom_site_fract_y
 _atom_site_fract_z
 _atom_site_occupancy
  Mg  Mg0  1  0.99550156  0.99550156  0.99550156  1
  Mg  Mg1  1  0.49550156  0.49550156  0.49550156  1
  Ti  Ti2  1  0.14553683  0.14553683  0.14553683  1
  Ti  Ti3  1  0.64553683  0.64553683  0.64553683  1
  Ag  Ag4  1  0.35123485  0.35123485  0.35123485  1
  Ag  Ag5  1  0.85123485  0.85123485  0.85123485  1
  P  P6  1  0.04815672  0.44421294  0.75690758  1
  P  P7  1  0.44421294  0.75690758  0.04815672  1
  P  P8  1  0.75690758  0.04815672  0.44421294  1
  P  P9  1  0.25690758  0.94421294  0.54815672  1
  P  P10  1  0.54815672  0.25690758  0.94421294  1
  P  P11  1  0.94421294  0.54815672  0.25690758  1
  O  O12  1  0.09096647  0.53119418  0.32082579  1
  O  O13  1  0.32082579  0.09096647  0.53119418  1
  O  O14  1  0.05043421  0.25197556  0.91576108  1
  O  O15  1  0.53119418  0.32082579  0.09096647  1
  O  O16  1  0.03119418  0.59096647  0.82082579  1
  O  O17  1  0.24133358  0.42718662  0.60255987  1
  O  O18  1  0.25197556  0.91576108  0.05043421  1
  O  O19  1  0.42718662  0.60255987  0.24133358  1
  O  O20  1  0.19200540  0.00605596  0.37814882  1
  O  O21  1  0.60255987  0.24133358  0.42718662  1
  O  O22  1  0.10255987  0.92718662  0.74133358  1
  O  O23  1  0.37814882  0.19200540  0.00605596  1
  O  O24  1  0.59096647  0.82082579  0.03119418  1
  O  O25  1  0.91576108  0.05043421  0.25197556  1
  O  O26  1  0.41576108  0.75197556  0.55043421  1
  O  O27  1  0.82082579  0.03119418  0.59096647  1
  O  O28  1  0.55043421  0.41576108  0.75197556  1
  O  O29  1  0.74133358  0.10255987  0.92718662  1
  O  O30  1  0.75197556  0.55043421  0.41576108  1
  O  O31  1  0.00605596  0.37814882  0.19200540  1
  O  O32  1  0.50605596  0.69200540  0.87814882  1
  O  O33  1  0.92718662  0.74133358  0.10255987  1
  O  O34  1  0.69200540  0.87814882  0.50605596  1
  O  O35  1  0.87814882  0.50605596  0.69200540  1
