# generated using pymatgen
data_Zn(Ni2O3)2
_symmetry_space_group_name_H-M   'P 1'
_cell_length_a   2.91362821
_cell_length_b   5.09046782
_cell_length_c   14.89921991
_cell_angle_alpha   90.00000000
_cell_angle_beta   90.00000000
_cell_angle_gamma   106.62967804
_symmetry_Int_Tables_number   1
_chemical_formula_structural   Zn(Ni2O3)2
_chemical_formula_sum   'Zn2 Ni8 O12'
_cell_volume   211.73855888
_cell_formula_units_Z   2
loop_
 _symmetry_equiv_pos_site_id
 _symmetry_equiv_pos_as_xyz
  1  'x, y, z'
loop_
 _atom_site_type_symbol
 _atom_site_label
 _atom_site_symmetry_multiplicity
 _atom_site_fract_x
 _atom_site_fract_y
 _atom_site_fract_z
 _atom_site_occupancy
  Zn  Zn0  1  0.65656765  0.31313731  0.75000000  1
  Zn  Zn1  1  0.34343235  0.68686269  0.25000000  1
  Ni  Ni2  1  0.86363962  0.72728224  0.04457322  1
  Ni  Ni3  1  0.40447482  0.80894964  0.63478436  1
  Ni  Ni4  1  0.13635838  0.27271676  0.95542678  1
  Ni  Ni5  1  0.59552518  0.19105036  0.36521664  1
  Ni  Ni6  1  0.86363962  0.72728224  0.45542678  1
  Ni  Ni7  1  0.13635838  0.27271676  0.54457322  1
  Ni  Ni8  1  0.59552518  0.19105036  0.13478336  1
  Ni  Ni9  1  0.40447482  0.80894964  0.86521564  1
  O  O10  1  0.49999900  0.00000000  0.50000000  1
  O  O11  1  0.49999900  0.00000000  -0.00000000  1
  O  O12  1  0.04625180  0.09250161  0.83952536  1
  O  O13  1  0.95374820  0.90749839  0.16047564  1
  O  O14  1  0.95374820  0.90749839  0.33952436  1
  O  O15  1  0.04625180  0.09250161  0.66047564  1
  O  O16  1  0.77842993  0.55686286  0.92388960  1
  O  O17  1  0.22156907  0.44313814  0.07611040  1
  O  O18  1  0.22156907  0.44313814  0.42388960  1
  O  O19  1  0.77842993  0.55686286  0.57611040  1
  O  O20  1  0.30281556  0.60563312  0.75000000  1
  O  O21  1  0.69718244  0.39436588  0.25000000  1
