# generated using pymatgen
data_Ti3AlO6
_symmetry_space_group_name_H-M   'P 1'
_cell_length_a   17.83284979
_cell_length_b   5.95276813
_cell_length_c   5.95276850
_cell_angle_alpha   59.95291069
_cell_angle_beta   59.88956574
_cell_angle_gamma   59.88955886
_symmetry_Int_Tables_number   1
_chemical_formula_structural   Ti3AlO6
_chemical_formula_sum   'Ti12 Al4 O24'
_cell_volume   445.92566071
_cell_formula_units_Z   4
loop_
 _symmetry_equiv_pos_site_id
 _symmetry_equiv_pos_as_xyz
  1  'x, y, z'
loop_
 _atom_site_type_symbol
 _atom_site_label
 _atom_site_symmetry_multiplicity
 _atom_site_fract_x
 _atom_site_fract_y
 _atom_site_fract_z
 _atom_site_occupancy
  Ti  Ti0  1  0.00362237  0.48118842  0.00378579  1
  Ti  Ti1  1  0.32971063  0.51881158  0.99621421  1
  Ti  Ti2  1  0.66666700  0.50000000  0.00000000  1
  Ti  Ti3  1  0.00366609  0.00397163  0.00397163  1
  Ti  Ti4  1  0.32966691  0.99602837  0.99602837  1
  Ti  Ti5  1  0.66666700  -0.00000000  0.00000000  1
  Ti  Ti6  1  0.16666700  -0.00000000  0.00000000  1
  Ti  Ti7  1  0.48674553  0.01333918  0.01333918  1
  Ti  Ti8  1  0.84658747  0.98666082  0.98666082  1
  Ti  Ti9  1  0.00362237  0.00378579  0.48118842  1
  Ti  Ti10  1  0.32971063  0.99621421  0.51881158  1
  Ti  Ti11  1  0.66666700  -0.00000000  0.50000000  1
  Al  Al12  1  0.20733031  0.62612754  0.62612754  1
  Al  Al13  1  0.54204604  0.62475782  0.62475782  1
  Al  Al14  1  0.12600369  0.37387246  0.37387246  1
  Al  Al15  1  0.79128696  0.37524218  0.37524218  1
  O  O16  1  0.08455119  0.74870270  0.74870170  1
  O  O17  1  0.41971570  0.74690502  0.74690402  1
  O  O18  1  0.73151734  0.76846128  0.76846028  1
  O  O19  1  0.08658032  0.25010577  0.73964045  1
  O  O20  1  0.40666028  0.24059396  0.79855914  1
  O  O21  1  0.75139199  0.24814399  0.74882665  1
  O  O22  1  0.08657932  0.73964045  0.25010677  1
  O  O23  1  0.40666028  0.79855914  0.24059496  1
  O  O24  1  0.75139199  0.74882665  0.24814399  1
  O  O25  1  0.08646147  0.25045548  0.25045548  1
  O  O26  1  0.40662051  0.24119010  0.24119010  1
  O  O27  1  0.75139838  0.24856782  0.24856782  1
  O  O28  1  0.24675368  0.74989423  0.26035955  1
  O  O29  1  0.58194101  0.75185601  0.25117335  1
  O  O30  1  0.92667272  0.75940604  0.20144086  1
  O  O31  1  0.24878281  0.25129730  0.25129730  1
  O  O32  1  0.60181566  0.23153872  0.23153872  1
  O  O33  1  0.91361730  0.25309498  0.25309498  1
  O  O34  1  0.24675368  0.26035955  0.74989323  1
  O  O35  1  0.58194101  0.25117335  0.75185501  1
  O  O36  1  0.92667272  0.20144086  0.75940504  1
  O  O37  1  0.24687153  0.74954452  0.74954452  1
  O  O38  1  0.58193462  0.75143218  0.75143218  1
  O  O39  1  0.92671349  0.75880990  0.75880990  1
