# generated using pymatgen
data_Ca4Co5(TeO6)3
_symmetry_space_group_name_H-M   'P 1'
_cell_length_a   9.21722751
_cell_length_b   9.21722795
_cell_length_c   10.65840310
_cell_angle_alpha   85.58216148
_cell_angle_beta   85.58215997
_cell_angle_gamma   60.80075484
_symmetry_Int_Tables_number   1
_chemical_formula_structural   Ca4Co5(TeO6)3
_chemical_formula_sum   'Ca8 Co10 Te6 O36'
_cell_volume   787.28602323
_cell_formula_units_Z   2
loop_
 _symmetry_equiv_pos_site_id
 _symmetry_equiv_pos_as_xyz
  1  'x, y, z'
loop_
 _atom_site_type_symbol
 _atom_site_label
 _atom_site_symmetry_multiplicity
 _atom_site_fract_x
 _atom_site_fract_y
 _atom_site_fract_z
 _atom_site_occupancy
  Ca  Ca0  1  0.86674665  0.52361779  0.34577245  1
  Ca  Ca1  1  0.47927767  0.55294425  0.20203575  1
  Ca  Ca2  1  0.47638221  0.13325335  0.65422755  1
  Ca  Ca3  1  0.44705575  0.52072233  0.79796425  1
  Ca  Ca4  1  0.16127499  0.87199513  0.70038652  1
  Ca  Ca5  1  0.13142172  0.25792981  0.84709879  1
  Ca  Ca6  1  0.74207019  0.86857828  0.15290121  1
  Ca  Ca7  1  0.12800487  0.83872501  0.29961348  1
  Co  Co8  1  0.78180773  0.50730810  0.97553057  1
  Co  Co9  1  0.11385657  0.17370018  0.47543883  1
  Co  Co10  1  0.35297794  0.30278184  0.31466164  1
  Co  Co11  1  0.91080042  0.74560726  0.81476955  1
  Co  Co12  1  0.69721816  0.64702206  0.68533836  1
  Co  Co13  1  0.97610377  0.02389623  0.00000000  1
  Co  Co14  1  0.63751072  0.36248928  0.50000000  1
  Co  Co15  1  0.25439274  0.08920058  0.18523045  1
  Co  Co16  1  0.82629982  0.88614343  0.52456117  1
  Co  Co17  1  0.49269190  0.21819227  0.02446943  1
  Te  Te18  1  0.45553267  0.87573332  0.94276540  1
  Te  Te19  1  0.80453506  0.19597781  0.24904487  1
  Te  Te20  1  0.80402219  0.19546494  0.75095513  1
  Te  Te21  1  0.48450153  0.84799199  0.44212314  1
  Te  Te22  1  0.15200801  0.51549847  0.55787686  1
  Te  Te23  1  0.12426668  0.54446733  0.05723460  1
  O  O24  1  0.39809264  0.07435186  0.84191589  1
  O  O25  1  0.74364844  0.42502160  0.80616255  1
  O  O26  1  0.57948099  0.62827668  0.54133375  1
  O  O27  1  0.75479909  0.11193496  0.41223895  1
  O  O28  1  0.57497840  0.25635156  0.19383745  1
  O  O29  1  0.88806504  0.24520091  0.58776105  1
  O  O30  1  0.38912711  0.77622760  0.32458137  1
  O  O31  1  0.02020228  0.09359207  0.82390975  1
  O  O32  1  0.58827067  0.29712046  0.67612112  1
  O  O33  1  0.10721999  0.39390297  0.43228540  1
  O  O34  1  0.56128705  0.66962166  0.04783634  1
  O  O35  1  0.49969837  0.99697789  0.06898160  1
  O  O36  1  0.86471604  0.96608056  0.69427978  1
  O  O37  1  0.68427036  0.76022197  0.85401930  1
  O  O38  1  0.33037834  0.43871295  0.95216366  1
  O  O39  1  0.21803137  0.61588220  0.17634600  1
  O  O40  1  0.04493291  0.72133034  0.45234644  1
  O  O41  1  0.23977803  0.31572964  0.14598070  1
  O  O42  1  0.37172332  0.42051902  0.45866625  1
  O  O43  1  0.27866966  0.95506709  0.54765356  1
  O  O44  1  0.68235398  0.78950825  0.34038513  1
  O  O45  1  0.92415152  0.63029098  0.64749763  1
  O  O46  1  0.90640793  0.97979772  0.17609025  1
  O  O47  1  0.38411780  0.78196863  0.82365400  1
  O  O48  1  0.02832410  0.76505716  0.95937789  1
  O  O49  1  0.71974473  0.14491843  0.91287800  1
  O  O50  1  0.00302211  0.50030163  0.93101840  1
  O  O51  1  0.22377240  0.61087289  0.67541863  1
  O  O52  1  0.03391944  0.13528396  0.30572022  1
  O  O53  1  0.36970902  0.07584848  0.35250237  1
  O  O54  1  0.21049175  0.31764602  0.65961487  1
  O  O55  1  0.85508157  0.28025527  0.08712200  1
  O  O56  1  0.70287954  0.41172933  0.32387888  1
  O  O57  1  0.60609703  0.89278001  0.56771460  1
  O  O58  1  0.23494284  0.97167590  0.04062211  1
  O  O59  1  0.92564814  0.60190736  0.15808411  1
