# generated using pymatgen
data_Li(VS2)2
_symmetry_space_group_name_H-M   'P 1'
_cell_length_a   7.01440784
_cell_length_b   7.01440752
_cell_length_c   7.11497203
_cell_angle_alpha   119.53353535
_cell_angle_beta   119.53353214
_cell_angle_gamma   90.00000253
_symmetry_Int_Tables_number   1
_chemical_formula_structural   Li(VS2)2
_chemical_formula_sum   'Li2 V4 S8'
_cell_volume   250.98702621
_cell_formula_units_Z   2
loop_
 _symmetry_equiv_pos_site_id
 _symmetry_equiv_pos_as_xyz
  1  'x, y, z'
loop_
 _atom_site_type_symbol
 _atom_site_label
 _atom_site_symmetry_multiplicity
 _atom_site_fract_x
 _atom_site_fract_y
 _atom_site_fract_z
 _atom_site_occupancy
  Li  Li0  1  0.37500100  0.62500100  0.75000000  1
  Li  Li1  1  0.62499900  0.37500000  0.25000000  1
  V  V2  1  0.00000000  0.50000100  0.00000100  1
  V  V3  1  0.00000100  0.00000000  0.50000000  1
  V  V4  1  0.50000100  0.00000000  0.50000000  1
  V  V5  1  0.00000000  0.00000000  0.00000000  1
  S  S6  1  0.76233805  0.77698997  0.52467710  1
  S  S7  1  0.75231288  0.23766295  0.97532390  1
  S  S8  1  0.22301103  0.23766295  0.97532390  1
  S  S9  1  0.23766195  0.22301003  0.47532290  1
  S  S10  1  0.23766095  0.75231188  0.47532290  1
  S  S11  1  0.24768712  0.76233805  0.02467710  1
  S  S12  1  0.76233805  0.24768712  0.52467610  1
  S  S13  1  0.77698897  0.76233805  0.02467610  1
