# generated using pymatgen
data_CaTi2O4
_symmetry_space_group_name_H-M   'P 1'
_cell_length_a   6.45482470
_cell_length_b   6.08404005
_cell_length_c   6.08403988
_cell_angle_alpha   59.99999322
_cell_angle_beta   61.88267903
_cell_angle_gamma   61.88267857
_symmetry_Int_Tables_number   1
_chemical_formula_structural   CaTi2O4
_chemical_formula_sum   'Ca2 Ti4 O8'
_cell_volume   173.59729485
_cell_formula_units_Z   2
loop_
 _symmetry_equiv_pos_site_id
 _symmetry_equiv_pos_as_xyz
  1  'x, y, z'
loop_
 _atom_site_type_symbol
 _atom_site_label
 _atom_site_symmetry_multiplicity
 _atom_site_fract_x
 _atom_site_fract_y
 _atom_site_fract_z
 _atom_site_occupancy
  Ca  Ca0  1  0.01111431  0.99629556  0.99629556  1
  Ca  Ca1  1  0.11482596  0.62839068  0.62839068  1
  Ti  Ti2  1  0.26621009  0.24459697  0.24459697  1
  Ti  Ti3  1  0.62847836  0.13449879  0.61851143  1
  Ti  Ti4  1  0.62847836  0.61851143  0.13449879  1
  Ti  Ti5  1  0.62847836  0.61851143  0.61851143  1
  O  O6  1  0.39282693  0.36868533  0.36868533  1
  O  O7  1  0.39282693  0.36868533  0.86980241  1
  O  O8  1  0.39282693  0.86980241  0.36868533  1
  O  O9  1  0.90768600  0.36410467  0.36410467  1
  O  O10  1  0.42695578  0.85768074  0.85768074  1
  O  O11  1  0.81976433  0.42326967  0.87848300  1
  O  O12  1  0.81976433  0.87848300  0.42326967  1
  O  O13  1  0.81976433  0.87848300  0.87848300  1
