# generated using pymatgen
data_MgFeAsO5
_symmetry_space_group_name_H-M   'P 1'
_cell_length_a   8.11970646
_cell_length_b   6.14053860
_cell_length_c   8.50679586
_cell_angle_alpha   89.94551438
_cell_angle_beta   90.00494739
_cell_angle_gamma   90.08112827
_symmetry_Int_Tables_number   1
_chemical_formula_structural   MgFeAsO5
_chemical_formula_sum   'Mg4 Fe4 As4 O20'
_cell_volume   424.14287135
_cell_formula_units_Z   4
loop_
 _symmetry_equiv_pos_site_id
 _symmetry_equiv_pos_as_xyz
  1  'x, y, z'
loop_
 _atom_site_type_symbol
 _atom_site_label
 _atom_site_symmetry_multiplicity
 _atom_site_fract_x
 _atom_site_fract_y
 _atom_site_fract_z
 _atom_site_occupancy
  Mg  Mg0  1  0.90568262  0.64025291  0.06752791  1
  Mg  Mg1  1  0.59404770  0.35863142  0.56770634  1
  Mg  Mg2  1  0.40418804  0.85585728  0.93185133  1
  Mg  Mg3  1  0.09567289  0.14349758  0.43168559  1
  Fe  Fe4  1  0.99783060  0.49024681  0.74453196  1
  Fe  Fe5  1  0.50218342  0.50991669  0.24475037  1
  Fe  Fe6  1  0.49773903  0.01002325  0.25508518  1
  Fe  Fe7  1  0.00221470  0.99018068  0.75523369  1
  As  As8  1  0.65694561  0.27014096  0.92821812  1
  As  As9  1  0.84309325  0.72954123  0.42786566  1
  As  As10  1  0.15715008  0.22946171  0.07156681  1
  As  As11  1  0.34302439  0.77076363  0.57192660  1
  O  O12  1  0.84579552  0.23478300  0.83484979  1
  O  O13  1  0.65441063  0.76568800  0.33427364  1
  O  O14  1  0.34476839  0.26507322  0.16722748  1
  O  O15  1  0.15535095  0.73495163  0.66739349  1
  O  O16  1  0.51940959  0.33791593  0.78689788  1
  O  O17  1  0.98040625  0.66200176  0.28669839  1
  O  O18  1  0.01863637  0.16350720  0.21253988  1
  O  O19  1  0.48144262  0.83752680  0.71286834  1
  O  O20  1  0.59821623  0.03466633  0.02289964  1
  O  O21  1  0.90180094  0.96490610  0.52264466  1
  O  O22  1  0.10093992  0.46545426  0.97618605  1
  O  O23  1  0.39934841  0.53488732  0.47689968  1
  O  O24  1  0.68253256  0.47761571  0.06403351  1
  O  O25  1  0.81737915  0.52200749  0.56403278  1
  O  O26  1  0.18270244  0.02181925  0.93600791  1
  O  O27  1  0.31760926  0.97861742  0.43623030  1
  O  O28  1  0.89915319  0.74653665  0.85041311  1
  O  O29  1  0.60080719  0.25364618  0.35045048  1
  O  O30  1  0.39859657  0.75292119  0.14989643  1
  O  O31  1  0.10092348  0.24696141  0.64960600  1
