# generated using pymatgen
data_Zn2Ni9O13
_symmetry_space_group_name_H-M   'P 1'
_cell_length_a   2.90895065
_cell_length_b   5.09461026
_cell_length_c   16.41991865
_cell_angle_alpha   98.57832836
_cell_angle_beta   90.03048529
_cell_angle_gamma   106.54062317
_symmetry_Int_Tables_number   1
_chemical_formula_structural   Zn2Ni9O13
_chemical_formula_sum   'Zn2 Ni9 O13'
_cell_volume   230.42563756
_cell_formula_units_Z   1
loop_
 _symmetry_equiv_pos_site_id
 _symmetry_equiv_pos_as_xyz
  1  'x, y, z'
loop_
 _atom_site_type_symbol
 _atom_site_label
 _atom_site_symmetry_multiplicity
 _atom_site_fract_x
 _atom_site_fract_y
 _atom_site_fract_z
 _atom_site_occupancy
  Zn  Zn0  1  0.21617025  0.43293693  0.22910952  1
  Zn  Zn1  1  0.78382975  0.56706307  0.77089048  1
  Ni  Ni2  1  0.50000000  -0.00000000  0.50000000  1
  Ni  Ni3  1  0.64699788  0.29350543  0.04102969  1
  Ni  Ni4  1  0.35300212  0.70649457  0.95897031  1
  Ni  Ni5  1  0.75139982  0.50214421  0.41873383  1
  Ni  Ni6  1  0.24860018  0.49785579  0.58126617  1
  Ni  Ni7  1  0.93696482  0.87323906  0.12361383  1
  Ni  Ni8  1  0.06303518  0.12676094  0.87638617  1
  Ni  Ni9  1  0.99386521  0.98760884  0.33454345  1
  Ni  Ni10  1  0.00613479  0.01239116  0.66545655  1
  O  O11  1  -0.00000000  -0.00000000  -0.00000000  1
  O  O12  1  0.86067055  0.72234371  0.22897636  1
  O  O13  1  0.13932945  0.27765629  0.77102364  1
  O  O14  1  0.29720915  0.59273542  0.07005707  1
  O  O15  1  0.70279085  0.40726458  0.92994393  1
  O  O16  1  0.58424340  0.16842395  0.14702630  1
  O  O17  1  0.41575660  0.83157605  0.85297370  1
  O  O18  1  0.62663154  0.25372392  0.31066282  1
  O  O19  1  0.37336846  0.74627608  0.68933718  1
  O  O20  1  0.38467323  0.76902617  0.38845265  1
  O  O21  1  0.61532677  0.23097383  0.61154735  1
  O  O22  1  0.12946992  0.25808476  0.46271952  1
  O  O23  1  0.87053008  0.74191524  0.53728048  1
