# generated using pymatgen
data_Ca2Nb2CrO8
_symmetry_space_group_name_H-M   'P 1'
_cell_length_a   5.49511864
_cell_length_b   6.46544360
_cell_length_c   10.30456942
_cell_angle_alpha   110.88839722
_cell_angle_beta   92.57957118
_cell_angle_gamma   88.44117605
_symmetry_Int_Tables_number   1
_chemical_formula_structural   Ca2Nb2CrO8
_chemical_formula_sum   'Ca4 Nb4 Cr2 O16'
_cell_volume   341.67203718
_cell_formula_units_Z   2
loop_
 _symmetry_equiv_pos_site_id
 _symmetry_equiv_pos_as_xyz
  1  'x, y, z'
loop_
 _atom_site_type_symbol
 _atom_site_label
 _atom_site_symmetry_multiplicity
 _atom_site_fract_x
 _atom_site_fract_y
 _atom_site_fract_z
 _atom_site_occupancy
  Ca  Ca0  1  0.75550881  0.46197888  0.57836028  1
  Ca  Ca1  1  0.74363813  0.88444888  0.41823149  1
  Ca  Ca2  1  0.24171028  0.53798004  0.42502034  1
  Ca  Ca3  1  0.25384044  0.11317380  0.58461587  1
  Nb  Nb4  1  0.74469101  0.25377310  0.22808809  1
  Nb  Nb5  1  0.74861091  0.04458438  0.77372941  1
  Nb  Nb6  1  0.25372671  0.74481243  0.77357129  1
  Nb  Nb7  1  0.25022462  0.95454536  0.22854551  1
  Cr  Cr8  1  0.75683688  0.64929152  0.99886912  1
  Cr  Cr9  1  0.24604700  0.35131730  0.00249181  1
  O  O10  1  0.07283556  0.17299029  0.14639554  1
  O  O11  1  0.41297042  0.06847759  0.85541185  1
  O  O12  1  0.92492754  0.82356782  0.85510677  1
  O  O13  1  0.58584345  0.93130135  0.14635313  1
  O  O14  1  0.56527365  0.38567690  0.11943338  1
  O  O15  1  0.91165206  0.30588317  0.89056315  1
  O  O16  1  0.43945694  0.61544189  0.88114181  1
  O  O17  1  0.09231152  0.69007538  0.10981304  1
  O  O18  1  0.49294575  0.24222291  0.36740036  1
  O  O19  1  0.00141796  0.88305283  0.63145175  1
  O  O20  1  0.34275815  0.83201200  0.37070671  1
  O  O21  1  0.15851905  0.46922697  0.63014351  1
  O  O22  1  0.65507932  0.16697349  0.63163808  1
  O  O23  1  0.83927585  0.52836569  0.37287522  1
  O  O24  1  0.99511538  0.11343475  0.37000337  1
  O  O25  1  0.50241460  0.75704231  0.63344612  1
