# generated using pymatgen
data_TiZn2WO6
_symmetry_space_group_name_H-M   'P 1'
_cell_length_a   5.25381705
_cell_length_b   5.23280301
_cell_length_c   7.66263144
_cell_angle_alpha   90.30748762
_cell_angle_beta   133.00414716
_cell_angle_gamma   119.93779873
_symmetry_Int_Tables_number   1
_chemical_formula_structural   TiZn2WO6
_chemical_formula_sum   'Ti1 Zn2 W1 O6'
_cell_volume   111.88210119
_cell_formula_units_Z   1
loop_
 _symmetry_equiv_pos_site_id
 _symmetry_equiv_pos_as_xyz
  1  'x, y, z'
loop_
 _atom_site_type_symbol
 _atom_site_label
 _atom_site_symmetry_multiplicity
 _atom_site_fract_x
 _atom_site_fract_y
 _atom_site_fract_z
 _atom_site_occupancy
  Ti  Ti0  1  0.00388930  0.98396712  0.50321006  1
  Zn  Zn1  1  0.07734469  0.51973520  0.31179105  1
  Zn  Zn2  1  0.13483144  0.55152707  0.84744584  1
  W  W3  1  0.98821009  0.97576883  0.99183162  1
  O  O4  1  0.94201304  0.81883739  0.22245766  1
  O  O5  1  0.96772852  0.09515983  0.72289831  1
  O  O6  1  0.34718393  0.48104075  0.23105125  1
  O  O7  1  0.32028945  0.82438739  0.71143463  1
  O  O8  1  0.61279589  0.08184402  0.22853267  1
  O  O9  1  0.59616265  0.46267438  0.72099890  1
