# generated using pymatgen
data_CaTiPO5
_symmetry_space_group_name_H-M   'P 1'
_cell_length_a   5.57623430
_cell_length_b   7.07378054
_cell_length_c   8.88966546
_cell_angle_alpha   90.00208548
_cell_angle_beta   142.84238207
_cell_angle_gamma   76.44910910
_symmetry_Int_Tables_number   1
_chemical_formula_structural   CaTiPO5
_chemical_formula_sum   'Ca2 Ti2 P2 O10'
_cell_volume   195.21685474
_cell_formula_units_Z   2
loop_
 _symmetry_equiv_pos_site_id
 _symmetry_equiv_pos_as_xyz
  1  'x, y, z'
loop_
 _atom_site_type_symbol
 _atom_site_label
 _atom_site_symmetry_multiplicity
 _atom_site_fract_x
 _atom_site_fract_y
 _atom_site_fract_z
 _atom_site_occupancy
  Ca  Ca0  1  0.50810868  0.24316590  0.17384065  1
  Ca  Ca1  1  0.50493199  0.73992879  0.83007595  1
  Ti  Ti2  1  0.50313494  0.49171008  0.50090629  1
  Ti  Ti3  1  0.50393267  0.99168096  0.50017718  1
  P  P4  1  0.50341226  0.24212234  0.82583129  1
  P  P5  1  0.50288091  0.74120965  0.17499708  1
  O  O6  1  0.29708307  0.12289246  0.62179575  1
  O  O7  1  0.70898770  0.36275202  0.82871866  1
  O  O8  1  0.70897806  0.86139565  0.37797857  1
  O  O9  1  0.29494694  0.62250448  0.17180504  1
  O  O10  1  0.84017703  0.58414440  0.23839207  1
  O  O11  1  0.16761344  0.89557383  0.90013858  1
  O  O12  1  0.16691183  0.39687442  0.76440567  1
  O  O13  1  0.84057113  0.08628716  0.10015413  1
  O  O14  1  0.50080906  0.74232098  0.57614313  1
  O  O15  1  0.50391331  0.24178289  0.42355793  1
