# generated using pymatgen
data_AlCu(WO4)2
_symmetry_space_group_name_H-M   'P 1'
_cell_length_a   5.02159247
_cell_length_b   5.67879554
_cell_length_c   9.15478115
_cell_angle_alpha   90.00006431
_cell_angle_beta   90.76094795
_cell_angle_gamma   90.00002481
_symmetry_Int_Tables_number   1
_chemical_formula_structural   AlCu(WO4)2
_chemical_formula_sum   'Al2 Cu2 W4 O16'
_cell_volume   261.04018055
_cell_formula_units_Z   2
loop_
 _symmetry_equiv_pos_site_id
 _symmetry_equiv_pos_as_xyz
  1  'x, y, z'
loop_
 _atom_site_type_symbol
 _atom_site_label
 _atom_site_symmetry_multiplicity
 _atom_site_fract_x
 _atom_site_fract_y
 _atom_site_fract_z
 _atom_site_occupancy
  Al  Al0  1  0.24999900  0.66195205  0.25000000  1
  Al  Al1  1  0.75000000  0.33804695  0.75000000  1
  Cu  Cu2  1  0.74999900  0.34638864  0.25000000  1
  Cu  Cu3  1  0.25000100  0.65361036  0.75000000  1
  W  W4  1  0.25692851  0.17324090  0.49723331  1
  W  W5  1  0.24307149  0.17324090  0.00276669  1
  W  W6  1  0.74307149  0.82675910  0.50276669  1
  W  W7  1  0.75692851  0.82675910  0.99723331  1
  O  O8  1  0.37539938  0.40402240  0.12672639  1
  O  O9  1  0.12459961  0.40402141  0.37327361  1
  O  O10  1  0.62460062  0.59597660  0.87327361  1
  O  O11  1  0.87539939  0.59597759  0.62672639  1
  O  O12  1  0.43312256  0.88699375  0.61436171  1
  O  O13  1  0.06687744  0.88699275  0.88563829  1
  O  O14  1  0.56687744  0.11300625  0.38563829  1
  O  O15  1  0.93312256  0.11300725  0.11436171  1
  O  O16  1  0.92978973  0.64693793  0.13967684  1
  O  O17  1  0.57021027  0.64693794  0.36032317  1
  O  O18  1  0.07021027  0.35306307  0.86032316  1
  O  O19  1  0.42978973  0.35306306  0.63967683  1
  O  O20  1  0.41852670  0.88455262  0.11117896  1
  O  O21  1  0.58147330  0.11544838  0.88882104  1
  O  O22  1  0.08147330  0.88455262  0.38882104  1
  O  O23  1  0.91852670  0.11544838  0.61117896  1
