# generated using pymatgen
data_CaV4O10
_symmetry_space_group_name_H-M   'P 1'
_cell_length_a   3.71430921
_cell_length_b   5.96725354
_cell_length_c   11.34940700
_cell_angle_alpha   90.00000000
_cell_angle_beta   90.00000000
_cell_angle_gamma   108.13302597
_symmetry_Int_Tables_number   1
_chemical_formula_structural   CaV4O10
_chemical_formula_sum   'Ca1 V4 O10'
_cell_volume   239.05791355
_cell_formula_units_Z   1
loop_
 _symmetry_equiv_pos_site_id
 _symmetry_equiv_pos_as_xyz
  1  'x, y, z'
loop_
 _atom_site_type_symbol
 _atom_site_label
 _atom_site_symmetry_multiplicity
 _atom_site_fract_x
 _atom_site_fract_y
 _atom_site_fract_z
 _atom_site_occupancy
  Ca  Ca0  1  0.89943458  0.79886816  0.75000000  1
  V  V1  1  0.20104725  0.40209549  0.59676104  1
  V  V2  1  0.79103115  0.58206129  0.39910596  1
  V  V3  1  0.79103115  0.58206129  0.10089404  1
  V  V4  1  0.20104725  0.40209549  0.90323896  1
  O  O5  1  0.73331742  0.46663483  0.25000000  1
  O  O6  1  0.28571299  0.57142398  0.75000000  1
  O  O7  1  0.24983465  0.49966630  0.07079227  1
  O  O8  1  0.75920742  0.51841383  0.92648589  1
  O  O9  1  0.75920742  0.51841383  0.57351411  1
  O  O10  1  0.24983465  0.49966630  0.42920673  1
  O  O11  1  0.05604314  0.11208628  0.61983653  1
  O  O12  1  0.93133991  0.86267882  0.38523847  1
  O  O13  1  0.05604314  0.11208628  0.88016347  1
  O  O14  1  0.93133991  0.86267882  0.11476253  1
