# generated using pymatgen
data_Mn5(TeO6)3
_symmetry_space_group_name_H-M   'P 1'
_cell_length_a   8.42183256
_cell_length_b   8.42183250
_cell_length_c   10.42451531
_cell_angle_alpha   83.88298714
_cell_angle_beta   83.88298700
_cell_angle_gamma   61.88942963
_symmetry_Int_Tables_number   1
_chemical_formula_structural   Mn5(TeO6)3
_chemical_formula_sum   'Mn10 Te6 O36'
_cell_volume   647.11162203
_cell_formula_units_Z   2
loop_
 _symmetry_equiv_pos_site_id
 _symmetry_equiv_pos_as_xyz
  1  'x, y, z'
loop_
 _atom_site_type_symbol
 _atom_site_label
 _atom_site_symmetry_multiplicity
 _atom_site_fract_x
 _atom_site_fract_y
 _atom_site_fract_z
 _atom_site_occupancy
  Mn  Mn0  1  0.80413237  0.51235670  0.97883972  1
  Mn  Mn1  1  0.12029520  0.19615491  0.47856718  1
  Mn  Mn2  1  0.32464728  0.36453654  0.28694006  1
  Mn  Mn3  1  0.97354795  0.71691387  0.78745590  1
  Mn  Mn4  1  0.63546346  0.67535272  0.71305994  1
  Mn  Mn5  1  0.97262846  0.02737154  0.00000000  1
  Mn  Mn6  1  0.63546677  0.36453323  0.50000000  1
  Mn  Mn7  1  0.28308613  0.02645105  0.21254410  1
  Mn  Mn8  1  0.80384509  0.87970480  0.52143282  1
  Mn  Mn9  1  0.48764330  0.19586763  0.02116028  1
  Te  Te10  1  0.45863265  0.86721580  0.95946124  1
  Te  Te11  1  0.80365530  0.19696109  0.25025923  1
  Te  Te12  1  0.80303891  0.19634470  0.74974077  1
  Te  Te13  1  0.47600373  0.84928952  0.45928741  1
  Te  Te14  1  0.15071048  0.52399627  0.54071259  1
  Te  Te15  1  0.13278420  0.54136735  0.04053876  1
  O  O16  1  0.41622846  0.10514595  0.89101451  1
  O  O17  1  0.73841439  0.44211582  0.81103689  1
  O  O18  1  0.55945307  0.61817189  0.55977918  1
  O  O19  1  0.73781172  0.11165307  0.42407580  1
  O  O20  1  0.55788418  0.26158561  0.18896311  1
  O  O21  1  0.88834693  0.26218828  0.57592420  1
  O  O22  1  0.40517264  0.79257769  0.31263893  1
  O  O23  1  0.02478848  0.10271565  0.82985541  1
  O  O24  1  0.58263655  0.28889954  0.66989667  1
  O  O25  1  0.08971661  0.43115970  0.39018934  1
  O  O26  1  0.56409284  0.63073350  0.04758984  1
  O  O27  1  0.51899896  0.96088929  0.10975402  1
  O  O28  1  0.87006234  0.94993624  0.68926697  1
  O  O29  1  0.72008874  0.74328990  0.86712445  1
  O  O30  1  0.36926650  0.43590716  0.95241116  1
  O  O31  1  0.20434146  0.59690770  0.18837658  1
  O  O32  1  0.04410018  0.76051254  0.45252239  1
  O  O33  1  0.25671010  0.27991126  0.13287555  1
  O  O34  1  0.38182811  0.44054693  0.44022082  1
  O  O35  1  0.23948746  0.95589982  0.54747761  1
  O  O36  1  0.71339177  0.80872465  0.39089129  1
  O  O37  1  0.88735119  0.64812914  0.63419220  1
  O  O38  1  0.89728435  0.97521152  0.17014459  1
  O  O39  1  0.40309330  0.79565854  0.81162342  1
  O  O40  1  0.05080940  0.77219537  0.94095898  1
  O  O41  1  0.71718791  0.13101134  0.92304268  1
  O  O42  1  0.03911071  0.48100204  0.89024598  1
  O  O43  1  0.20742231  0.59482736  0.68736107  1
  O  O44  1  0.05006376  0.12993766  0.31073303  1
  O  O45  1  0.35187086  0.11264881  0.36580780  1
  O  O46  1  0.19127535  0.28660823  0.60910871  1
  O  O47  1  0.86898766  0.28281209  0.07695732  1
  O  O48  1  0.71110046  0.41736345  0.33010333  1
  O  O49  1  0.56884030  0.91028339  0.60981066  1
  O  O50  1  0.22780463  0.94919060  0.05904102  1
  O  O51  1  0.89485405  0.58377154  0.10898549  1
