# generated using pymatgen
data_SrCa3TiMn3O12
_symmetry_space_group_name_H-M   'P 1'
_cell_length_a   7.70404061
_cell_length_b   7.67889656
_cell_length_c   7.67889656
_cell_angle_alpha   90.04427436
_cell_angle_beta   90.00000000
_cell_angle_gamma   90.00000000
_symmetry_Int_Tables_number   1
_chemical_formula_structural   SrCa3TiMn3O12
_chemical_formula_sum   'Sr2 Ca6 Ti2 Mn6 O24'
_cell_volume   454.27210446
_cell_formula_units_Z   2
loop_
 _symmetry_equiv_pos_site_id
 _symmetry_equiv_pos_as_xyz
  1  'x, y, z'
loop_
 _atom_site_type_symbol
 _atom_site_label
 _atom_site_symmetry_multiplicity
 _atom_site_fract_x
 _atom_site_fract_y
 _atom_site_fract_z
 _atom_site_occupancy
  Sr  Sr0  1  0.25000000  0.24709589  0.75290411  1
  Sr  Sr1  1  0.75000000  0.24709589  0.75290411  1
  Ca  Ca2  1  0.25000000  0.24519381  0.24565901  1
  Ca  Ca3  1  0.25000000  0.75501632  0.24498368  1
  Ca  Ca4  1  0.25000000  0.75434099  0.75480619  1
  Ca  Ca5  1  0.75000000  0.24519381  0.24565901  1
  Ca  Ca6  1  0.75000000  0.75501632  0.24498368  1
  Ca  Ca7  1  0.75000000  0.75434099  0.75480619  1
  Ti  Ti8  1  0.00000000  0.50304147  0.49695853  1
  Ti  Ti9  1  0.50000000  0.50304147  0.49695853  1
  Mn  Mn10  1  -0.00000000  0.99885434  0.00114566  1
  Mn  Mn11  1  -0.00000000  0.99952426  0.49852149  1
  Mn  Mn12  1  0.00000000  0.50147851  0.00047574  1
  Mn  Mn13  1  0.50000000  0.99885434  0.00114566  1
  Mn  Mn14  1  0.50000000  0.99952426  0.49852149  1
  Mn  Mn15  1  0.50000000  0.50147851  0.00047574  1
  O  O16  1  0.25000000  0.99584054  0.00415946  1
  O  O17  1  0.25000000  0.99571182  0.49589798  1
  O  O18  1  0.25000000  0.50410202  0.00428818  1
  O  O19  1  0.25000000  0.50239455  0.49760545  1
  O  O20  1  0.75000000  0.99584054  0.00415946  1
  O  O21  1  0.75000000  0.99571182  0.49589798  1
  O  O22  1  0.75000000  0.50410202  0.00428818  1
  O  O23  1  0.75000000  0.50239455  0.49760545  1
  O  O24  1  -0.00000000  0.24970458  0.00718208  1
  O  O25  1  -0.00000000  0.24650910  0.49575459  1
  O  O26  1  0.00000000  0.75017475  0.00111679  1
  O  O27  1  -0.00000000  0.75344633  0.49837582  1
  O  O28  1  0.50000000  0.24970458  0.00718208  1
  O  O29  1  0.50000000  0.24650910  0.49575459  1
  O  O30  1  0.50000000  0.75017475  0.00111679  1
  O  O31  1  0.50000000  0.75344633  0.49837582  1
  O  O32  1  -0.00000000  0.99888321  0.24982525  1
  O  O33  1  0.00000000  0.99281792  0.75029542  1
  O  O34  1  -0.00000000  0.50162418  0.24655367  1
  O  O35  1  0.00000000  0.50424541  0.75349090  1
  O  O36  1  0.50000000  0.99888321  0.24982525  1
  O  O37  1  0.50000000  0.99281792  0.75029542  1
  O  O38  1  0.50000000  0.50162418  0.24655367  1
  O  O39  1  0.50000000  0.50424541  0.75349090  1
