# generated using pymatgen
data_CaNi5H
_symmetry_space_group_name_H-M   'P 1'
_cell_length_a   3.94541047
_cell_length_b   4.93745510
_cell_length_c   4.94163663
_cell_angle_alpha   119.13468360
_cell_angle_beta   90.00000000
_cell_angle_gamma   90.00000000
_symmetry_Int_Tables_number   1
_chemical_formula_structural   CaNi5H
_chemical_formula_sum   'Ca1 Ni5 H1'
_cell_volume   84.08489048
_cell_formula_units_Z   1
loop_
 _symmetry_equiv_pos_site_id
 _symmetry_equiv_pos_as_xyz
  1  'x, y, z'
loop_
 _atom_site_type_symbol
 _atom_site_label
 _atom_site_symmetry_multiplicity
 _atom_site_fract_x
 _atom_site_fract_y
 _atom_site_fract_z
 _atom_site_occupancy
  Ca  Ca0  1  -0.00000000  0.00226623  0.99775508  1
  Ni  Ni1  1  0.00000000  0.66100871  0.33901936  1
  Ni  Ni2  1  -0.00000000  0.33762917  0.66243324  1
  Ni  Ni3  1  0.50000000  0.50356312  0.49645257  1
  Ni  Ni4  1  0.50000000  0.00732033  0.50436116  1
  Ni  Ni5  1  0.50000000  0.49558966  0.99262539  1
  H  H6  1  0.50000000  0.85672278  0.14335318  1
