# generated using pymatgen
data_V2ZnO4
_symmetry_space_group_name_H-M   'P 1'
_cell_length_a   6.08021748
_cell_length_b   6.07434421
_cell_length_c   6.07434373
_cell_angle_alpha   59.99999028
_cell_angle_beta   60.03194729
_cell_angle_gamma   60.03194560
_symmetry_Int_Tables_number   1
_chemical_formula_structural   V2ZnO4
_chemical_formula_sum   'V4 Zn2 O8'
_cell_volume   158.71295761
_cell_formula_units_Z   2
loop_
 _symmetry_equiv_pos_site_id
 _symmetry_equiv_pos_as_xyz
  1  'x, y, z'
loop_
 _atom_site_type_symbol
 _atom_site_label
 _atom_site_symmetry_multiplicity
 _atom_site_fract_x
 _atom_site_fract_y
 _atom_site_fract_z
 _atom_site_occupancy
  V  V0  1  0.25669873  0.24776742  0.24776742  1
  V  V1  1  0.62680371  0.12078926  0.62620351  1
  V  V2  1  0.62680371  0.62620351  0.12078926  1
  V  V3  1  0.62680371  0.62620351  0.62620351  1
  Zn  Zn4  1  0.98893298  0.00368901  0.00368901  1
  Zn  Zn5  1  0.12238195  0.62587235  0.62587235  1
  O  O6  1  0.39199985  0.37674227  0.37674227  1
  O  O7  1  0.39199985  0.37674227  0.85451561  1
  O  O8  1  0.39199985  0.85451561  0.37674227  1
  O  O9  1  0.84924448  0.38358551  0.38358551  1
  O  O10  1  0.40656418  0.86447861  0.86447861  1
  O  O11  1  0.85658933  0.40372084  0.86984492  1
  O  O12  1  0.85658933  0.86984492  0.40372084  1
  O  O13  1  0.85658933  0.86984492  0.86984492  1
