# generated using pymatgen
data_CeSi5
_symmetry_space_group_name_H-M   'P 1'
_cell_length_a   3.77285910
_cell_length_b   5.84937139
_cell_length_c   5.84937139
_cell_angle_alpha   62.24278012
_cell_angle_beta   71.18574285
_cell_angle_gamma   71.18574285
_symmetry_Int_Tables_number   1
_chemical_formula_structural   CeSi5
_chemical_formula_sum   'Ce1 Si5'
_cell_volume   105.81849389
_cell_formula_units_Z   1
loop_
 _symmetry_equiv_pos_site_id
 _symmetry_equiv_pos_as_xyz
  1  'x, y, z'
loop_
 _atom_site_type_symbol
 _atom_site_label
 _atom_site_symmetry_multiplicity
 _atom_site_fract_x
 _atom_site_fract_y
 _atom_site_fract_z
 _atom_site_occupancy
  Ce  Ce0  1  -0.00000000  0.00000000  0.00000000  1
  Si  Si1  1  0.32888401  0.86910389  0.47312810  1
  Si  Si2  1  0.67111599  0.13089611  0.52687190  1
  Si  Si3  1  0.67111599  0.52687190  0.13089611  1
  Si  Si4  1  0.32888401  0.47312810  0.86910389  1
  Si  Si5  1  -0.00000000  0.50000000  0.50000000  1
