# generated using pymatgen
data_Pr2CuO4
_symmetry_space_group_name_H-M   'P 1'
_cell_length_a   3.78804994
_cell_length_b   3.78804933
_cell_length_c   7.06776675
_cell_angle_alpha   105.54413347
_cell_angle_beta   105.54413066
_cell_angle_gamma   90.00000156
_symmetry_Int_Tables_number   1
_chemical_formula_structural   Pr2CuO4
_chemical_formula_sum   'Pr2 Cu1 O4'
_cell_volume   93.85231276
_cell_formula_units_Z   1
loop_
 _symmetry_equiv_pos_site_id
 _symmetry_equiv_pos_as_xyz
  1  'x, y, z'
loop_
 _atom_site_type_symbol
 _atom_site_label
 _atom_site_symmetry_multiplicity
 _atom_site_fract_x
 _atom_site_fract_y
 _atom_site_fract_z
 _atom_site_occupancy
  Pr  Pr0  1  0.36216774  0.36216774  0.72433548  1
  Pr  Pr1  1  0.63783226  0.63783226  0.27566452  1
  Cu  Cu2  1  0.00000000  0.00000000  -0.00000000  1
  O  O3  1  0.18385848  0.18385848  0.36771695  1
  O  O4  1  0.81614152  0.81614152  0.63228305  1
  O  O5  1  0.50000000  0.00000000  -0.00000000  1
  O  O6  1  0.00000000  0.50000000  -0.00000000  1
