# generated using pymatgen
data_PrZnCr2O6
_symmetry_space_group_name_H-M   'P 1'
_cell_length_a   5.30676398
_cell_length_b   5.40459666
_cell_length_c   7.75567028
_cell_angle_alpha   90.00601595
_cell_angle_beta   90.23423799
_cell_angle_gamma   89.95964680
_symmetry_Int_Tables_number   1
_chemical_formula_structural   PrZnCr2O6
_chemical_formula_sum   'Pr2 Zn2 Cr4 O12'
_cell_volume   222.43783459
_cell_formula_units_Z   2
loop_
 _symmetry_equiv_pos_site_id
 _symmetry_equiv_pos_as_xyz
  1  'x, y, z'
loop_
 _atom_site_type_symbol
 _atom_site_label
 _atom_site_symmetry_multiplicity
 _atom_site_fract_x
 _atom_site_fract_y
 _atom_site_fract_z
 _atom_site_occupancy
  Pr  Pr0  1  0.00812450  0.95100287  0.74960210  1
  Pr  Pr1  1  0.50760025  0.54877351  0.24973646  1
  Zn  Zn2  1  0.49130665  0.47035076  0.74814853  1
  Zn  Zn3  1  0.99194643  0.02962029  0.24763582  1
  Cr  Cr4  1  0.99630781  0.49259891  0.00108359  1
  Cr  Cr5  1  0.99462961  0.48686528  0.49833672  1
  Cr  Cr6  1  0.49667893  0.00729470  0.50119398  1
  Cr  Cr7  1  0.49498505  0.01318478  0.99831033  1
  O  O8  1  0.08211466  0.44263791  0.25118365  1
  O  O9  1  0.21885953  0.21156809  0.94717301  1
  O  O10  1  0.20770575  0.22178935  0.55495368  1
  O  O11  1  0.30706546  0.69132371  0.55754698  1
  O  O12  1  0.31838721  0.69750507  0.94391460  1
  O  O13  1  0.37496578  0.97831657  0.24836994  1
  O  O14  1  0.58215090  0.05782727  0.75123806  1
  O  O15  1  0.70767400  0.27833526  0.05490257  1
  O  O16  1  0.71941259  0.28786310  0.44674107  1
  O  O17  1  0.80749135  0.80889276  0.05764732  1
  O  O18  1  0.81852397  0.80210455  0.44390461  1
  O  O19  1  0.87406557  0.52214624  0.74837798  1
