# generated using pymatgen
data_Sr3Ca5TiMn7O24
_symmetry_space_group_name_H-M   'P 1'
_cell_length_a   7.68856890
_cell_length_b   7.68494803
_cell_length_c   7.68856890
_cell_angle_alpha   90.00772777
_cell_angle_beta   90.01521270
_cell_angle_gamma   90.00772777
_symmetry_Int_Tables_number   1
_chemical_formula_structural   Sr3Ca5TiMn7O24
_chemical_formula_sum   'Sr3 Ca5 Ti1 Mn7 O24'
_cell_volume   454.28869824
_cell_formula_units_Z   1
loop_
 _symmetry_equiv_pos_site_id
 _symmetry_equiv_pos_as_xyz
  1  'x, y, z'
loop_
 _atom_site_type_symbol
 _atom_site_label
 _atom_site_symmetry_multiplicity
 _atom_site_fract_x
 _atom_site_fract_y
 _atom_site_fract_z
 _atom_site_occupancy
  Sr  Sr0  1  0.25190291  0.24810310  0.24830694  1
  Sr  Sr1  1  0.25170314  0.24805607  0.75170314  1
  Sr  Sr2  1  0.74830694  0.24810310  0.75190291  1
  Ca  Ca3  1  0.25272951  0.75265348  0.24709467  1
  Ca  Ca4  1  0.25280922  0.75267382  0.75280922  1
  Ca  Ca5  1  0.74744073  0.24714467  0.24744073  1
  Ca  Ca6  1  0.74720970  0.75301338  0.24720970  1
  Ca  Ca7  1  0.74709467  0.75265348  0.75272951  1
  Ti  Ti8  1  0.99847186  0.50463840  0.49847186  1
  Mn  Mn9  1  0.99931668  0.99832582  0.00063943  1
  Mn  Mn10  1  0.99919348  0.99900642  0.49919348  1
  Mn  Mn11  1  0.99912434  0.50242456  0.00037789  1
  Mn  Mn12  1  0.50057356  0.99816432  0.00057356  1
  Mn  Mn13  1  0.50063943  0.99832582  0.49931668  1
  Mn  Mn14  1  0.50055109  0.50196260  0.00055109  1
  Mn  Mn15  1  0.50037789  0.50242456  0.49912434  1
  O  O16  1  0.25005871  0.99193416  0.00064496  1
  O  O17  1  0.24999052  0.99169419  0.49942273  1
  O  O18  1  0.25003025  0.50805009  0.00053588  1
  O  O19  1  0.25325778  0.50560072  0.49913697  1
  O  O20  1  0.74991072  0.99507543  0.00365913  1
  O  O21  1  0.75001164  0.99506503  0.49626650  1
  O  O22  1  0.75004171  0.50485647  0.00391869  1
  O  O23  1  0.74673296  0.50401598  0.49775293  1
  O  O24  1  0.99619727  0.24987467  0.00394851  1
  O  O25  1  0.99750267  0.24665909  0.49750267  1
  O  O26  1  0.99944642  0.74994234  0.00052870  1
  O  O27  1  0.99910751  0.75342275  0.49910751  1
  O  O28  1  0.50380773  0.24991827  0.00380773  1
  O  O29  1  0.50394851  0.24987467  0.49619727  1
  O  O30  1  0.50064394  0.75010816  0.00064394  1
  O  O31  1  0.50052870  0.74994234  0.49944642  1
  O  O32  1  0.99626650  0.99506503  0.25001164  1
  O  O33  1  0.99942273  0.99169419  0.74999052  1
  O  O34  1  0.99775293  0.50401598  0.24673296  1
  O  O35  1  0.99913697  0.50560072  0.75325778  1
  O  O36  1  0.50365913  0.99507543  0.24991072  1
  O  O37  1  0.50064496  0.99193416  0.75005871  1
  O  O38  1  0.50391869  0.50485647  0.25004171  1
  O  O39  1  0.50053588  0.50805009  0.75003025  1
