# generated using pymatgen
data_CaLaCrBiO6
_symmetry_space_group_name_H-M   'P 1'
_cell_length_a   5.68434549
_cell_length_b   5.88113842
_cell_length_c   8.19477279
_cell_angle_alpha   90.00000000
_cell_angle_beta   89.11653381
_cell_angle_gamma   90.00000000
_symmetry_Int_Tables_number   1
_chemical_formula_structural   CaLaCrBiO6
_chemical_formula_sum   'Ca2 La2 Cr2 Bi2 O12'
_cell_volume   273.92215105
_cell_formula_units_Z   2
loop_
 _symmetry_equiv_pos_site_id
 _symmetry_equiv_pos_as_xyz
  1  'x, y, z'
loop_
 _atom_site_type_symbol
 _atom_site_label
 _atom_site_symmetry_multiplicity
 _atom_site_fract_x
 _atom_site_fract_y
 _atom_site_fract_z
 _atom_site_occupancy
  Ca  Ca0  1  0.48141959  0.44340166  0.74740241  1
  Ca  Ca1  1  0.98141959  0.05659834  0.24740241  1
  La  La2  1  0.01710954  0.94404990  0.75090461  1
  La  La3  1  0.51710954  0.55595010  0.25090461  1
  Cr  Cr4  1  0.50095833  0.00094225  0.49955994  1
  Cr  Cr5  1  0.00095833  0.49905775  0.99955994  1
  Bi  Bi6  1  0.49989221  0.00324061  0.00119000  1
  Bi  Bi7  1  0.99989221  0.49675939  0.50119000  1
  O  O8  1  0.11459278  0.45080615  0.23324137  1
  O  O9  1  0.18066566  0.21359675  0.93616289  1
  O  O10  1  0.21555287  0.18814184  0.56157966  1
  O  O11  1  0.28684648  0.68670810  0.93889000  1
  O  O12  1  0.32040804  0.71385932  0.56402944  1
  O  O13  1  0.38255050  0.95570977  0.26703967  1
  O  O14  1  0.61459278  0.04919385  0.73324137  1
  O  O15  1  0.68066566  0.28640325  0.43616289  1
  O  O16  1  0.71555287  0.31185816  0.06157966  1
  O  O17  1  0.78684648  0.81329190  0.43889000  1
  O  O18  1  0.82040804  0.78614068  0.06402944  1
  O  O19  1  0.88255050  0.54429023  0.76703967  1
