# generated using pymatgen
data_V(FeSe2)2
_symmetry_space_group_name_H-M   'P 1'
_cell_length_a   3.47609796
_cell_length_b   6.32022217
_cell_length_c   6.69013487
_cell_angle_alpha   117.61789999
_cell_angle_beta   105.05776895
_cell_angle_gamma   90.00000000
_symmetry_Int_Tables_number   1
_chemical_formula_structural   V(FeSe2)2
_chemical_formula_sum   'V1 Fe2 Se4'
_cell_volume   124.50959647
_cell_formula_units_Z   1
loop_
 _symmetry_equiv_pos_site_id
 _symmetry_equiv_pos_as_xyz
  1  'x, y, z'
loop_
 _atom_site_type_symbol
 _atom_site_label
 _atom_site_symmetry_multiplicity
 _atom_site_fract_x
 _atom_site_fract_y
 _atom_site_fract_z
 _atom_site_occupancy
  V  V0  1  -0.00000000  -0.00000000  -0.00000000  1
  Fe  Fe1  1  0.74993520  0.69612065  0.49987041  1
  Fe  Fe2  1  0.25006480  0.30387935  0.50012959  1
  Se  Se3  1  0.63892012  0.98061034  0.27784024  1
  Se  Se4  1  0.36107988  0.01938966  0.72215976  1
  Se  Se5  1  0.88844778  0.54363459  0.77689556  1
  Se  Se6  1  0.11155222  0.45636541  0.22310444  1
