# generated using pymatgen
data_NaTl
_symmetry_space_group_name_H-M   'P 1'
_cell_length_a   5.30342633
_cell_length_b   5.30342633
_cell_length_c   10.33023256
_cell_angle_alpha   90.00000000
_cell_angle_beta   90.00000000
_cell_angle_gamma   119.98613031
_symmetry_Int_Tables_number   1
_chemical_formula_structural   NaTl
_chemical_formula_sum   'Na4 Tl4'
_cell_volume   251.66017304
_cell_formula_units_Z   4
loop_
 _symmetry_equiv_pos_site_id
 _symmetry_equiv_pos_as_xyz
  1  'x, y, z'
loop_
 _atom_site_type_symbol
 _atom_site_label
 _atom_site_symmetry_multiplicity
 _atom_site_fract_x
 _atom_site_fract_y
 _atom_site_fract_z
 _atom_site_occupancy
  Na  Na0  1  0.66670249  0.33329751  0.57818948  1
  Na  Na1  1  0.33329751  0.66670249  0.42181052  1
  Na  Na2  1  0.33329751  0.66670249  0.07818948  1
  Na  Na3  1  0.66670249  0.33329751  0.92181052  1
  Tl  Tl4  1  0.00001707  0.99998293  0.75000000  1
  Tl  Tl5  1  0.99998293  0.00001707  0.25000000  1
  Tl  Tl6  1  0.66671964  0.33328036  0.25000000  1
  Tl  Tl7  1  0.33328036  0.66671964  0.75000000  1
