# generated using pymatgen
data_HoSn3
_symmetry_space_group_name_H-M   'P 1'
_cell_length_a   4.43215939
_cell_length_b   4.42319690
_cell_length_c   11.28080095
_cell_angle_alpha   101.30605485
_cell_angle_beta   90.00000000
_cell_angle_gamma   90.00000000
_symmetry_Int_Tables_number   1
_chemical_formula_structural   HoSn3
_chemical_formula_sum   'Ho2 Sn6'
_cell_volume   216.86066572
_cell_formula_units_Z   2
loop_
 _symmetry_equiv_pos_site_id
 _symmetry_equiv_pos_as_xyz
  1  'x, y, z'
loop_
 _atom_site_type_symbol
 _atom_site_label
 _atom_site_symmetry_multiplicity
 _atom_site_fract_x
 _atom_site_fract_y
 _atom_site_fract_z
 _atom_site_occupancy
  Ho  Ho0  1  0.50000000  0.48222153  0.96444307  1
  Ho  Ho1  1  0.00000000  0.21339459  0.42678917  1
  Sn  Sn2  1  0.50000000  0.09925322  0.19850644  1
  Sn  Sn3  1  0.50000000  0.72767572  0.45535144  1
  Sn  Sn4  1  0.50000000  0.86383886  0.72767771  1
  Sn  Sn5  1  0.00000000  0.97586604  0.95173208  1
  Sn  Sn6  1  -0.00000000  0.36314297  0.72628593  1
  Sn  Sn7  1  0.00000000  0.60060707  0.20121415  1
