# generated using pymatgen
data_Mn3N4
_symmetry_space_group_name_H-M   'P 1'
_cell_length_a   9.85038657
_cell_length_b   5.72773359
_cell_length_c   4.68115587
_cell_angle_alpha   90.00000000
_cell_angle_beta   90.00000000
_cell_angle_gamma   90.00000000
_symmetry_Int_Tables_number   1
_chemical_formula_structural   Mn3N4
_chemical_formula_sum   'Mn12 N16'
_cell_volume   264.11263998
_cell_formula_units_Z   4
loop_
 _symmetry_equiv_pos_site_id
 _symmetry_equiv_pos_as_xyz
  1  'x, y, z'
loop_
 _atom_site_type_symbol
 _atom_site_label
 _atom_site_symmetry_multiplicity
 _atom_site_fract_x
 _atom_site_fract_y
 _atom_site_fract_z
 _atom_site_occupancy
  Mn  Mn0  1  0.50000000  -0.00000000  0.50000000  1
  Mn  Mn1  1  -0.00000000  0.50000000  -0.00000000  1
  Mn  Mn2  1  0.50000000  0.50000000  0.50000000  1
  Mn  Mn3  1  -0.00000000  -0.00000000  -0.00000000  1
  Mn  Mn4  1  0.75752461  0.25000000  0.50541698  1
  Mn  Mn5  1  0.25752461  0.25000000  0.99458302  1
  Mn  Mn6  1  0.24247539  0.75000000  0.49458302  1
  Mn  Mn7  1  0.74247539  0.75000000  0.00541698  1
  Mn  Mn8  1  0.58734986  0.25000000  0.09594577  1
  Mn  Mn9  1  0.08734986  0.25000000  0.40405423  1
  Mn  Mn10  1  0.41265014  0.75000000  0.90405423  1
  Mn  Mn11  1  0.91265014  0.75000000  0.59594577  1
  N  N12  1  0.58637708  0.25000000  0.71736343  1
  N  N13  1  0.08637708  0.25000000  0.78263657  1
  N  N14  1  0.41362292  0.75000000  0.28263657  1
  N  N15  1  0.91362292  0.75000000  0.21736343  1
  N  N16  1  0.92155292  0.25000000  0.25006039  1
  N  N17  1  0.42155292  0.25000000  0.24993961  1
  N  N18  1  0.07844708  0.75000000  0.74993961  1
  N  N19  1  0.57844708  0.75000000  0.75006039  1
  N  N20  1  0.66780116  0.00402160  0.26031128  1
  N  N21  1  0.16780116  0.49597840  0.23968872  1
  N  N22  1  0.33219884  0.50402160  0.73968872  1
  N  N23  1  0.83219884  0.99597840  0.76031128  1
  N  N24  1  0.33219884  0.99597840  0.73968872  1
  N  N25  1  0.83219884  0.50402160  0.76031128  1
  N  N26  1  0.66780116  0.49597840  0.26031128  1
  N  N27  1  0.16780116  0.00402160  0.23968872  1
