# generated using pymatgen
data_SrTiS3
_symmetry_space_group_name_H-M   'P 1'
_cell_length_a   5.81236814
_cell_length_b   6.62284222
_cell_length_c   6.62284222
_cell_angle_alpha   120.00908754
_cell_angle_beta   90.00000000
_cell_angle_gamma   90.00000000
_symmetry_Int_Tables_number   1
_chemical_formula_structural   SrTiS3
_chemical_formula_sum   'Sr2 Ti2 S6'
_cell_volume   220.76630377
_cell_formula_units_Z   2
loop_
 _symmetry_equiv_pos_site_id
 _symmetry_equiv_pos_as_xyz
  1  'x, y, z'
loop_
 _atom_site_type_symbol
 _atom_site_label
 _atom_site_symmetry_multiplicity
 _atom_site_fract_x
 _atom_site_fract_y
 _atom_site_fract_z
 _atom_site_occupancy
  Sr  Sr0  1  0.25000000  0.66669051  0.33330949  1
  Sr  Sr1  1  0.75000000  0.33330949  0.66669051  1
  Ti  Ti2  1  0.50000000  -0.00000000  -0.00000000  1
  Ti  Ti3  1  -0.00000000  -0.00000000  -0.00000000  1
  S  S4  1  0.75000000  0.83035438  0.66073836  1
  S  S5  1  0.75000000  0.83037727  0.16962273  1
  S  S6  1  0.75000000  0.33926164  0.16964562  1
  S  S7  1  0.25000000  0.16964562  0.33926164  1
  S  S8  1  0.25000000  0.16962273  0.83037727  1
  S  S9  1  0.25000000  0.66073836  0.83035438  1
