# generated using pymatgen
data_Y(CoO2)3
_symmetry_space_group_name_H-M   'P 1'
_cell_length_a   17.47286539
_cell_length_b   5.73989803
_cell_length_c   6.17120306
_cell_angle_alpha   114.94632074
_cell_angle_beta   115.68108317
_cell_angle_gamma   94.38209088
_symmetry_Int_Tables_number   1
_chemical_formula_structural   Y(CoO2)3
_chemical_formula_sum   'Y4 Co12 O24'
_cell_volume   479.63280951
_cell_formula_units_Z   4
loop_
 _symmetry_equiv_pos_site_id
 _symmetry_equiv_pos_as_xyz
  1  'x, y, z'
loop_
 _atom_site_type_symbol
 _atom_site_label
 _atom_site_symmetry_multiplicity
 _atom_site_fract_x
 _atom_site_fract_y
 _atom_site_fract_z
 _atom_site_occupancy
  Y  Y0  1  0.28978310  0.12155965  0.74391408  1
  Y  Y1  1  0.95641206  0.15792378  0.76148399  1
  Y  Y2  1  0.37688290  0.87844035  0.25608592  1
  Y  Y3  1  0.71025494  0.84207622  0.23851601  1
  Co  Co4  1  0.17208456  0.02018176  0.99828393  1
  Co  Co5  1  0.49458244  0.97981824  0.00171607  1
  Co  Co6  1  0.83333300  -0.00000000  -0.00000000  1
  Co  Co7  1  0.16692047  0.51892731  0.00381471  1
  Co  Co8  1  0.49974653  0.48107269  0.99618529  1
  Co  Co9  1  0.83333300  0.50000000  -0.00000000  1
  Co  Co10  1  0.99868359  0.57314730  0.50209598  1
  Co  Co11  1  0.33333300  0.50000000  0.50000000  1
  Co  Co12  1  0.66798341  0.42685270  0.49790402  1
  Co  Co13  1  0.15433002  0.47629968  0.50180808  1
  Co  Co14  1  0.51233698  0.52370032  0.49819192  1
  Co  Co15  1  0.83333300  0.50000000  0.50000000  1
  O  O16  1  0.24415950  0.51816240  0.87878265  1
  O  O17  1  0.56997689  0.57583511  0.88242882  1
  O  O18  1  0.90400785  0.53768065  0.85055321  1
  O  O19  1  0.05228406  0.87977581  0.84756904  1
  O  O20  1  0.37406375  0.83520314  0.86604412  1
  O  O21  1  0.73313689  0.73373722  0.86250839  1
  O  O22  1  0.09669011  0.42416489  0.11757118  1
  O  O23  1  0.42250650  0.48183760  0.12121835  1
  O  O24  1  0.76265915  0.46231935  0.14944679  1
  O  O25  1  0.29260325  0.16479686  0.13395588  1
  O  O26  1  0.61438294  0.12022419  0.15243096  1
  O  O27  1  0.93352911  0.26626278  0.13749161  1
  O  O28  1  0.20997323  0.21381929  0.38487858  1
  O  O29  1  0.50471694  0.16018712  0.35114291  1
  O  O30  1  0.84044334  0.14193389  0.34587627  1
  O  O31  1  0.26858867  0.71106719  0.36103654  1
  O  O32  1  0.59372186  0.61583788  0.36415508  1
  O  O33  1  0.92502951  0.74474882  0.37853748  1
  O  O34  1  0.07294414  0.38416212  0.63584492  1
  O  O35  1  0.39807833  0.28893281  0.63896346  1
  O  O36  1  0.74163749  0.25525118  0.62146252  1
  O  O37  1  0.16195006  0.83981288  0.64885709  1
  O  O38  1  0.45669277  0.78618071  0.61512142  1
  O  O39  1  0.82622366  0.85806611  0.65412373  1
