# generated using pymatgen
data_MgTi2
_symmetry_space_group_name_H-M   'P 1'
_cell_length_a   2.90836676
_cell_length_b   15.91542264
_cell_length_c   4.87178447
_cell_angle_alpha   90.00000000
_cell_angle_beta   90.00000000
_cell_angle_gamma   90.00000000
_symmetry_Int_Tables_number   1
_chemical_formula_structural   MgTi2
_chemical_formula_sum   'Mg4 Ti8'
_cell_volume   225.50460503
_cell_formula_units_Z   4
loop_
 _symmetry_equiv_pos_site_id
 _symmetry_equiv_pos_as_xyz
  1  'x, y, z'
loop_
 _atom_site_type_symbol
 _atom_site_label
 _atom_site_symmetry_multiplicity
 _atom_site_fract_x
 _atom_site_fract_y
 _atom_site_fract_z
 _atom_site_occupancy
  Mg  Mg0  1  0.50000000  0.05283943  0.25000000  1
  Mg  Mg1  1  0.00000000  0.44716057  0.75000000  1
  Mg  Mg2  1  -0.00000000  0.55283943  0.25000000  1
  Mg  Mg3  1  0.50000000  0.94716057  0.75000000  1
  Ti  Ti4  1  0.50000000  0.37305914  0.25000000  1
  Ti  Ti5  1  -0.00000000  0.22519476  0.25000000  1
  Ti  Ti6  1  0.50000000  0.27480524  0.75000000  1
  Ti  Ti7  1  0.00000000  0.12694086  0.75000000  1
  Ti  Ti8  1  -0.00000000  0.87305914  0.25000000  1
  Ti  Ti9  1  0.50000000  0.72519476  0.25000000  1
  Ti  Ti10  1  0.00000000  0.77480524  0.75000000  1
  Ti  Ti11  1  0.50000000  0.62694086  0.75000000  1
