# generated using pymatgen
data_PbS
_symmetry_space_group_name_H-M   'P 1'
_cell_length_a   4.03314194
_cell_length_b   5.94564131
_cell_length_c   10.56022617
_cell_angle_alpha   93.59502409
_cell_angle_beta   90.00000000
_cell_angle_gamma   90.00000000
_symmetry_Int_Tables_number   1
_chemical_formula_structural   PbS
_chemical_formula_sum   'Pb4 S4'
_cell_volume   252.73184938
_cell_formula_units_Z   4
loop_
 _symmetry_equiv_pos_site_id
 _symmetry_equiv_pos_as_xyz
  1  'x, y, z'
loop_
 _atom_site_type_symbol
 _atom_site_label
 _atom_site_symmetry_multiplicity
 _atom_site_fract_x
 _atom_site_fract_y
 _atom_site_fract_z
 _atom_site_occupancy
  Pb  Pb0  1  0.25000000  0.30896484  0.36729233  1
  Pb  Pb1  1  0.75000000  0.69103516  0.63270767  1
  Pb  Pb2  1  0.25000000  0.75356046  0.10325548  1
  Pb  Pb3  1  0.75000000  0.24643954  0.89674452  1
  S  S4  1  0.25000000  0.26242438  0.07530904  1
  S  S5  1  0.75000000  0.73757562  0.92469096  1
  S  S6  1  0.75000000  0.61745538  0.35621999  1
  S  S7  1  0.25000000  0.38254462  0.64378001  1
