# generated using pymatgen
data_Yb2Ge6Pd
_symmetry_space_group_name_H-M   'P 1'
_cell_length_a   4.21471129
_cell_length_b   3.94721632
_cell_length_c   11.47605887
_cell_angle_alpha   99.90273706
_cell_angle_beta   90.00000000
_cell_angle_gamma   90.00000000
_symmetry_Int_Tables_number   1
_chemical_formula_structural   Yb2Ge6Pd
_chemical_formula_sum   'Yb2 Ge6 Pd1'
_cell_volume   188.07554765
_cell_formula_units_Z   1
loop_
 _symmetry_equiv_pos_site_id
 _symmetry_equiv_pos_as_xyz
  1  'x, y, z'
loop_
 _atom_site_type_symbol
 _atom_site_label
 _atom_site_symmetry_multiplicity
 _atom_site_fract_x
 _atom_site_fract_y
 _atom_site_fract_z
 _atom_site_occupancy
  Yb  Yb0  1  0.00000000  0.99671947  0.99343893  1
  Yb  Yb1  1  0.00000000  0.66020979  0.32041957  1
  Ge  Ge2  1  0.00000000  0.27883941  0.55767882  1
  Ge  Ge3  1  -0.00000000  0.38891517  0.77783035  1
  Ge  Ge4  1  0.50000000  0.53957723  0.07915445  1
  Ge  Ge5  1  0.50000000  0.10596011  0.21192023  1
  Ge  Ge6  1  0.50000000  0.89401111  0.78802222  1
  Ge  Ge7  1  0.50000000  0.78314954  0.56629907  1
  Pd  Pd8  1  0.50000000  0.21461817  0.42923635  1
