# generated using pymatgen
data_Mg(FeO2)2
_symmetry_space_group_name_H-M   'P 1'
_cell_length_a   6.10369286
_cell_length_b   5.96498117
_cell_length_c   5.96325641
_cell_angle_alpha   87.53386719
_cell_angle_beta   120.72583146
_cell_angle_gamma   120.73815559
_symmetry_Int_Tables_number   1
_chemical_formula_structural   Mg(FeO2)2
_chemical_formula_sum   'Mg2 Fe4 O8'
_cell_volume   153.26573540
_cell_formula_units_Z   2
loop_
 _symmetry_equiv_pos_site_id
 _symmetry_equiv_pos_as_xyz
  1  'x, y, z'
loop_
 _atom_site_type_symbol
 _atom_site_label
 _atom_site_symmetry_multiplicity
 _atom_site_fract_x
 _atom_site_fract_y
 _atom_site_fract_z
 _atom_site_occupancy
  Mg  Mg0  1  0.00000610  0.99999697  0.00000527  1
  Mg  Mg1  1  0.50000111  -0.00000136  -0.00000201  1
  Fe  Fe2  1  0.50000629  0.00000387  0.50000540  1
  Fe  Fe3  1  0.50000620  0.50000068  0.50000269  1
  Fe  Fe4  1  0.00000154  0.49999311  -0.00000199  1
  Fe  Fe5  1  0.00001324  0.50000008  0.50000895  1
  O  O6  1  0.02876836  0.74428088  0.25510515  1
  O  O7  1  0.49451732  0.75039468  0.73800127  1
  O  O8  1  0.46984350  0.74402350  0.25388215  1
  O  O9  1  0.99318303  0.73820970  0.74878971  1
  O  O10  1  0.53015944  0.25597034  0.74612372  1
  O  O11  1  0.50548632  0.24960165  0.26199987  1
  O  O12  1  0.00682172  0.26178120  0.25121688  1
  O  O13  1  0.97123384  0.25570970  0.74490394  1
