# generated using pymatgen
data_Zn2In2O5
_symmetry_space_group_name_H-M   'P 1'
_cell_length_a   3.47699271
_cell_length_b   3.47699271
_cell_length_c   23.22011464
_cell_angle_alpha   90.00000000
_cell_angle_beta   90.00000000
_cell_angle_gamma   119.99262710
_symmetry_Int_Tables_number   1
_chemical_formula_structural   Zn2In2O5
_chemical_formula_sum   'Zn4 In4 O10'
_cell_volume   243.12790697
_cell_formula_units_Z   2
loop_
 _symmetry_equiv_pos_site_id
 _symmetry_equiv_pos_as_xyz
  1  'x, y, z'
loop_
 _atom_site_type_symbol
 _atom_site_label
 _atom_site_symmetry_multiplicity
 _atom_site_fract_x
 _atom_site_fract_y
 _atom_site_fract_z
 _atom_site_occupancy
  Zn  Zn0  1  0.66669938  0.33330062  0.44329117  1
  Zn  Zn1  1  0.33330062  0.66669938  0.94329117  1
  Zn  Zn2  1  0.33335725  0.66664275  0.18263230  1
  Zn  Zn3  1  0.66664275  0.33335725  0.68263230  1
  In  In4  1  0.99991238  0.00008762  0.31368580  1
  In  In5  1  0.00008762  0.99991238  0.81368580  1
  In  In6  1  0.66655293  0.33344707  0.06096394  1
  In  In7  1  0.33344707  0.66655293  0.56096394  1
  O  O8  1  0.33337244  0.66662756  0.46497234  1
  O  O9  1  0.66662756  0.33337244  0.96497234  1
  O  O10  1  0.66658949  0.33341051  0.35717532  1
  O  O11  1  0.33341051  0.66658949  0.85717532  1
  O  O12  1  0.33325458  0.66674542  0.26776374  1
  O  O13  1  0.66674542  0.33325458  0.76776374  1
  O  O14  1  0.66664881  0.33335119  0.15596303  1
  O  O15  1  0.33335119  0.66664881  0.65596303  1
  O  O16  1  0.33321191  0.66678809  0.05555237  1
  O  O17  1  0.66678809  0.33321191  0.55555237  1
