# generated using pymatgen
data_LaMg
_symmetry_space_group_name_H-M   'P 1'
_cell_length_a   12.94135779
_cell_length_b   3.56524690
_cell_length_c   8.12168344
_cell_angle_alpha   90.00000000
_cell_angle_beta   106.98812174
_cell_angle_gamma   90.00000000
_symmetry_Int_Tables_number   1
_chemical_formula_structural   LaMg
_chemical_formula_sum   'La6 Mg6'
_cell_volume   358.37635278
_cell_formula_units_Z   6
loop_
 _symmetry_equiv_pos_site_id
 _symmetry_equiv_pos_as_xyz
  1  'x, y, z'
loop_
 _atom_site_type_symbol
 _atom_site_label
 _atom_site_symmetry_multiplicity
 _atom_site_fract_x
 _atom_site_fract_y
 _atom_site_fract_z
 _atom_site_occupancy
  La  La0  1  0.00033491  -0.00000000  0.01476255  1
  La  La1  1  0.37277107  -0.00000000  0.25801234  1
  La  La2  1  0.35439574  -0.00000000  0.68444374  1
  La  La3  1  0.50033491  0.50000000  0.01476255  1
  La  La4  1  0.87277107  0.50000000  0.25801234  1
  La  La5  1  0.85439574  0.50000000  0.68444374  1
  Mg  Mg6  1  0.16427174  0.50000000  0.35229618  1
  Mg  Mg7  1  0.06952685  -0.00000000  0.60602604  1
  Mg  Mg8  1  0.20536669  0.50000000  0.91779215  1
  Mg  Mg9  1  0.66427174  0.00000000  0.35229618  1
  Mg  Mg10  1  0.56952685  0.50000000  0.60602604  1
  Mg  Mg11  1  0.70536669  -0.00000000  0.91779215  1
