# generated using pymatgen
data_PAuS
_symmetry_space_group_name_H-M   'P 1'
_cell_length_a   5.65826208
_cell_length_b   5.69871741
_cell_length_c   16.63846339
_cell_angle_alpha   90.00000000
_cell_angle_beta   90.00000000
_cell_angle_gamma   90.00000000
_symmetry_Int_Tables_number   1
_chemical_formula_structural   PAuS
_chemical_formula_sum   'P8 Au8 S8'
_cell_volume   536.50453371
_cell_formula_units_Z   8
loop_
 _symmetry_equiv_pos_site_id
 _symmetry_equiv_pos_as_xyz
  1  'x, y, z'
loop_
 _atom_site_type_symbol
 _atom_site_label
 _atom_site_symmetry_multiplicity
 _atom_site_fract_x
 _atom_site_fract_y
 _atom_site_fract_z
 _atom_site_occupancy
  P  P0  1  0.10094749  0.07435613  0.17057519  1
  P  P1  1  0.60094749  0.42564387  0.82942481  1
  P  P2  1  0.89905251  0.57435613  0.32942481  1
  P  P3  1  0.39905251  0.92564387  0.67057519  1
  P  P4  1  0.89905251  0.92564387  0.82942481  1
  P  P5  1  0.39905251  0.57435613  0.17057519  1
  P  P6  1  0.10094749  0.42564387  0.67057519  1
  P  P7  1  0.60094749  0.07435613  0.32942481  1
  Au  Au8  1  0.99280022  0.18142421  0.37139661  1
  Au  Au9  1  0.99280022  0.31857579  0.87139661  1
  Au  Au10  1  0.50719978  0.68142421  0.37139661  1
  Au  Au11  1  0.00719978  0.81857579  0.62860339  1
  Au  Au12  1  0.49280022  0.31857579  0.62860339  1
  Au  Au13  1  0.50719978  0.81857579  0.87139661  1
  Au  Au14  1  0.00719978  0.68142421  0.12860339  1
  Au  Au15  1  0.49280022  0.18142421  0.12860339  1
  S  S16  1  0.59770919  0.71947172  0.58780594  1
  S  S17  1  0.90229081  0.28052828  0.08780594  1
  S  S18  1  0.40229081  0.21947172  0.91219406  1
  S  S19  1  0.09770919  0.78052828  0.41219406  1
  S  S20  1  0.09770919  0.71947172  0.91219406  1
  S  S21  1  0.59770919  0.78052828  0.08780594  1
  S  S22  1  0.90229081  0.21947172  0.58780594  1
  S  S23  1  0.40229081  0.28052828  0.41219406  1
