# generated using pymatgen
data_CrCoSi
_symmetry_space_group_name_H-M   'P 1'
_cell_length_a   3.60066495
_cell_length_b   5.75563037
_cell_length_c   6.71716089
_cell_angle_alpha   90.00000000
_cell_angle_beta   90.00000000
_cell_angle_gamma   90.00000000
_symmetry_Int_Tables_number   1
_chemical_formula_structural   CrCoSi
_chemical_formula_sum   'Cr4 Co4 Si4'
_cell_volume   139.20709075
_cell_formula_units_Z   4
loop_
 _symmetry_equiv_pos_site_id
 _symmetry_equiv_pos_as_xyz
  1  'x, y, z'
loop_
 _atom_site_type_symbol
 _atom_site_label
 _atom_site_symmetry_multiplicity
 _atom_site_fract_x
 _atom_site_fract_y
 _atom_site_fract_z
 _atom_site_occupancy
  Cr  Cr0  1  0.75000000  0.47391595  0.17838448  1
  Cr  Cr1  1  0.75000000  0.97391595  0.32161552  1
  Cr  Cr2  1  0.25000000  0.52608405  0.82161552  1
  Cr  Cr3  1  0.25000000  0.02608405  0.67838448  1
  Co  Co4  1  0.75000000  0.35446212  0.55774790  1
  Co  Co5  1  0.75000000  0.85446212  0.94225210  1
  Co  Co6  1  0.25000000  0.64553788  0.44225210  1
  Co  Co7  1  0.25000000  0.14553788  0.05774790  1
  Si  Si8  1  0.75000000  0.23937339  0.87517562  1
  Si  Si9  1  0.75000000  0.73937339  0.62482438  1
  Si  Si10  1  0.25000000  0.76062661  0.12482438  1
  Si  Si11  1  0.25000000  0.26062661  0.37517562  1
