# generated using pymatgen
data_Mg2Sn
_symmetry_space_group_name_H-M   'P 1'
_cell_length_a   3.46927633
_cell_length_b   15.84678812
_cell_length_c   5.14877842
_cell_angle_alpha   90.00000000
_cell_angle_beta   90.00000000
_cell_angle_gamma   90.00000000
_symmetry_Int_Tables_number   1
_chemical_formula_structural   Mg2Sn
_chemical_formula_sum   'Mg8 Sn4'
_cell_volume   283.06380903
_cell_formula_units_Z   4
loop_
 _symmetry_equiv_pos_site_id
 _symmetry_equiv_pos_as_xyz
  1  'x, y, z'
loop_
 _atom_site_type_symbol
 _atom_site_label
 _atom_site_symmetry_multiplicity
 _atom_site_fract_x
 _atom_site_fract_y
 _atom_site_fract_z
 _atom_site_occupancy
  Mg  Mg0  1  0.50000000  0.05700461  0.25000000  1
  Mg  Mg1  1  -0.00000000  0.22364645  0.25000000  1
  Mg  Mg2  1  0.50000000  0.27635355  0.75000000  1
  Mg  Mg3  1  0.00000000  0.44299539  0.75000000  1
  Mg  Mg4  1  -0.00000000  0.55700461  0.25000000  1
  Mg  Mg5  1  0.50000000  0.72364645  0.25000000  1
  Mg  Mg6  1  -0.00000000  0.77635355  0.75000000  1
  Mg  Mg7  1  0.50000000  0.94299539  0.75000000  1
  Sn  Sn8  1  0.50000000  0.38827549  0.25000000  1
  Sn  Sn9  1  -0.00000000  0.11172451  0.75000000  1
  Sn  Sn10  1  0.00000000  0.88827549  0.25000000  1
  Sn  Sn11  1  0.50000000  0.61172451  0.75000000  1
