# generated using pymatgen
data_Li9Mn2Co5O16
_symmetry_space_group_name_H-M   'P 1'
_cell_length_a   2.89401612
_cell_length_b   10.12325265
_cell_length_c   10.24323089
_cell_angle_alpha   70.20125148
_cell_angle_beta   90.00000000
_cell_angle_gamma   90.00000000
_symmetry_Int_Tables_number   1
_chemical_formula_structural   Li9Mn2Co5O16
_chemical_formula_sum   'Li9 Mn2 Co5 O16'
_cell_volume   282.35533027
_cell_formula_units_Z   1
loop_
 _symmetry_equiv_pos_site_id
 _symmetry_equiv_pos_as_xyz
  1  'x, y, z'
loop_
 _atom_site_type_symbol
 _atom_site_label
 _atom_site_symmetry_multiplicity
 _atom_site_fract_x
 _atom_site_fract_y
 _atom_site_fract_z
 _atom_site_occupancy
  Li  Li0  1  0.50000000  0.99877906  0.24983892  1
  Li  Li1  1  0.50000000  0.99141532  0.75639326  1
  Li  Li2  1  -0.00000000  0.24625275  0.25276923  1
  Li  Li3  1  -0.00000000  0.25374725  0.74723077  1
  Li  Li4  1  0.50000000  0.50858468  0.24360674  1
  Li  Li5  1  0.50000000  0.50122094  0.75016108  1
  Li  Li6  1  -0.00000000  0.74436798  0.24387295  1
  Li  Li7  1  -0.00000000  0.75563202  0.75612705  1
  Li  Li8  1  0.50000000  0.75000000  -0.00000000  1
  Mn  Mn9  1  -0.00000000  0.99650393  0.99722506  1
  Mn  Mn10  1  0.00000000  0.50349607  0.00277494  1
  Co  Co11  1  -0.00000000  -0.00008615  0.49765189  1
  Co  Co12  1  0.50000000  0.25000000  -0.00000000  1
  Co  Co13  1  0.50000000  0.25000000  0.50000000  1
  Co  Co14  1  -0.00000000  0.50008615  0.50234811  1
  Co  Co15  1  0.50000000  0.75000000  0.50000000  1
  O  O16  1  0.50000000  0.89244671  0.11120038  1
  O  O17  1  0.50000000  0.88181232  0.61591729  1
  O  O18  1  -0.00000000  0.13373680  0.10551536  1
  O  O19  1  -0.00000000  0.13712645  0.60831464  1
  O  O20  1  0.50000000  0.37620067  0.10733315  1
  O  O21  1  0.50000000  0.38448430  0.61987993  1
  O  O22  1  -0.00000000  0.60834791  0.11822843  1
  O  O23  1  -0.00000000  0.63228287  0.61607297  1
  O  O24  1  0.50000000  0.11551570  0.38012007  1
  O  O25  1  0.50000000  0.12379933  0.89266685  1
  O  O26  1  -0.00000000  0.36287355  0.39168536  1
  O  O27  1  -0.00000000  0.36626320  0.89448464  1
  O  O28  1  0.50000000  0.61818768  0.38408271  1
  O  O29  1  0.50000000  0.60755329  0.88879962  1
  O  O30  1  -0.00000000  0.86771713  0.38392703  1
  O  O31  1  -0.00000000  0.89165209  0.88177157  1
