# generated using pymatgen
data_V16CrO41
_symmetry_space_group_name_H-M   'P 1'
_cell_length_a   11.64982089
_cell_length_b   14.67853725
_cell_length_c   4.60868252
_cell_angle_alpha   90.00000000
_cell_angle_beta   90.00000000
_cell_angle_gamma   90.00000000
_symmetry_Int_Tables_number   1
_chemical_formula_structural   V16CrO41
_chemical_formula_sum   'V16 Cr1 O41'
_cell_volume   788.09544864
_cell_formula_units_Z   1
loop_
 _symmetry_equiv_pos_site_id
 _symmetry_equiv_pos_as_xyz
  1  'x, y, z'
loop_
 _atom_site_type_symbol
 _atom_site_label
 _atom_site_symmetry_multiplicity
 _atom_site_fract_x
 _atom_site_fract_y
 _atom_site_fract_z
 _atom_site_occupancy
  V  V0  1  0.10097549  0.31250000  0.11103385  1
  V  V1  1  0.10063375  0.06425837  0.10830823  1
  V  V2  1  0.10063375  0.56074163  0.10830823  1
  V  V3  1  0.10104835  0.81250000  0.11701934  1
  V  V4  1  0.39936625  0.06425837  0.10830823  1
  V  V5  1  0.39902451  0.31250000  0.11103385  1
  V  V6  1  0.39936625  0.56074163  0.10830823  1
  V  V7  1  0.39895165  0.81250000  0.11701934  1
  V  V8  1  0.60037537  0.18953280  0.88976333  1
  V  V9  1  0.60037537  0.43546720  0.88976333  1
  V  V10  1  0.59052590  0.94486682  0.87419807  1
  V  V11  1  0.59052590  0.68013318  0.87419807  1
  V  V12  1  0.90947410  0.94486682  0.87419807  1
  V  V13  1  0.89962463  0.18953280  0.88976333  1
  V  V14  1  0.89962463  0.43546720  0.88976333  1
  V  V15  1  0.90947410  0.68013318  0.87419807  1
  Cr  Cr16  1  0.75000000  0.81250000  0.13482967  1
  O  O17  1  0.06807090  0.68626560  0.00292123  1
  O  O18  1  0.06933244  0.18855295  0.00782542  1
  O  O19  1  0.06933244  0.43644705  0.00782542  1
  O  O20  1  0.06807090  0.93873440  0.00292123  1
  O  O21  1  0.10533379  0.06388852  0.45784858  1
  O  O22  1  0.10440449  0.31250000  0.46079650  1
  O  O23  1  0.10533379  0.56111148  0.45784858  1
  O  O24  1  0.10137967  0.81250000  0.46848148  1
  O  O25  1  0.25000000  0.56138473  0.00066342  1
  O  O26  1  0.25000000  0.06361527  0.00066342  1
  O  O27  1  0.25000000  0.31250000  0.00287000  1
  O  O28  1  0.25000000  0.81250000  0.02122749  1
  O  O29  1  0.39466621  0.06388852  0.45784858  1
  O  O30  1  0.39559551  0.31250000  0.46079650  1
  O  O31  1  0.39466621  0.56111148  0.45784858  1
  O  O32  1  0.39862033  0.81250000  0.46848148  1
  O  O33  1  0.43066756  0.43644705  0.00782542  1
  O  O34  1  0.43066756  0.18855295  0.00782542  1
  O  O35  1  0.43192910  0.68626560  0.00292123  1
  O  O36  1  0.43192910  0.93873440  0.00292123  1
  O  O37  1  0.59106748  0.81250000  0.99813122  1
  O  O38  1  0.56915408  0.06673707  0.99520581  1
  O  O39  1  0.56749980  0.31250000  0.99401189  1
  O  O40  1  0.56915408  0.55826293  0.99520581  1
  O  O41  1  0.59426901  0.94820984  0.52395517  1
  O  O42  1  0.60380125  0.18890523  0.53983804  1
  O  O43  1  0.60380125  0.43609477  0.53983804  1
  O  O44  1  0.59426901  0.67679016  0.52395517  1
  O  O45  1  0.75000000  0.81250000  0.47987677  1
  O  O46  1  0.75000000  0.93398758  0.99044030  1
  O  O47  1  0.75000000  0.18889537  0.99609077  1
  O  O48  1  0.75000000  0.43610463  0.99609077  1
  O  O49  1  0.75000000  0.69101242  0.99044030  1
  O  O50  1  0.90573099  0.94820984  0.52395517  1
  O  O51  1  0.89619875  0.18890523  0.53983804  1
  O  O52  1  0.89619875  0.43609477  0.53983804  1
  O  O53  1  0.90573099  0.67679016  0.52395517  1
  O  O54  1  0.90893252  0.81250000  0.99813122  1
  O  O55  1  0.93084592  0.06673707  0.99520581  1
  O  O56  1  0.93250020  0.31250000  0.99401189  1
  O  O57  1  0.93084592  0.55826293  0.99520581  1
