# generated using pymatgen
data_VFe7(PO4)12
_symmetry_space_group_name_H-M   'P 1'
_cell_length_a   8.75688034
_cell_length_b   8.74740668
_cell_length_c   12.18995814
_cell_angle_alpha   90.01189708
_cell_angle_beta   89.91119822
_cell_angle_gamma   90.01485926
_symmetry_Int_Tables_number   1
_chemical_formula_structural   VFe7(PO4)12
_chemical_formula_sum   'V1 Fe7 P12 O48'
_cell_volume   933.74954181
_cell_formula_units_Z   1
loop_
 _symmetry_equiv_pos_site_id
 _symmetry_equiv_pos_as_xyz
  1  'x, y, z'
loop_
 _atom_site_type_symbol
 _atom_site_label
 _atom_site_symmetry_multiplicity
 _atom_site_fract_x
 _atom_site_fract_y
 _atom_site_fract_z
 _atom_site_occupancy
  V  V0  1  0.74664734  0.46394545  0.61816979  1
  Fe  Fe1  1  0.25043778  0.96275469  0.61932099  1
  Fe  Fe2  1  0.25155363  0.53544326  0.38189365  1
  Fe  Fe3  1  0.24982962  0.03599470  0.11994429  1
  Fe  Fe4  1  0.24894607  0.46490969  0.87948468  1
  Fe  Fe5  1  0.75079469  0.53648176  0.11770497  1
  Fe  Fe6  1  0.75140073  0.96310800  0.87931984  1
  Fe  Fe7  1  0.74812165  0.03454936  0.38054426  1
  P  P8  1  0.03172075  0.24908994  0.50215141  1
  P  P9  1  0.10769095  0.39515131  0.14486462  1
  P  P10  1  0.10932670  0.10470070  0.85501161  1
  P  P11  1  0.39609448  0.60518385  0.64347550  1
  P  P12  1  0.39229104  0.89463123  0.35621999  1
  P  P13  1  0.46488083  0.75025886  -0.00001443  1
  P  P14  1  0.53559298  0.25047819  0.00169751  1
  P  P15  1  0.61056028  0.39544858  0.35732328  1
  P  P16  1  0.60687312  0.11069998  0.64343423  1
  P  P17  1  0.89002753  0.60569452  0.85136543  1
  P  P18  1  0.89150954  0.89485992  0.14460645  1
  P  P19  1  0.96267434  0.74666041  0.50121916  1
  O  O20  1  0.06067792  0.64839244  0.42466941  1
  O  O21  1  0.06012338  0.84289026  0.57958171  1
  O  O22  1  0.06711791  0.90575420  0.15045327  1
  O  O23  1  0.06385707  0.58919742  0.84637364  1
  O  O24  1  0.12958722  0.15085049  0.57853872  1
  O  O25  1  0.13651737  0.34973806  0.43272437  1
  O  O26  1  0.16751665  0.44184679  0.03130105  1
  O  O27  1  0.16767657  0.05905729  0.96907769  1
  O  O28  1  0.15093094  0.22793535  0.16946660  1
  O  O29  1  0.15344579  0.27138090  0.83006202  1
  O  O30  1  0.17897297  0.50236424  0.23022919  1
  O  O31  1  0.18244898  0.99406738  0.77218519  1
  O  O32  1  0.31898592  0.00345695  0.27231498  1
  O  O33  1  0.32654288  0.49837086  0.72916940  1
  O  O34  1  0.36316491  0.77397578  0.66622072  1
  O  O35  1  0.34695248  0.72845912  0.33108418  1
  O  O36  1  0.33860486  0.55890497  0.53060275  1
  O  O37  1  0.33269399  0.94268945  0.46957352  1
  O  O38  1  0.36041506  0.84654321  0.07433807  1
  O  O39  1  0.36049977  0.65333084  0.92656973  1
  O  O40  1  0.43196866  0.10296078  0.64965408  1
  O  O41  1  0.43642503  0.40751285  0.35127180  1
  O  O42  1  0.43796452  0.14945922  0.07711980  1
  O  O43  1  0.43829409  0.34901835  0.92444011  1
  O  O44  1  0.56247943  0.65203133  0.07733960  1
  O  O45  1  0.56218112  0.84949149  0.92314626  1
  O  O46  1  0.57482785  0.58233804  0.64927354  1
  O  O47  1  0.56668938  0.90680683  0.34858753  1
  O  O48  1  0.63677113  0.34730676  0.07717492  1
  O  O49  1  0.64188514  0.15528287  0.92801177  1
  O  O50  1  0.66405768  0.06349004  0.53031016  1
  O  O51  1  0.66956428  0.43809320  0.47437081  1
  O  O52  1  0.65364255  0.22993893  0.33095889  1
  O  O53  1  0.65458185  0.28253276  0.66364390  1
  O  O54  1  0.68453064  0.50510595  0.27496009  1
  O  O55  1  0.67821369  0.00786389  0.72975681  1
  O  O56  1  0.82116603  0.00444963  0.22873260  1
  O  O57  1  0.82027061  0.49867532  0.75948085  1
  O  O58  1  0.84895743  0.72747939  0.16906865  1
  O  O59  1  0.84640828  0.77132268  0.82633721  1
  O  O60  1  0.82586110  0.55426765  0.96187995  1
  O  O61  1  0.83328084  0.93963738  0.03056964  1
  O  O62  1  0.85751765  0.64102353  0.57105507  1
  O  O63  1  0.85818826  0.84677371  0.43129247  1
  O  O64  1  0.93426570  0.09302584  0.85042414  1
  O  O65  1  0.93221981  0.40647483  0.14828509  1
  O  O66  1  0.93780139  0.14817799  0.42495430  1
  O  O67  1  0.92628014  0.35021033  0.57562753  1
