# generated using pymatgen
data_MgTi(PO3)4
_symmetry_space_group_name_H-M   'P 1'
_cell_length_a   7.32421204
_cell_length_b   7.32016080
_cell_length_c   9.99197030
_cell_angle_alpha   98.84613570
_cell_angle_beta   109.45748863
_cell_angle_gamma   109.65210035
_symmetry_Int_Tables_number   1
_chemical_formula_structural   MgTi(PO3)4
_chemical_formula_sum   'Mg2 Ti2 P8 O24'
_cell_volume   453.88327058
_cell_formula_units_Z   2
loop_
 _symmetry_equiv_pos_site_id
 _symmetry_equiv_pos_as_xyz
  1  'x, y, z'
loop_
 _atom_site_type_symbol
 _atom_site_label
 _atom_site_symmetry_multiplicity
 _atom_site_fract_x
 _atom_site_fract_y
 _atom_site_fract_z
 _atom_site_occupancy
  Mg  Mg0  1  0.70848657  0.95616256  0.75004492  1
  Mg  Mg1  1  0.29251751  0.04112773  0.25033197  1
  Ti  Ti2  1  0.50021812  0.49895033  0.50036117  1
  Ti  Ti3  1  0.50109597  0.99905353  0.00014387  1
  P  P4  1  0.51257256  0.31261885  0.80661298  1
  P  P5  1  0.00848906  0.70357048  0.69346735  1
  P  P6  1  0.48755421  0.68402376  0.19292477  1
  P  P7  1  0.99261418  0.29365277  0.30661893  1
  P  P8  1  0.76950024  0.72815991  0.02146894  1
  P  P9  1  0.20855180  0.74688711  0.47889362  1
  P  P10  1  0.23160932  0.26838243  0.97873979  1
  P  P11  1  0.79183620  0.25060212  0.52126228  1
  O  O12  1  0.32251472  0.30989282  0.85423293  1
  O  O13  1  0.95967364  0.46623140  0.64574922  1
  O  O14  1  0.67773758  0.68592247  0.14556130  1
  O  O15  1  0.04186456  0.53102413  0.35425346  1
  O  O16  1  0.72106311  0.50136301  0.93428067  1
  O  O17  1  0.06837574  0.78499281  0.56578038  1
  O  O18  1  0.27913669  0.49537889  0.06494411  1
  O  O19  1  0.93031694  0.21142754  0.43324049  1
  O  O20  1  0.46077083  0.34918801  0.65924844  1
  O  O21  1  0.19301168  0.80025230  0.84086053  1
  O  O22  1  0.53791166  0.64726150  0.34020834  1
  O  O23  1  0.80948410  0.19751113  0.15850432  1
  O  O24  1  0.55065712  0.12370867  0.82036863  1
  O  O25  1  0.80532395  0.72666879  0.68019946  1
  O  O26  1  0.45038280  0.87338793  0.17917597  1
  O  O27  1  0.19587127  0.27013464  0.32094961  1
  O  O28  1  0.64041108  0.81269398  0.91527220  1
  O  O29  1  0.39881881  0.72358437  0.58485939  1
  O  O30  1  0.36170341  0.18511378  0.08548951  1
  O  O31  1  0.60161042  0.27450479  0.41584005  1
  O  O32  1  0.00288051  0.84277745  0.09741761  1
  O  O33  1  0.24735596  0.90479170  0.40331509  1
  O  O34  1  0.99842077  0.15252879  0.90313963  1
  O  O35  1  0.75311793  0.09283654  0.59698410  1
