# generated using pymatgen
data_Li9Mn2Co5O16
_symmetry_space_group_name_H-M   'P 1'
_cell_length_a   5.81561517
_cell_length_b   5.92816217
_cell_length_c   9.71321151
_cell_angle_alpha   98.51243151
_cell_angle_beta   90.00000058
_cell_angle_gamma   60.62605526
_symmetry_Int_Tables_number   1
_chemical_formula_structural   Li9Mn2Co5O16
_chemical_formula_sum   'Li9 Mn2 Co5 O16'
_cell_volume   287.57890450
_cell_formula_units_Z   1
loop_
 _symmetry_equiv_pos_site_id
 _symmetry_equiv_pos_as_xyz
  1  'x, y, z'
loop_
 _atom_site_type_symbol
 _atom_site_label
 _atom_site_symmetry_multiplicity
 _atom_site_fract_x
 _atom_site_fract_y
 _atom_site_fract_z
 _atom_site_occupancy
  Li  Li0  1  0.49943510  0.50012689  0.00017794  1
  Li  Li1  1  0.00043801  0.50012689  0.00017794  1
  Li  Li2  1  0.12578083  0.74843834  0.24654688  1
  Li  Li3  1  0.62580739  0.74838522  0.23759591  1
  Li  Li4  1  0.74916121  0.00034421  0.50063928  1
  Li  Li5  1  0.25049458  0.00034421  0.50063928  1
  Li  Li6  1  0.37716893  0.24566215  0.75735254  1
  Li  Li7  1  0.87187809  0.25624381  0.75509356  1
  Li  Li8  1  0.49965439  0.00069123  0.00063938  1
  Mn  Mn9  1  0.00096950  -0.00193901  -0.00005091  1
  Mn  Mn10  1  0.25132861  0.49734279  0.50136560  1
  Co  Co11  1  0.62600679  0.24006420  0.24382583  1
  Co  Co12  1  0.13392901  0.24006420  0.24382583  1
  Co  Co13  1  0.74621978  0.50756045  0.49839522  1
  Co  Co14  1  0.86212440  0.76029933  0.75707373  1
  Co  Co15  1  0.37757627  0.76029933  0.75707373  1
  O  O16  1  0.71395140  0.10599284  0.87667593  1
  O  O17  1  0.18005576  0.10599284  0.87667593  1
  O  O18  1  0.31650144  0.36699711  0.14126459  1
  O  O19  1  0.82538658  0.34922683  0.11726524  1
  O  O20  1  0.95356900  0.60987744  0.38583191  1
  O  O21  1  0.43655356  0.60987744  0.38583191  1
  O  O22  1  0.56788764  0.86422473  0.62745071  1
  O  O23  1  0.08094566  0.83810868  0.62611759  1
  O  O24  1  0.28999604  0.89190688  0.12140315  1
  O  O25  1  0.81809708  0.89190688  0.12140315  1
  O  O26  1  0.92535487  0.14929025  0.36655445  1
  O  O27  1  0.42489551  0.15020898  0.38033943  1
  O  O28  1  0.54668308  0.39171152  0.61590125  1
  O  O29  1  0.06160539  0.39171152  0.61590125  1
  O  O30  1  0.17389488  0.65221024  0.88338234  1
  O  O31  1  0.68664921  0.62670159  0.85762943  1
