# generated using pymatgen
data_MgMn2O4
_symmetry_space_group_name_H-M   'P 1'
_cell_length_a   3.21352477
_cell_length_b   8.96051750
_cell_length_c   10.92647058
_cell_angle_alpha   90.00125543
_cell_angle_beta   80.75347484
_cell_angle_gamma   90.00045528
_symmetry_Int_Tables_number   1
_chemical_formula_structural   MgMn2O4
_chemical_formula_sum   'Mg4 Mn8 O16'
_cell_volume   310.53781063
_cell_formula_units_Z   4
loop_
 _symmetry_equiv_pos_site_id
 _symmetry_equiv_pos_as_xyz
  1  'x, y, z'
loop_
 _atom_site_type_symbol
 _atom_site_label
 _atom_site_symmetry_multiplicity
 _atom_site_fract_x
 _atom_site_fract_y
 _atom_site_fract_z
 _atom_site_occupancy
  Mg  Mg0  1  0.61173846  0.21490065  0.34444415  1
  Mg  Mg1  1  0.38765167  0.78478484  0.65567212  1
  Mg  Mg2  1  0.88854745  0.71492830  0.15556792  1
  Mg  Mg3  1  0.11184267  0.28479119  0.84436667  1
  Mn  Mn4  1  0.36925795  0.41737151  0.11669278  1
  Mn  Mn5  1  0.86892787  0.08275167  0.61709381  1
  Mn  Mn6  1  0.13095312  0.91728128  0.38331128  1
  Mn  Mn7  1  0.63089016  0.58281870  0.88289591  1
  Mn  Mn8  1  0.78063480  0.55392098  0.38925303  1
  Mn  Mn9  1  0.21981652  0.44606897  0.61097580  1
  Mn  Mn10  1  0.71914545  0.05378559  0.11074599  1
  Mn  Mn11  1  0.28001511  0.94593299  0.88902756  1
  O  O12  1  0.15741675  0.90501976  0.06662232  1
  O  O13  1  0.84148450  0.09464210  0.93306400  1
  O  O14  1  0.34271299  0.40507549  0.43339253  1
  O  O15  1  0.65853223  0.59474958  0.56695120  1
  O  O16  1  0.33896881  0.02401044  0.72159440  1
  O  O17  1  0.66075532  0.97612092  0.27847086  1
  O  O18  1  0.16089099  0.52428365  0.77837036  1
  O  O19  1  0.83939082  0.47637255  0.22147563  1
  O  O20  1  0.42863409  0.62431193  0.05811516  1
  O  O21  1  0.57156457  0.37585936  0.94142511  1
  O  O22  1  0.07166287  0.12421366  0.44186374  1
  O  O23  1  0.92800755  0.87579968  0.55852267  1
  O  O24  1  0.67598588  0.78537499  0.82115404  1
  O  O25  1  0.32467448  0.21476645  0.17846552  1
  O  O26  1  0.17573261  0.71470074  0.32158685  1
  O  O27  1  0.82415132  0.28536003  0.67887860  1
