# generated using pymatgen
data_Ba3SrCo(CuO4)3
_symmetry_space_group_name_H-M   'P 1'
_cell_length_a   7.96882472
_cell_length_b   7.97109926
_cell_length_c   7.97109926
_cell_angle_alpha   89.84197037
_cell_angle_beta   90.00000000
_cell_angle_gamma   90.00000000
_symmetry_Int_Tables_number   1
_chemical_formula_structural   Ba3SrCo(CuO4)3
_chemical_formula_sum   'Ba6 Sr2 Co2 Cu6 O24'
_cell_volume   506.32463325
_cell_formula_units_Z   2
loop_
 _symmetry_equiv_pos_site_id
 _symmetry_equiv_pos_as_xyz
  1  'x, y, z'
loop_
 _atom_site_type_symbol
 _atom_site_label
 _atom_site_symmetry_multiplicity
 _atom_site_fract_x
 _atom_site_fract_y
 _atom_site_fract_z
 _atom_site_occupancy
  Ba  Ba0  1  0.25000000  0.24940579  0.24865742  1
  Ba  Ba1  1  0.25000000  0.75167371  0.24832629  1
  Ba  Ba2  1  0.25000000  0.75134258  0.75059421  1
  Ba  Ba3  1  0.75000000  0.24940579  0.24865742  1
  Ba  Ba4  1  0.75000000  0.75167371  0.24832629  1
  Ba  Ba5  1  0.75000000  0.75134258  0.75059421  1
  Sr  Sr6  1  0.25000000  0.24684265  0.75315735  1
  Sr  Sr7  1  0.75000000  0.24684265  0.75315735  1
  Co  Co8  1  -0.00000000  0.49723932  0.50276068  1
  Co  Co9  1  0.50000000  0.49723932  0.50276068  1
  Cu  Cu10  1  0.00000000  0.00038815  0.99961185  1
  Cu  Cu11  1  0.00000000  0.99971167  0.50070765  1
  Cu  Cu12  1  0.00000000  0.49929235  0.00028833  1
  Cu  Cu13  1  0.50000000  0.00038815  0.99961185  1
  Cu  Cu14  1  0.50000000  0.99971167  0.50070765  1
  Cu  Cu15  1  0.50000000  0.49929235  0.00028833  1
  O  O16  1  0.25000000  0.00780567  0.99219433  1
  O  O17  1  0.25000000  0.00787111  0.50794927  1
  O  O18  1  0.25000000  0.49205073  0.99212889  1
  O  O19  1  0.25000000  0.49551426  0.50448574  1
  O  O20  1  0.75000000  0.00780567  0.99219433  1
  O  O21  1  0.75000000  0.00787111  0.50794927  1
  O  O22  1  0.75000000  0.49205073  0.99212889  1
  O  O23  1  0.75000000  0.49551426  0.50448574  1
  O  O24  1  0.00000000  0.25146368  0.98817790  1
  O  O25  1  -0.00000000  0.25699004  0.50891706  1
  O  O26  1  -0.00000000  0.74835996  0.99733744  1
  O  O27  1  0.00000000  0.74034809  0.50186736  1
  O  O28  1  0.50000000  0.25146368  0.98817790  1
  O  O29  1  0.50000000  0.25699004  0.50891706  1
  O  O30  1  0.50000000  0.74835996  0.99733744  1
  O  O31  1  0.50000000  0.74034809  0.50186736  1
  O  O32  1  0.00000000  0.00266256  0.25164004  1
  O  O33  1  -0.00000000  0.01182210  0.74853632  1
  O  O34  1  -0.00000000  0.49813264  0.25965191  1
  O  O35  1  0.00000000  0.49108294  0.74300996  1
  O  O36  1  0.50000000  0.00266256  0.25164004  1
  O  O37  1  0.50000000  0.01182210  0.74853632  1
  O  O38  1  0.50000000  0.49813264  0.25965191  1
  O  O39  1  0.50000000  0.49108294  0.74300996  1
