# generated using pymatgen
data_InAgS2
_symmetry_space_group_name_H-M   'P 1'
_cell_length_a   3.88219648
_cell_length_b   3.88219697
_cell_length_c   7.27049526
_cell_angle_alpha   74.51518893
_cell_angle_beta   74.51518611
_cell_angle_gamma   60.00000543
_symmetry_Int_Tables_number   1
_chemical_formula_structural   InAgS2
_chemical_formula_sum   'In1 Ag1 S2'
_cell_volume   90.27436783
_cell_formula_units_Z   1
loop_
 _symmetry_equiv_pos_site_id
 _symmetry_equiv_pos_as_xyz
  1  'x, y, z'
loop_
 _atom_site_type_symbol
 _atom_site_label
 _atom_site_symmetry_multiplicity
 _atom_site_fract_x
 _atom_site_fract_y
 _atom_site_fract_z
 _atom_site_occupancy
  In  In0  1  0.00088119  0.00088119  0.99735642  1
  Ag  Ag1  1  0.84982653  0.84982653  0.45052041  1
  S  S2  1  0.73192744  0.73192744  0.80421767  1
  S  S3  1  0.25836483  0.25836483  0.22490550  1
