# generated using pymatgen
data_Tc6BiO18
_symmetry_space_group_name_H-M   'P 1'
_cell_length_a   7.23939796
_cell_length_b   21.70272409
_cell_length_c   19.14009614
_cell_angle_alpha   19.12237967
_cell_angle_beta   55.49836463
_cell_angle_gamma   60.00859530
_symmetry_Int_Tables_number   1
_chemical_formula_structural   Tc6BiO18
_chemical_formula_sum   'Tc12 Bi2 O36'
_cell_volume   804.87216579
_cell_formula_units_Z   2
loop_
 _symmetry_equiv_pos_site_id
 _symmetry_equiv_pos_as_xyz
  1  'x, y, z'
loop_
 _atom_site_type_symbol
 _atom_site_label
 _atom_site_symmetry_multiplicity
 _atom_site_fract_x
 _atom_site_fract_y
 _atom_site_fract_z
 _atom_site_occupancy
  Tc  Tc0  1  0.00000000  0.00000000  -0.00000000  1
  Tc  Tc1  1  0.50000000  0.00000000  -0.00000000  1
  Tc  Tc2  1  0.50423755  0.33455333  0.99763984  1
  Tc  Tc3  1  0.99866114  0.16546950  0.00087818  1
  Tc  Tc4  1  0.49576245  0.66544667  0.00236016  1
  Tc  Tc5  1  0.00087818  0.33499118  0.99866114  1
  Tc  Tc6  1  0.00000000  0.00000000  0.50000000  1
  Tc  Tc7  1  0.00000000  0.50000000  -0.00000000  1
  Tc  Tc8  1  0.99912182  0.66500882  0.00133886  1
  Tc  Tc9  1  0.00236016  0.33643072  0.49576245  1
  Tc  Tc10  1  0.00133886  0.83453050  0.99912182  1
  Tc  Tc11  1  0.99763984  0.66356928  0.50423755  1
  Bi  Bi12  1  0.50000000  0.00000000  0.50000000  1
  Bi  Bi13  1  0.50000000  0.50000000  0.50000000  1
  O  O14  1  0.04892206  0.20107794  0.04892206  1
  O  O15  1  0.32931823  0.08837748  0.33262373  1
  O  O16  1  0.06558343  0.52569114  0.05601405  1
  O  O17  1  0.69610434  0.19712198  0.05386867  1
  O  O18  1  0.04432067  0.09950026  0.70183730  1
  O  O19  1  0.65906748  0.29877452  0.09455463  1
  O  O20  1  0.30400107  0.44599893  0.30400107  1
  O  O21  1  0.05421191  0.22165061  0.69757962  1
  O  O22  1  0.05601405  0.85271139  0.06558343  1
  O  O23  1  0.69757962  0.52655785  0.05421191  1
  O  O24  1  0.90898698  0.08773534  0.33157475  1
  O  O25  1  0.94200857  0.22378503  0.31371028  1
  O  O26  1  0.70183730  0.65434176  0.04432067  1
  O  O27  1  0.31371028  0.02049612  0.94200857  1
  O  O28  1  0.09455463  0.44760337  0.65906748  1
  O  O29  1  0.33157475  0.17170293  0.90898698  1
  O  O30  1  0.33262373  0.74968056  0.32931823  1
  O  O31  1  0.05386867  0.55290501  0.69610434  1
  O  O32  1  0.66842525  0.82829707  0.09101302  1
  O  O33  1  0.94613133  0.44709499  0.30389566  1
  O  O34  1  0.66737627  0.25031944  0.67068177  1
  O  O35  1  0.90544537  0.55239663  0.34093252  1
  O  O36  1  0.29816270  0.34565824  0.95567933  1
  O  O37  1  0.05799143  0.77621497  0.68628972  1
  O  O38  1  0.68628972  0.97950388  0.05799143  1
  O  O39  1  0.30242038  0.47344215  0.94578809  1
  O  O40  1  0.09101302  0.91226466  0.66842525  1
  O  O41  1  0.69599893  0.55400107  0.69599893  1
  O  O42  1  0.94398595  0.14728861  0.93441657  1
  O  O43  1  0.94578809  0.77834939  0.30242038  1
  O  O44  1  0.95567933  0.90049974  0.29816270  1
  O  O45  1  0.34093252  0.70122548  0.90544537  1
  O  O46  1  0.30389566  0.80287802  0.94613133  1
  O  O47  1  0.67068177  0.91162252  0.66737627  1
  O  O48  1  0.93441657  0.47430886  0.94398595  1
  O  O49  1  0.95107794  0.79892206  0.95107794  1
