# generated using pymatgen
data_Yb(Ga2Ge)2
_symmetry_space_group_name_H-M   'P 1'
_cell_length_a   6.11032848
_cell_length_b   6.11032848
_cell_length_c   8.69970404
_cell_angle_alpha   110.55951805
_cell_angle_beta   110.55951805
_cell_angle_gamma   90.00000000
_symmetry_Int_Tables_number   1
_chemical_formula_structural   Yb(Ga2Ge)2
_chemical_formula_sum   'Yb2 Ga8 Ge4'
_cell_volume   281.92301565
_cell_formula_units_Z   2
loop_
 _symmetry_equiv_pos_site_id
 _symmetry_equiv_pos_as_xyz
  1  'x, y, z'
loop_
 _atom_site_type_symbol
 _atom_site_label
 _atom_site_symmetry_multiplicity
 _atom_site_fract_x
 _atom_site_fract_y
 _atom_site_fract_z
 _atom_site_occupancy
  Yb  Yb0  1  0.08255038  0.58255038  0.16510075  1
  Yb  Yb1  1  0.58255038  0.08255038  0.16510075  1
  Ga  Ga2  1  0.46411093  0.96411093  0.50541595  1
  Ga  Ga3  1  0.04130501  0.54130501  0.50541595  1
  Ga  Ga4  1  0.96411093  0.04130501  0.50541595  1
  Ga  Ga5  1  0.54130501  0.46411093  0.50541595  1
  Ga  Ga6  1  0.49245771  0.49245771  0.98491542  1
  Ga  Ga7  1  0.99245771  0.99245771  0.98491542  1
  Ga  Ga8  1  0.65747919  0.65747919  0.31495837  1
  Ga  Ga9  1  0.15747919  0.15747919  0.31495837  1
  Ge  Ge10  1  0.74579331  0.24579331  0.80971178  1
  Ge  Ge11  1  0.06391847  0.56391847  0.80971178  1
  Ge  Ge12  1  0.24579331  0.06391847  0.80971178  1
  Ge  Ge13  1  0.56391847  0.74579331  0.80971178  1
