# generated using pymatgen
data_Ba2ZnCuSn2F14
_symmetry_space_group_name_H-M   'P 1'
_cell_length_a   5.46625137
_cell_length_b   7.84296890
_cell_length_c   15.52183779
_cell_angle_alpha   90.08627882
_cell_angle_beta   91.50375175
_cell_angle_gamma   109.50953559
_symmetry_Int_Tables_number   1
_chemical_formula_structural   Ba2ZnCuSn2F14
_chemical_formula_sum   'Ba4 Zn2 Cu2 Sn4 F28'
_cell_volume   626.98737027
_cell_formula_units_Z   2
loop_
 _symmetry_equiv_pos_site_id
 _symmetry_equiv_pos_as_xyz
  1  'x, y, z'
loop_
 _atom_site_type_symbol
 _atom_site_label
 _atom_site_symmetry_multiplicity
 _atom_site_fract_x
 _atom_site_fract_y
 _atom_site_fract_z
 _atom_site_occupancy
  Ba  Ba0  1  0.08507749  0.34974406  0.61605518  1
  Ba  Ba1  1  0.26575336  0.34948824  0.13235888  1
  Ba  Ba2  1  0.89623434  0.62815495  0.37132370  1
  Ba  Ba3  1  0.73734509  0.64608672  0.87642695  1
  Zn  Zn4  1  0.47104676  0.00221059  0.75128476  1
  Zn  Zn5  1  0.52184452  0.01061341  0.25803843  1
  Cu  Cu6  1  0.50745858  0.00133922  0.00313267  1
  Cu  Cu7  1  0.50054270  0.01416017  0.49659782  1
  Sn  Sn8  1  0.10609135  0.24683101  0.87495108  1
  Sn  Sn9  1  0.14974585  0.23091796  0.37814707  1
  Sn  Sn10  1  0.90431821  0.75592628  0.12264839  1
  Sn  Sn11  1  0.85647970  0.75934050  0.62669769  1
  F  F12  1  0.79818776  0.94626138  0.31271198  1
  F  F13  1  0.86069741  0.31948849  0.46233953  1
  F  F14  1  0.11581037  0.69913604  0.55191251  1
  F  F15  1  0.62200033  0.50403426  0.60357282  1
  F  F16  1  0.63159836  0.07458340  0.63949366  1
  F  F17  1  0.54724166  0.92301118  0.86945858  1
  F  F18  1  0.43280158  0.30795843  0.95288524  1
  F  F19  1  0.91918239  0.00701143  0.14633233  1
  F  F20  1  0.35584983  0.34733336  0.77748309  1
  F  F21  1  0.38174140  0.51870008  0.40263796  1
  F  F22  1  0.81151077  0.23893884  0.78947652  1
  F  F23  1  0.13420366  0.50881086  0.89797666  1
  F  F24  1  0.47164301  0.24833862  0.27013665  1
  F  F25  1  0.18713136  0.76797183  0.21129479  1
  F  F26  1  0.45911144  0.06591891  0.12586199  1
  F  F27  1  0.64241955  0.64094177  0.21247713  1
  F  F28  1  0.09421295  0.82756970  0.01068916  1
  F  F29  1  0.11591712  0.99548323  0.67210907  1
  F  F30  1  0.89982736  0.16778044  0.98247737  1
  F  F31  1  0.72918508  0.84864972  0.51810799  1
  F  F32  1  0.58153579  0.70021080  0.04226243  1
  F  F33  1  0.58639292  0.76450042  0.71639545  1
  F  F34  1  0.00908068  0.37313255  0.26886562  1
  F  F35  1  0.28190045  0.16657542  0.52105317  1
  F  F36  1  0.33312531  0.92349252  0.37448218  1
  F  F37  1  0.11579241  0.99886326  0.83980201  1
  F  F38  1  0.00811225  0.65019679  0.72609553  1
  F  F39  1  0.88491883  0.50127817  0.09263193  1
