# generated using pymatgen
data_NaSiPCO7
_symmetry_space_group_name_H-M   'P 1'
_cell_length_a   9.54884116
_cell_length_b   6.03656292
_cell_length_c   5.00815048
_cell_angle_alpha   90.00000000
_cell_angle_beta   87.08204990
_cell_angle_gamma   90.00000000
_symmetry_Int_Tables_number   1
_chemical_formula_structural   NaSiPCO7
_chemical_formula_sum   'Na2 Si2 P2 C2 O14'
_cell_volume   288.30642692
_cell_formula_units_Z   2
loop_
 _symmetry_equiv_pos_site_id
 _symmetry_equiv_pos_as_xyz
  1  'x, y, z'
loop_
 _atom_site_type_symbol
 _atom_site_label
 _atom_site_symmetry_multiplicity
 _atom_site_fract_x
 _atom_site_fract_y
 _atom_site_fract_z
 _atom_site_occupancy
  Na  Na0  1  0.19294517  0.44472712  0.22479112  1
  Na  Na1  1  0.80705483  0.94472712  0.77520888  1
  Si  Si2  1  0.35076422  0.76404381  0.77796537  1
  Si  Si3  1  0.64923578  0.26404381  0.22203463  1
  P  P4  1  0.44296511  0.25844860  0.73485707  1
  P  P5  1  0.55703489  0.75844860  0.26514293  1
  C  C6  1  0.11806130  0.74897824  0.70403609  1
  C  C7  1  0.88193870  0.24897824  0.29596391  1
  O  O8  1  0.00708461  0.23841901  0.33747565  1
  O  O9  1  0.17650204  0.75692787  0.94200670  1
  O  O10  1  0.22515567  0.74985955  0.51813784  1
  O  O11  1  0.34647550  0.05773721  0.78400427  1
  O  O12  1  0.34645603  0.45944645  0.79106514  1
  O  O13  1  0.43303787  0.75715474  0.08236859  1
  O  O14  1  0.49780440  0.26210940  0.43730883  1
  O  O15  1  0.50219560  0.76210940  0.56269117  1
  O  O16  1  0.56696213  0.25715474  0.91763141  1
  O  O17  1  0.65354397  0.95944645  0.20893486  1
  O  O18  1  0.65352450  0.55773721  0.21599573  1
  O  O19  1  0.77484433  0.24985955  0.48186216  1
  O  O20  1  0.82349796  0.25692787  0.05799330  1
  O  O21  1  0.99291539  0.73841901  0.66252435  1
