# generated using pymatgen
data_MnSO5
_symmetry_space_group_name_H-M   'P 1'
_cell_length_a   5.33487022
_cell_length_b   5.33487022
_cell_length_c   7.42354780
_cell_angle_alpha   70.01201018
_cell_angle_beta   109.98798982
_cell_angle_gamma   80.39134821
_symmetry_Int_Tables_number   1
_chemical_formula_structural   MnSO5
_chemical_formula_sum   'Mn2 S2 O10'
_cell_volume   176.69991039
_cell_formula_units_Z   2
loop_
 _symmetry_equiv_pos_site_id
 _symmetry_equiv_pos_as_xyz
  1  'x, y, z'
loop_
 _atom_site_type_symbol
 _atom_site_label
 _atom_site_symmetry_multiplicity
 _atom_site_fract_x
 _atom_site_fract_y
 _atom_site_fract_z
 _atom_site_occupancy
  Mn  Mn0  1  -0.00000000  0.50000000  0.50000000  1
  Mn  Mn1  1  0.50000000  -0.00000000  0.00000000  1
  S  S2  1  0.91448546  0.91448546  0.75000000  1
  S  S3  1  0.08551454  0.08551454  0.25000000  1
  O  O4  1  0.32506915  0.32506915  0.75000000  1
  O  O5  1  0.67493085  0.67493085  0.25000000  1
  O  O6  1  0.22674323  0.80829148  0.87471995  1
  O  O7  1  0.80829148  0.22674323  0.62528005  1
  O  O8  1  0.77325677  0.19170852  0.12528005  1
  O  O9  1  0.19170852  0.77325677  0.37471995  1
  O  O10  1  0.83667765  0.77758189  0.60464117  1
  O  O11  1  0.77758189  0.83667765  0.89535883  1
  O  O12  1  0.16332235  0.22241811  0.39535883  1
  O  O13  1  0.22241811  0.16332235  0.10464117  1
