# generated using pymatgen
data_SrCa2I6
_symmetry_space_group_name_H-M   'P 1'
_cell_length_a   13.06924089
_cell_length_b   8.05460060
_cell_length_c   7.41907121
_cell_angle_alpha   90.00000000
_cell_angle_beta   93.06605006
_cell_angle_gamma   90.00000000
_symmetry_Int_Tables_number   1
_chemical_formula_structural   SrCa2I6
_chemical_formula_sum   'Sr2 Ca4 I12'
_cell_volume   779.86924078
_cell_formula_units_Z   2
loop_
 _symmetry_equiv_pos_site_id
 _symmetry_equiv_pos_as_xyz
  1  'x, y, z'
loop_
 _atom_site_type_symbol
 _atom_site_label
 _atom_site_symmetry_multiplicity
 _atom_site_fract_x
 _atom_site_fract_y
 _atom_site_fract_z
 _atom_site_occupancy
  Sr  Sr0  1  0.00000000  0.00000000  0.00000000  1
  Sr  Sr1  1  0.50000000  0.50000000  0.50000000  1
  Ca  Ca2  1  0.25497911  0.39612199  0.92452646  1
  Ca  Ca3  1  0.24502089  0.89612199  0.57547354  1
  Ca  Ca4  1  0.75497911  0.10387801  0.42452646  1
  Ca  Ca5  1  0.74502089  0.60387801  0.07547354  1
  I  I6  1  0.09147689  0.67278243  0.79757788  1
  I  I7  1  0.09339986  0.18960719  0.66314081  1
  I  I8  1  0.26441022  0.57273636  0.32472820  1
  I  I9  1  0.23558978  0.07273636  0.17527180  1
  I  I10  1  0.40660014  0.68960719  0.83685919  1
  I  I11  1  0.40852311  0.17278243  0.70242212  1
  I  I12  1  0.59147689  0.82721757  0.29757788  1
  I  I13  1  0.59339986  0.31039281  0.16314081  1
  I  I14  1  0.76441022  0.92726364  0.82472820  1
  I  I15  1  0.73558978  0.42726364  0.67527180  1
  I  I16  1  0.90660014  0.81039281  0.33685919  1
  I  I17  1  0.90852311  0.32721757  0.20242212  1
