# generated using pymatgen
data_Ce2Au
_symmetry_space_group_name_H-M   'P 1'
_cell_length_a   5.00225237
_cell_length_b   7.28195037
_cell_length_c   9.23565659
_cell_angle_alpha   90.00000000
_cell_angle_beta   90.00000000
_cell_angle_gamma   90.00000000
_symmetry_Int_Tables_number   1
_chemical_formula_structural   Ce2Au
_chemical_formula_sum   'Ce8 Au4'
_cell_volume   336.41944459
_cell_formula_units_Z   4
loop_
 _symmetry_equiv_pos_site_id
 _symmetry_equiv_pos_as_xyz
  1  'x, y, z'
loop_
 _atom_site_type_symbol
 _atom_site_label
 _atom_site_symmetry_multiplicity
 _atom_site_fract_x
 _atom_site_fract_y
 _atom_site_fract_z
 _atom_site_occupancy
  Ce  Ce0  1  0.75000000  0.65930614  0.57068678  1
  Ce  Ce1  1  0.75000000  0.15930614  0.92931322  1
  Ce  Ce2  1  0.25000000  0.34069386  0.42931322  1
  Ce  Ce3  1  0.25000000  0.84069386  0.07068678  1
  Ce  Ce4  1  0.75000000  0.01325265  0.31784722  1
  Ce  Ce5  1  0.75000000  0.51325265  0.18215278  1
  Ce  Ce6  1  0.25000000  0.98674735  0.68215278  1
  Ce  Ce7  1  0.25000000  0.48674735  0.81784722  1
  Au  Au8  1  0.75000000  0.24497236  0.61036440  1
  Au  Au9  1  0.75000000  0.74497236  0.88963560  1
  Au  Au10  1  0.25000000  0.75502764  0.38963560  1
  Au  Au11  1  0.25000000  0.25502764  0.11036440  1
