# generated using pymatgen
data_K2YAgI6
_symmetry_space_group_name_H-M   'P 1'
_cell_length_a   8.55066790
_cell_length_b   8.55066837
_cell_length_c   8.55066835
_cell_angle_alpha   59.99999851
_cell_angle_beta   59.99999788
_cell_angle_gamma   59.99999797
_symmetry_Int_Tables_number   1
_chemical_formula_structural   K2YAgI6
_chemical_formula_sum   'K2 Y1 Ag1 I6'
_cell_volume   442.06399917
_cell_formula_units_Z   1
loop_
 _symmetry_equiv_pos_site_id
 _symmetry_equiv_pos_as_xyz
  1  'x, y, z'
loop_
 _atom_site_type_symbol
 _atom_site_label
 _atom_site_symmetry_multiplicity
 _atom_site_fract_x
 _atom_site_fract_y
 _atom_site_fract_z
 _atom_site_occupancy
  K  K0  1  0.25000000  0.25000000  0.25000000  1
  K  K1  1  0.75000000  0.75000000  0.75000000  1
  Y  Y2  1  0.50000000  0.50000000  0.50000000  1
  Ag  Ag3  1  -0.00000000  0.00000000  -0.00000000  1
  I  I4  1  0.25017110  0.74982890  0.25017110  1
  I  I5  1  0.74982890  0.74982890  0.25017110  1
  I  I6  1  0.74982890  0.25017110  0.74982890  1
  I  I7  1  0.74982890  0.25017110  0.25017110  1
  I  I8  1  0.25017110  0.74982890  0.74982890  1
  I  I9  1  0.25017110  0.25017110  0.74982890  1
