# generated using pymatgen
data_Mg2V9O13
_symmetry_space_group_name_H-M   'P 1'
_cell_length_a   2.94294058
_cell_length_b   5.30485230
_cell_length_c   17.29857399
_cell_angle_alpha   98.85634722
_cell_angle_beta   90.00381395
_cell_angle_gamma   106.10383642
_symmetry_Int_Tables_number   1
_chemical_formula_structural   Mg2V9O13
_chemical_formula_sum   'Mg2 V9 O13'
_cell_volume   256.11204772
_cell_formula_units_Z   1
loop_
 _symmetry_equiv_pos_site_id
 _symmetry_equiv_pos_as_xyz
  1  'x, y, z'
loop_
 _atom_site_type_symbol
 _atom_site_label
 _atom_site_symmetry_multiplicity
 _atom_site_fract_x
 _atom_site_fract_y
 _atom_site_fract_z
 _atom_site_occupancy
  Mg  Mg0  1  0.21253134  0.42545613  0.23038924  1
  Mg  Mg1  1  0.78746866  0.57454387  0.76961076  1
  V  V2  1  0.50000000  -0.00000000  0.50000000  1
  V  V3  1  0.64636471  0.29269611  0.04340207  1
  V  V4  1  0.35363529  0.70730389  0.95659793  1
  V  V5  1  0.74882577  0.49759502  0.41581168  1
  V  V6  1  0.25117423  0.50240498  0.58418832  1
  V  V7  1  0.93207053  0.86407919  0.12754823  1
  V  V8  1  0.06792947  0.13592081  0.87245177  1
  V  V9  1  0.98880803  0.97754428  0.33001751  1
  V  V10  1  0.01119197  0.02245572  0.66998249  1
  O  O11  1  0.00000000  -0.00000000  0.00000000  1
  O  O12  1  0.85246265  0.70511029  0.22908968  1
  O  O13  1  0.14753735  0.29488971  0.77091032  1
  O  O14  1  0.29672489  0.59342045  0.07296501  1
  O  O15  1  0.70327511  0.40657955  0.92703499  1
  O  O16  1  0.57579982  0.15145792  0.14995026  1
  O  O17  1  0.42420018  0.84854208  0.85004974  1
  O  O18  1  0.62259697  0.24510978  0.30873347  1
  O  O19  1  0.37740303  0.75489022  0.69126653  1
  O  O20  1  0.38321062  0.76631776  0.38570947  1
  O  O21  1  0.61678938  0.23368224  0.61429053  1
  O  O22  1  0.12826657  0.25643169  0.46151686  1
  O  O23  1  0.87173343  0.74356831  0.53848314  1
