# generated using pymatgen
data_K2CuSbI6
_symmetry_space_group_name_H-M   'P 1'
_cell_length_a   8.30086189
_cell_length_b   8.30086233
_cell_length_c   8.30086230
_cell_angle_alpha   59.99999867
_cell_angle_beta   59.99999796
_cell_angle_gamma   59.99999809
_symmetry_Int_Tables_number   1
_chemical_formula_structural   K2CuSbI6
_chemical_formula_sum   'K2 Cu1 Sb1 I6'
_cell_volume   404.44045797
_cell_formula_units_Z   1
loop_
 _symmetry_equiv_pos_site_id
 _symmetry_equiv_pos_as_xyz
  1  'x, y, z'
loop_
 _atom_site_type_symbol
 _atom_site_label
 _atom_site_symmetry_multiplicity
 _atom_site_fract_x
 _atom_site_fract_y
 _atom_site_fract_z
 _atom_site_occupancy
  K  K0  1  0.25000000  0.25000000  0.25000000  1
  K  K1  1  0.75000000  0.75000000  0.75000000  1
  Cu  Cu2  1  0.50000000  0.50000000  0.50000000  1
  Sb  Sb3  1  -0.00000000  -0.00000000  0.00000000  1
  I  I4  1  0.25839625  0.74160375  0.25839625  1
  I  I5  1  0.74160375  0.74160375  0.25839625  1
  I  I6  1  0.74160375  0.25839625  0.74160375  1
  I  I7  1  0.74160375  0.25839625  0.25839625  1
  I  I8  1  0.25839625  0.74160375  0.74160375  1
  I  I9  1  0.25839625  0.25839625  0.74160375  1
