# generated using pymatgen
data_K2TlInI6
_symmetry_space_group_name_H-M   'P 1'
_cell_length_a   8.84493690
_cell_length_b   8.84493743
_cell_length_c   8.84493741
_cell_angle_alpha   59.99999842
_cell_angle_beta   59.99999776
_cell_angle_gamma   59.99999781
_symmetry_Int_Tables_number   1
_chemical_formula_structural   K2TlInI6
_chemical_formula_sum   'K2 Tl1 In1 I6'
_cell_volume   489.29327909
_cell_formula_units_Z   1
loop_
 _symmetry_equiv_pos_site_id
 _symmetry_equiv_pos_as_xyz
  1  'x, y, z'
loop_
 _atom_site_type_symbol
 _atom_site_label
 _atom_site_symmetry_multiplicity
 _atom_site_fract_x
 _atom_site_fract_y
 _atom_site_fract_z
 _atom_site_occupancy
  K  K0  1  0.25000000  0.25000000  0.25000000  1
  K  K1  1  0.75000000  0.75000000  0.75000000  1
  Tl  Tl2  1  0.50000000  0.50000000  0.50000000  1
  In  In3  1  0.00000000  0.00000000  -0.00000000  1
  I  I4  1  0.23559707  0.76440293  0.23559707  1
  I  I5  1  0.76440293  0.76440293  0.23559707  1
  I  I6  1  0.76440293  0.23559707  0.76440293  1
  I  I7  1  0.76440293  0.23559707  0.23559707  1
  I  I8  1  0.23559707  0.76440293  0.76440293  1
  I  I9  1  0.23559707  0.23559707  0.76440293  1
