# generated using pymatgen
data_H9CN9
_symmetry_space_group_name_H-M   'P 1'
_cell_length_a   4.96340697
_cell_length_b   8.68480021
_cell_length_c   9.49443664
_cell_angle_alpha   109.81651727
_cell_angle_beta   98.61541075
_cell_angle_gamma   100.31954767
_symmetry_Int_Tables_number   1
_chemical_formula_structural   H9CN9
_chemical_formula_sum   'H18 C2 N18'
_cell_volume   368.87548601
_cell_formula_units_Z   2
loop_
 _symmetry_equiv_pos_site_id
 _symmetry_equiv_pos_as_xyz
  1  'x, y, z'
loop_
 _atom_site_type_symbol
 _atom_site_label
 _atom_site_symmetry_multiplicity
 _atom_site_fract_x
 _atom_site_fract_y
 _atom_site_fract_z
 _atom_site_occupancy
  H  H0  1  0.16614390  0.62493023  0.94023669  1
  H  H1  1  0.83385610  0.37506977  0.05976331  1
  H  H2  1  0.27302000  0.81831955  0.07369683  1
  H  H3  1  0.72698000  0.18168045  0.92630317  1
  H  H4  1  0.45594676  0.81886627  0.86842586  1
  H  H5  1  0.54405324  0.18113373  0.13157414  1
  H  H6  1  0.71946754  0.82263702  0.00233863  1
  H  H7  1  0.28053246  0.17736298  0.99766137  1
  H  H8  1  0.89830926  0.52225052  0.66305318  1
  H  H9  1  0.10169074  0.47774948  0.33694682  1
  H  H10  1  0.87946283  0.32599891  0.65474617  1
  H  H11  1  0.12053717  0.67400109  0.34525383  1
  H  H12  1  0.57140755  0.55574700  0.81032022  1
  H  H13  1  0.42859245  0.44425300  0.18967978  1
  H  H14  1  0.44468817  0.35940145  0.65195036  1
  H  H15  1  0.55531183  0.64059855  0.34804964  1
  H  H16  1  0.58814027  0.36981171  0.83471493  1
  H  H17  1  0.41185973  0.63018829  0.16528507  1
  C  C18  1  0.75595359  0.94622129  0.60942913  1
  C  C19  1  0.24404641  0.05377871  0.39057087  1
  N  N20  1  0.59522910  0.04199223  0.56163246  1
  N  N21  1  0.40477090  0.95800777  0.43836754  1
  N  N22  1  0.75597427  0.78304154  0.53544776  1
  N  N23  1  0.24402573  0.21695846  0.46455224  1
  N  N24  1  0.94769654  0.75150395  0.62848369  1
  N  N25  1  0.05230346  0.24849605  0.37151631  1
  N  N26  1  0.06051147  0.89079707  0.75588089  1
  N  N27  1  0.93948853  0.10920293  0.24411911  1
  N  N28  1  0.94460571  0.01519912  0.74642603  1
  N  N29  1  0.05539429  0.98480088  0.25357397  1
  N  N30  1  0.33944458  0.71322286  0.01808290  1
  N  N31  1  0.66055542  0.28677714  0.98191710  1
  N  N32  1  0.53288812  0.75027893  0.92738443  1
  N  N33  1  0.46711188  0.24972107  0.07261557  1
  N  N34  1  0.87821849  0.44534621  0.72513335  1
  N  N35  1  0.12178151  0.55465379  0.27486665  1
  N  N36  1  0.59837508  0.43088782  0.75485160  1
  N  N37  1  0.40162492  0.56911218  0.24514840  1
