# generated using pymatgen
data_Nb2Zn2SbO8
_symmetry_space_group_name_H-M   'P 1'
_cell_length_a   5.46180474
_cell_length_b   5.90423879
_cell_length_c   10.75554084
_cell_angle_alpha   106.05036077
_cell_angle_beta   93.04673005
_cell_angle_gamma   89.88744913
_symmetry_Int_Tables_number   1
_chemical_formula_structural   Nb2Zn2SbO8
_chemical_formula_sum   'Nb4 Zn4 Sb2 O16'
_cell_volume   332.82183803
_cell_formula_units_Z   2
loop_
 _symmetry_equiv_pos_site_id
 _symmetry_equiv_pos_as_xyz
  1  'x, y, z'
loop_
 _atom_site_type_symbol
 _atom_site_label
 _atom_site_symmetry_multiplicity
 _atom_site_fract_x
 _atom_site_fract_y
 _atom_site_fract_z
 _atom_site_occupancy
  Nb  Nb0  1  0.72606720  0.27926152  0.24441419  1
  Nb  Nb1  1  0.77329084  0.03565157  0.75530487  1
  Nb  Nb2  1  0.27123677  0.71970568  0.75417491  1
  Nb  Nb3  1  0.22535004  0.96182223  0.24390321  1
  Zn  Zn4  1  0.77401604  0.43845288  0.55939927  1
  Zn  Zn5  1  0.72513043  0.87924098  0.43890847  1
  Zn  Zn6  1  0.22523632  0.55818318  0.43916853  1
  Zn  Zn7  1  0.27410495  0.11808317  0.56003937  1
  Sb  Sb8  1  0.74229414  0.66871240  0.99861711  1
  Sb  Sb9  1  0.25051222  0.33207178  0.00118342  1
  O  O10  1  0.02854343  0.16711126  0.15201371  1
  O  O11  1  0.47082094  0.01545849  0.84629559  1
  O  O12  1  0.96919899  0.82922658  0.84729094  1
  O  O13  1  0.52798858  0.98153751  0.15122507  1
  O  O14  1  0.60763829  0.45239672  0.11551382  1
  O  O15  1  0.88748958  0.33465905  0.88066069  1
  O  O16  1  0.39211582  0.54764562  0.88576922  1
  O  O17  1  0.11287098  0.66112449  0.11909218  1
  O  O18  1  0.42095204  0.28553441  0.35402529  1
  O  O19  1  0.07867734  0.93046920  0.64468631  1
  O  O20  1  0.35519026  0.84147187  0.39730307  1
  O  O21  1  0.14439695  0.44283335  0.60210903  1
  O  O22  1  0.64368899  0.15536446  0.60179008  1
  O  O23  1  0.85546590  0.55425876  0.39682669  1
  O  O24  1  0.91981169  0.06621764  0.35391779  1
  O  O25  1  0.57924324  0.71046119  0.64562118  1
