# generated using pymatgen
data_CsK2GaF6
_symmetry_space_group_name_H-M   'P 1'
_cell_length_a   6.63835554
_cell_length_b   6.63835561
_cell_length_c   6.63835561
_cell_angle_alpha   59.99999978
_cell_angle_beta   59.99999964
_cell_angle_gamma   59.99999967
_symmetry_Int_Tables_number   1
_chemical_formula_structural   CsK2GaF6
_chemical_formula_sum   'Cs1 K2 Ga1 F6'
_cell_volume   206.85524360
_cell_formula_units_Z   1
loop_
 _symmetry_equiv_pos_site_id
 _symmetry_equiv_pos_as_xyz
  1  'x, y, z'
loop_
 _atom_site_type_symbol
 _atom_site_label
 _atom_site_symmetry_multiplicity
 _atom_site_fract_x
 _atom_site_fract_y
 _atom_site_fract_z
 _atom_site_occupancy
  Cs  Cs0  1  0.50000000  0.50000000  0.50000000  1
  K  K1  1  0.25000000  0.25000000  0.25000000  1
  K  K2  1  0.75000000  0.75000000  0.75000000  1
  Ga  Ga3  1  -0.00000000  0.00000000  0.00000000  1
  F  F4  1  0.20529283  0.79470716  0.20529284  1
  F  F5  1  0.79470717  0.79470716  0.20529284  1
  F  F6  1  0.79470717  0.20529284  0.79470716  1
  F  F7  1  0.79470717  0.20529284  0.20529284  1
  F  F8  1  0.20529283  0.79470716  0.79470716  1
  F  F9  1  0.20529283  0.20529284  0.79470716  1
