# generated using pymatgen
data_Cs2ScCuF6
_symmetry_space_group_name_H-M   'P 1'
_cell_length_a   6.27019107
_cell_length_b   6.27019115
_cell_length_c   6.27019115
_cell_angle_alpha   59.99999966
_cell_angle_beta   59.99999947
_cell_angle_gamma   59.99999953
_symmetry_Int_Tables_number   1
_chemical_formula_structural   Cs2ScCuF6
_chemical_formula_sum   'Cs2 Sc1 Cu1 F6'
_cell_volume   174.31201953
_cell_formula_units_Z   1
loop_
 _symmetry_equiv_pos_site_id
 _symmetry_equiv_pos_as_xyz
  1  'x, y, z'
loop_
 _atom_site_type_symbol
 _atom_site_label
 _atom_site_symmetry_multiplicity
 _atom_site_fract_x
 _atom_site_fract_y
 _atom_site_fract_z
 _atom_site_occupancy
  Cs  Cs0  1  0.25000000  0.25000000  0.25000000  1
  Cs  Cs1  1  0.75000000  0.75000000  0.75000000  1
  Sc  Sc2  1  0.00000000  -0.00000000  -0.00000000  1
  Cu  Cu3  1  0.50000000  0.50000000  0.50000000  1
  F  F4  1  0.23195552  0.76804448  0.23195552  1
  F  F5  1  0.76804448  0.76804448  0.23195552  1
  F  F6  1  0.76804448  0.23195552  0.76804448  1
  F  F7  1  0.76804448  0.23195552  0.23195552  1
  F  F8  1  0.23195552  0.76804448  0.76804448  1
  F  F9  1  0.23195552  0.23195552  0.76804448  1
