# generated using pymatgen
data_Li2VPO5
_symmetry_space_group_name_H-M   'P 1'
_cell_length_a   7.19506229
_cell_length_b   7.32928435
_cell_length_c   7.86840710
_cell_angle_alpha   89.87427417
_cell_angle_beta   89.54150116
_cell_angle_gamma   116.16719198
_symmetry_Int_Tables_number   1
_chemical_formula_structural   Li2VPO5
_chemical_formula_sum   'Li8 V4 P4 O20'
_cell_volume   372.39171472
_cell_formula_units_Z   4
loop_
 _symmetry_equiv_pos_site_id
 _symmetry_equiv_pos_as_xyz
  1  'x, y, z'
loop_
 _atom_site_type_symbol
 _atom_site_label
 _atom_site_symmetry_multiplicity
 _atom_site_fract_x
 _atom_site_fract_y
 _atom_site_fract_z
 _atom_site_occupancy
  Li  Li0  1  0.50000000  0.50000000  0.50000000  1
  Li  Li1  1  0.50000000  0.00000000  -0.00000000  1
  Li  Li2  1  0.74066998  0.87697511  0.55841204  1
  Li  Li3  1  0.25933002  0.12302489  0.44158796  1
  Li  Li4  1  0.17931434  0.63853117  0.94388882  1
  Li  Li5  1  0.82068566  0.36146883  0.05611118  1
  Li  Li6  1  0.85805331  0.59266656  0.56020099  1
  Li  Li7  1  0.14194669  0.40733344  0.43979901  1
  V  V8  1  0.99272940  0.23358907  0.75729783  1
  V  V9  1  0.00727060  0.76641093  0.24270217  1
  V  V10  1  0.49494878  0.25168401  0.75360146  1
  V  V11  1  0.50505122  0.74831599  0.24639854  1
  P  P12  1  0.25360710  0.76812888  0.61494883  1
  P  P13  1  0.74639290  0.23187112  0.38505117  1
  P  P14  1  0.75485806  0.73163515  0.88627763  1
  P  P15  1  0.24514194  0.26836485  0.11372237  1
  O  O16  1  0.90452252  0.43967599  0.30734771  1
  O  O17  1  0.09547748  0.56032401  0.69265229  1
  O  O18  1  0.35100841  0.92353154  0.75719258  1
  O  O19  1  0.64899159  0.07646846  0.24280742  1
  O  O20  1  0.58254379  0.27024817  0.49046006  1
  O  O21  1  0.41745621  0.72975183  0.50953994  1
  O  O22  1  0.12746114  0.83703628  0.49424548  1
  O  O23  1  0.87253886  0.16296372  0.50575452  1
  O  O24  1  0.26361953  0.76856484  0.15938109  1
  O  O25  1  0.73638047  0.23143516  0.84061891  1
  O  O26  1  0.88624916  0.92778005  0.78288309  1
  O  O27  1  0.11375084  0.07221995  0.21711691  1
  O  O28  1  0.58636952  0.75691524  0.99136730  1
  O  O29  1  0.41363048  0.24308476  0.00863270  1
  O  O30  1  0.25912761  0.27920363  0.64346051  1
  O  O31  1  0.74087239  0.72079637  0.35653949  1
  O  O32  1  0.34274809  0.43104794  0.25773354  1
  O  O33  1  0.65725191  0.56895206  0.74226646  1
  O  O34  1  0.88960093  0.66554395  0.00058857  1
  O  O35  1  0.11039907  0.33445605  0.99941143  1
