# generated using pymatgen
data_TiCu
_symmetry_space_group_name_H-M   'P 1'
_cell_length_a   9.23144526
_cell_length_b   9.23144526
_cell_length_c   9.23144526
_cell_angle_alpha   90.00000000
_cell_angle_beta   90.00000000
_cell_angle_gamma   90.00000000
_symmetry_Int_Tables_number   1
_chemical_formula_structural   TiCu
_chemical_formula_sum   'Ti27 Cu27'
_cell_volume   786.69990251
_cell_formula_units_Z   27
loop_
 _symmetry_equiv_pos_site_id
 _symmetry_equiv_pos_as_xyz
  1  'x, y, z'
loop_
 _atom_site_type_symbol
 _atom_site_label
 _atom_site_symmetry_multiplicity
 _atom_site_fract_x
 _atom_site_fract_y
 _atom_site_fract_z
 _atom_site_occupancy
  Ti  Ti0  1  0.00000000  -0.00000000  0.00000000  1
  Ti  Ti1  1  -0.00000000  -0.00000000  0.33333300  1
  Ti  Ti2  1  -0.00000000  -0.00000000  0.66666700  1
  Ti  Ti3  1  -0.00000000  0.33333300  -0.00000000  1
  Ti  Ti4  1  0.00000000  0.33333300  0.33333300  1
  Ti  Ti5  1  -0.00000000  0.33333300  0.66666700  1
  Ti  Ti6  1  -0.00000000  0.66666700  -0.00000000  1
  Ti  Ti7  1  -0.00000000  0.66666700  0.33333300  1
  Ti  Ti8  1  -0.00000000  0.66666700  0.66666700  1
  Ti  Ti9  1  0.33333300  0.00000000  0.00000000  1
  Ti  Ti10  1  0.33333300  -0.00000000  0.33333300  1
  Ti  Ti11  1  0.33333300  0.00000000  0.66666700  1
  Ti  Ti12  1  0.33333300  0.33333300  0.00000000  1
  Ti  Ti13  1  0.33333300  0.33333300  0.33333300  1
  Ti  Ti14  1  0.33333300  0.33333300  0.66666700  1
  Ti  Ti15  1  0.33333300  0.66666700  -0.00000000  1
  Ti  Ti16  1  0.33333300  0.66666700  0.33333300  1
  Ti  Ti17  1  0.33333300  0.66666700  0.66666700  1
  Ti  Ti18  1  0.66666700  0.00000000  0.00000000  1
  Ti  Ti19  1  0.66666700  0.00000000  0.33333300  1
  Ti  Ti20  1  0.66666700  0.00000000  0.66666700  1
  Ti  Ti21  1  0.66666700  0.33333300  -0.00000000  1
  Ti  Ti22  1  0.66666700  0.33333300  0.33333300  1
  Ti  Ti23  1  0.66666700  0.33333300  0.66666700  1
  Ti  Ti24  1  0.66666700  0.66666700  -0.00000000  1
  Ti  Ti25  1  0.66666700  0.66666700  0.33333300  1
  Ti  Ti26  1  0.66666700  0.66666700  0.66666700  1
  Cu  Cu27  1  0.16666700  0.16666700  0.16666700  1
  Cu  Cu28  1  0.16666700  0.16666700  0.50000000  1
  Cu  Cu29  1  0.16666700  0.16666700  0.83333300  1
  Cu  Cu30  1  0.16666700  0.50000000  0.16666700  1
  Cu  Cu31  1  0.16666700  0.50000000  0.50000000  1
  Cu  Cu32  1  0.16666700  0.50000000  0.83333300  1
  Cu  Cu33  1  0.16666700  0.83333300  0.16666700  1
  Cu  Cu34  1  0.16666700  0.83333300  0.50000000  1
  Cu  Cu35  1  0.16666700  0.83333300  0.83333300  1
  Cu  Cu36  1  0.50000000  0.16666700  0.16666700  1
  Cu  Cu37  1  0.50000000  0.16666700  0.50000000  1
  Cu  Cu38  1  0.50000000  0.16666700  0.83333300  1
  Cu  Cu39  1  0.50000000  0.50000000  0.16666700  1
  Cu  Cu40  1  0.50000000  0.50000000  0.50000000  1
  Cu  Cu41  1  0.50000000  0.50000000  0.83333300  1
  Cu  Cu42  1  0.50000000  0.83333300  0.16666700  1
  Cu  Cu43  1  0.50000000  0.83333300  0.50000000  1
  Cu  Cu44  1  0.50000000  0.83333300  0.83333300  1
  Cu  Cu45  1  0.83333300  0.16666700  0.16666700  1
  Cu  Cu46  1  0.83333300  0.16666700  0.50000000  1
  Cu  Cu47  1  0.83333300  0.16666700  0.83333300  1
  Cu  Cu48  1  0.83333300  0.50000000  0.16666700  1
  Cu  Cu49  1  0.83333300  0.50000000  0.50000000  1
  Cu  Cu50  1  0.83333300  0.50000000  0.83333300  1
  Cu  Cu51  1  0.83333300  0.83333300  0.16666700  1
  Cu  Cu52  1  0.83333300  0.83333300  0.50000000  1
  Cu  Cu53  1  0.83333300  0.83333300  0.83333300  1
