# generated using pymatgen
data_Li5Mn(CoO4)2
_symmetry_space_group_name_H-M   'P 1'
_cell_length_a   2.93937031
_cell_length_b   5.04463065
_cell_length_c   9.77151312
_cell_angle_alpha   78.06781147
_cell_angle_beta   90.00000000
_cell_angle_gamma   90.00000000
_symmetry_Int_Tables_number   1
_chemical_formula_structural   Li5Mn(CoO4)2
_chemical_formula_sum   'Li5 Mn1 Co2 O8'
_cell_volume   141.76167229
_cell_formula_units_Z   1
loop_
 _symmetry_equiv_pos_site_id
 _symmetry_equiv_pos_as_xyz
  1  'x, y, z'
loop_
 _atom_site_type_symbol
 _atom_site_label
 _atom_site_symmetry_multiplicity
 _atom_site_fract_x
 _atom_site_fract_y
 _atom_site_fract_z
 _atom_site_occupancy
  Li  Li0  1  -0.00000000  0.26783257  0.24869499  1
  Li  Li1  1  0.50000000  0.99725316  0.50062516  1
  Li  Li2  1  -0.00000000  0.74497689  0.74728113  1
  Li  Li3  1  0.50000000  0.50424696  0.00644599  1
  Li  Li4  1  0.50000000  0.73764775  0.24663268  1
  Mn  Mn5  1  0.00000000  0.98841435  0.00806959  1
  Co  Co6  1  -0.00000000  0.50641513  0.48833797  1
  Co  Co7  1  0.50000000  0.26446107  0.74814542  1
  O  O8  1  -0.00000000  0.83054771  0.39090132  1
  O  O9  1  0.50000000  0.61205913  0.62548399  1
  O  O10  1  0.00000000  0.35191953  0.87220833  1
  O  O11  1  0.50000000  0.11014054  0.11069081  1
  O  O12  1  -0.00000000  0.64667298  0.11621331  1
  O  O13  1  0.50000000  0.37425687  0.38451044  1
  O  O14  1  -0.00000000  0.16339517  0.62189481  1
  O  O15  1  0.50000000  0.89976020  0.88386406  1
