# generated using pymatgen
data_Na2V9MoH35(N2O19)2
_symmetry_space_group_name_H-M   'P 1'
_cell_length_a   9.09821914
_cell_length_b   10.69150238
_cell_length_c   11.25718306
_cell_angle_alpha   70.26338003
_cell_angle_beta   87.40188260
_cell_angle_gamma   64.76215802
_symmetry_Int_Tables_number   1
_chemical_formula_structural   Na2V9MoH35(N2O19)2
_chemical_formula_sum   'Na2 V9 Mo1 H35 N4 O38'
_cell_volume   926.03469928
_cell_formula_units_Z   1
loop_
 _symmetry_equiv_pos_site_id
 _symmetry_equiv_pos_as_xyz
  1  'x, y, z'
loop_
 _atom_site_type_symbol
 _atom_site_label
 _atom_site_symmetry_multiplicity
 _atom_site_fract_x
 _atom_site_fract_y
 _atom_site_fract_z
 _atom_site_occupancy
  Na  Na0  1  0.43511880  0.66460766  0.37528609  1
  Na  Na1  1  0.56773493  0.33525659  0.62402007  1
  V  V2  1  0.12317845  0.21575037  0.99875057  1
  V  V3  1  0.02574004  0.49450656  0.24666274  1
  V  V4  1  0.02742883  0.77910181  0.73228193  1
  V  V5  1  0.32098026  0.21373262  0.22281468  1
  V  V6  1  0.18146585  0.49865535  0.97956653  1
  V  V7  1  0.82083298  0.50113915  0.01926712  1
  V  V8  1  0.67920037  0.78155780  0.77480751  1
  V  V9  1  0.97510689  0.21336330  0.26010295  1
  V  V10  1  0.97452021  0.49755522  0.75628803  1
  Mo  Mo11  1  0.88052135  0.78969969  0.00061291  1
  H  H12  1  0.14358628  0.25167585  0.61042083  1
  H  H13  1  0.17152560  0.14991656  0.51581350  1
  H  H14  1  0.29448789  0.07384607  0.65328136  1
  H  H15  1  0.31474337  0.20479041  0.53316195  1
  H  H16  1  0.10209978  0.75751487  0.26372358  1
  H  H17  1  0.23773135  0.50671277  0.45147926  1
  H  H18  1  0.21611030  0.56202091  0.56486677  1
  H  H19  1  0.11904306  0.90400266  0.20324249  1
  H  H20  1  0.37585199  0.23535941  0.83440172  1
  H  H21  1  0.52112467  0.08190434  0.84266422  1
  H  H22  1  0.55944044  0.19151710  0.43350950  1
  H  H23  1  0.40358436  0.48669438  0.22892397  1
  H  H24  1  0.26509108  0.90028751  0.95198222  1
  H  H25  1  0.37037404  0.77656343  0.08829398  1
  H  H26  1  0.41985191  0.54709690  0.78237932  1
  H  H27  1  0.57722479  0.26851374  0.04092743  1
  H  H28  1  0.63810105  0.07428947  0.56841993  1
  H  H29  1  0.35868725  0.91995360  0.42935502  1
  H  H30  1  0.40867680  0.73800503  0.95795064  1
  H  H31  1  0.58791787  0.44862228  0.22499371  1
  H  H32  1  0.62105438  0.22551859  0.90922429  1
  H  H33  1  0.73487113  0.10407423  0.04842477  1
  H  H34  1  0.59443281  0.53439478  0.75521216  1
  H  H35  1  0.43719157  0.82349266  0.56872669  1
  H  H36  1  0.47414950  0.92126471  0.16218604  1
  H  H37  1  0.75142506  0.26333561  0.97741822  1
  H  H38  1  0.61543423  0.76747627  0.16860417  1
  H  H39  1  0.89500838  0.07814856  0.78829330  1
  H  H40  1  0.78159860  0.43552075  0.43414175  1
  H  H41  1  0.76828684  0.49240746  0.54580295  1
  H  H42  1  0.90558913  0.22819151  0.75123027  1
  H  H43  1  0.68986698  0.79012598  0.46905784  1
  H  H44  1  0.69905003  0.91972634  0.34222158  1
  H  H45  1  0.82857069  0.85449861  0.47403247  1
  H  H46  1  0.85609434  0.74491659  0.38694866  1
  N  N47  1  0.22869842  0.17111962  0.57839419  1
  N  N48  1  0.31677361  0.78985256  0.00437849  1
  N  N49  1  0.67178353  0.21544845  0.99477784  1
  N  N50  1  0.77064876  0.82648544  0.41813869  1
  O  O51  1  0.02319846  0.13651531  0.12788552  1
  O  O52  1  0.00448868  0.39184633  0.66999847  1
  O  O53  1  0.06281901  0.38440130  0.10143681  1
  O  O54  1  0.15778992  0.12265101  0.90334587  1
  O  O55  1  0.19834691  0.12512340  0.32078984  1
  O  O56  1  0.05465818  0.62952689  0.66787321  1
  O  O57  1  0.09601871  0.61843091  0.08622587  1
  O  O58  1  0.17663272  0.38122806  0.88217758  1
  O  O59  1  0.31982522  0.13504015  0.09746876  1
  O  O60  1  0.23900492  0.36473781  0.29476226  1
  O  O61  1  0.16377534  0.80932740  0.27417726  1
  O  O62  1  0.10095580  0.88010519  0.63218147  1
  O  O63  1  0.36113575  0.37084223  0.07659804  1
  O  O64  1  0.29968067  0.51446096  0.51507876  1
  O  O65  1  0.22268873  0.62454466  0.85483740  1
  O  O66  1  0.50968478  0.11361867  0.29321214  1
  O  O67  1  0.48345749  0.18951918  0.80658516  1
  O  O68  1  0.55183670  0.17439612  0.52414655  1
  O  O69  1  0.49528127  0.48503820  0.27223548  1
  O  O70  1  0.52087787  0.49015389  0.75208065  1
  O  O71  1  0.44476597  0.82332986  0.48177711  1
  O  O72  1  0.53748453  0.81837170  0.21865076  1
  O  O73  1  0.49101027  0.88453907  0.70357905  1
  O  O74  1  0.77379856  0.37614319  0.13949460  1
  O  O75  1  0.70263170  0.48091681  0.48768540  1
  O  O76  1  0.64363095  0.63024060  0.91989876  1
  O  O77  1  0.89725945  0.11524481  0.35848845  1
  O  O78  1  0.83001222  0.18572774  0.74983456  1
  O  O79  1  0.75904090  0.63228166  0.70390580  1
  O  O80  1  0.67882567  0.86933114  0.90033485  1
  O  O81  1  0.81936612  0.62454719  0.11617697  1
  O  O82  1  0.90257418  0.38331409  0.91325779  1
  O  O83  1  0.94166847  0.36718570  0.32826668  1
  O  O84  1  0.80114347  0.87228295  0.67828011  1
  O  O85  1  0.83984639  0.90008995  0.09247110  1
  O  O86  1  0.93465835  0.62335834  0.89559146  1
  O  O87  1  0.99472905  0.60336444  0.33082830  1
  O  O88  1  0.97638585  0.86831098  0.86411421  1
