# generated using pymatgen
data_Li3Mn(CoO3)2
_symmetry_space_group_name_H-M   'P 1'
_cell_length_a   2.94244454
_cell_length_b   7.82126196
_cell_length_c   5.08616695
_cell_angle_alpha   79.09218134
_cell_angle_beta   76.15333488
_cell_angle_gamma   81.86272641
_symmetry_Int_Tables_number   1
_chemical_formula_structural   Li3Mn(CoO3)2
_chemical_formula_sum   'Li3 Mn1 Co2 O6'
_cell_volume   111.02606017
_cell_formula_units_Z   1
loop_
 _symmetry_equiv_pos_site_id
 _symmetry_equiv_pos_as_xyz
  1  'x, y, z'
loop_
 _atom_site_type_symbol
 _atom_site_label
 _atom_site_symmetry_multiplicity
 _atom_site_fract_x
 _atom_site_fract_y
 _atom_site_fract_z
 _atom_site_occupancy
  Li  Li0  1  0.66165409  0.16797036  0.50409120  1
  Li  Li1  1  0.00501291  0.49869664  0.49590880  1
  Li  Li2  1  0.33333300  0.83333300  0.50000000  1
  Mn  Mn3  1  0.33333300  0.33333300  -0.00000000  1
  Co  Co4  1  0.00261442  0.00032157  0.99575859  1
  Co  Co5  1  0.66405258  0.66634543  0.00424141  1
  O  O6  1  0.33615296  0.08364148  0.22597403  1
  O  O7  1  0.64225183  0.41864604  0.23699270  1
  O  O8  1  0.00238851  0.74996486  0.22914587  1
  O  O9  1  0.02441517  0.24802096  0.76300730  1
  O  O10  1  0.33051404  0.58302552  0.77402597  1
  O  O11  1  0.66427749  0.91670114  0.77085413  1
