# generated using pymatgen
data_Li3Co2O5
_symmetry_space_group_name_H-M   'P 1'
_cell_length_a   2.99021256
_cell_length_b   7.82587702
_cell_length_c   7.94719995
_cell_angle_alpha   76.31791910
_cell_angle_beta   90.00000000
_cell_angle_gamma   101.01386745
_symmetry_Int_Tables_number   1
_chemical_formula_structural   Li3Co2O5
_chemical_formula_sum   'Li6 Co4 O10'
_cell_volume   177.16794825
_cell_formula_units_Z   2
loop_
 _symmetry_equiv_pos_site_id
 _symmetry_equiv_pos_as_xyz
  1  'x, y, z'
loop_
 _atom_site_type_symbol
 _atom_site_label
 _atom_site_symmetry_multiplicity
 _atom_site_fract_x
 _atom_site_fract_y
 _atom_site_fract_z
 _atom_site_occupancy
  Li  Li0  1  0.59814126  0.19628251  0.70428814  1
  Li  Li1  1  0.40000000  0.80000000  0.30000000  1
  Li  Li2  1  0.20185874  0.40371749  0.89571186  1
  Li  Li3  1  0.99744464  0.99488928  0.50915824  1
  Li  Li4  1  0.80255536  0.60511072  0.09084176  1
  Li  Li5  1  0.40000000  0.80000000  0.80000000  1
  Co  Co6  1  0.99479958  0.98959916  0.99519822  1
  Co  Co7  1  0.80520042  0.61040084  0.60480178  1
  Co  Co8  1  0.59955535  0.19911069  0.19916308  1
  Co  Co9  1  0.20044465  0.40088931  0.40083692  1
  O  O10  1  0.40766038  0.81532076  0.04672943  1
  O  O11  1  0.20478628  0.40957256  0.63681777  1
  O  O12  1  0.00418809  0.00837618  0.22977526  1
  O  O13  1  0.79858722  0.59717444  0.82656502  1
  O  O14  1  0.60185172  0.20370343  0.43916886  1
  O  O15  1  0.79581191  0.59162382  0.37022474  1
  O  O16  1  0.59521372  0.19042744  0.96318223  1
  O  O17  1  0.39233962  0.78467924  0.55327057  1
  O  O18  1  0.19814828  0.39629657  0.16083114  1
  O  O19  1  0.00141278  0.00282556  0.77343498  1
