# generated using pymatgen
data_Ca4Cu5(TeO6)3
_symmetry_space_group_name_H-M   'P 1'
_cell_length_a   9.29327041
_cell_length_b   9.29327036
_cell_length_c   10.60372991
_cell_angle_alpha   81.55832100
_cell_angle_beta   81.55831838
_cell_angle_gamma   60.08194129
_symmetry_Int_Tables_number   1
_chemical_formula_structural   Ca4Cu5(TeO6)3
_chemical_formula_sum   'Ca8 Cu10 Te6 O36'
_cell_volume   782.25449190
_cell_formula_units_Z   2
loop_
 _symmetry_equiv_pos_site_id
 _symmetry_equiv_pos_as_xyz
  1  'x, y, z'
loop_
 _atom_site_type_symbol
 _atom_site_label
 _atom_site_symmetry_multiplicity
 _atom_site_fract_x
 _atom_site_fract_y
 _atom_site_fract_z
 _atom_site_occupancy
  Ca  Ca0  1  0.86936086  0.51154520  0.35838644  1
  Ca  Ca1  1  0.47395061  0.54067167  0.22040427  1
  Ca  Ca2  1  0.48845480  0.13063914  0.64161356  1
  Ca  Ca3  1  0.45932833  0.52604939  0.77959573  1
  Ca  Ca4  1  0.14884086  0.86563479  0.72048456  1
  Ca  Ca5  1  0.12008603  0.26108770  0.85829202  1
  Ca  Ca6  1  0.73891230  0.87991397  0.14170798  1
  Ca  Ca7  1  0.13436521  0.85115914  0.27951544  1
  Cu  Cu8  1  0.77549246  0.54136627  0.99051815  1
  Cu  Cu9  1  0.15003784  0.16702100  0.49068906  1
  Cu  Cu10  1  0.34545424  0.31570158  0.31379525  1
  Cu  Cu11  1  0.92382606  0.73743747  0.81379512  1
  Cu  Cu12  1  0.68429842  0.65454576  0.68620475  1
  Cu  Cu13  1  0.95939388  0.04060612  0.00000000  1
  Cu  Cu14  1  0.64674160  0.35325840  0.50000000  1
  Cu  Cu15  1  0.26256253  0.07617494  0.18620488  1
  Cu  Cu16  1  0.83297900  0.84996216  0.50931094  1
  Cu  Cu17  1  0.45863373  0.22450754  0.00948185  1
  Te  Te18  1  0.44679034  0.87245083  0.94544381  1
  Te  Te19  1  0.80398157  0.19577352  0.25015981  1
  Te  Te20  1  0.80422648  0.19601843  0.74984019  1
  Te  Te21  1  0.48082416  0.83851885  0.44545028  1
  Te  Te22  1  0.16148115  0.51917584  0.55454972  1
  Te  Te23  1  0.12754917  0.55320966  0.05455619  1
  O  O24  1  0.39469995  0.07028832  0.83607148  1
  O  O25  1  0.74414626  0.42399230  0.79028276  1
  O  O26  1  0.58372946  0.61921039  0.54978276  1
  O  O27  1  0.76819950  0.08686013  0.41740243  1
  O  O28  1  0.57600770  0.25585374  0.20971724  1
  O  O29  1  0.91313987  0.23180050  0.58259757  1
  O  O30  1  0.39082348  0.76220193  0.33876029  1
  O  O31  1  0.01308017  0.09993171  0.83040471  1
  O  O32  1  0.59514672  0.29192460  0.66980703  1
  O  O33  1  0.12038426  0.39397529  0.42943553  1
  O  O34  1  0.55058884  0.67139142  0.06067952  1
  O  O35  1  0.48808996  0.99737797  0.07056730  1
  O  O36  1  0.86405785  0.96788619  0.70989920  1
  O  O37  1  0.68293543  0.74546218  0.85928592  1
  O  O38  1  0.32860858  0.44941116  0.93932048  1
  O  O39  1  0.21743458  0.62928044  0.16160164  1
  O  O40  1  0.05782650  0.72004313  0.43917144  1
  O  O41  1  0.25453782  0.31706457  0.14071408  1
  O  O42  1  0.38078961  0.41627054  0.45021724  1
  O  O43  1  0.27995687  0.94217350  0.56082856  1
  O  O44  1  0.67859956  0.78620398  0.33602995  1
  O  O45  1  0.92534260  0.64622076  0.64073041  1
  O  O46  1  0.90006829  0.98691983  0.16959529  1
  O  O47  1  0.37071956  0.78256542  0.83839836  1
  O  O48  1  0.02481734  0.77250647  0.95008878  1
  O  O49  1  0.69582125  0.15975110  0.91765831  1
  O  O50  1  0.00262203  0.51191004  0.92943270  1
  O  O51  1  0.23779807  0.60917652  0.66123971  1
  O  O52  1  0.03211381  0.13594215  0.29010080  1
  O  O53  1  0.35377924  0.07465740  0.35926959  1
  O  O54  1  0.21379602  0.32140044  0.66397005  1
  O  O55  1  0.84024890  0.30417875  0.08234169  1
  O  O56  1  0.70807540  0.40485328  0.33019297  1
  O  O57  1  0.60602471  0.87961574  0.57056447  1
  O  O58  1  0.22749353  0.97518266  0.04991122  1
  O  O59  1  0.92971168  0.60530005  0.16392852  1
