# generated using pymatgen
data_Li3Mn(CoO3)2
_symmetry_space_group_name_H-M   'P 1'
_cell_length_a   2.94924212
_cell_length_b   7.82561018
_cell_length_c   5.20402674
_cell_angle_alpha   110.06517846
_cell_angle_beta   91.56599721
_cell_angle_gamma   81.96900796
_symmetry_Int_Tables_number   1
_chemical_formula_structural   Li3Mn(CoO3)2
_chemical_formula_sum   'Li3 Mn1 Co2 O6'
_cell_volume   111.68296701
_cell_formula_units_Z   1
loop_
 _symmetry_equiv_pos_site_id
 _symmetry_equiv_pos_as_xyz
  1  'x, y, z'
loop_
 _atom_site_type_symbol
 _atom_site_label
 _atom_site_symmetry_multiplicity
 _atom_site_fract_x
 _atom_site_fract_y
 _atom_site_fract_z
 _atom_site_occupancy
  Li  Li0  1  0.83119124  0.33522937  0.50172759  1
  Li  Li1  1  0.16666700  0.66666700  0.50000000  1
  Li  Li2  1  0.50214176  0.99810363  0.49827241  1
  Mn  Mn3  1  0.66666700  0.66666700  0.00000000  1
  Co  Co4  1  0.99856017  0.00185422  0.00484488  1
  Co  Co5  1  0.33477283  0.33147878  0.99515512  1
  O  O6  1  0.41115379  0.15897844  0.22638091  1
  O  O7  1  0.74266503  0.49386245  0.22476270  1
  O  O8  1  0.05334553  0.83068848  0.23731230  1
  O  O9  1  0.27998747  0.50264452  0.76268770  1
  O  O10  1  0.59066897  0.83947155  0.77523730  1
  O  O11  1  0.92217921  0.17435456  0.77361909  1
