# generated using pymatgen
data_Zn4Cr5(TeO6)3
_symmetry_space_group_name_H-M   'P 1'
_cell_length_a   8.72837596
_cell_length_b   8.72837616
_cell_length_c   10.57415321
_cell_angle_alpha   85.33588484
_cell_angle_beta   85.33588545
_cell_angle_gamma   63.22635076
_symmetry_Int_Tables_number   1
_chemical_formula_structural   Zn4Cr5(TeO6)3
_chemical_formula_sum   'Zn8 Cr10 Te6 O36'
_cell_volume   715.93647125
_cell_formula_units_Z   2
loop_
 _symmetry_equiv_pos_site_id
 _symmetry_equiv_pos_as_xyz
  1  'x, y, z'
loop_
 _atom_site_type_symbol
 _atom_site_label
 _atom_site_symmetry_multiplicity
 _atom_site_fract_x
 _atom_site_fract_y
 _atom_site_fract_z
 _atom_site_occupancy
  Zn  Zn0  1  0.86392627  0.54448212  0.31667778  1
  Zn  Zn1  1  0.48221736  0.57321541  0.21395367  1
  Zn  Zn2  1  0.45551788  0.13607373  0.68332222  1
  Zn  Zn3  1  0.42678459  0.51778264  0.78604633  1
  Zn  Zn4  1  0.18137644  0.87390722  0.71386240  1
  Zn  Zn5  1  0.15288881  0.25573485  0.81660160  1
  Zn  Zn6  1  0.74426515  0.84711119  0.18339840  1
  Zn  Zn7  1  0.12609278  0.81862356  0.28613760  1
  Cr  Cr8  1  0.79622412  0.51165221  0.97828636  1
  Cr  Cr9  1  0.11988344  0.18806186  0.47809184  1
  Cr  Cr10  1  0.32735639  0.34275794  0.29190893  1
  Cr  Cr11  1  0.95096232  0.71898290  0.79191510  1
  Cr  Cr12  1  0.65724206  0.67264361  0.70809107  1
  Cr  Cr13  1  0.97538953  0.02461047  1.00000000  1
  Cr  Cr14  1  0.63320275  0.36679725  0.50000000  1
  Cr  Cr15  1  0.28101710  0.04903868  0.20808490  1
  Cr  Cr16  1  0.81193814  0.88011656  0.52190816  1
  Cr  Cr17  1  0.48834779  0.20377588  0.02171364  1
  Te  Te18  1  0.45010987  0.86105294  0.95786041  1
  Te  Te19  1  0.80412963  0.19568223  0.24997278  1
  Te  Te20  1  0.80431777  0.19587037  0.75002722  1
  Te  Te21  1  0.46931514  0.84197240  0.45792660  1
  Te  Te22  1  0.15802760  0.53068486  0.54207340  1
  Te  Te23  1  0.13894706  0.54989013  0.04213959  1
  O  O24  1  0.39520473  0.14022935  0.87256846  1
  O  O25  1  0.72292417  0.44649757  0.81393029  1
  O  O26  1  0.56247677  0.60806526  0.56270935  1
  O  O27  1  0.72400878  0.12724351  0.42987830  1
  O  O28  1  0.55350243  0.27707583  0.18606971  1
  O  O29  1  0.87275649  0.27599122  0.57012170  1
  O  O30  1  0.36130967  0.80846326  0.29201700  1
  O  O31  1  0.05007954  0.08863812  0.82616248  1
  O  O32  1  0.55859388  0.30298899  0.67403361  1
  O  O33  1  0.08709270  0.41776450  0.38934366  1
  O  O34  1  0.55489791  0.62746855  0.04599081  1
  O  O35  1  0.52128732  0.97398546  0.11042044  1
  O  O36  1  0.88542973  0.94505123  0.68620904  1
  O  O37  1  0.72498505  0.73603183  0.86730938  1
  O  O38  1  0.37253145  0.44510209  0.95400919  1
  O  O39  1  0.24714263  0.58330428  0.20807112  1
  O  O40  1  0.05316696  0.76443351  0.45401752  1
  O  O41  1  0.26396817  0.27501495  0.13269062  1
  O  O42  1  0.39193474  0.43752323  0.43729065  1
  O  O43  1  0.23556649  0.94683304  0.54598248  1
  O  O44  1  0.74830082  0.78681923  0.37266652  1
  O  O45  1  0.88319278  0.65559518  0.63279219  1
  O  O46  1  0.91136188  0.94992046  0.17383752  1
  O  O47  1  0.41669572  0.75285737  0.79192888  1
  O  O48  1  0.04594163  0.78365442  0.93710783  1
  O  O49  1  0.73573489  0.11622665  0.92923599  1
  O  O50  1  0.02601454  0.47871268  0.88957956  1
  O  O51  1  0.19153674  0.63869033  0.70798300  1
  O  O52  1  0.05494877  0.11457027  0.31379096  1
  O  O53  1  0.34440482  0.11680722  0.36720781  1
  O  O54  1  0.21318077  0.25169918  0.62733348  1
  O  O55  1  0.88377335  0.26426511  0.07076401  1
  O  O56  1  0.69701101  0.44140612  0.32596639  1
  O  O57  1  0.58223550  0.91290730  0.61065634  1
  O  O58  1  0.21634558  0.95405837  0.06289217  1
  O  O59  1  0.85977065  0.60479527  0.12743154  1
