# generated using pymatgen
data_Li4MnCo3O8
_symmetry_space_group_name_H-M   'P 1'
_cell_length_a   5.01484036
_cell_length_b   5.09477878
_cell_length_c   6.03953008
_cell_angle_alpha   88.81719536
_cell_angle_beta   87.96091953
_cell_angle_gamma   107.18031918
_symmetry_Int_Tables_number   1
_chemical_formula_structural   Li4MnCo3O8
_chemical_formula_sum   'Li4 Mn1 Co3 O8'
_cell_volume   147.24999989
_cell_formula_units_Z   1
loop_
 _symmetry_equiv_pos_site_id
 _symmetry_equiv_pos_as_xyz
  1  'x, y, z'
loop_
 _atom_site_type_symbol
 _atom_site_label
 _atom_site_symmetry_multiplicity
 _atom_site_fract_x
 _atom_site_fract_y
 _atom_site_fract_z
 _atom_site_occupancy
  Li  Li0  1  0.00000000  0.50000000  0.25000000  1
  Li  Li1  1  0.49993936  0.49964372  0.49753801  1
  Li  Li2  1  0.00000000  0.50000000  0.75000000  1
  Li  Li3  1  0.50006064  0.50035628  0.00246199  1
  Mn  Mn4  1  0.50000000  -0.00000000  0.75000000  1
  Co  Co5  1  -0.00090772  0.00023926  0.00310717  1
  Co  Co6  1  0.50000000  -0.00000000  0.25000000  1
  Co  Co7  1  0.00090772  0.99976074  0.49689283  1
  O  O8  1  0.75145459  0.22966216  0.02477485  1
  O  O9  1  0.25085253  0.22219757  0.24420177  1
  O  O10  1  0.75138693  0.23017238  0.51618954  1
  O  O11  1  0.24654018  0.22666489  0.74378641  1
  O  O12  1  0.24854541  0.77033784  0.47522515  1
  O  O13  1  0.75345982  0.77333511  0.75621359  1
  O  O14  1  0.24861307  0.76982762  0.98381046  1
  O  O15  1  0.74914747  0.77780243  0.25579823  1
