# generated using pymatgen
data_Li3MnCoO5
_symmetry_space_group_name_H-M   'P 1'
_cell_length_a   2.86798327
_cell_length_b   5.84986059
_cell_length_c   10.68393807
_cell_angle_alpha   97.85625091
_cell_angle_beta   97.48422296
_cell_angle_gamma   90.10390984
_symmetry_Int_Tables_number   1
_chemical_formula_structural   Li3MnCoO5
_chemical_formula_sum   'Li6 Mn2 Co2 O10'
_cell_volume   176.01742060
_cell_formula_units_Z   2
loop_
 _symmetry_equiv_pos_site_id
 _symmetry_equiv_pos_as_xyz
  1  'x, y, z'
loop_
 _atom_site_type_symbol
 _atom_site_label
 _atom_site_symmetry_multiplicity
 _atom_site_fract_x
 _atom_site_fract_y
 _atom_site_fract_z
 _atom_site_occupancy
  Li  Li0  1  0.01140548  0.50988672  0.01795092  1
  Li  Li1  1  0.60000000  0.30000000  0.20000000  1
  Li  Li2  1  0.40021697  0.69679535  0.80226982  1
  Li  Li3  1  0.79978303  0.90320465  0.59773018  1
  Li  Li4  1  0.18859452  0.09011328  0.38204908  1
  Li  Li5  1  0.60000000  0.80000000  0.20000000  1
  Mn  Mn6  1  0.01229772  0.00037218  0.01084516  1
  Mn  Mn7  1  0.18770228  0.59962782  0.38915484  1
  Co  Co8  1  0.78917118  0.39708256  0.59745025  1
  Co  Co9  1  0.41082882  0.20291744  0.80254975  1
  O  O10  1  0.50897060  0.22663175  0.00119939  1
  O  O11  1  0.09410245  0.04445501  0.18392715  1
  O  O12  1  0.90920217  0.42393942  0.79977907  1
  O  O13  1  0.28718607  0.62089912  0.59126819  1
  O  O14  1  0.69652059  0.82496917  0.40329982  1
  O  O15  1  0.50347941  0.77503083  0.99670018  1
  O  O16  1  0.10589755  0.55554499  0.21607285  1
  O  O17  1  0.91281393  0.97910088  0.80873181  1
  O  O18  1  0.29079783  0.17606058  0.60022093  1
  O  O19  1  0.69102940  0.37336825  0.39880061  1
