# generated using pymatgen
data_Li5Co3O8
_symmetry_space_group_name_H-M   'P 1'
_cell_length_a   2.88347012
_cell_length_b   9.63186711
_cell_length_c   5.05659004
_cell_angle_alpha   85.30724311
_cell_angle_beta   88.69612376
_cell_angle_gamma   82.30860830
_symmetry_Int_Tables_number   1
_chemical_formula_structural   Li5Co3O8
_chemical_formula_sum   'Li5 Co3 O8'
_cell_volume   138.69776135
_cell_formula_units_Z   1
loop_
 _symmetry_equiv_pos_site_id
 _symmetry_equiv_pos_as_xyz
  1  'x, y, z'
loop_
 _atom_site_type_symbol
 _atom_site_label
 _atom_site_symmetry_multiplicity
 _atom_site_fract_x
 _atom_site_fract_y
 _atom_site_fract_z
 _atom_site_occupancy
  Li  Li0  1  0.87567303  0.24439452  0.61820199  1
  Li  Li1  1  0.12432697  0.75560548  0.38179801  1
  Li  Li2  1  0.37879272  0.24367034  0.12414154  1
  Li  Li3  1  0.62120728  0.75632966  0.87585846  1
  Li  Li4  1  0.50000000  0.00000000  0.50000000  1
  Co  Co5  1  0.00000000  0.00000000  0.00000000  1
  Co  Co6  1  0.24925309  0.50076663  0.74988032  1
  Co  Co7  1  0.75074691  0.49923337  0.25011968  1
  O  O8  1  0.45442324  0.10904044  0.83358085  1
  O  O9  1  0.67689785  0.62011274  0.56981797  1
  O  O10  1  0.94231949  0.11056731  0.27324611  1
  O  O11  1  0.17860210  0.61668108  0.07430905  1
  O  O12  1  0.32310215  0.37988726  0.43018203  1
  O  O13  1  0.54557676  0.89095956  0.16641915  1
  O  O14  1  0.82139790  0.38331892  0.92569095  1
  O  O15  1  0.05768051  0.88943269  0.72675389  1
