# generated using pymatgen
data_Li3Co2O5
_symmetry_space_group_name_H-M   'P 1'
_cell_length_a   2.93565000
_cell_length_b   8.17780894
_cell_length_c   7.71025763
_cell_angle_alpha   75.42687729
_cell_angle_beta   97.57591603
_cell_angle_gamma   89.42587348
_symmetry_Int_Tables_number   1
_chemical_formula_structural   Li3Co2O5
_chemical_formula_sum   'Li6 Co4 O10'
_cell_volume   177.40253412
_cell_formula_units_Z   2
loop_
 _symmetry_equiv_pos_site_id
 _symmetry_equiv_pos_as_xyz
  1  'x, y, z'
loop_
 _atom_site_type_symbol
 _atom_site_label
 _atom_site_symmetry_multiplicity
 _atom_site_fract_x
 _atom_site_fract_y
 _atom_site_fract_z
 _atom_site_occupancy
  Li  Li0  1  0.78822069  0.10569128  0.59891203  1
  Li  Li1  1  0.00861417  0.48768159  0.00613989  1
  Li  Li2  1  0.19138583  0.91231841  0.39386011  1
  Li  Li3  1  0.41177931  0.29430872  0.80108797  1
  Li  Li4  1  0.60000000  0.70000000  0.20000000  1
  Li  Li5  1  0.60000000  0.20000000  0.20000000  1
  Co  Co6  1  0.00639873  0.01209867  0.00717205  1
  Co  Co7  1  0.19360127  0.38790133  0.39282795  1
  Co  Co8  1  0.40711767  0.80427559  0.79966089  1
  Co  Co9  1  0.79288233  0.59572441  0.60033911  1
  O  O10  1  0.38848091  0.04284403  0.81720106  1
  O  O11  1  0.57068215  0.44878053  0.21234055  1
  O  O12  1  0.79329113  0.84438319  0.61044468  1
  O  O13  1  0.00037355  0.22758819  0.99824791  1
  O  O14  1  0.19898164  0.62746760  0.41391763  1
  O  O15  1  0.19962645  0.17241181  0.40175209  1
  O  O16  1  0.40670887  0.55561681  0.78955532  1
  O  O17  1  0.62931785  0.95121947  0.18765945  1
  O  O18  1  0.81151909  0.35715597  0.58279894  1
  O  O19  1  0.00101836  0.77253240  0.98608237  1
