# generated using pymatgen
data_Li3MnCoO5
_symmetry_space_group_name_H-M   'P 1'
_cell_length_a   2.90567931
_cell_length_b   9.82868319
_cell_length_c   6.54096147
_cell_angle_alpha   101.60535207
_cell_angle_beta   77.02844998
_cell_angle_gamma   91.52606235
_symmetry_Int_Tables_number   1
_chemical_formula_structural   Li3MnCoO5
_chemical_formula_sum   'Li6 Mn2 Co2 O10'
_cell_volume   178.28136606
_cell_formula_units_Z   2
loop_
 _symmetry_equiv_pos_site_id
 _symmetry_equiv_pos_as_xyz
  1  'x, y, z'
loop_
 _atom_site_type_symbol
 _atom_site_label
 _atom_site_symmetry_multiplicity
 _atom_site_fract_x
 _atom_site_fract_y
 _atom_site_fract_z
 _atom_site_occupancy
  Li  Li0  1  0.90541827  0.30123656  0.18222813  1
  Li  Li1  1  0.10000000  0.70000000  0.80000000  1
  Li  Li2  1  0.51410926  0.49117374  0.99518500  1
  Li  Li3  1  0.68589074  0.90882626  0.60481500  1
  Li  Li4  1  0.29458173  0.09876344  0.41777187  1
  Li  Li5  1  0.60000000  0.20000000  0.80000000  1
  Mn  Mn6  1  0.99495785  0.00559948  0.98990562  1
  Mn  Mn7  1  0.20504215  0.39440052  0.61009438  1
  Co  Co8  1  0.38938192  0.80184411  0.20383470  1
  Co  Co9  1  0.81061808  0.59815589  0.39616530  1
  O  O10  1  0.45351524  0.13171981  0.09198565  1
  O  O11  1  0.67759896  0.53432965  0.68535675  1
  O  O12  1  0.06342118  0.35622297  0.87940414  1
  O  O13  1  0.24262666  0.73770968  0.49024184  1
  O  O14  1  0.83000183  0.94403028  0.28314711  1
  O  O15  1  0.36999817  0.45596972  0.31685289  1
  O  O16  1  0.52240104  0.86567035  0.91464325  1
  O  O17  1  0.95737334  0.66229032  0.10975816  1
  O  O18  1  0.13657882  0.04377703  0.72059586  1
  O  O19  1  0.74648476  0.26828019  0.50801435  1
