# generated using pymatgen
data_Li4Co3O7
_symmetry_space_group_name_H-M   'P 1'
_cell_length_a   2.98618669
_cell_length_b   16.97811668
_cell_length_c   5.07164163
_cell_angle_alpha   94.87278310
_cell_angle_beta   75.39895982
_cell_angle_gamma   91.74374199
_symmetry_Int_Tables_number   1
_chemical_formula_structural   Li4Co3O7
_chemical_formula_sum   'Li8 Co6 O14'
_cell_volume   247.91702657
_cell_formula_units_Z   2
loop_
 _symmetry_equiv_pos_site_id
 _symmetry_equiv_pos_as_xyz
  1  'x, y, z'
loop_
 _atom_site_type_symbol
 _atom_site_label
 _atom_site_symmetry_multiplicity
 _atom_site_fract_x
 _atom_site_fract_y
 _atom_site_fract_z
 _atom_site_occupancy
  Li  Li0  1  0.72092332  0.07070171  0.57357311  1
  Li  Li1  1  0.13941398  0.21456211  0.71634031  1
  Li  Li2  1  0.57142900  0.35714300  0.85714300  1
  Li  Li3  1  0.00344302  0.49972389  0.99794569  1
  Li  Li4  1  0.42193368  0.64358429  0.14071289  1
  Li  Li5  1  0.86524863  0.78563276  0.27261203  1
  Li  Li6  1  0.27760837  0.92865224  0.44167297  1
  Li  Li7  1  0.57142900  0.85714300  0.85714300  1
  Co  Co8  1  0.00361308  0.99414516  0.99842210  1
  Co  Co9  1  0.13924392  0.72014084  0.71586390  1
  Co  Co10  1  0.41690876  0.14186018  0.14330268  1
  Co  Co11  1  0.85099996  0.28475013  0.28400954  1
  Co  Co12  1  0.29185704  0.42953487  0.43027546  1
  Co  Co13  1  0.72594824  0.57242582  0.57098332  1
  O  O14  1  0.33968968  0.03937133  0.26498944  1
  O  O15  1  0.74269538  0.18011273  0.41540191  1
  O  O16  1  0.22157076  0.32491211  0.55851505  1
  O  O17  1  0.66625327  0.46899196  0.69893614  1
  O  O18  1  0.06013793  0.61290520  0.82703014  1
  O  O19  1  0.47564330  0.74704995  0.97426727  1
  O  O20  1  0.92728180  0.90351842  0.14246559  1
  O  O21  1  0.08271907  0.10138080  0.88725586  1
  O  O22  1  0.47660373  0.24529304  0.01534886  1
  O  O23  1  0.92128624  0.38937289  0.15576995  1
  O  O24  1  0.40016162  0.53417327  0.29888409  1
  O  O25  1  0.80316732  0.67491467  0.44929656  1
  O  O26  1  0.21557620  0.81076758  0.57182041  1
  O  O27  1  0.66721370  0.96723605  0.74001873  1
