# generated using pymatgen
data_Li3Co2O5
_symmetry_space_group_name_H-M   'P 1'
_cell_length_a   2.94310237
_cell_length_b   12.01685281
_cell_length_c   5.07411151
_cell_angle_alpha   84.88125067
_cell_angle_beta   91.22957414
_cell_angle_gamma   85.54712122
_symmetry_Int_Tables_number   1
_chemical_formula_structural   Li3Co2O5
_chemical_formula_sum   'Li6 Co4 O10'
_cell_volume   178.12720589
_cell_formula_units_Z   2
loop_
 _symmetry_equiv_pos_site_id
 _symmetry_equiv_pos_as_xyz
  1  'x, y, z'
loop_
 _atom_site_type_symbol
 _atom_site_label
 _atom_site_symmetry_multiplicity
 _atom_site_fract_x
 _atom_site_fract_y
 _atom_site_fract_z
 _atom_site_occupancy
  Li  Li0  1  0.90000000  0.20000000  0.30000000  1
  Li  Li1  1  0.31068953  0.39900591  0.09843787  1
  Li  Li2  1  0.70506846  0.59861977  0.89985135  1
  Li  Li3  1  0.09493154  0.80138023  0.70014865  1
  Li  Li4  1  0.48931047  0.00099409  0.50156213  1
  Li  Li5  1  0.40000000  0.20000000  0.80000000  1
  Co  Co6  1  0.99327492  0.00910903  0.98789245  1
  Co  Co7  1  0.80672508  0.39089097  0.61210755  1
  Co  Co8  1  0.20383618  0.59844639  0.40956640  1
  Co  Co9  1  0.59616382  0.80155361  0.19043360  1
  O  O10  1  0.41809785  0.09296149  0.14422566  1
  O  O11  1  0.84587603  0.31014595  0.91715939  1
  O  O12  1  0.22450053  0.49454114  0.73683838  1
  O  O13  1  0.64192244  0.69735504  0.53437419  1
  O  O14  1  0.04124049  0.90083830  0.31131336  1
  O  O15  1  0.38190215  0.30703851  0.45577434  1
  O  O16  1  0.75875951  0.49916170  0.28868664  1
  O  O17  1  0.15807756  0.70264496  0.06562581  1
  O  O18  1  0.57549947  0.90545886  0.86316162  1
  O  O19  1  0.95412397  0.08985405  0.68284061  1
