# generated using pymatgen
data_Li4MnCo3O8
_symmetry_space_group_name_H-M   'P 1'
_cell_length_a   5.01265555
_cell_length_b   5.88955986
_cell_length_c   5.98300798
_cell_angle_alpha   61.30345092
_cell_angle_beta   76.68710087
_cell_angle_gamma   73.86914244
_symmetry_Int_Tables_number   1
_chemical_formula_structural   Li4MnCo3O8
_chemical_formula_sum   'Li4 Mn1 Co3 O8'
_cell_volume   147.85095528
_cell_formula_units_Z   1
loop_
 _symmetry_equiv_pos_site_id
 _symmetry_equiv_pos_as_xyz
  1  'x, y, z'
loop_
 _atom_site_type_symbol
 _atom_site_label
 _atom_site_symmetry_multiplicity
 _atom_site_fract_x
 _atom_site_fract_y
 _atom_site_fract_z
 _atom_site_occupancy
  Li  Li0  1  0.50000000  0.25000000  0.25000000  1
  Li  Li1  1  0.00693565  0.49602764  0.00151772  1
  Li  Li2  1  0.99306435  0.00397236  0.49848228  1
  Li  Li3  1  0.50000000  0.75000000  0.75000000  1
  Mn  Mn4  1  0.50000000  0.75000000  0.25000000  1
  Co  Co5  1  -0.00091132  0.00248499  0.99751197  1
  Co  Co6  1  0.50000000  0.25000000  0.75000000  1
  Co  Co7  1  0.00091132  0.49751501  0.50248803  1
  O  O8  1  0.74830272  0.36470780  0.85879231  1
  O  O9  1  0.24749704  0.59049896  0.63950824  1
  O  O10  1  0.24755384  0.09874197  0.13200491  1
  O  O11  1  0.75257927  0.86647438  0.35983836  1
  O  O12  1  0.25169728  0.13529220  0.64120769  1
  O  O13  1  0.75244616  0.40125803  0.36799509  1
  O  O14  1  0.75250296  0.90950104  0.86049176  1
  O  O15  1  0.24742073  0.63352562  0.14016164  1
