# generated using pymatgen
data_Li7Co5O12
_symmetry_space_group_name_H-M   'P 1'
_cell_length_a   2.98952860
_cell_length_b   7.52483608
_cell_length_c   9.73269528
_cell_angle_alpha   90.94320478
_cell_angle_beta   82.27953516
_cell_angle_gamma   79.67578760
_symmetry_Int_Tables_number   1
_chemical_formula_structural   Li7Co5O12
_chemical_formula_sum   'Li7 Co5 O12'
_cell_volume   213.26194187
_cell_formula_units_Z   1
loop_
 _symmetry_equiv_pos_site_id
 _symmetry_equiv_pos_as_xyz
  1  'x, y, z'
loop_
 _atom_site_type_symbol
 _atom_site_label
 _atom_site_symmetry_multiplicity
 _atom_site_fract_x
 _atom_site_fract_y
 _atom_site_fract_z
 _atom_site_occupancy
  Li  Li0  1  0.74800455  0.25229144  0.24843007  1
  Li  Li1  1  0.91452571  0.41229700  0.75300200  1
  Li  Li2  1  0.08826459  0.58429894  0.24313731  1
  Li  Li3  1  0.24506841  0.74903406  0.75686269  1
  Li  Li4  1  0.41880829  0.92103700  0.24699800  1
  Li  Li5  1  0.58532845  0.08104156  0.75156993  1
  Li  Li6  1  0.66666700  0.66666700  0.00000000  1
  Co  Co7  1  0.01608423  0.98985321  -0.00263297  1
  Co  Co8  1  0.31724877  0.34347979  0.00263297  1
  Co  Co9  1  0.16666700  0.16666700  0.50000000  1
  Co  Co10  1  0.50201213  0.50020659  0.50072301  1
  Co  Co11  1  0.83132087  0.83312641  0.49927699  1
  O  O12  1  0.35010369  0.13536494  0.10815717  1
  O  O13  1  0.55860263  0.29222689  0.61669528  1
  O  O14  1  0.67590431  0.44912409  0.11543385  1
  O  O15  1  0.88645361  0.62642325  0.61756370  1
  O  O16  1  0.03635386  0.81960139  0.11497842  1
  O  O17  1  0.21579290  0.95933138  0.61518961  1
  O  O18  1  0.11754010  0.37400162  0.38481039  1
  O  O19  1  0.29698014  0.51373261  0.88502158  1
  O  O20  1  0.44687939  0.70690975  0.38243630  1
  O  O21  1  0.65742869  0.88420891  0.88456615  1
  O  O22  1  0.77473137  0.04110711  0.38330472  1
  O  O23  1  0.98322931  0.19796806  0.89184283  1
