# generated using pymatgen
data_Li4MnCo3O8
_symmetry_space_group_name_H-M   'P 1'
_cell_length_a   2.91759839
_cell_length_b   6.67681568
_cell_length_c   7.80731058
_cell_angle_alpha   93.87728657
_cell_angle_beta   79.23096471
_cell_angle_gamma   102.62019362
_symmetry_Int_Tables_number   1
_chemical_formula_structural   Li4MnCo3O8
_chemical_formula_sum   'Li4 Mn1 Co3 O8'
_cell_volume   145.74322972
_cell_formula_units_Z   1
loop_
 _symmetry_equiv_pos_site_id
 _symmetry_equiv_pos_as_xyz
  1  'x, y, z'
loop_
 _atom_site_type_symbol
 _atom_site_label
 _atom_site_symmetry_multiplicity
 _atom_site_fract_x
 _atom_site_fract_y
 _atom_site_fract_z
 _atom_site_occupancy
  Li  Li0  1  0.12611317  0.87273712  0.62051078  1
  Li  Li1  1  0.37388683  0.62726288  0.87948922  1
  Li  Li2  1  0.62317168  0.37989512  0.13355176  1
  Li  Li3  1  0.87682832  0.12010488  0.36644824  1
  Mn  Mn4  1  0.75000000  0.25000000  0.75000000  1
  Co  Co5  1  0.99385042  0.99332500  0.00562416  1
  Co  Co6  1  0.25000000  0.75000000  0.25000000  1
  Co  Co7  1  0.50614958  0.50667500  0.49437584  1
  O  O8  1  0.19472863  0.30415140  0.91469415  1
  O  O9  1  0.43561396  0.05298082  0.18175289  1
  O  O10  1  0.68995588  0.80970121  0.42978944  1
  O  O11  1  0.92743031  0.53712961  0.68226899  1
  O  O12  1  0.06438604  0.44701918  0.31824711  1
  O  O13  1  0.30527137  0.19584860  0.58530585  1
  O  O14  1  0.57256969  0.96287039  0.81773101  1
  O  O15  1  0.81004412  0.69029879  0.07021056  1
