# generated using pymatgen
data_Li7Mn2(CoO4)3
_symmetry_space_group_name_H-M   'P 1'
_cell_length_a   2.92787999
_cell_length_b   12.02349385
_cell_length_c   6.45517612
_cell_angle_alpha   104.93964880
_cell_angle_beta   76.69682719
_cell_angle_gamma   85.89658197
_symmetry_Int_Tables_number   1
_chemical_formula_structural   Li7Mn2(CoO4)3
_chemical_formula_sum   'Li7 Mn2 Co3 O12'
_cell_volume   211.59078927
_cell_formula_units_Z   1
loop_
 _symmetry_equiv_pos_site_id
 _symmetry_equiv_pos_as_xyz
  1  'x, y, z'
loop_
 _atom_site_type_symbol
 _atom_site_label
 _atom_site_symmetry_multiplicity
 _atom_site_fract_x
 _atom_site_fract_y
 _atom_site_fract_z
 _atom_site_occupancy
  Li  Li0  1  0.74520506  0.25274110  0.25440066  1
  Li  Li1  1  0.74039410  0.59002031  0.91740534  1
  Li  Li2  1  0.25479494  0.41392590  0.07893234  1
  Li  Li3  1  0.25092683  0.74733605  0.76516396  1
  Li  Li4  1  0.74907317  0.91933095  0.56816904  1
  Li  Li5  1  0.25960590  0.07664569  0.41592866  1
  Li  Li6  1  0.50000000  0.83333300  0.16666700  1
  Mn  Mn7  1  0.00554631  0.99612188  0.00528087  1
  Mn  Mn8  1  0.99445369  0.67054512  0.32805213  1
  Co  Co9  1  0.00000000  0.33333300  0.66666700  1
  Co  Co10  1  0.48673492  0.50048050  0.50332790  1
  Co  Co11  1  0.51326508  0.16618650  0.83000510  1
  O  O12  1  0.41527099  0.11461118  0.09879907  1
  O  O13  1  0.35718358  0.45201015  0.77090403  1
  O  O14  1  0.85892512  0.28772892  0.94281353  1
  O  O15  1  0.85046183  0.61888018  0.60649098  1
  O  O16  1  0.40029163  0.77574044  0.44641338  1
  O  O17  1  0.87553832  0.96520672  0.27401059  1
  O  O18  1  0.14107488  0.37893808  0.39051947  1
  O  O19  1  0.12446168  0.70145928  0.05932341  1
  O  O20  1  0.58472901  0.55205582  0.23453393  1
  O  O21  1  0.59970837  0.89092656  0.88691962  1
  O  O22  1  0.14953817  0.04778682  0.72684202  1
  O  O23  1  0.64281642  0.21465585  0.56242997  1
