# generated using pymatgen
data_Li4MnCo2O7
_symmetry_space_group_name_H-M   'P 1'
_cell_length_a   2.93584564
_cell_length_b   10.64617690
_cell_length_c   8.12132432
_cell_angle_alpha   78.31894370
_cell_angle_beta   89.02752730
_cell_angle_gamma   85.09262173
_symmetry_Int_Tables_number   1
_chemical_formula_structural   Li4MnCo2O7
_chemical_formula_sum   'Li8 Mn2 Co4 O14'
_cell_volume   247.66807667
_cell_formula_units_Z   2
loop_
 _symmetry_equiv_pos_site_id
 _symmetry_equiv_pos_as_xyz
  1  'x, y, z'
loop_
 _atom_site_type_symbol
 _atom_site_label
 _atom_site_symmetry_multiplicity
 _atom_site_fract_x
 _atom_site_fract_y
 _atom_site_fract_z
 _atom_site_occupancy
  Li  Li0  1  0.85329813  0.28966289  0.92958289  1
  Li  Li1  1  0.14834554  0.71351757  0.08403796  1
  Li  Li2  1  0.43762727  0.13652553  0.21976257  1
  Li  Li3  1  0.28956318  0.42462145  0.64184933  1
  Li  Li4  1  0.57142385  0.85714305  0.78570828  1
  Li  Li5  1  0.70522337  0.57775755  0.35167762  1
  Li  Li6  1  0.99451646  0.00076730  0.48738996  1
  Li  Li7  1  0.57142739  0.85714669  0.28570096  1
  Mn  Mn8  1  0.00793892  0.99761201  0.00762267  1
  Mn  Mn9  1  0.13491867  0.71667141  0.56379978  1
  Co  Co10  1  0.28555766  0.42892395  0.14329576  1
  Co  Co11  1  0.85730698  0.28536177  0.42813575  1
  Co  Co12  1  0.44186467  0.14125507  0.71235807  1
  Co  Co13  1  0.70098126  0.57303176  0.85907061  1
  O  O14  1  0.46041899  0.12858823  0.95583838  1
  O  O15  1  0.68952170  0.56474542  0.09714897  1
  O  O16  1  0.99161213  0.00496780  0.23067313  1
  O  O17  1  0.83428563  0.27958235  0.67001584  1
  O  O18  1  0.10937009  0.70537858  0.81474364  1
  O  O19  1  0.25748651  0.41972555  0.38419802  1
  O  O20  1  0.59709088  0.83864036  0.54158904  1
  O  O21  1  0.30856367  0.43469789  0.90141773  1
  O  O22  1  0.54575778  0.87565052  0.02983562  1
  O  O23  1  0.88534844  0.29455384  0.18723967  1
  O  O24  1  0.68242863  0.58569877  0.61558418  1
  O  O25  1  0.03350650  0.00890649  0.75668614  1
  O  O26  1  0.15126561  0.70932151  0.34075608  1
  O  O27  1  0.45335011  0.14954467  0.47428134  1
