# generated using pymatgen
data_Li7Mn2(CoO4)3
_symmetry_space_group_name_H-M   'P 1'
_cell_length_a   2.92722782
_cell_length_b   8.12770209
_cell_length_c   9.74696548
_cell_angle_alpha   65.81151060
_cell_angle_beta   93.01258308
_cell_angle_gamma   90.90198637
_symmetry_Int_Tables_number   1
_chemical_formula_structural   Li7Mn2(CoO4)3
_chemical_formula_sum   'Li7 Mn2 Co3 O12'
_cell_volume   211.23971952
_cell_formula_units_Z   1
loop_
 _symmetry_equiv_pos_site_id
 _symmetry_equiv_pos_as_xyz
  1  'x, y, z'
loop_
 _atom_site_type_symbol
 _atom_site_label
 _atom_site_symmetry_multiplicity
 _atom_site_fract_x
 _atom_site_fract_y
 _atom_site_fract_z
 _atom_site_occupancy
  Li  Li0  1  0.99590902  0.84297023  0.33404902  1
  Li  Li1  1  0.49688113  0.33386458  0.83997906  1
  Li  Li2  1  0.50311887  0.99946842  0.49335394  1
  Li  Li3  1  0.00409098  0.49036277  0.99928398  1
  Li  Li4  1  0.00000000  0.16666700  0.66666700  1
  Li  Li5  1  0.50000000  0.66666700  0.16666700  1
  Li  Li6  1  0.50000000  0.16666700  0.16666700  1
  Mn  Mn7  1  0.99626374  0.00645061  0.00321677  1
  Mn  Mn8  1  0.00373626  0.32688239  0.33011623  1
  Co  Co9  1  0.50689682  0.50312456  0.49799234  1
  Co  Co10  1  0.00000000  0.66666700  0.66666700  1
  Co  Co11  1  0.49310318  0.83020844  0.83534066  1
  O  O12  1  0.51495329  0.92576931  0.14642914  1
  O  O13  1  0.97052109  0.43184737  0.65598148  1
  O  O14  1  0.99433651  0.09790928  0.33870862  1
  O  O15  1  0.47279946  0.59804795  0.82464155  1
  O  O16  1  0.51892295  0.26817946  0.48429519  1
  O  O17  1  0.96602797  0.76440849  0.99050260  1
  O  O18  1  0.52720054  0.73528505  0.50869145  1
  O  O19  1  0.00566349  0.23542372  0.99462438  1
  O  O20  1  0.02947891  0.90148563  0.67735152  1
  O  O21  1  0.48504671  0.40756369  0.18690386  1
  O  O22  1  0.48107705  0.06515454  0.84903881  1
  O  O23  1  0.03397203  0.56892551  0.34283140  1
