# generated using pymatgen
data_Li5Mn2CoO8
_symmetry_space_group_name_H-M   'P 1'
_cell_length_a   2.92327875
_cell_length_b   5.15175492
_cell_length_c   9.83201681
_cell_angle_alpha   78.89928747
_cell_angle_beta   90.00000000
_cell_angle_gamma   90.00000000
_symmetry_Int_Tables_number   1
_chemical_formula_structural   Li5Mn2CoO8
_chemical_formula_sum   'Li5 Mn2 Co1 O8'
_cell_volume   145.29997147
_cell_formula_units_Z   1
loop_
 _symmetry_equiv_pos_site_id
 _symmetry_equiv_pos_as_xyz
  1  'x, y, z'
loop_
 _atom_site_type_symbol
 _atom_site_label
 _atom_site_symmetry_multiplicity
 _atom_site_fract_x
 _atom_site_fract_y
 _atom_site_fract_z
 _atom_site_occupancy
  Li  Li0  1  0.00000000  0.25525921  0.26375382  1
  Li  Li1  1  0.50000000  0.99754987  0.51655096  1
  Li  Li2  1  0.00000000  0.75237041  0.73419283  1
  Li  Li3  1  0.50000000  0.49539180  0.99047248  1
  Li  Li4  1  0.00000000  0.49308073  0.50178220  1
  Mn  Mn5  1  0.00000000  0.00437580  0.99867516  1
  Mn  Mn6  1  0.50000000  0.73836796  0.25716914  1
  Co  Co7  1  0.50000000  0.27614908  0.72994035  1
  O  O8  1  0.00000000  0.86282919  0.35514682  1
  O  O9  1  0.50000000  0.60819093  0.63502076  1
  O  O10  1  0.00000000  0.33996014  0.88371000  1
  O  O11  1  0.50000000  0.09897011  0.11504656  1
  O  O12  1  -0.00000000  0.65614746  0.13095916  1
  O  O13  1  0.50000000  0.40711416  0.35877698  1
  O  O14  1  0.00000000  0.12362374  0.63433589  1
  O  O15  1  0.50000000  0.89061941  0.89446692  1
