# generated using pymatgen
data_Li4MnCo2O7
_symmetry_space_group_name_H-M   'P 1'
_cell_length_a   5.13086244
_cell_length_b   5.87826532
_cell_length_c   8.60315162
_cell_angle_alpha   88.34973680
_cell_angle_beta   94.56918455
_cell_angle_gamma   71.19771922
_symmetry_Int_Tables_number   1
_chemical_formula_structural   Li4MnCo2O7
_chemical_formula_sum   'Li8 Mn2 Co4 O14'
_cell_volume   244.44042854
_cell_formula_units_Z   2
loop_
 _symmetry_equiv_pos_site_id
 _symmetry_equiv_pos_as_xyz
  1  'x, y, z'
loop_
 _atom_site_type_symbol
 _atom_site_label
 _atom_site_symmetry_multiplicity
 _atom_site_fract_x
 _atom_site_fract_y
 _atom_site_fract_z
 _atom_site_occupancy
  Li  Li0  1  0.14071894  0.21609178  0.28878228  1
  Li  Li1  1  0.28580989  0.92562925  0.56472069  1
  Li  Li2  1  0.71787622  0.06575892  0.42470244  1
  Li  Li3  1  0.86168578  0.78112501  0.70982857  1
  Li  Li4  1  0.42742861  0.63908252  0.85599669  1
  Li  Li5  1  0.99711727  0.50370848  0.00548395  1
  Li  Li6  1  0.56888766  0.36912244  0.15161063  1
  Li  Li7  1  0.14264625  0.71356887  0.28676766  1
  Mn  Mn8  1  0.00169709  0.99605800  0.00458999  1
  Mn  Mn9  1  0.42775972  0.14484643  0.85595707  1
  Co  Co10  1  0.28425469  0.43129834  0.56748158  1
  Co  Co11  1  0.57309463  0.85388861  0.14657254  1
  Co  Co12  1  0.71401382  0.57145129  0.42831659  1
  Co  Co13  1  0.85674993  0.28686816  0.71201915  1
  O  O14  1  0.84189864  0.02461043  0.19700263  1
  O  O15  1  0.99284732  0.71488547  0.49526974  1
  O  O16  1  0.45870415  0.87190380  0.35266758  1
  O  O17  1  0.59716898  0.59426208  0.63723050  1
  O  O18  1  0.16171586  0.45104485  0.77778057  1
  O  O19  1  0.74249881  0.31083366  0.92240055  1
  O  O20  1  0.27840545  0.15563491  0.06494235  1
  O  O21  1  0.44382032  0.41324008  0.37495113  1
  O  O22  1  0.54969920  0.12590499  0.64686020  1
  O  O23  1  0.97478874  0.26245459  0.50423023  1
  O  O24  1  0.11571512  0.97688731  0.78937635  1
  O  O25  1  0.72191084  0.84385196  0.93932927  1
  O  O26  1  0.29076821  0.70531659  0.07010836  1
  O  O27  1  0.83031787  0.55067116  0.22502069  1
