# generated using pymatgen
data_Li4MnCo2O7
_symmetry_space_group_name_H-M   'P 1'
_cell_length_a   5.18520685
_cell_length_b   10.26620663
_cell_length_c   5.20869234
_cell_angle_alpha   104.69547192
_cell_angle_beta   67.73381013
_cell_angle_gamma   95.51592952
_symmetry_Int_Tables_number   1
_chemical_formula_structural   Li4MnCo2O7
_chemical_formula_sum   'Li8 Mn2 Co4 O14'
_cell_volume   248.20224690
_cell_formula_units_Z   2
loop_
 _symmetry_equiv_pos_site_id
 _symmetry_equiv_pos_as_xyz
  1  'x, y, z'
loop_
 _atom_site_type_symbol
 _atom_site_label
 _atom_site_symmetry_multiplicity
 _atom_site_fract_x
 _atom_site_fract_y
 _atom_site_fract_z
 _atom_site_occupancy
  Li  Li0  1  0.50000000  0.14625154  0.07312627  1
  Li  Li1  1  0.50000000  0.28362173  0.64181087  1
  Li  Li2  1  0.50000000  0.43110527  0.21555314  1
  Li  Li3  1  0.50000000  0.57462013  0.78730956  1
  Li  Li4  1  0.50000000  0.71371782  0.35685891  1
  Li  Li5  1  0.50000000  0.85096850  0.92548375  1
  Li  Li6  1  0.50000000  0.99912227  0.49956114  1
  Li  Li7  1  0.00000000  0.71175292  0.85587646  1
  Mn  Mn8  1  1.00000000  -0.00015327  -0.00007663  1
  Mn  Mn9  1  1.00000000  0.85502638  0.42751269  1
  Co  Co10  1  0.00000000  0.14352582  0.57176341  1
  Co  Co11  1  0.00000000  0.28826171  0.14413085  1
  Co  Co12  1  0.00000000  0.42833373  0.71416737  1
  Co  Co13  1  0.00000000  0.56966253  0.28483077  1
  O  O14  1  0.22940686  0.14817118  0.84746954  1
  O  O15  1  0.22338952  0.28584996  0.41825742  1
  O  O16  1  0.23007056  0.43059195  0.99259059  1
  O  O17  1  0.20475602  0.56341086  0.52356061  1
  O  O18  1  0.23526106  0.71159721  0.13668454  1
  O  O19  1  0.21407447  0.86300956  0.67165815  1
  O  O20  1  0.23417832  0.99946073  0.27633035  1
  O  O21  1  0.77059314  0.14817118  0.30070265  1
  O  O22  1  0.77661048  0.28584996  0.86759254  1
  O  O23  1  0.76992944  0.43059195  0.43800236  1
  O  O24  1  0.79524398  0.56341086  0.03984926  1
  O  O25  1  0.76473894  0.71159721  0.57491266  1
  O  O26  1  0.78592553  0.86300956  0.19135041  1
  O  O27  1  0.76582168  0.99946073  0.72313039  1
