# generated using pymatgen
data_Mg2Nb2TeO8
_symmetry_space_group_name_H-M   'P 1'
_cell_length_a   5.21450046
_cell_length_b   6.16744124
_cell_length_c   11.42600863
_cell_angle_alpha   101.95547765
_cell_angle_beta   96.17733033
_cell_angle_gamma   89.79351435
_symmetry_Int_Tables_number   1
_chemical_formula_structural   Mg2Nb2TeO8
_chemical_formula_sum   'Mg4 Nb4 Te2 O16'
_cell_volume   357.33788866
_cell_formula_units_Z   2
loop_
 _symmetry_equiv_pos_site_id
 _symmetry_equiv_pos_as_xyz
  1  'x, y, z'
loop_
 _atom_site_type_symbol
 _atom_site_label
 _atom_site_symmetry_multiplicity
 _atom_site_fract_x
 _atom_site_fract_y
 _atom_site_fract_z
 _atom_site_occupancy
  Mg  Mg0  1  0.75908902  0.39821055  0.53278465  1
  Mg  Mg1  1  0.74873020  0.87584174  0.45498874  1
  Mg  Mg2  1  0.23912198  0.59987872  0.46786283  1
  Mg  Mg3  1  0.24967997  0.12254536  0.54716812  1
  Nb  Nb4  1  0.70017795  0.33563971  0.26032934  1
  Nb  Nb5  1  0.77986696  0.97545705  0.71996650  1
  Nb  Nb6  1  0.29829051  0.66476194  0.73989428  1
  Nb  Nb7  1  0.21884764  0.02333501  0.28141188  1
  Te  Te8  1  0.82464989  0.66105575  0.02022874  1
  Te  Te9  1  0.17478174  0.33583770  0.97974607  1
  O  O10  1  0.00915570  0.23906945  0.19059745  1
  O  O11  1  0.48590019  0.96016708  0.80690421  1
  O  O12  1  0.98984552  0.76058917  0.81185475  1
  O  O13  1  0.51188591  0.04167886  0.19381542  1
  O  O14  1  0.54228327  0.49151829  0.15079570  1
  O  O15  1  0.96341579  0.22430917  0.82661250  1
  O  O16  1  0.46535792  0.51106160  0.84754028  1
  O  O17  1  0.03858842  0.77473006  0.17260495  1
  O  O18  1  0.42680258  0.31954170  0.38927771  1
  O  O19  1  0.05671787  0.88331495  0.60125936  1
  O  O20  1  0.36706939  0.85877499  0.40101055  1
  O  O21  1  0.13901715  0.43415809  0.60450482  1
  O  O22  1  0.63202231  0.13934262  0.59972827  1
  O  O23  1  0.85951507  0.56466594  0.39648900  1
  O  O24  1  0.94304062  0.11408002  0.40041423  1
  O  O25  1  0.57218242  0.68011946  0.61129366  1
