# generated using pymatgen
data_Li7Mn2(CoO4)3
_symmetry_space_group_name_H-M   'P 1'
_cell_length_a   2.90165758
_cell_length_b   7.76835888
_cell_length_c   10.23165056
_cell_angle_alpha   70.78324446
_cell_angle_beta   90.85768748
_cell_angle_gamma   81.43831323
_symmetry_Int_Tables_number   1
_chemical_formula_structural   Li7Mn2(CoO4)3
_chemical_formula_sum   'Li7 Mn2 Co3 O12'
_cell_volume   214.84912051
_cell_formula_units_Z   1
loop_
 _symmetry_equiv_pos_site_id
 _symmetry_equiv_pos_as_xyz
  1  'x, y, z'
loop_
 _atom_site_type_symbol
 _atom_site_label
 _atom_site_symmetry_multiplicity
 _atom_site_fract_x
 _atom_site_fract_y
 _atom_site_fract_z
 _atom_site_occupancy
  Li  Li0  1  0.82503856  0.34243180  0.07061338  1
  Li  Li1  1  0.16325175  0.66625288  0.41707615  1
  Li  Li2  1  0.47705872  0.01271937  0.75257843  1
  Li  Li3  1  0.18962178  0.65393701  0.91411969  1
  Li  Li4  1  0.50342079  0.00040537  0.24960871  1
  Li  Li5  1  0.84161544  0.32424127  0.59606187  1
  Li  Li6  1  0.33333700  0.33333241  0.83334112  1
  Mn  Mn7  1  0.98835377  0.01125328  0.99077301  1
  Mn  Mn8  1  0.67832533  0.65542428  0.67588450  1
  Co  Co9  1  0.33331792  0.33333444  0.33332147  1
  Co  Co10  1  0.65418515  0.66769480  0.16656392  1
  Co  Co11  1  0.01252607  -0.00103326  0.50009810  1
  O  O12  1  0.43465813  0.14700407  0.03778415  1
  O  O13  1  0.73600365  0.49221579  0.36973667  1
  O  O14  1  0.11474189  0.81511928  0.70029264  1
  O  O15  1  0.74235906  0.51713097  0.85931659  1
  O  O16  1  0.06182935  0.82980941  0.19706492  1
  O  O17  1  0.40864427  0.15784070  0.53788707  1
  O  O18  1  0.25789121  0.50880276  0.12877872  1
  O  O19  1  0.60490881  0.83688216  0.46957176  1
  O  O20  1  0.92432308  0.14952225  0.80735452  1
  O  O21  1  0.55199355  0.85152741  0.96639433  1
  O  O22  1  0.93055571  0.17447913  0.29691944  1
  O  O23  1  0.23203898  0.51967241  0.62885883  1
