# generated using pymatgen
data_Li5Mn2CoO8
_symmetry_space_group_name_H-M   'P 1'
_cell_length_a   2.89321931
_cell_length_b   5.10872989
_cell_length_c   10.28817426
_cell_angle_alpha   98.86735158
_cell_angle_beta   90.00000049
_cell_angle_gamma   73.55084528
_symmetry_Int_Tables_number   1
_chemical_formula_structural   Li5Mn2CoO8
_chemical_formula_sum   'Li5 Mn2 Co1 O8'
_cell_volume   143.94623555
_cell_formula_units_Z   1
loop_
 _symmetry_equiv_pos_site_id
 _symmetry_equiv_pos_as_xyz
  1  'x, y, z'
loop_
 _atom_site_type_symbol
 _atom_site_label
 _atom_site_symmetry_multiplicity
 _atom_site_fract_x
 _atom_site_fract_y
 _atom_site_fract_z
 _atom_site_occupancy
  Li  Li0  1  0.24705273  0.50589455  0.12951254  1
  Li  Li1  1  0.74730384  0.50539233  0.39316123  1
  Li  Li2  1  0.26169742  0.47660517  0.61827560  1
  Li  Li3  1  0.75258449  0.49483103  0.86114993  1
  Li  Li4  1  0.99686955  0.00626089  0.50068720  1
  Mn  Mn5  1  0.99798043  0.00403914  0.99910325  1
  Mn  Mn6  1  0.49507773  0.00984454  0.25898611  1
  Co  Co7  1  0.51160272  0.97679457  0.72253139  1
  O  O8  1  0.38381812  0.23236376  0.95440717  1
  O  O9  1  0.89042669  0.21914661  0.18460002  1
  O  O10  1  0.38327495  0.23345010  0.41635354  1
  O  O11  1  0.88274727  0.23450547  0.69395962  1
  O  O12  1  0.10998103  0.78003794  0.30037855  1
  O  O13  1  0.62724351  0.74551297  0.57034035  1
  O  O14  1  0.10649766  0.78700467  0.83156132  1
  O  O15  1  0.60584187  0.78831626  0.06499218  1
