# generated using pymatgen
data_Li4MnCo2O7
_symmetry_space_group_name_H-M   'P 1'
_cell_length_a   5.03697882
_cell_length_b   6.64178781
_cell_length_c   7.83546463
_cell_angle_alpha   94.31031633
_cell_angle_beta   77.05452221
_cell_angle_gamma   97.14935889
_symmetry_Int_Tables_number   1
_chemical_formula_structural   Li4MnCo2O7
_chemical_formula_sum   'Li8 Mn2 Co4 O14'
_cell_volume   253.18009630
_cell_formula_units_Z   2
loop_
 _symmetry_equiv_pos_site_id
 _symmetry_equiv_pos_as_xyz
  1  'x, y, z'
loop_
 _atom_site_type_symbol
 _atom_site_label
 _atom_site_symmetry_multiplicity
 _atom_site_fract_x
 _atom_site_fract_y
 _atom_site_fract_z
 _atom_site_occupancy
  Li  Li0  1  0.06818511  0.15257752  0.35862382  1
  Li  Li1  1  0.35068768  0.70582950  0.77293235  1
  Li  Li2  1  0.50324389  0.99027948  0.49851918  1
  Li  Li3  1  0.78571400  0.57142900  0.92857100  1
  Li  Li4  1  0.93320059  0.84816355  0.63112081  1
  Li  Li5  1  0.22074132  0.43702750  0.08421065  1
  Li  Li6  1  0.63822741  0.29469345  0.22602219  1
  Li  Li7  1  0.28571400  0.57142900  0.42857100  1
  Mn  Mn8  1  -0.00052218  -0.00004668  0.00078102  1
  Mn  Mn9  1  0.57195118  0.14290368  0.85636198  1
  Co  Co10  1  0.84493258  0.70404911  0.28900523  1
  Co  Co11  1  0.15646443  0.29174213  0.69897794  1
  Co  Co12  1  0.41496357  0.85111487  0.15816506  1
  Co  Co13  1  0.72649642  0.43880789  0.56813777  1
  O  O14  1  0.76170613  -0.00241012  0.22921917  1
  O  O15  1  0.01775954  0.55369442  0.67973465  1
  O  O16  1  0.17806972  0.85844843  0.37439626  1
  O  O17  1  0.46164826  0.40352171  0.82364680  1
  O  O18  1  0.61938625  0.70644719  0.53043533  1
  O  O19  1  0.88452384  0.25949337  0.95249404  1
  O  O20  1  0.31638700  0.13284153  0.08642071  1
  O  O21  1  0.39335928  0.28440857  0.48274674  1
  O  O22  1  0.68690416  0.88336363  0.90464896  1
  O  O23  1  0.80972187  0.14526812  0.62792283  1
  O  O24  1  0.10978074  0.73933529  0.03349620  1
  O  O25  1  0.25504200  0.01001547  0.77072229  1
  O  O26  1  0.55366946  0.58916258  0.17740835  1
  O  O27  1  0.95204175  0.43640981  0.32670767  1
