# generated using pymatgen
data_Li7Mn2(CoO4)3
_symmetry_space_group_name_H-M   'P 1'
_cell_length_a   5.02999944
_cell_length_b   5.02999938
_cell_length_c   9.79262436
_cell_angle_alpha   85.08691773
_cell_angle_beta   94.91308223
_cell_angle_gamma   59.93315488
_symmetry_Int_Tables_number   1
_chemical_formula_structural   Li7Mn2(CoO4)3
_chemical_formula_sum   'Li7 Mn2 Co3 O12'
_cell_volume   211.24818306
_cell_formula_units_Z   1
loop_
 _symmetry_equiv_pos_site_id
 _symmetry_equiv_pos_as_xyz
  1  'x, y, z'
loop_
 _atom_site_type_symbol
 _atom_site_label
 _atom_site_symmetry_multiplicity
 _atom_site_fract_x
 _atom_site_fract_y
 _atom_site_fract_z
 _atom_site_occupancy
  Li  Li0  1  0.26190301  0.72648758  0.77246441  1
  Li  Li1  1  0.41504914  0.93385983  0.22794875  1
  Li  Li2  1  0.72648758  0.26190301  0.22753559  1
  Li  Li3  1  0.93385983  0.41504914  0.77205125  1
  Li  Li4  1  0.08650658  0.57640506  0.22768437  1
  Li  Li5  1  0.57640506  0.08650658  0.77231563  1
  Li  Li6  1  0.33287673  0.33287673  1.00000000  1
  Mn  Mn7  1  0.00027230  0.00027230  0.00000000  1
  Mn  Mn8  1  0.16776022  0.16776022  0.50000000  1
  Co  Co9  1  0.49957347  0.49957347  0.50000000  1
  Co  Co10  1  0.66675941  0.66675941  0.00000000  1
  Co  Co11  1  0.83273118  0.83273118  0.50000000  1
  O  O12  1  0.36852704  0.65324027  0.11217257  1
  O  O13  1  0.52381059  0.81224378  0.60987741  1
  O  O14  1  0.88118495  0.13227520  0.60773025  1
  O  O15  1  0.01525875  0.29371646  0.11157833  1
  O  O16  1  0.20569468  0.44480165  0.61376515  1
  O  O17  1  0.72784753  0.94121458  0.11198548  1
  O  O18  1  0.13227520  0.88118495  0.39226975  1
  O  O19  1  0.29371646  0.01525875  0.88842167  1
  O  O20  1  0.65324027  0.36852704  0.88782743  1
  O  O21  1  0.81224378  0.52381059  0.39012259  1
  O  O22  1  0.94121458  0.72784753  0.88801452  1
  O  O23  1  0.44480165  0.20569468  0.38623485  1
