# generated using pymatgen
data_Li9Mn2Co5O16
_symmetry_space_group_name_H-M   'P 1'
_cell_length_a   5.86603374
_cell_length_b   10.12360598
_cell_length_c   5.89306522
_cell_angle_alpha   88.69793547
_cell_angle_beta   120.02756234
_cell_angle_gamma   106.96891009
_symmetry_Int_Tables_number   1
_chemical_formula_structural   Li9Mn2Co5O16
_chemical_formula_sum   'Li9 Mn2 Co5 O16'
_cell_volume   286.56882715
_cell_formula_units_Z   1
loop_
 _symmetry_equiv_pos_site_id
 _symmetry_equiv_pos_as_xyz
  1  'x, y, z'
loop_
 _atom_site_type_symbol
 _atom_site_label
 _atom_site_symmetry_multiplicity
 _atom_site_fract_x
 _atom_site_fract_y
 _atom_site_fract_z
 _atom_site_occupancy
  Li  Li0  1  0.00000000  0.00000000  0.50000000  1
  Li  Li1  1  0.99704893  0.24522373  0.24580074  1
  Li  Li2  1  0.00000000  0.50000000  0.00000000  1
  Li  Li3  1  0.50000000  0.00000000  0.00000000  1
  Li  Li4  1  0.48839878  0.23780304  0.73180149  1
  Li  Li5  1  0.50000000  0.50000000  0.50000000  1
  Li  Li6  1  0.51160122  0.76219696  0.26819851  1
  Li  Li7  1  0.00295107  0.75477627  0.75419926  1
  Li  Li8  1  0.50000000  0.00000000  0.50000000  1
  Mn  Mn9  1  0.00000000  0.00000000  0.00000000  1
  Mn  Mn10  1  0.00000000  0.50000000  0.50000000  1
  Co  Co11  1  0.99090905  0.24599102  0.74166321  1
  Co  Co12  1  0.00909095  0.75400898  0.25833679  1
  Co  Co13  1  0.49839116  0.24271021  0.25092338  1
  Co  Co14  1  0.50000000  0.50000000  0.00000000  1
  Co  Co15  1  0.50160884  0.75728979  0.74907662  1
  O  O16  1  0.76392930  0.88063690  0.11945413  1
  O  O17  1  0.77529196  0.12512847  0.87372203  1
  O  O18  1  0.75933844  0.37829289  0.61263531  1
  O  O19  1  0.25826651  0.86220630  0.62551462  1
  O  O20  1  0.23359137  0.11945393  0.34278658  1
  O  O21  1  0.27030826  0.37146730  0.10221989  1
  O  O22  1  0.24536477  0.60827059  0.85465807  1
  O  O23  1  0.77610011  0.62366160  0.38716956  1
  O  O24  1  0.23607070  0.11936310  0.88054587  1
  O  O25  1  0.22389989  0.37633840  0.61283044  1
  O  O26  1  0.24066156  0.62170711  0.38736469  1
  O  O27  1  0.74173349  0.13779370  0.37448538  1
  O  O28  1  0.75463523  0.39172941  0.14534193  1
  O  O29  1  0.72969174  0.62853270  0.89778011  1
  O  O30  1  0.76640863  0.88054607  0.65721342  1
  O  O31  1  0.22470804  0.87487153  0.12627797  1
