# generated using pymatgen
data_Li9Mn2Co5O16
_symmetry_space_group_name_H-M   'P 1'
_cell_length_a   5.88324625
_cell_length_b   7.77692450
_cell_length_c   6.53320795
_cell_angle_alpha   89.30544855
_cell_angle_beta   77.02480923
_cell_angle_gamma   80.48704616
_symmetry_Int_Tables_number   1
_chemical_formula_structural   Li9Mn2Co5O16
_chemical_formula_sum   'Li9 Mn2 Co5 O16'
_cell_volume   287.18260101
_cell_formula_units_Z   1
loop_
 _symmetry_equiv_pos_site_id
 _symmetry_equiv_pos_as_xyz
  1  'x, y, z'
loop_
 _atom_site_type_symbol
 _atom_site_label
 _atom_site_symmetry_multiplicity
 _atom_site_fract_x
 _atom_site_fract_y
 _atom_site_fract_z
 _atom_site_occupancy
  Li  Li0  1  0.87679837  0.37232684  0.12435888  1
  Li  Li1  1  0.37948363  0.87854302  0.63293510  1
  Li  Li2  1  0.61747924  0.63387321  0.87486072  1
  Li  Li3  1  0.14287069  0.11804193  0.36813011  1
  Li  Li4  1  0.38252076  0.36612679  0.12513928  1
  Li  Li5  1  0.85712931  0.88195807  0.63186989  1
  Li  Li6  1  0.12320163  0.62767316  0.87564112  1
  Li  Li7  1  0.62051637  0.12145698  0.36706490  1
  Li  Li8  1  0.50000000  -0.00000000  -0.00000000  1
  Mn  Mn9  1  0.00000000  -0.00000000  -0.00000000  1
  Mn  Mn10  1  0.50000000  0.50000000  0.50000000  1
  Co  Co11  1  0.74533659  0.24126968  0.75387732  1
  Co  Co12  1  0.25466341  0.75873032  0.24612268  1
  Co  Co13  1  0.00000000  0.50000000  0.50000000  1
  Co  Co14  1  0.25659746  0.24443688  0.75254464  1
  Co  Co15  1  0.74340254  0.75556312  0.24745536  1
  O  O16  1  0.18190063  0.18141827  0.04479141  1
  O  O17  1  0.67315029  0.68225071  0.55224626  1
  O  O18  1  0.94707944  0.42477444  0.78546732  1
  O  O19  1  0.43438154  0.92108577  0.31152710  1
  O  O20  1  0.71394122  0.17649034  0.05148311  1
  O  O21  1  0.19951190  0.66177581  0.55261813  1
  O  O22  1  0.44614959  0.43627314  0.79479938  1
  O  O23  1  0.94276618  0.93914930  0.29565862  1
  O  O24  1  0.55385041  0.56372686  0.20520062  1
  O  O25  1  0.05723382  0.06085070  0.70434138  1
  O  O26  1  0.28605878  0.82350966  0.94851689  1
  O  O27  1  0.80048810  0.33822419  0.44738187  1
  O  O28  1  0.05292056  0.57522556  0.21453268  1
  O  O29  1  0.56561846  0.07891423  0.68847290  1
  O  O30  1  0.81809937  0.81858173  0.95520859  1
  O  O31  1  0.32684971  0.31774929  0.44775374  1
