# generated using pymatgen
data_Li9Mn2Co5O16
_symmetry_space_group_name_H-M   'P 1'
_cell_length_a   5.82118917
_cell_length_b   9.80561111
_cell_length_c   5.89295181
_cell_angle_alpha   88.72604761
_cell_angle_beta   60.37894766
_cell_angle_gamma   98.54941528
_symmetry_Int_Tables_number   1
_chemical_formula_structural   Li9Mn2Co5O16
_chemical_formula_sum   'Li9 Mn2 Co5 O16'
_cell_volume   287.36521937
_cell_formula_units_Z   1
loop_
 _symmetry_equiv_pos_site_id
 _symmetry_equiv_pos_as_xyz
  1  'x, y, z'
loop_
 _atom_site_type_symbol
 _atom_site_label
 _atom_site_symmetry_multiplicity
 _atom_site_fract_x
 _atom_site_fract_y
 _atom_site_fract_z
 _atom_site_occupancy
  Li  Li0  1  0.74941825  0.24528341  0.12405370  1
  Li  Li1  1  0.75274782  0.75141569  0.37736477  1
  Li  Li2  1  0.75448745  0.24850685  0.62240830  1
  Li  Li3  1  0.24725218  0.24858431  0.62263523  1
  Li  Li4  1  0.25058175  0.75471659  0.87594630  1
  Li  Li5  1  0.24486426  0.24616181  0.13304593  1
  Li  Li6  1  0.75513574  0.75383819  0.86695407  1
  Li  Li7  1  0.24551255  0.75149315  0.37759170  1
  Li  Li8  1  -0.00000000  -0.00000000  0.50000000  1
  Mn  Mn9  1  -0.00000000  -0.00000000  -0.00000000  1
  Mn  Mn10  1  0.50000000  -0.00000000  -0.00000000  1
  Co  Co11  1  -0.00010618  0.49957750  0.24964586  1
  Co  Co12  1  0.00010618  0.50042250  0.75035414  1
  Co  Co13  1  0.50000000  -0.00000000  0.50000000  1
  Co  Co14  1  0.49979699  0.50005577  0.75008531  1
  Co  Co15  1  0.50020301  0.49994423  0.24991469  1
  O  O16  1  0.86188161  0.11215935  0.83241814  1
  O  O17  1  0.86954249  0.61489698  0.06829226  1
  O  O18  1  0.85930019  0.10554390  0.30046550  1
  O  O19  1  0.39306444  0.10559483  0.30041498  1
  O  O20  1  0.37052278  0.61676064  0.56696585  1
  O  O21  1  0.35626853  0.11713587  0.84619929  1
  O  O22  1  0.87089858  0.61834736  0.56717031  1
  O  O23  1  0.36833471  0.61436233  0.07004602  1
  O  O24  1  0.62947722  0.38323936  0.43303415  1
  O  O25  1  0.60693556  0.89440517  0.69958502  1
  O  O26  1  0.63166529  0.38563767  0.92995398  1
  O  O27  1  0.13045751  0.38510302  0.93170774  1
  O  O28  1  0.13811839  0.88784065  0.16758186  1
  O  O29  1  0.12910142  0.38165264  0.43282969  1
  O  O30  1  0.64373147  0.88286413  0.15380071  1
  O  O31  1  0.14069981  0.89445610  0.69953450  1
