# generated using pymatgen
data_Li9Mn2Co5O16
_symmetry_space_group_name_H-M   'P 1'
_cell_length_a   5.11504997
_cell_length_b   10.08069886
_cell_length_c   5.88477864
_cell_angle_alpha   89.09217098
_cell_angle_beta   105.96638567
_cell_angle_gamma   80.04132891
_symmetry_Int_Tables_number   1
_chemical_formula_structural   Li9Mn2Co5O16
_chemical_formula_sum   'Li9 Mn2 Co5 O16'
_cell_volume   286.69215939
_cell_formula_units_Z   1
loop_
 _symmetry_equiv_pos_site_id
 _symmetry_equiv_pos_as_xyz
  1  'x, y, z'
loop_
 _atom_site_type_symbol
 _atom_site_label
 _atom_site_symmetry_multiplicity
 _atom_site_fract_x
 _atom_site_fract_y
 _atom_site_fract_z
 _atom_site_occupancy
  Li  Li0  1  0.49904428  0.12457053  0.12403707  1
  Li  Li1  1  0.50077008  0.12488212  0.62858377  1
  Li  Li2  1  0.50095572  0.37542947  0.37596293  1
  Li  Li3  1  0.49922992  0.37511788  0.87141623  1
  Li  Li4  1  0.49749856  0.63067787  0.62855671  1
  Li  Li5  1  0.49659850  0.62990296  0.12516073  1
  Li  Li6  1  0.50250144  0.86932213  0.87144329  1
  Li  Li7  1  0.50340150  0.87009704  0.37483927  1
  Li  Li8  1  0.00000000  0.75000000  0.75000000  1
  Mn  Mn9  1  0.99346076  0.99878345  0.99312441  1
  Mn  Mn10  1  0.00653924  0.50121655  0.50687559  1
  Co  Co11  1  0.00192093  0.99076560  0.50341434  1
  Co  Co12  1  0.00000000  0.25000000  0.25000000  1
  Co  Co13  1  0.00000000  0.25000000  0.75000000  1
  Co  Co14  1  -0.00192093  0.50923440  0.99658566  1
  Co  Co15  1  0.00000000  0.75000000  0.25000000  1
  O  O16  1  0.22287314  0.06191946  0.81422120  1
  O  O17  1  0.21442393  0.06850616  0.28576775  1
  O  O18  1  0.21839922  0.31585140  0.06718608  1
  O  O19  1  0.23484438  0.31851071  0.57277958  1
  O  O20  1  0.23110906  0.56036448  0.31785174  1
  O  O21  1  0.23290842  0.55496744  0.79639383  1
  O  O22  1  0.23514418  0.82198193  0.54529106  1
  O  O23  1  0.22589400  0.82255383  0.06808609  1
  O  O24  1  0.78160078  0.18414860  0.43281392  1
  O  O25  1  0.76515562  0.18148929  0.92722042  1
  O  O26  1  0.77712686  0.43808054  0.68577880  1
  O  O27  1  0.78557607  0.43149384  0.21423225  1
  O  O28  1  0.76485582  0.67801807  0.95470894  1
  O  O29  1  0.77410600  0.67744617  0.43191391  1
  O  O30  1  0.76889094  0.93963552  0.18214826  1
  O  O31  1  0.76709158  0.94503256  0.70360617  1
