# generated using pymatgen
data_Li9Co7O16
_symmetry_space_group_name_H-M   'P 1'
_cell_length_a   5.02975765
_cell_length_b   9.78829050
_cell_length_c   5.83783817
_cell_angle_alpha   89.84525224
_cell_angle_beta   89.81645038
_cell_angle_gamma   99.63272328
_symmetry_Int_Tables_number   1
_chemical_formula_structural   Li9Co7O16
_chemical_formula_sum   'Li9 Co7 O16'
_cell_volume   283.35738546
_cell_formula_units_Z   1
loop_
 _symmetry_equiv_pos_site_id
 _symmetry_equiv_pos_as_xyz
  1  'x, y, z'
loop_
 _atom_site_type_symbol
 _atom_site_label
 _atom_site_symmetry_multiplicity
 _atom_site_fract_x
 _atom_site_fract_y
 _atom_site_fract_z
 _atom_site_occupancy
  Li  Li0  1  0.75115369  0.24413984  0.99695101  1
  Li  Li1  1  0.74881553  0.75217011  0.25255914  1
  Li  Li2  1  0.74842920  0.24501387  0.50546824  1
  Li  Li3  1  0.25118447  0.24782989  0.24744086  1
  Li  Li4  1  0.24884631  0.75586016  0.50304899  1
  Li  Li5  1  0.25743302  0.24528874  0.75131349  1
  Li  Li6  1  0.74256698  0.75471126  0.74868651  1
  Li  Li7  1  0.25157080  0.75498613  0.99453176  1
  Li  Li8  1  0.50000000  0.00000000  0.75000000  1
  Co  Co9  1  0.99818258  -0.00056638  0.99445381  1
  Co  Co10  1  0.00181742  0.00056638  0.50554619  1
  Co  Co11  1  0.00000000  0.50000000  0.25000000  1
  Co  Co12  1  0.00000000  0.50000000  0.75000000  1
  Co  Co13  1  0.50314601  0.50171457  0.50157726  1
  Co  Co14  1  0.49685399  0.49828543  0.99842274  1
  Co  Co15  1  0.50000000  0.00000000  0.25000000  1
  O  O16  1  0.89862639  0.11765115  0.74309874  1
  O  O17  1  0.87398948  0.61182244  0.01931857  1
  O  O18  1  0.85390356  0.11031641  0.24378045  1
  O  O19  1  0.36398490  0.10784215  0.02138590  1
  O  O20  1  0.36098844  0.61015006  0.23891884  1
  O  O21  1  0.36530250  0.10905396  0.47744999  1
  O  O22  1  0.87577314  0.62004566  0.51961163  1
  O  O23  1  0.37861884  0.61820106  0.74081926  1
  O  O24  1  0.63901156  0.38984994  0.26108116  1
  O  O25  1  0.63601510  0.89215785  0.47861410  1
  O  O26  1  0.62138116  0.38179894  0.75918074  1
  O  O27  1  0.12601052  0.38817756  0.48068143  1
  O  O28  1  0.10137361  0.88234885  0.75690126  1
  O  O29  1  0.12422686  0.37995434  0.98038837  1
  O  O30  1  0.63469750  0.89094604  0.02255001  1
  O  O31  1  0.14609644  0.88968359  0.25621955  1
