# generated using pymatgen
data_Li9Mn2Co5O16
_symmetry_space_group_name_H-M   'P 1'
_cell_length_a   5.79212762
_cell_length_b   5.93711961
_cell_length_c   9.69549144
_cell_angle_alpha   98.57233633
_cell_angle_beta   91.46298145
_cell_angle_gamma   60.55407191
_symmetry_Int_Tables_number   1
_chemical_formula_structural   Li9Mn2Co5O16
_chemical_formula_sum   'Li9 Mn2 Co5 O16'
_cell_volume   286.65826161
_cell_formula_units_Z   1
loop_
 _symmetry_equiv_pos_site_id
 _symmetry_equiv_pos_as_xyz
  1  'x, y, z'
loop_
 _atom_site_type_symbol
 _atom_site_label
 _atom_site_symmetry_multiplicity
 _atom_site_fract_x
 _atom_site_fract_y
 _atom_site_fract_z
 _atom_site_occupancy
  Li  Li0  1  0.49937981  0.49712325  0.00719041  1
  Li  Li1  1  -0.00115948  0.49859734  0.00287625  1
  Li  Li2  1  0.12500000  0.75000000  0.25000000  1
  Li  Li3  1  0.62500000  0.75000000  0.25000000  1
  Li  Li4  1  0.75062019  0.00287675  0.49280959  1
  Li  Li5  1  0.25115948  0.00140266  0.49712375  1
  Li  Li6  1  0.37867687  0.24486997  0.74772508  1
  Li  Li7  1  0.87132313  0.25513003  0.75227492  1
  Li  Li8  1  0.62500000  0.25000000  0.25000000  1
  Mn  Mn9  1  -0.00069427  -0.00049105  0.00337406  1
  Mn  Mn10  1  0.25069427  0.50049105  0.49662594  1
  Co  Co11  1  0.49876682  0.00807832  0.00878908  1
  Co  Co12  1  0.12500000  0.25000000  0.25000000  1
  Co  Co13  1  0.75123318  0.49192168  0.49121092  1
  Co  Co14  1  0.86860085  0.75350347  0.74624255  1
  Co  Co15  1  0.38139915  0.74649653  0.75375745  1
  O  O16  1  0.70194262  0.11353921  0.88203134  1
  O  O17  1  0.19036298  0.10296386  0.88203399  1
  O  O18  1  0.30390121  0.34741428  0.12942524  1
  O  O19  1  0.84301470  0.33415830  0.11936875  1
  O  O20  1  0.94476488  0.62950863  0.38413528  1
  O  O21  1  0.43564849  0.62044233  0.39008536  1
  O  O22  1  0.57577585  0.86558349  0.63282275  1
  O  O23  1  0.08853098  0.84463359  0.62400859  1
  O  O24  1  0.30523512  0.87049137  0.11586472  1
  O  O25  1  0.81435151  0.87955767  0.10991464  1
  O  O26  1  0.94609879  0.15258572  0.37057476  1
  O  O27  1  0.40698530  0.16584170  0.38063125  1
  O  O28  1  0.54805738  0.38646079  0.61796866  1
  O  O29  1  0.05963702  0.39703614  0.61796601  1
  O  O30  1  0.16146902  0.65536641  0.87599141  1
  O  O31  1  0.67422415  0.63441651  0.86717725  1
