# generated using pymatgen
data_Li9Mn2Co5O16
_symmetry_space_group_name_H-M   'P 1'
_cell_length_a   2.90094509
_cell_length_b   10.61014318
_cell_length_c   10.11012969
_cell_angle_alpha   113.77555915
_cell_angle_beta   89.22306684
_cell_angle_gamma   83.46950564
_symmetry_Int_Tables_number   1
_chemical_formula_structural   Li9Mn2Co5O16
_chemical_formula_sum   'Li9 Mn2 Co5 O16'
_cell_volume   282.32203727
_cell_formula_units_Z   1
loop_
 _symmetry_equiv_pos_site_id
 _symmetry_equiv_pos_as_xyz
  1  'x, y, z'
loop_
 _atom_site_type_symbol
 _atom_site_label
 _atom_site_symmetry_multiplicity
 _atom_site_fract_x
 _atom_site_fract_y
 _atom_site_fract_z
 _atom_site_occupancy
  Li  Li0  1  0.87245896  0.25201580  0.93611311  1
  Li  Li1  1  0.12412073  0.75780788  0.07440744  1
  Li  Li2  1  0.38302744  0.24489916  0.19138109  1
  Li  Li3  1  0.37716678  0.25000484  0.68833315  1
  Li  Li4  1  0.62283322  0.74999516  0.81166685  1
  Li  Li5  1  0.87587927  0.24219212  0.42559256  1
  Li  Li6  1  0.12754104  0.74798420  0.56388689  1
  Li  Li7  1  0.61697256  0.75510084  0.30861891  1
  Li  Li8  1  0.50000000  0.00000000  0.25000000  1
  Mn  Mn9  1  -0.00169837  0.00233956  0.00634343  1
  Mn  Mn10  1  0.00169837  0.99766044  0.49365657  1
  Co  Co11  1  0.24810190  0.50002111  0.12501894  1
  Co  Co12  1  0.75189810  0.49997889  0.37498106  1
  Co  Co13  1  0.25204720  0.50006367  0.62544460  1
  Co  Co14  1  0.50000000  0.00000000  0.75000000  1
  Co  Co15  1  0.74795280  0.49993633  0.87455540  1
  O  O16  1  0.45319779  0.10636777  0.95854819  1
  O  O17  1  0.67308365  0.61610041  0.09011994  1
  O  O18  1  0.94000856  0.11776751  0.19833975  1
  O  O19  1  0.95392684  0.10587934  0.71453997  1
  O  O20  1  0.18100578  0.61623756  0.84034204  1
  O  O21  1  0.44987237  0.11129995  0.47549792  1
  O  O22  1  0.68384944  0.61769709  0.59264933  1
  O  O23  1  0.17619724  0.61473119  0.34352523  1
  O  O24  1  0.31615056  0.38230291  0.90735067  1
  O  O25  1  0.55012763  0.88870005  0.02450208  1
  O  O26  1  0.82380276  0.38526881  0.15647477  1
  O  O27  1  0.81899422  0.38376244  0.65965796  1
  O  O28  1  0.04607316  0.89412066  0.78546003  1
  O  O29  1  0.32691635  0.38389959  0.40988006  1
  O  O30  1  0.54680221  0.89363223  0.54145181  1
  O  O31  1  0.05999144  0.88223249  0.30166025  1
