# generated using pymatgen
data_Li9Mn2Co5O16
_symmetry_space_group_name_H-M   'P 1'
_cell_length_a   5.14063654
_cell_length_b   6.44982947
_cell_length_c   8.62336517
_cell_angle_alpha   83.19170728
_cell_angle_beta   94.30360663
_cell_angle_gamma   84.46659753
_symmetry_Int_Tables_number   1
_chemical_formula_structural   Li9Mn2Co5O16
_chemical_formula_sum   'Li9 Mn2 Co5 O16'
_cell_volume   281.49545014
_cell_formula_units_Z   1
loop_
 _symmetry_equiv_pos_site_id
 _symmetry_equiv_pos_as_xyz
  1  'x, y, z'
loop_
 _atom_site_type_symbol
 _atom_site_label
 _atom_site_symmetry_multiplicity
 _atom_site_fract_x
 _atom_site_fract_y
 _atom_site_fract_z
 _atom_site_occupancy
  Li  Li0  1  0.23917373  0.56272175  0.05602663  1
  Li  Li1  1  0.76082627  0.93727825  0.44397337  1
  Li  Li2  1  0.23255519  0.32114893  0.81085020  1
  Li  Li3  1  0.75974313  0.45145525  0.92930465  1
  Li  Li4  1  0.23967314  0.81517376  0.31325047  1
  Li  Li5  1  0.76744481  0.17885107  0.68914980  1
  Li  Li6  1  0.76032686  0.68482624  0.18674953  1
  Li  Li7  1  0.24025687  0.04854475  0.57069535  1
  Li  Li8  1  -0.00000000  0.75000000  0.75000000  1
  Mn  Mn9  1  0.00017906  0.99693214  0.99678095  1
  Mn  Mn10  1  -0.00017906  0.50306786  0.50321905  1
  Co  Co11  1  0.49929251  0.37355441  0.37392107  1
  Co  Co12  1  0.50070749  0.12644559  0.12607893  1
  Co  Co13  1  0.50235722  0.87098175  0.87231523  1
  Co  Co14  1  -0.00000000  0.25000000  0.25000000  1
  Co  Co15  1  0.49764278  0.62901825  0.62768477  1
  O  O16  1  0.88065522  0.73544543  0.97405386  1
  O  O17  1  0.38853177  0.10831015  0.33303118  1
  O  O18  1  0.87901709  0.46906641  0.70275790  1
  O  O19  1  0.39747980  0.60527723  0.83604620  1
  O  O20  1  0.88550733  0.98536145  0.21075648  1
  O  O21  1  0.35714011  0.37091836  0.57765825  1
  O  O22  1  0.35653455  0.86960834  0.08022408  1
  O  O23  1  0.88767637  0.23056241  0.45871731  1
  O  O24  1  0.61146823  0.39168985  0.16696882  1
  O  O25  1  0.11934478  0.76455457  0.52594614  1
  O  O26  1  0.64285989  0.12908164  0.92234175  1
  O  O27  1  0.11232363  0.26943759  0.04128269  1
  O  O28  1  0.64346545  0.63039166  0.41977592  1
  O  O29  1  0.12098291  0.03093359  0.79724210  1
  O  O30  1  0.11449267  0.51463855  0.28924352  1
  O  O31  1  0.60252020  0.89472277  0.66395380  1
