# generated using pymatgen
data_Li9Mn2Co5O16
_symmetry_space_group_name_H-M   'P 1'
_cell_length_a   5.90638077
_cell_length_b   6.53408288
_cell_length_c   7.77198507
_cell_angle_alpha   93.47224786
_cell_angle_beta   99.25286656
_cell_angle_gamma   76.88464454
_symmetry_Int_Tables_number   1
_chemical_formula_structural   Li9Mn2Co5O16
_chemical_formula_sum   'Li9 Mn2 Co5 O16'
_cell_volume   288.22714885
_cell_formula_units_Z   1
loop_
 _symmetry_equiv_pos_site_id
 _symmetry_equiv_pos_as_xyz
  1  'x, y, z'
loop_
 _atom_site_type_symbol
 _atom_site_label
 _atom_site_symmetry_multiplicity
 _atom_site_fract_x
 _atom_site_fract_y
 _atom_site_fract_z
 _atom_site_occupancy
  Li  Li0  1  0.07168672  0.11419805  0.37358683  1
  Li  Li1  1  0.31447415  0.62737160  0.88342403  1
  Li  Li2  1  0.42765869  0.87330333  0.61157169  1
  Li  Li3  1  0.67257725  0.38673185  0.12628303  1
  Li  Li4  1  0.82060895  0.62789083  0.88188913  1
  Li  Li5  1  0.19609811  0.37723529  0.12705279  1
  Li  Li6  1  0.56087395  0.12269232  0.37365805  1
  Li  Li7  1  0.93932000  0.86940902  0.62370336  1
  Li  Li8  1  0.37417442  0.74812276  0.24874686  1
  Mn  Mn9  1  0.00178420  0.00275755  0.00412995  1
  Mn  Mn10  1  0.25287989  0.49970462  0.49510508  1
  Co  Co11  1  0.50302599  0.98593710  0.00781190  1
  Co  Co12  1  0.74285354  0.50128681  0.49323369  1
  Co  Co13  1  0.62342209  0.24842550  0.75237977  1
  Co  Co14  1  0.88088042  0.75200089  0.25530888  1
  Co  Co15  1  0.12402753  0.25459788  0.74937981  1
  O  O16  1  0.79042087  0.05832814  0.17807866  1
  O  O17  1  0.05045188  0.54241854  0.68256783  1
  O  O18  1  0.15664320  0.78964917  0.43881621  1
  O  O19  1  0.41661858  0.29846956  0.92724372  1
  O  O20  1  0.51676028  0.55335535  0.66094228  1
  O  O21  1  0.90699953  0.29729363  0.93450042  1
  O  O22  1  0.25987037  0.06018489  0.16634605  1
  O  O23  1  0.67611016  0.78967741  0.43307557  1
  O  O24  1  0.34084444  0.20022807  0.56566379  1
  O  O25  1  0.59513377  0.70353965  0.05913546  1
  O  O26  1  0.74110205  0.95031147  0.82788247  1
  O  O27  1  0.98004632  0.44728124  0.33561868  1
  O  O28  1  0.07426392  0.71128629  0.06658307  1
  O  O29  1  0.45385387  0.43763142  0.32334084  1
  O  O30  1  0.82974273  0.21289508  0.57016054  1
  O  O31  1  0.20479513  0.95578463  0.82277958  1
