# generated using pymatgen
data_Li9Mn2Co5O16
_symmetry_space_group_name_H-M   'P 1'
_cell_length_a   5.07460047
_cell_length_b   7.83090116
_cell_length_c   7.72927865
_cell_angle_alpha   82.76449333
_cell_angle_beta   104.26404234
_cell_angle_gamma   78.50363486
_symmetry_Int_Tables_number   1
_chemical_formula_structural   Li9Mn2Co5O16
_chemical_formula_sum   'Li9 Mn2 Co5 O16'
_cell_volume   286.71167968
_cell_formula_units_Z   1
loop_
 _symmetry_equiv_pos_site_id
 _symmetry_equiv_pos_as_xyz
  1  'x, y, z'
loop_
 _atom_site_type_symbol
 _atom_site_label
 _atom_site_symmetry_multiplicity
 _atom_site_fract_x
 _atom_site_fract_y
 _atom_site_fract_z
 _atom_site_occupancy
  Li  Li0  1  0.49992903  0.25052515  0.74943557  1
  Li  Li1  1  0.99722406  0.88363275  0.37399026  1
  Li  Li2  1  0.51226106  0.49327095  0.00677479  1
  Li  Li3  1  0.00689185  0.37370117  0.88570954  1
  Li  Li4  1  0.48882449  0.00777547  0.49365075  1
  Li  Li5  1  -0.00028710  0.61639335  0.12711552  1
  Li  Li6  1  0.99400095  0.12858292  0.61247543  1
  Li  Li7  1  0.50159238  0.74821690  0.25055082  1
  Li  Li8  1  -0.00200268  0.25071685  0.25117919  1
  Mn  Mn9  1  0.99796258  0.00387497  0.00252664  1
  Mn  Mn10  1  0.00052643  0.49486817  0.49723974  1
  Co  Co11  1  0.50090896  0.62120748  0.62593030  1
  Co  Co12  1  0.49971669  0.87633438  0.87350583  1
  Co  Co13  1  0.49835223  0.12470212  0.12957396  1
  Co  Co14  1  -0.00027506  0.74890513  0.74914425  1
  Co  Co15  1  0.49059477  0.36670036  0.36214938  1
  O  O16  1  0.76418773  0.99150996  0.76304843  1
  O  O17  1  0.24644318  0.61834053  0.39533234  1
  O  O18  1  0.75476639  0.22183214  0.00677737  1
  O  O19  1  0.25007369  0.11472222  0.89801793  1
  O  O20  1  0.77087627  0.73196701  0.51250010  1
  O  O21  1  0.26832750  0.38000977  0.13230981  1
  O  O22  1  0.26360501  0.87076584  0.63916457  1
  O  O23  1  0.75975755  0.50200876  0.26696661  1
  O  O24  1  0.23895827  0.50968966  0.73889158  1
  O  O25  1  0.72199575  0.12657684  0.36043900  1
  O  O26  1  0.22955909  0.77039011  0.98805946  1
  O  O27  1  0.73622811  0.63085242  0.86135730  1
  O  O28  1  0.24007939  0.27265811  0.50209667  1
  O  O29  1  0.76010468  0.87967787  0.10471663  1
  O  O30  1  0.75630590  0.38573241  0.60769318  1
  O  O31  1  0.25251085  0.00385925  0.23167406  1
