# generated using pymatgen
data_Li9Mn2Co5O16
_symmetry_space_group_name_H-M   'P 1'
_cell_length_a   5.93415540
_cell_length_b   7.76091094
_cell_length_c   7.70033445
_cell_angle_alpha   114.85146779
_cell_angle_beta   111.60384591
_cell_angle_gamma   67.66383502
_symmetry_Int_Tables_number   1
_chemical_formula_structural   Li9Mn2Co5O16
_chemical_formula_sum   'Li9 Mn2 Co5 O16'
_cell_volume   288.32382790
_cell_formula_units_Z   1
loop_
 _symmetry_equiv_pos_site_id
 _symmetry_equiv_pos_as_xyz
  1  'x, y, z'
loop_
 _atom_site_type_symbol
 _atom_site_label
 _atom_site_symmetry_multiplicity
 _atom_site_fract_x
 _atom_site_fract_y
 _atom_site_fract_z
 _atom_site_occupancy
  Li  Li0  1  0.37740094  0.13154646  0.37837020  1
  Li  Li1  1  0.24833767  0.25185777  0.74814369  1
  Li  Li2  1  0.61884533  0.86507208  0.62006580  1
  Li  Li3  1  0.50249388  0.99754625  0.00182392  1
  Li  Li4  1  0.87068189  0.62240090  0.86956052  1
  Li  Li5  1  0.75186948  0.74901269  0.25040319  1
  Li  Li6  1  0.13277958  0.38215634  0.13372037  1
  Li  Li7  1  0.99435761  0.50288625  0.49785464  1
  Li  Li8  1  0.49965785  0.49981339  0.50091851  1
  Mn  Mn9  1  0.00101684  0.99845233  -0.00063626  1
  Mn  Mn10  1  0.74726798  0.25028967  0.74811756  1
  Co  Co11  1  0.87827906  0.13300971  0.38199321  1
  Co  Co12  1  0.61637492  0.37691334  0.13325227  1
  Co  Co13  1  0.37702017  0.62280081  0.86740047  1
  Co  Co14  1  0.26324808  0.74606394  0.25770869  1
  Co  Co15  1  0.13160231  0.86036475  0.61374043  1
  O  O16  1  -0.00666274  0.23451014  0.23593205  1
  O  O17  1  0.86975079  0.35679726  0.62450691  1
  O  O18  1  0.23939265  0.99474627  0.49848194  1
  O  O19  1  0.09728672  0.11462595  0.86612368  1
  O  O20  1  0.48188599  0.74988921  0.75808817  1
  O  O21  1  0.34490476  0.88014278  0.11482069  1
  O  O22  1  0.74217191  0.47897136  0.98565119  1
  O  O23  1  0.60672377  0.63149575  0.35932410  1
  O  O24  1  0.75855116  0.01930101  0.51307083  1
  O  O25  1  0.65647904  0.12479764  0.87759738  1
  O  O26  1  0.00563840  0.76423304  0.76669268  1
  O  O27  1  0.89413813  0.88818300  0.13100254  1
  O  O28  1  0.26263070  0.50907811  0.00363289  1
  O  O29  1  0.11644049  0.64283287  0.38248358  1
  O  O30  1  0.51547285  0.25203558  0.23936759  1
  O  O31  1  0.40396275  0.36816736  0.64078156  1
