# generated using pymatgen
data_Li9Mn2Co5O16
_symmetry_space_group_name_H-M   'P 1'
_cell_length_a   5.05484192
_cell_length_b   10.14133174
_cell_length_c   5.90460571
_cell_angle_alpha   89.93888660
_cell_angle_beta   74.36147011
_cell_angle_gamma   80.03041513
_symmetry_Int_Tables_number   1
_chemical_formula_structural   Li9Mn2Co5O16
_chemical_formula_sum   'Li9 Mn2 Co5 O16'
_cell_volume   286.74831655
_cell_formula_units_Z   1
loop_
 _symmetry_equiv_pos_site_id
 _symmetry_equiv_pos_as_xyz
  1  'x, y, z'
loop_
 _atom_site_type_symbol
 _atom_site_label
 _atom_site_symmetry_multiplicity
 _atom_site_fract_x
 _atom_site_fract_y
 _atom_site_fract_z
 _atom_site_occupancy
  Li  Li0  1  0.50274091  0.12960292  0.36652677  1
  Li  Li1  1  0.00703106  0.24674016  0.24946465  1
  Li  Li2  1  0.99416085  0.00485707  0.50829820  1
  Li  Li3  1  0.49956121  0.36560966  0.11822713  1
  Li  Li4  1  0.99102776  0.49511153  0.00363542  1
  Li  Li5  1  0.50211449  0.62343931  0.87370732  1
  Li  Li6  1  0.00389012  0.75257192  0.74018291  1
  Li  Li7  1  0.49981969  0.88294021  0.63173229  1
  Li  Li8  1  0.49944797  0.12368610  0.87437503  1
  Mn  Mn9  1  0.00101660  0.00190846  0.99431578  1
  Mn  Mn10  1  0.49920054  0.62578958  0.37511530  1
  Co  Co11  1  0.00114509  0.24750937  0.76445909  1
  Co  Co12  1  0.50570752  0.36531936  0.63174541  1
  Co  Co13  1  0.00011770  0.49284417  0.50421915  1
  Co  Co14  1  0.00336232  0.75057711  0.25029036  1
  Co  Co15  1  0.50183945  0.88060019  0.11687494  1
  O  O16  1  0.77283944  0.17562011  0.05583572  1
  O  O17  1  0.23936094  0.31559765  0.92115136  1
  O  O18  1  0.24739449  0.04574062  0.18064443  1
  O  O19  1  0.75184157  0.43815998  0.80115395  1
  O  O20  1  0.26750879  0.56212847  0.65928008  1
  O  O21  1  0.74859612  0.68025952  0.54342934  1
  O  O22  1  0.26259648  0.79951034  0.42841900  1
  O  O23  1  0.76029184  0.93206392  0.28233775  1
  O  O24  1  0.22396031  0.06038862  0.71231697  1
  O  O25  1  0.74655621  0.20175656  0.57031650  1
  O  O26  1  0.76932687  0.93510535  0.82548878  1
  O  O27  1  0.23509148  0.32039158  0.44542926  1
  O  O28  1  0.73242530  0.45162830  0.32355990  1
  O  O29  1  0.25138976  0.57471775  0.20060992  1
  O  O30  1  0.72867860  0.69414713  0.08983586  1
  O  O31  1  0.24995851  0.82367598  0.95701946  1
