# generated using pymatgen
data_Li9Mn2Co5O16
_symmetry_space_group_name_H-M   'P 1'
_cell_length_a   5.88455168
_cell_length_b   6.57882090
_cell_length_c   8.75550939
_cell_angle_alpha   97.50907812
_cell_angle_beta   70.42884606
_cell_angle_gamma   115.77177329
_symmetry_Int_Tables_number   1
_chemical_formula_structural   Li9Mn2Co5O16
_chemical_formula_sum   'Li9 Mn2 Co5 O16'
_cell_volume   287.56114322
_cell_formula_units_Z   1
loop_
 _symmetry_equiv_pos_site_id
 _symmetry_equiv_pos_as_xyz
  1  'x, y, z'
loop_
 _atom_site_type_symbol
 _atom_site_label
 _atom_site_symmetry_multiplicity
 _atom_site_fract_x
 _atom_site_fract_y
 _atom_site_fract_z
 _atom_site_occupancy
  Li  Li0  1  0.25881217  0.24604796  0.24174163  1
  Li  Li1  1  0.75354604  0.00630805  0.49817320  1
  Li  Li2  1  0.74435330  0.24748194  0.24742727  1
  Li  Li3  1  0.24645396  0.99369195  0.50182680  1
  Li  Li4  1  0.25564670  0.75251806  0.75257273  1
  Li  Li5  1  0.74118783  0.75395204  0.75825837  1
  Li  Li6  1  0.74778526  0.50299461  0.00175677  1
  Li  Li7  1  0.25221474  0.49700539  -0.00175677  1
  Li  Li8  1  0.50000000  -0.00000000  -0.00000000  1
  Mn  Mn9  1  0.00000000  -0.00000000  -0.00000000  1
  Mn  Mn10  1  0.00000000  0.50000000  0.50000000  1
  Co  Co11  1  0.49974095  0.76011591  0.24482580  1
  Co  Co12  1  0.50025905  0.23988409  0.75517420  1
  Co  Co13  1  0.01201524  0.75441436  0.24301421  1
  Co  Co14  1  0.50000000  0.50000000  0.50000000  1
  Co  Co15  1  0.98798476  0.24558564  0.75698579  1
  O  O16  1  0.87831137  -0.00842784  0.23592774  1
  O  O17  1  0.34972494  0.72875460  0.50020836  1
  O  O18  1  0.37320890  0.98295136  0.25522163  1
  O  O19  1  0.88001464  0.73166685  0.48995683  1
  O  O20  1  0.87359619  0.48928237  0.73614730  1
  O  O21  1  0.38140841  0.48449152  0.73629751  1
  O  O22  1  0.35025550  0.23392098  0.99523686  1
  O  O23  1  0.88978056  0.23872739  0.98698351  1
  O  O24  1  0.61859159  0.51550848  0.26370249  1
  O  O25  1  0.11998536  0.26833315  0.51004317  1
  O  O26  1  0.12640381  0.51071763  0.26385270  1
  O  O27  1  0.65027506  0.27124540  0.49979164  1
  O  O28  1  0.62679110  0.01704864  0.74477837  1
  O  O29  1  0.12168863  0.00842784  0.76407226  1
  O  O30  1  0.11021944  0.76127261  0.01301649  1
  O  O31  1  0.64974450  0.76607902  0.00476314  1
