# generated using pymatgen
data_Li9Mn2Co5O16
_symmetry_space_group_name_H-M   'P 1'
_cell_length_a   5.17577744
_cell_length_b   7.71427707
_cell_length_c   7.71427685
_cell_angle_alpha   96.48083032
_cell_angle_beta   76.24852379
_cell_angle_gamma   76.24851629
_symmetry_Int_Tables_number   1
_chemical_formula_structural   Li9Mn2Co5O16
_chemical_formula_sum   'Li9 Mn2 Co5 O16'
_cell_volume   285.88508201
_cell_formula_units_Z   1
loop_
 _symmetry_equiv_pos_site_id
 _symmetry_equiv_pos_as_xyz
  1  'x, y, z'
loop_
 _atom_site_type_symbol
 _atom_site_label
 _atom_site_symmetry_multiplicity
 _atom_site_fract_x
 _atom_site_fract_y
 _atom_site_fract_z
 _atom_site_occupancy
  Li  Li0  1  0.50137717  0.12659044  0.87461224  1
  Li  Li1  1  0.50000000  0.50026173  0.99973827  1
  Li  Li2  1  0.50845198  0.86523509  0.11971297  1
  Li  Li3  1  0.50000000  0.25215625  0.24784375  1
  Li  Li4  1  0.49862283  0.62538776  0.37340956  1
  Li  Li5  1  0.50000000  0.00018174  0.49981826  1
  Li  Li6  1  0.49154802  0.38028703  0.63476491  1
  Li  Li7  1  0.50000000  0.74685416  0.75314584  1
  Li  Li8  1  1.00000000  0.62361642  0.87638358  1
  Mn  Mn9  1  0.99387340  -0.00048968  0.99636746  1
  Mn  Mn10  1  0.00612660  0.50363254  0.50048968  1
  Co  Co11  1  0.00000000  0.37594458  0.12405542  1
  Co  Co12  1  0.99798768  0.74381536  0.24045804  1
  Co  Co13  1  1.00000000  0.12328703  0.37671297  1
  Co  Co14  1  1.00000000  0.87596529  0.62403471  1
  Co  Co15  1  0.00201232  0.25954196  0.75618464  1
  O  O16  1  0.23083371  0.00772567  0.76367110  1
  O  O17  1  0.22426802  0.36893240  0.88721846  1
  O  O18  1  0.23264758  0.76838238  0.01284221  1
  O  O19  1  0.20705956  0.12586442  0.12348118  1
  O  O20  1  0.23827660  0.50316639  0.26239099  1
  O  O21  1  0.22428846  0.88165776  0.38326856  1
  O  O22  1  0.23616502  0.26270381  0.50132360  1
  O  O23  1  0.21511716  0.63030525  0.61680967  1
  O  O24  1  0.76172340  0.23760901  0.99683361  1
  O  O25  1  0.77573198  0.61278154  0.13106760  1
  O  O26  1  0.76383498  0.99867640  0.23729619  1
  O  O27  1  0.79294044  0.37651882  0.37413558  1
  O  O28  1  0.76916629  0.73632890  0.49227433  1
  O  O29  1  0.77571154  0.11673144  0.61834224  1
  O  O30  1  0.76735242  0.48715779  0.73161762  1
  O  O31  1  0.78488284  0.88319033  0.86969475  1
