# generated using pymatgen
data_Li9Mn2Co5O16
_symmetry_space_group_name_H-M   'P 1'
_cell_length_a   5.00576374
_cell_length_b   9.78327483
_cell_length_c   5.86100349
_cell_angle_alpha   90.00000000
_cell_angle_beta   90.00000000
_cell_angle_gamma   99.73319172
_symmetry_Int_Tables_number   1
_chemical_formula_structural   Li9Mn2Co5O16
_chemical_formula_sum   'Li9 Mn2 Co5 O16'
_cell_volume   282.89794122
_cell_formula_units_Z   1
loop_
 _symmetry_equiv_pos_site_id
 _symmetry_equiv_pos_as_xyz
  1  'x, y, z'
loop_
 _atom_site_type_symbol
 _atom_site_label
 _atom_site_symmetry_multiplicity
 _atom_site_fract_x
 _atom_site_fract_y
 _atom_site_fract_z
 _atom_site_occupancy
  Li  Li0  1  0.25281147  0.25595052  0.24790410  1
  Li  Li1  1  0.74718853  0.74404948  0.24790410  1
  Li  Li2  1  0.74683307  0.25256488  0.50039255  1
  Li  Li3  1  0.25316693  0.74743512  0.50039255  1
  Li  Li4  1  0.25376994  0.25313535  0.75310010  1
  Li  Li5  1  0.74623006  0.74686465  0.75310010  1
  Li  Li6  1  0.74996287  0.25352336  -0.00019099  1
  Li  Li7  1  0.25003713  0.74647664  -0.00019099  1
  Li  Li8  1  0.50000000  0.50000000  0.00071110  1
  Mn  Mn9  1  0.00000000  0.00000000  0.00007680  1
  Mn  Mn10  1  0.00000000  0.50000000  0.75386740  1
  Co  Co11  1  0.50000000  0.00000000  0.25420811  1
  Co  Co12  1  0.00000000  0.50000000  0.24643345  1
  Co  Co13  1  0.00000000  0.00000000  0.49112628  1
  Co  Co14  1  0.50000000  0.50000000  0.50265696  1
  Co  Co15  1  0.50000000  0.00000000  0.74405416  1
  O  O16  1  0.88999253  0.11748471  0.23896273  1
  O  O17  1  0.35327711  0.60427101  0.27247527  1
  O  O18  1  0.37255135  0.11863759  0.50805092  1
  O  O19  1  0.85960887  0.61229430  0.51056537  1
  O  O20  1  0.87494142  0.11295343  0.76143112  1
  O  O21  1  0.36220773  0.60819375  0.72966710  1
  O  O22  1  0.35871358  0.11478239  0.99626022  1
  O  O23  1  0.89439317  0.61570557  0.98481439  1
  O  O24  1  0.64672289  0.39572899  0.27247527  1
  O  O25  1  0.11000747  0.88251529  0.23896273  1
  O  O26  1  0.14039113  0.38770570  0.51056537  1
  O  O27  1  0.62744865  0.88136241  0.50805092  1
  O  O28  1  0.63779227  0.39180625  0.72966710  1
  O  O29  1  0.12505858  0.88704657  0.76143112  1
  O  O30  1  0.10560683  0.38429443  0.98481439  1
  O  O31  1  0.64128642  0.88521761  0.99626022  1
