# generated using pymatgen
data_Li9Mn2Co5O16
_symmetry_space_group_name_H-M   'P 1'
_cell_length_a   5.11646398
_cell_length_b   10.12049787
_cell_length_c   5.87983871
_cell_angle_alpha   74.21493681
_cell_angle_beta   90.48542883
_cell_angle_gamma   79.66299679
_symmetry_Int_Tables_number   1
_chemical_formula_structural   Li9Mn2Co5O16
_chemical_formula_sum   'Li9 Mn2 Co5 O16'
_cell_volume   287.69970845
_cell_formula_units_Z   1
loop_
 _symmetry_equiv_pos_site_id
 _symmetry_equiv_pos_as_xyz
  1  'x, y, z'
loop_
 _atom_site_type_symbol
 _atom_site_label
 _atom_site_symmetry_multiplicity
 _atom_site_fract_x
 _atom_site_fract_y
 _atom_site_fract_z
 _atom_site_occupancy
  Li  Li0  1  0.50174462  0.00563805  0.74577090  1
  Li  Li1  1  0.25555016  0.24740482  0.38808878  1
  Li  Li2  1  0.50414181  0.00231085  0.24777082  1
  Li  Li3  1  0.24332439  0.25201338  0.86331039  1
  Li  Li4  1  0.75220237  0.75120041  0.12231398  1
  Li  Li5  1  0.74882104  0.74869882  0.62830404  1
  Li  Li6  1  0.99595049  0.49335228  0.50717516  1
  Li  Li7  1  0.99669259  0.49861479  0.99916879  1
  Li  Li8  1  0.74983809  0.24920832  0.62749544  1
  Mn  Mn9  1  0.00372983  0.00297269  0.99677850  1
  Mn  Mn10  1  0.50012143  0.49646873  0.74875111  1
  Co  Co11  1  0.50772827  0.49204602  0.26053762  1
  Co  Co12  1  0.25228956  0.74916907  0.87559704  1
  Co  Co13  1  0.98329235  0.01033528  0.49729925  1
  Co  Co14  1  0.74989565  0.25128418  0.11808363  1
  Co  Co15  1  0.24861737  0.75134299  0.37668274  1
  O  O16  1  0.35173140  0.87451807  0.06037531  1
  O  O17  1  0.12232695  0.11265127  0.70767684  1
  O  O18  1  0.35294292  0.87065322  0.55657111  1
  O  O19  1  0.11590750  0.11830479  0.18045147  1
  O  O20  1  0.61243965  0.61516954  0.45796974  1
  O  O21  1  0.60187106  0.62132241  0.93145435  1
  O  O22  1  0.84220774  0.38237099  0.81435925  1
  O  O23  1  0.85130846  0.37527173  0.29671505  1
  O  O24  1  0.64494247  0.12132183  0.43371579  1
  O  O25  1  0.38567380  0.38222449  0.04318376  1
  O  O26  1  0.66065660  0.12147402  0.95178997  1
  O  O27  1  0.37868127  0.38613885  0.56689414  1
  O  O28  1  0.89568091  0.88078990  0.81934985  1
  O  O29  1  0.89209126  0.88204144  0.29225433  1
  O  O30  1  0.14970235  0.62777489  0.19302291  1
  O  O31  1  0.14789565  0.62591189  0.69109092  1
