# generated using pymatgen
data_Li9Mn2Co5O16
_symmetry_space_group_name_H-M   'P 1'
_cell_length_a   5.07351210
_cell_length_b   10.17068367
_cell_length_c   5.92991600
_cell_angle_alpha   89.74401579
_cell_angle_beta   74.10039132
_cell_angle_gamma   79.62904803
_symmetry_Int_Tables_number   1
_chemical_formula_structural   Li9Mn2Co5O16
_chemical_formula_sum   'Li9 Mn2 Co5 O16'
_cell_volume   289.15066188
_cell_formula_units_Z   1
loop_
 _symmetry_equiv_pos_site_id
 _symmetry_equiv_pos_as_xyz
  1  'x, y, z'
loop_
 _atom_site_type_symbol
 _atom_site_label
 _atom_site_symmetry_multiplicity
 _atom_site_fract_x
 _atom_site_fract_y
 _atom_site_fract_z
 _atom_site_occupancy
  Li  Li0  1  0.50523604  0.12755949  0.36800529  1
  Li  Li1  1  0.00916349  0.24502473  0.24858228  1
  Li  Li2  1  0.99255232  0.00241723  0.50693365  1
  Li  Li3  1  0.49550245  0.36483294  0.12375086  1
  Li  Li4  1  0.99754585  0.49912266  0.99816481  1
  Li  Li5  1  0.50028185  0.62790755  0.87168825  1
  Li  Li6  1  0.00156960  0.75193321  0.74840920  1
  Li  Li7  1  0.50123902  0.88124509  0.63077816  1
  Li  Li8  1  0.50001138  0.12388460  0.87366593  1
  Mn  Mn9  1  0.00082855  0.00115493  0.99538948  1
  Mn  Mn10  1  0.99770898  0.49969994  0.50105980  1
  Co  Co11  1  0.00432210  0.24717177  0.76181797  1
  Co  Co12  1  0.50315705  0.36640954  0.63119986  1
  Co  Co13  1  0.49779282  0.62572864  0.37475823  1
  Co  Co14  1  0.00001237  0.75088384  0.24775087  1
  Co  Co15  1  0.50222763  0.88288505  0.11738676  1
  O  O16  1  0.77347586  0.17658468  0.05489080  1
  O  O17  1  0.23863605  0.31214062  0.92092221  1
  O  O18  1  0.24692980  0.04657320  0.17825649  1
  O  O19  1  0.75740486  0.44249575  0.78913529  1
  O  O20  1  0.24418859  0.55303734  0.66763646  1
  O  O21  1  0.76537463  0.67862447  0.55014501  1
  O  O22  1  0.25914292  0.79914629  0.42080510  1
  O  O23  1  0.76787936  0.93806548  0.29010384  1
  O  O24  1  0.22451262  0.05971558  0.70984321  1
  O  O25  1  0.74642842  0.20353471  0.57223418  1
  O  O26  1  0.76525898  0.93842994  0.83026583  1
  O  O27  1  0.23242715  0.32318108  0.44808851  1
  O  O28  1  0.74901181  0.45201670  0.32888271  1
  O  O29  1  0.23399090  0.56109033  0.21125004  1
  O  O30  1  0.74545524  0.69801884  0.08062074  1
  O  O31  1  0.24073131  0.81948276  0.94757620  1
