# generated using pymatgen
data_Li9Mn2Co5O16
_symmetry_space_group_name_H-M   'P 1'
_cell_length_a   5.91018499
_cell_length_b   7.78452730
_cell_length_c   7.78452783
_cell_angle_alpha   96.79731638
_cell_angle_beta   112.58263849
_cell_angle_gamma   112.58264394
_symmetry_Int_Tables_number   1
_chemical_formula_structural   Li9Mn2Co5O16
_chemical_formula_sum   'Li9 Mn2 Co5 O16'
_cell_volume   290.11246775
_cell_formula_units_Z   1
loop_
 _symmetry_equiv_pos_site_id
 _symmetry_equiv_pos_as_xyz
  1  'x, y, z'
loop_
 _atom_site_type_symbol
 _atom_site_label
 _atom_site_symmetry_multiplicity
 _atom_site_fract_x
 _atom_site_fract_y
 _atom_site_fract_z
 _atom_site_occupancy
  Li  Li0  1  0.00303333  0.13085960  0.37845395  1
  Li  Li1  1  0.99696667  0.62154605  0.86914040  1
  Li  Li2  1  0.50000000  0.25125317  0.74874683  1
  Li  Li3  1  0.50000000  0.75018997  0.24981003  1
  Li  Li4  1  -0.00034588  0.38040014  0.13263440  1
  Li  Li5  1  0.00034588  0.86736560  0.61959986  1
  Li  Li6  1  0.50000000  0.50141073  0.49858927  1
  Li  Li7  1  0.50000000  0.99884226  0.00115774  1
  Li  Li8  1  1.00000000  0.50085670  0.49914330  1
  Mn  Mn9  1  1.00000000  0.99942448  0.00057552  1
  Mn  Mn10  1  0.00000000  0.25168741  0.74831259  1
  Co  Co11  1  0.50600049  0.13240997  0.38115205  1
  Co  Co12  1  0.49399951  0.61884795  0.86759003  1
  Co  Co13  1  0.00000000  0.74458228  0.25541772  1
  Co  Co14  1  0.51183150  0.37889787  0.13550088  1
  Co  Co15  1  0.48816850  0.86449912  0.62110213  1
  O  O16  1  0.77058004  0.87801786  0.11660104  1
  O  O17  1  0.76100541  0.36107220  0.62894375  1
  O  O18  1  0.26291240  0.99729771  0.49155603  1
  O  O19  1  0.24196218  0.47837744  0.98278025  1
  O  O20  1  0.77752086  0.12318432  0.87457984  1
  O  O21  1  0.74540641  0.62238296  0.35939414  1
  O  O22  1  0.23649896  0.23224254  0.23285523  1
  O  O23  1  0.28467536  0.75580342  0.75474147  1
  O  O24  1  0.23899459  0.37105625  0.63892780  1
  O  O25  1  0.22941996  0.88339896  0.12198214  1
  O  O26  1  0.73708760  0.50844397  0.00270229  1
  O  O27  1  0.75803782  0.01721975  0.52162256  1
  O  O28  1  0.25459359  0.64060586  0.37761704  1
  O  O29  1  0.22247914  0.12542016  0.87681568  1
  O  O30  1  0.76350104  0.76714477  0.76775746  1
  O  O31  1  0.71532464  0.24525853  0.24419658  1
