# generated using pymatgen
data_Li9Mn2Co5O16
_symmetry_space_group_name_H-M   'P 1'
_cell_length_a   5.05885421
_cell_length_b   7.80324460
_cell_length_c   7.73487435
_cell_angle_alpha   81.99969215
_cell_angle_beta   102.92433479
_cell_angle_gamma   78.44203847
_symmetry_Int_Tables_number   1
_chemical_formula_structural   Li9Mn2Co5O16
_chemical_formula_sum   'Li9 Mn2 Co5 O16'
_cell_volume   286.10432219
_cell_formula_units_Z   1
loop_
 _symmetry_equiv_pos_site_id
 _symmetry_equiv_pos_as_xyz
  1  'x, y, z'
loop_
 _atom_site_type_symbol
 _atom_site_label
 _atom_site_symmetry_multiplicity
 _atom_site_fract_x
 _atom_site_fract_y
 _atom_site_fract_z
 _atom_site_occupancy
  Li  Li0  1  0.48343281  0.25825922  0.74137427  1
  Li  Li1  1  0.00569802  0.86685998  0.37631792  1
  Li  Li2  1  0.50180821  0.49788729  0.00248887  1
  Li  Li3  1  0.00315686  0.37933464  0.86909884  1
  Li  Li4  1  0.50282254  0.00406583  0.49872608  1
  Li  Li5  1  0.99621910  0.61562153  0.13672727  1
  Li  Li6  1  0.99195944  0.13904917  0.61742490  1
  Li  Li7  1  0.51027308  0.74212266  0.25654273  1
  Li  Li8  1  0.99908861  0.49849603  0.49802376  1
  Mn  Mn9  1  0.00024701  -0.00106969  0.99794374  1
  Mn  Mn10  1  0.50050750  0.61986359  0.62651665  1
  Co  Co11  1  0.99824568  0.25491908  0.25433836  1
  Co  Co12  1  0.50194855  0.87514010  0.87318237  1
  Co  Co13  1  0.49558387  0.12884893  0.13181610  1
  Co  Co14  1  -0.00077067  0.74247614  0.74190689  1
  Co  Co15  1  0.50154568  0.38420066  0.37670664  1
  O  O16  1  0.76402598  -0.00268589  0.76558821  1
  O  O17  1  0.27050806  0.62271090  0.39347139  1
  O  O18  1  0.76906518  0.22539290  0.01856366  1
  O  O19  1  0.24350262  0.11425762  0.88325689  1
  O  O20  1  0.74956086  0.74857918  0.52005059  1
  O  O21  1  0.24163543  0.36051865  0.13516326  1
  O  O22  1  0.27843810  0.85763833  0.63540638  1
  O  O23  1  0.72983382  0.49106129  0.24969445  1
  O  O24  1  0.26509201  0.51388637  0.74982756  1
  O  O25  1  0.75345441  0.13602021  0.36420854  1
  O  O26  1  0.22660903  0.77013826  0.98599581  1
  O  O27  1  0.73919278  0.63139042  0.86304190  1
  O  O28  1  0.24797283  0.25153535  0.47716862  1
  O  O29  1  0.75546647  0.88113003  0.10731203  1
  O  O30  1  0.72437301  0.39346705  0.62470253  1
  O  O31  1  0.24950309  -0.00111484  0.22740980  1
