# generated using pymatgen
data_Li9Mn2Co5O16
_symmetry_space_group_name_H-M   'P 1'
_cell_length_a   6.56838588
_cell_length_b   7.79358435
_cell_length_c   6.65212303
_cell_angle_alpha   89.53094769
_cell_angle_beta   71.61321473
_cell_angle_gamma   64.48524287
_symmetry_Int_Tables_number   1
_chemical_formula_structural   Li9Mn2Co5O16
_chemical_formula_sum   'Li9 Mn2 Co5 O16'
_cell_volume   288.37160628
_cell_formula_units_Z   1
loop_
 _symmetry_equiv_pos_site_id
 _symmetry_equiv_pos_as_xyz
  1  'x, y, z'
loop_
 _atom_site_type_symbol
 _atom_site_label
 _atom_site_symmetry_multiplicity
 _atom_site_fract_x
 _atom_site_fract_y
 _atom_site_fract_z
 _atom_site_occupancy
  Li  Li0  1  0.87634497  0.19098504  0.43884950  1
  Li  Li1  1  0.62284906  0.06440157  0.80793851  1
  Li  Li2  1  0.37508936  0.93876535  0.18957232  1
  Li  Li3  1  0.12647580  0.81994794  0.56137627  1
  Li  Li4  1  0.62901693  0.56251464  0.31130336  1
  Li  Li5  1  0.37702805  0.42538827  0.68848589  1
  Li  Li6  1  0.12598274  0.31289324  0.05743585  1
  Li  Li7  1  0.87003619  0.68562202  0.93980737  1
  Li  Li8  1  0.24971972  0.12656215  0.62718326  1
  Mn  Mn9  1  -0.00108756  -0.00096843  0.99778622  1
  Mn  Mn10  1  0.25073055  0.62577306  0.12429440  1
  Co  Co11  1  0.49267845  0.24847952  0.26397656  1
  Co  Co12  1  0.76466364  0.36981125  0.86913758  1
  Co  Co13  1  0.00097828  0.49865671  0.50049142  1
  Co  Co14  1  0.50311151  0.75319991  0.74729985  1
  Co  Co15  1  0.72936758  0.87918788  0.38437672  1
  O  O16  1  0.81761410  0.26074034  0.14435181  1
  O  O17  1  0.57188832  0.15343290  0.51601757  1
  O  O18  1  0.30472821  0.01079731  0.90535679  1
  O  O19  1  0.06004710  0.89425760  0.25955025  1
  O  O20  1  0.54614931  0.65019979  0.02925532  1
  O  O21  1  0.30696261  0.53574134  0.38548606  1
  O  O22  1  0.04187793  0.41049084  0.77993695  1
  O  O23  1  0.81427508  0.77304661  0.64472238  1
  O  O24  1  0.93712795  0.08867301  0.74652542  1
  O  O25  1  0.69918339  0.97532271  0.10023751  1
  O  O26  1  0.45381433  0.84030401  0.46579178  1
  O  O27  1  0.18416649  0.72730752  0.86714653  1
  O  O28  1  0.68357552  0.48093654  0.60454635  1
  O  O29  1  0.43894402  0.36316257  0.97880598  1
  O  O30  1  0.18994892  0.23637756  0.34357415  1
  O  O31  1  0.95671142  0.59798925  0.21938007  1
