# generated using pymatgen
data_Li9Mn2Co5O16
_symmetry_space_group_name_H-M   'P 1'
_cell_length_a   5.14387645
_cell_length_b   7.76761834
_cell_length_c   7.67520622
_cell_angle_alpha   97.77971199
_cell_angle_beta   102.96996804
_cell_angle_gamma   102.14900322
_symmetry_Int_Tables_number   1
_chemical_formula_structural   Li9Mn2Co5O16
_chemical_formula_sum   'Li9 Mn2 Co5 O16'
_cell_volume   286.73440806
_cell_formula_units_Z   1
loop_
 _symmetry_equiv_pos_site_id
 _symmetry_equiv_pos_as_xyz
  1  'x, y, z'
loop_
 _atom_site_type_symbol
 _atom_site_label
 _atom_site_symmetry_multiplicity
 _atom_site_fract_x
 _atom_site_fract_y
 _atom_site_fract_z
 _atom_site_occupancy
  Li  Li0  1  0.49924672  0.12921949  0.87193479  1
  Li  Li1  1  0.50191621  0.49462567  0.99875267  1
  Li  Li2  1  0.50142270  0.37745891  0.62182428  1
  Li  Li3  1  0.48929182  0.74097726  0.74193642  1
  Li  Li4  1  0.50510463  0.61673289  0.38213501  1
  Li  Li5  1  0.49546342  0.00143963  0.50385910  1
  Li  Li6  1  0.50038787  0.87699963  0.12530905  1
  Li  Li7  1  0.50725534  0.25820834  0.25442725  1
  Li  Li8  1  -0.00024310  0.50255065  0.50070001  1
  Mn  Mn9  1  0.00155647  0.00231620  0.99831974  1
  Mn  Mn10  1  0.00022838  0.74745152  0.25224492  1
  Co  Co11  1  -0.00241216  0.37526676  0.13094902  1
  Co  Co12  1  -0.00251823  0.13615823  0.38396481  1
  Co  Co13  1  0.00370460  0.87000166  0.62391328  1
  Co  Co14  1  0.00636824  0.26114429  0.74614582  1
  Co  Co15  1  0.99512288  0.62211296  0.87264493  1
  O  O16  1  0.22955874  0.88271735  0.87716827  1
  O  O17  1  0.22610146  0.23436771  -0.00171943  1
  O  O18  1  0.23427183  0.12207899  0.62202013  1
  O  O19  1  0.22867717  0.49357221  0.76276858  1
  O  O20  1  0.23520629  0.36727046  0.35932448  1
  O  O21  1  0.23332014  0.75523253  0.48518947  1
  O  O22  1  0.21482779  0.62787176  0.11673019  1
  O  O23  1  0.21598667  0.98919802  0.23904662  1
  O  O24  1  0.76541393  0.37412968  0.88286618  1
  O  O25  1  0.78260981  0.76453091  0.00726990  1
  O  O26  1  0.77317239  0.63322261  0.64450586  1
  O  O27  1  0.77859839  0.00454093  0.76121573  1
  O  O28  1  0.77711490  0.86703921  0.37324680  1
  O  O29  1  0.75954734  0.23304181  0.49607247  1
  O  O30  1  0.77477017  0.12078428  0.12090118  1
  O  O31  1  0.76892719  0.51773646  0.24433448  1
