# generated using pymatgen
data_Li9Mn2Co5O16
_symmetry_space_group_name_H-M   'P 1'
_cell_length_a   5.81962113
_cell_length_b   9.74546153
_cell_length_c   5.89130989
_cell_angle_alpha   97.56659350
_cell_angle_beta   60.40172113
_cell_angle_gamma   89.99999808
_symmetry_Int_Tables_number   1
_chemical_formula_structural   Li9Mn2Co5O16
_chemical_formula_sum   'Li9 Mn2 Co5 O16'
_cell_volume   287.17418575
_cell_formula_units_Z   1
loop_
 _symmetry_equiv_pos_site_id
 _symmetry_equiv_pos_as_xyz
  1  'x, y, z'
loop_
 _atom_site_type_symbol
 _atom_site_label
 _atom_site_symmetry_multiplicity
 _atom_site_fract_x
 _atom_site_fract_y
 _atom_site_fract_z
 _atom_site_occupancy
  Li  Li0  1  0.62219880  0.24640810  0.25560241  1
  Li  Li1  1  0.37780120  0.75359190  0.74439759  1
  Li  Li2  1  0.12659836  0.24553934  0.24680329  1
  Li  Li3  1  0.12989181  0.24836153  0.74704111  1
  Li  Li4  1  0.87010819  0.75163847  0.25295889  1
  Li  Li5  1  0.62306708  0.24836153  0.74704111  1
  Li  Li6  1  0.37693292  0.75163847  0.25295889  1
  Li  Li7  1  0.87340164  0.75446066  0.75319671  1
  Li  Li8  1  0.50000000  0.00000000  0.50000000  1
  Mn  Mn9  1  -0.00000000  0.00000000  0.00000000  1
  Mn  Mn10  1  0.50000000  0.00000000  0.00000000  1
  Co  Co11  1  0.75032812  0.50000000  0.50000000  1
  Co  Co12  1  0.24967188  0.50000000  0.50000000  1
  Co  Co13  1  0.24978322  0.50031808  0.00043357  1
  Co  Co14  1  -0.00000000  0.00000000  0.50000000  1
  Co  Co15  1  0.75021678  0.49968192  0.99956643  1
  O  O16  1  0.79771590  0.11727086  0.90456820  1
  O  O17  1  0.56087917  0.61794725  0.37824165  1
  O  O18  1  0.30585167  0.11234376  0.88829666  1
  O  O19  1  0.30658718  0.10559674  0.35332829  1
  O  O20  1  0.06264184  0.61477449  0.87471119  1
  O  O21  1  0.84008453  0.10559674  0.35332829  1
  O  O22  1  0.56264697  0.61477449  0.87471119  1
  O  O23  1  0.06199772  0.61691848  0.37600456  1
  O  O24  1  0.43912083  0.38205275  0.62175835  1
  O  O25  1  0.20228410  0.88272914  0.09543180  1
  O  O26  1  0.93800228  0.38308152  0.62399544  1
  O  O27  1  0.93735816  0.38522551  0.12528881  1
  O  O28  1  0.69341282  0.89440326  0.64667171  1
  O  O29  1  0.43735303  0.38522551  0.12528881  1
  O  O30  1  0.15991547  0.89440326  0.64667171  1
  O  O31  1  0.69414833  0.88765624  0.11170334  1
