# generated using pymatgen
data_Li9Mn2Co5O16
_symmetry_space_group_name_H-M   'P 1'
_cell_length_a   5.12907165
_cell_length_b   5.88170194
_cell_length_c   9.73138357
_cell_angle_alpha   88.40309172
_cell_angle_beta   78.80037388
_cell_angle_gamma   89.50835545
_symmetry_Int_Tables_number   1
_chemical_formula_structural   Li9Mn2Co5O16
_chemical_formula_sum   'Li9 Mn2 Co5 O16'
_cell_volume   287.86914230
_cell_formula_units_Z   1
loop_
 _symmetry_equiv_pos_site_id
 _symmetry_equiv_pos_as_xyz
  1  'x, y, z'
loop_
 _atom_site_type_symbol
 _atom_site_label
 _atom_site_symmetry_multiplicity
 _atom_site_fract_x
 _atom_site_fract_y
 _atom_site_fract_z
 _atom_site_occupancy
  Li  Li0  1  0.49945295  0.25401851  0.99459698  1
  Li  Li1  1  0.25746788  0.50483897  0.25476164  1
  Li  Li2  1  0.49767886  0.74473390  0.99782186  1
  Li  Li3  1  0.25382812  0.99767620  0.26286316  1
  Li  Li4  1  0.74564560  0.00209210  0.74156547  1
  Li  Li5  1  0.75083730  0.49130508  0.73966284  1
  Li  Li6  1  0.99139948  0.76545562  0.50773948  1
  Li  Li7  1  0.00431394  0.23895579  0.50169166  1
  Li  Li8  1  0.50592183  0.00061498  0.49993642  1
  Mn  Mn9  1  -0.00025137  -0.00148755  0.00092326  1
  Mn  Mn10  1  0.74927716  0.24754737  0.25364660  1
  Co  Co11  1  0.50022708  0.50000757  0.49887002  1
  Co  Co12  1  0.25904102  0.75627322  0.73987201  1
  Co  Co13  1  0.99378662  0.49896423  0.99985377  1
  Co  Co14  1  0.75597365  0.75405418  0.25439326  1
  Co  Co15  1  0.25030648  0.24716864  0.74329046  1
  O  O16  1  0.34529572  -0.00191776  0.88268388  1
  O  O17  1  0.09691829  0.24470800  0.11422016  1
  O  O18  1  0.33174512  0.50219022  0.87737853  1
  O  O19  1  0.09810729  0.76525453  0.12827956  1
  O  O20  1  0.60972477  0.73597246  0.62835924  1
  O  O21  1  0.59722165  0.26053569  0.62650772  1
  O  O22  1  0.86414028  0.49048311  0.35757408  1
  O  O23  1  0.87378177  0.01788596  0.36591980  1
  O  O24  1  0.65383479  0.48639778  0.12239765  1
  O  O25  1  0.41623098  0.73554171  0.36848594  1
  O  O26  1  0.65387032  0.00580313  0.13503275  1
  O  O27  1  0.40778431  0.25577213  0.36556077  1
  O  O28  1  0.88898657  0.23163014  0.87995725  1
  O  O29  1  0.88844657  0.75897916  0.89480064  1
  O  O30  1  0.12577889  -0.00057872  0.63562209  1
  O  O31  1  0.13322609  0.50912363  0.62573106  1
