# generated using pymatgen
data_Li9Mn2Co5O16
_symmetry_space_group_name_H-M   'P 1'
_cell_length_a   5.11330120
_cell_length_b   10.51450086
_cell_length_c   5.88116880
_cell_angle_alpha   97.74454491
_cell_angle_beta   105.55789510
_cell_angle_gamma   104.53706831
_symmetry_Int_Tables_number   1
_chemical_formula_structural   Li9Mn2Co5O16
_chemical_formula_sum   'Li9 Mn2 Co5 O16'
_cell_volume   287.85025236
_cell_formula_units_Z   1
loop_
 _symmetry_equiv_pos_site_id
 _symmetry_equiv_pos_as_xyz
  1  'x, y, z'
loop_
 _atom_site_type_symbol
 _atom_site_label
 _atom_site_symmetry_multiplicity
 _atom_site_fract_x
 _atom_site_fract_y
 _atom_site_fract_z
 _atom_site_occupancy
  Li  Li0  1  0.63351323  0.13549829  0.19588459  1
  Li  Li1  1  0.63148300  0.13186040  0.69283260  1
  Li  Li2  1  0.87302444  0.36985970  0.55166565  1
  Li  Li3  1  0.87784291  0.37412615  0.06745420  1
  Li  Li4  1  0.11756047  0.61916089  0.93704595  1
  Li  Li5  1  0.11588514  0.61978309  0.43044102  1
  Li  Li6  1  0.37516872  0.87542938  0.30718763  1
  Li  Li7  1  0.37886027  0.87743607  0.81841020  1
  Li  Li8  1  0.24702990  0.25011523  0.37217984  1
  Mn  Mn9  1  0.00756704  0.00201266  0.00634089  1
  Mn  Mn10  1  0.74664113  0.74999080  0.12381361  1
  Co  Co11  1  0.00312394  0.00313300  0.50119299  1
  Co  Co12  1  0.24867499  0.24949581  0.87851763  1
  Co  Co13  1  0.49328971  0.48848232  0.73914040  1
  Co  Co14  1  0.48809007  0.49331559  0.24982934  1
  Co  Co15  1  0.74975054  0.74886270  0.62358802  1
  O  O16  1  0.29813196  0.05868454  0.85817746  1
  O  O17  1  0.27076360  0.05263854  0.32706503  1
  O  O18  1  0.55271968  0.31801862  0.20592675  1
  O  O19  1  0.55593872  0.32084215  0.72853152  1
  O  O20  1  0.80197332  0.57657718  0.59306050  1
  O  O21  1  0.79405716  0.57460004  0.09805011  1
  O  O22  1  0.04544206  0.81812316  0.98100405  1
  O  O23  1  0.02389948  0.81544347  0.45345311  1
  O  O24  1  0.94890038  0.17309987  0.53888585  1
  O  O25  1  0.94869633  0.17427428  0.01871137  1
  O  O26  1  0.19751596  0.43590963  0.90942964  1
  O  O27  1  0.20850189  0.44661593  0.41084422  1
  O  O28  1  0.45850978  0.69388259  0.27252580  1
  O  O29  1  0.47786962  0.68986366  0.79777622  1
  O  O30  1  0.72747564  0.93240344  0.67139533  1
  O  O31  1  0.70209893  0.93046083  0.13963446  1
