# generated using pymatgen
data_Li9Mn2Co5O16
_symmetry_space_group_name_H-M   'P 1'
_cell_length_a   5.91616822
_cell_length_b   6.48473805
_cell_length_c   7.77965750
_cell_angle_alpha   92.96208379
_cell_angle_beta   99.59844946
_cell_angle_gamma   76.46314515
_symmetry_Int_Tables_number   1
_chemical_formula_structural   Li9Mn2Co5O16
_chemical_formula_sum   'Li9 Mn2 Co5 O16'
_cell_volume   286.08635811
_cell_formula_units_Z   1
loop_
 _symmetry_equiv_pos_site_id
 _symmetry_equiv_pos_as_xyz
  1  'x, y, z'
loop_
 _atom_site_type_symbol
 _atom_site_label
 _atom_site_symmetry_multiplicity
 _atom_site_fract_x
 _atom_site_fract_y
 _atom_site_fract_z
 _atom_site_occupancy
  Li  Li0  1  0.06323956  0.11999741  0.36985670  1
  Li  Li1  1  0.31733240  0.63014869  0.88286263  1
  Li  Li2  1  0.42635514  0.86206690  0.60824231  1
  Li  Li3  1  0.68509036  0.38637345  0.13673112  1
  Li  Li4  1  0.81180628  0.63238813  0.88093004  1
  Li  Li5  1  0.18903622  0.38279018  0.13248712  1
  Li  Li6  1  0.55937686  0.11586178  0.36909976  1
  Li  Li7  1  0.93983672  0.86873263  0.62046141  1
  Li  Li8  1  0.37105179  0.74710315  0.24870226  1
  Mn  Mn9  1  0.00383121  0.00068948  0.00482974  1
  Mn  Mn10  1  0.12490849  0.24858580  0.74805788  1
  Co  Co11  1  0.24803701  0.49433495  0.49521827  1
  Co  Co12  1  0.49954888  0.99846072  0.00481290  1
  Co  Co13  1  0.73904737  0.51031482  0.48703015  1
  Co  Co14  1  0.62357775  0.26161186  0.74652441  1
  Co  Co15  1  0.87913381  0.74769472  0.24986912  1
  O  O16  1  0.79948538  0.06178807  0.17881681  1
  O  O17  1  0.04376373  0.53882274  0.67587122  1
  O  O18  1  0.15086208  0.78573713  0.43448050  1
  O  O19  1  0.39175652  0.29102663  0.92418234  1
  O  O20  1  0.54376513  0.54947458  0.69465530  1
  O  O21  1  0.91825621  0.29804453  0.92416697  1
  O  O22  1  0.27120472  0.05504346  0.16251176  1
  O  O23  1  0.66986751  0.80107034  0.44090512  1
  O  O24  1  0.33934673  0.19677777  0.57623130  1
  O  O25  1  0.59958799  0.71189246  0.06771130  1
  O  O26  1  0.72343305  0.96393165  0.83542241  1
  O  O27  1  0.96131073  0.44249724  0.31026311  1
  O  O28  1  0.07995306  0.70884965  0.06019692  1
  O  O29  1  0.46823782  0.43378941  0.33550508  1
  O  O30  1  0.86148119  0.20149982  0.57677468  1
  O  O31  1  0.19648129  0.95259985  0.81658936  1
