# generated using pymatgen
data_Li9Mn2Co5O16
_symmetry_space_group_name_H-M   'P 1'
_cell_length_a   5.84038118
_cell_length_b   6.57124867
_cell_length_c   8.86196666
_cell_angle_alpha   80.62174709
_cell_angle_beta   70.76038413
_cell_angle_gamma   63.61574900
_symmetry_Int_Tables_number   1
_chemical_formula_structural   Li9Mn2Co5O16
_chemical_formula_sum   'Li9 Mn2 Co5 O16'
_cell_volume   287.61022711
_cell_formula_units_Z   1
loop_
 _symmetry_equiv_pos_site_id
 _symmetry_equiv_pos_as_xyz
  1  'x, y, z'
loop_
 _atom_site_type_symbol
 _atom_site_label
 _atom_site_symmetry_multiplicity
 _atom_site_fract_x
 _atom_site_fract_y
 _atom_site_fract_z
 _atom_site_occupancy
  Li  Li0  1  0.49794245  0.24900693  0.25758424  1
  Li  Li1  1  0.00453363  0.75099307  0.74241576  1
  Li  Li2  1  0.25508586  0.99524797  0.49458031  1
  Li  Li3  1  0.74958015  0.50053364  0.00030607  1
  Li  Li4  1  0.25041985  0.49946636  -0.00030607  1
  Li  Li5  1  0.74491414  0.00475203  0.50541969  1
  Li  Li6  1  0.99546637  0.24900693  0.25758424  1
  Li  Li7  1  0.50205755  0.75099307  0.74241576  1
  Li  Li8  1  0.50000000  0.50000000  0.50000000  1
  Mn  Mn9  1  0.00000000  0.00000000  0.00000000  1
  Mn  Mn10  1  0.00000000  0.50000000  0.50000000  1
  Co  Co11  1  0.74128075  0.74414342  0.25879183  1
  Co  Co12  1  0.25871925  0.25585658  0.74120817  1
  Co  Co13  1  0.74421599  0.25585658  0.74120817  1
  Co  Co14  1  0.25578401  0.74414342  0.25879183  1
  Co  Co15  1  0.50000000  0.00000000  0.00000000  1
  O  O16  1  0.64696501  0.22739172  -0.00306198  1
  O  O17  1  0.11964736  0.73699205  0.49133571  1
  O  O18  1  0.38394814  0.98867768  0.24342604  1
  O  O19  1  0.88566457  0.49760894  0.73106192  1
  O  O20  1  0.38279333  0.47631580  0.75809754  1
  O  O21  1  0.89450097  0.97816497  0.23283308  1
  O  O22  1  0.12870525  0.22739172  -0.00306198  1
  O  O23  1  0.65202488  0.73699205  0.49133571  1
  O  O24  1  0.34797512  0.26300795  0.50866429  1
  O  O25  1  0.87129475  0.77260828  0.00306198  1
  O  O26  1  0.10549903  0.02183503  0.76716692  1
  O  O27  1  0.61720667  0.52368420  0.24190246  1
  O  O28  1  0.11433543  0.50239106  0.26893808  1
  O  O29  1  0.61605186  0.01132232  0.75657396  1
  O  O30  1  0.88035264  0.26300795  0.50866429  1
  O  O31  1  0.35303499  0.77260828  0.00306198  1
