# generated using pymatgen
data_Li9Mn2Co5O16
_symmetry_space_group_name_H-M   'P 1'
_cell_length_a   5.86416886
_cell_length_b   9.73943478
_cell_length_c   5.91899648
_cell_angle_alpha   79.42615057
_cell_angle_beta   60.44829114
_cell_angle_gamma   80.24452156
_symmetry_Int_Tables_number   1
_chemical_formula_structural   Li9Mn2Co5O16
_chemical_formula_sum   'Li9 Mn2 Co5 O16'
_cell_volume   287.85037045
_cell_formula_units_Z   1
loop_
 _symmetry_equiv_pos_site_id
 _symmetry_equiv_pos_as_xyz
  1  'x, y, z'
loop_
 _atom_site_type_symbol
 _atom_site_label
 _atom_site_symmetry_multiplicity
 _atom_site_fract_x
 _atom_site_fract_y
 _atom_site_fract_z
 _atom_site_occupancy
  Li  Li0  1  0.12595675  0.24713679  0.11993185  1
  Li  Li1  1  0.74707098  0.49958366  0.25390418  1
  Li  Li2  1  0.37368048  0.75587436  0.37835375  1
  Li  Li3  1  0.00210403  -0.00240204  0.50019198  1
  Li  Li4  1  0.62854400  0.24075047  0.61559436  1
  Li  Li5  1  0.25000930  0.50016925  0.74928173  1
  Li  Li6  1  0.87410546  0.75469850  0.88176666  1
  Li  Li7  1  0.50230022  0.00146948  0.00040592  1
  Li  Li8  1  0.50223531  0.00068230  0.49725085  1
  Mn  Mn9  1  0.00069854  0.00133130  0.99492026  1
  Mn  Mn10  1  0.25171322  0.49979956  0.25435590  1
  Co  Co11  1  0.13818324  0.24207674  0.61360118  1
  Co  Co12  1  0.38006700  0.75750524  0.87113007  1
  Co  Co13  1  0.62309413  0.24774658  0.12431444  1
  Co  Co14  1  0.74631689  0.49951193  0.75340301  1
  Co  Co15  1  0.86424265  0.75569276  0.37949597  1
  O  O16  1  0.28530104  0.12553186  0.81305620  1
  O  O17  1  0.90873992  0.37088126  0.93203536  1
  O  O18  1  0.53923108  0.61587041  0.07299457  1
  O  O19  1  0.17632972  0.88142868  0.17662239  1
  O  O20  1  0.81912558  0.12342387  0.27197682  1
  O  O21  1  0.42036064  0.38052887  0.43947096  1
  O  O22  1  0.06402352  0.62002804  0.53710889  1
  O  O23  1  0.68046837  0.86018590  0.69146768  1
  O  O24  1  0.95478778  0.38042833  0.44126738  1
  O  O25  1  0.56857848  0.62427282  0.57968480  1
  O  O26  1  0.17914059  0.88067671  0.71680349  1
  O  O27  1  0.83062006  0.11692974  0.80647088  1
  O  O28  1  0.42965202  0.38132836  0.97163950  1
  O  O29  1  0.08025326  0.62168544  0.07578122  1
  O  O30  1  0.71823952  0.87500010  0.18418280  1
  O  O31  1  0.33481921  0.14017271  0.30153895  1
