# generated using pymatgen
data_Li9Mn2Co5O16
_symmetry_space_group_name_H-M   'P 1'
_cell_length_a   5.74055684
_cell_length_b   9.77561247
_cell_length_c   5.82756753
_cell_angle_alpha   88.95695267
_cell_angle_beta   60.80490168
_cell_angle_gamma   98.49038205
_symmetry_Int_Tables_number   1
_chemical_formula_structural   Li9Mn2Co5O16
_chemical_formula_sum   'Li9 Mn2 Co5 O16'
_cell_volume   280.80932224
_cell_formula_units_Z   1
loop_
 _symmetry_equiv_pos_site_id
 _symmetry_equiv_pos_as_xyz
  1  'x, y, z'
loop_
 _atom_site_type_symbol
 _atom_site_label
 _atom_site_symmetry_multiplicity
 _atom_site_fract_x
 _atom_site_fract_y
 _atom_site_fract_z
 _atom_site_occupancy
  Li  Li0  1  0.75609202  0.26930932  0.13207236  1
  Li  Li1  1  0.75716570  0.73031247  0.37030335  1
  Li  Li2  1  0.76223953  0.26242704  0.61387678  1
  Li  Li3  1  0.25307577  0.26532829  0.61960295  1
  Li  Li4  1  0.24162261  0.73182348  0.88773775  1
  Li  Li5  1  0.24565512  0.26649946  0.13434036  1
  Li  Li6  1  0.74463708  0.73645318  0.87683160  1
  Li  Li7  1  0.24143433  0.73694182  0.37316614  1
  Li  Li8  1  0.00005460  0.49941059  0.25032004  1
  Mn  Mn9  1  0.00081221  0.00090023  0.99882507  1
  Mn  Mn10  1  0.49928549  0.99969661  0.50034845  1
  Co  Co11  1  0.99971609  0.99917758  0.49996288  1
  Co  Co12  1  -0.00001521  0.50083939  0.74887641  1
  Co  Co13  1  0.49842244  0.49878239  0.75097381  1
  Co  Co14  1  0.49970986  0.00022326  0.99918945  1
  Co  Co15  1  0.50029232  0.50073820  0.24987680  1
  O  O16  1  0.87040914  0.10504938  0.80712861  1
  O  O17  1  0.85328122  0.61396745  0.06804148  1
  O  O18  1  0.85556693  0.11649432  0.34239619  1
  O  O19  1  0.36980851  0.10485261  0.31056409  1
  O  O20  1  0.38339269  0.61531304  0.54228341  1
  O  O21  1  0.37440795  0.10683006  0.80704774  1
  O  O22  1  0.86204918  0.61549634  0.58196723  1
  O  O23  1  0.38600564  0.61368937  0.06812338  1
  O  O24  1  0.61289717  0.38740379  0.43143218  1
  O  O25  1  0.62768004  0.89389900  0.69043426  1
  O  O26  1  0.61717151  0.38440854  0.95789101  1
  O  O27  1  0.13541582  0.38259667  0.91884650  1
  O  O28  1  0.12892454  0.89390576  0.18951082  1
  O  O29  1  0.14918652  0.38810488  0.43032603  1
  O  O30  1  0.62733543  0.89456336  0.19071461  1
  O  O31  1  0.14626774  0.88456208  0.65698829  1
