# generated using pymatgen
data_Li9Mn2Co5O16
_symmetry_space_group_name_H-M   'P 1'
_cell_length_a   5.16784887
_cell_length_b   5.88680159
_cell_length_c   10.06755521
_cell_angle_alpha   91.43797390
_cell_angle_beta   79.76624324
_cell_angle_gamma   108.03865586
_symmetry_Int_Tables_number   1
_chemical_formula_structural   Li9Mn2Co5O16
_chemical_formula_sum   'Li9 Mn2 Co5 O16'
_cell_volume   286.44246549
_cell_formula_units_Z   1
loop_
 _symmetry_equiv_pos_site_id
 _symmetry_equiv_pos_as_xyz
  1  'x, y, z'
loop_
 _atom_site_type_symbol
 _atom_site_label
 _atom_site_symmetry_multiplicity
 _atom_site_fract_x
 _atom_site_fract_y
 _atom_site_fract_z
 _atom_site_occupancy
  Li  Li0  1  0.49873317  0.13270363  0.12542406  1
  Li  Li1  1  0.50208154  0.87761933  0.37899140  1
  Li  Li2  1  0.50184668  0.62424913  0.62759212  1
  Li  Li3  1  0.50712545  0.38727790  0.86576060  1
  Li  Li4  1  0.49866225  0.61880390  0.12100746  1
  Li  Li5  1  0.50361121  0.36962541  0.38172756  1
  Li  Li6  1  0.49154168  0.11939261  0.63074802  1
  Li  Li7  1  0.49766072  0.86645129  0.86712285  1
  Li  Li8  1  0.99827787  0.74701264  0.75109066  1
  Mn  Mn9  1  0.99823816  0.99800656  0.99666220  1
  Mn  Mn10  1  0.99829451  0.74959510  0.24959864  1
  Co  Co11  1  0.00462279  0.50848699  0.50893080  1
  Co  Co12  1  0.00069552  0.25237640  0.74966660  1
  Co  Co13  1  0.99310680  0.50299149  0.99759923  1
  Co  Co14  1  0.00546229  0.25122125  0.24917495  1
  Co  Co15  1  0.99949346  0.99681852  0.50758688  1
  O  O16  1  0.22057890  0.29281828  0.07261321  1
  O  O17  1  0.23086497  0.03956984  0.31433823  1
  O  O18  1  0.23782919  0.80223583  0.55520371  1
  O  O19  1  0.22058787  0.54192944  0.82746307  1
  O  O20  1  0.21180675  0.81167870  0.06336719  1
  O  O21  1  0.21878107  0.56623718  0.30038301  1
  O  O22  1  0.24005673  0.31316377  0.56359872  1
  O  O23  1  0.23001344  0.06374076  0.82705958  1
  O  O24  1  0.78542253  0.94036321  0.18790398  1
  O  O25  1  0.77003567  0.69061211  0.42464074  1
  O  O26  1  0.76397747  0.42455865  0.68467138  1
  O  O27  1  0.77817759  0.18542033  0.94650268  1
  O  O28  1  0.77291284  0.45942216  0.17832932  1
  O  O29  1  0.79126949  0.20482230  0.42485886  1
  O  O30  1  0.76809793  0.95120078  0.67691880  1
  O  O31  1  0.76013348  0.70959451  0.94346347  1
