# generated using pymatgen
data_LiNiPO4F
_symmetry_space_group_name_H-M   'P 1'
_cell_length_a   10.91885820
_cell_length_b   6.30507117
_cell_length_c   11.15345673
_cell_angle_alpha   90.00000000
_cell_angle_beta   90.23763916
_cell_angle_gamma   90.00000000
_symmetry_Int_Tables_number   1
_chemical_formula_structural   LiNiPO4F
_chemical_formula_sum   'Li8 Ni8 P8 O32 F8'
_cell_volume   767.84395699
_cell_formula_units_Z   8
loop_
 _symmetry_equiv_pos_site_id
 _symmetry_equiv_pos_as_xyz
  1  'x, y, z'
loop_
 _atom_site_type_symbol
 _atom_site_label
 _atom_site_symmetry_multiplicity
 _atom_site_fract_x
 _atom_site_fract_y
 _atom_site_fract_z
 _atom_site_occupancy
  Li  Li0  1  0.04373876  0.75000000  0.26739627  1
  Li  Li1  1  0.23615044  0.25000000  0.06978732  1
  Li  Li2  1  0.26252924  0.75000000  0.57922151  1
  Li  Li3  1  0.54778087  0.75000000  0.23412468  1
  Li  Li4  1  0.75807860  0.02154282  0.65964821  1
  Li  Li5  1  0.75807860  0.47845718  0.65964821  1
  Li  Li6  1  0.76644622  0.75000000  0.93498012  1
  Li  Li7  1  0.97189431  0.25000000  0.73301012  1
  Ni  Ni8  1  0.99958368  0.99947564  0.99934157  1
  Ni  Ni9  1  0.99958368  0.50052436  0.99934157  1
  Ni  Ni10  1  0.99774743  0.00065175  0.49991565  1
  Ni  Ni11  1  0.99774743  0.49934825  0.49991565  1
  Ni  Ni12  1  0.50331453  0.00439070  0.49972580  1
  Ni  Ni13  1  0.50331453  0.49560930  0.49972580  1
  Ni  Ni14  1  0.50036169  0.00343383  0.99628570  1
  Ni  Ni15  1  0.50036169  0.49656617  0.99628570  1
  P  P16  1  0.02399568  0.75000000  0.74188786  1
  P  P17  1  0.24167186  0.75000000  0.07265828  1
  P  P18  1  0.25844801  0.25000000  0.57488622  1
  P  P19  1  0.46853832  0.25000000  0.24245868  1
  P  P20  1  0.53625246  0.75000000  0.75153099  1
  P  P21  1  0.74370086  0.75000000  0.42956533  1
  P  P22  1  0.76175226  0.25000000  0.91859662  1
  P  P23  1  0.97126045  0.25000000  0.25443599  1
  O  O24  1  0.02083967  0.25000000  0.12388161  1
  O  O25  1  0.01508023  0.04825378  0.31987090  1
  O  O26  1  0.01508023  0.45174622  0.31987090  1
  O  O27  1  0.12006380  0.25000000  0.54237024  1
  O  O28  1  0.16376295  0.75000000  0.72982864  1
  O  O29  1  0.18150873  0.54497315  0.02392007  1
  O  O30  1  0.18150873  0.95502685  0.02392007  1
  O  O31  1  0.21700315  0.75000000  0.20932680  1
  O  O32  1  0.27577821  0.25000000  0.71322965  1
  O  O33  1  0.31883578  0.04547342  0.52878508  1
  O  O34  1  0.31883578  0.45452658  0.52878508  1
  O  O35  1  0.32699879  0.25000000  0.22969525  1
  O  O36  1  0.37895551  0.75000000  0.04098650  1
  O  O37  1  0.47846889  0.93749579  0.82243679  1
  O  O38  1  0.47846889  0.56250421  0.82243679  1
  O  O39  1  0.48385214  0.75000000  0.62245237  1
  O  O40  1  0.51005408  0.25000000  0.37468062  1
  O  O41  1  0.51539687  0.04828822  0.17830880  1
  O  O42  1  0.51539687  0.45171178  0.17830880  1
  O  O43  1  0.62469528  0.25000000  0.95730973  1
  O  O44  1  0.67694322  0.75000000  0.75212995  1
  O  O45  1  0.68633640  0.55490924  0.49359451  1
  O  O46  1  0.68633640  0.94509076  0.49359451  1
  O  O47  1  0.71581273  0.75000000  0.29605143  1
  O  O48  1  0.77644166  0.25000000  0.78072562  1
  O  O49  1  0.81954316  0.04594574  0.97177883  1
  O  O50  1  0.81954316  0.45405426  0.97177883  1
  O  O51  1  0.82940752  0.25000000  0.25995752  1
  O  O52  1  0.88258281  0.75000000  0.45892728  1
  O  O53  1  0.96750496  0.55012656  0.68118117  1
  O  O54  1  0.96750496  0.94987344  0.68118117  1
  O  O55  1  0.98109860  0.75000000  0.87594817  1
  F  F56  1  0.03613720  0.25000000  0.88923517  1
  F  F57  1  0.11371123  0.75000000  0.48176081  1
  F  F58  1  0.38602307  0.25000000  0.98602454  1
  F  F59  1  0.46943802  0.75000000  0.38996180  1
  F  F60  1  0.54851831  0.25000000  0.60816905  1
  F  F61  1  0.61400676  0.75000000  0.01567337  1
  F  F62  1  0.88221992  0.25000000  0.53480077  1
  F  F63  1  0.96556072  0.75000000  0.11038196  1
