# generated using pymatgen
data_Li7V3Ni(PO4)6
_symmetry_space_group_name_H-M   'P 1'
_cell_length_a   8.86332669
_cell_length_b   8.86332627
_cell_length_c   8.84933116
_cell_angle_alpha   59.94766407
_cell_angle_beta   120.05232977
_cell_angle_gamma   120.00000117
_symmetry_Int_Tables_number   1
_chemical_formula_structural   Li7V3Ni(PO4)6
_chemical_formula_sum   'Li7 V3 Ni1 P6 O24'
_cell_volume   491.18484061
_cell_formula_units_Z   1
loop_
 _symmetry_equiv_pos_site_id
 _symmetry_equiv_pos_as_xyz
  1  'x, y, z'
loop_
 _atom_site_type_symbol
 _atom_site_label
 _atom_site_symmetry_multiplicity
 _atom_site_fract_x
 _atom_site_fract_y
 _atom_site_fract_z
 _atom_site_occupancy
  Li  Li0  1  0.61838489  0.74013286  0.66477962  1
  Li  Li1  1  0.25986714  0.21347241  0.66477962  1
  Li  Li2  1  0.17571880  0.65357900  0.31216811  1
  Li  Li3  1  0.02207116  0.97792884  0.06621248  1
  Li  Li4  1  0.78652759  0.38161511  0.66477962  1
  Li  Li5  1  0.79002831  0.82428120  0.31216811  1
  Li  Li6  1  0.34642100  0.20997169  0.31216811  1
  V  V7  1  0.64635797  0.35364203  0.93907492  1
  V  V8  1  0.85618794  0.14381206  0.56856482  1
  V  V9  1  0.35556999  0.64443001  0.06670996  1
  Ni  Ni10  1  0.15103231  0.84896769  0.45309592  1
  P  P11  1  0.25395107  0.46020709  0.74948440  1
  P  P12  1  0.95574141  0.74604893  0.74948440  1
  P  P13  1  0.53979291  0.04425859  0.74948440  1
  P  P14  1  0.45482605  0.96030074  0.24866693  1
  P  P15  1  0.03969926  0.24585838  0.24866693  1
  P  P16  1  0.75414162  0.54517395  0.24866693  1
  O  O17  1  0.12276388  0.71087434  0.91943403  1
  O  O18  1  0.50754450  0.87723612  0.91943403  1
  O  O19  1  0.28912566  0.49245550  0.91943403  1
  O  O20  1  0.09173599  0.27513147  0.73827319  1
  O  O21  1  0.42165027  0.43479332  0.75972794  1
  O  O22  1  0.22224880  0.62344945  0.56741803  1
  O  O23  1  0.92166867  0.90826401  0.73827319  1
  O  O24  1  0.77287099  0.57834973  0.75972794  1
  O  O25  1  0.56520668  0.22712901  0.75972794  1
  O  O26  1  0.61923525  0.97602029  0.43192100  1
  O  O27  1  0.27696802  0.95354767  0.25215771  1
  O  O28  1  0.02397971  0.21129396  0.43192100  1
  O  O29  1  0.96861869  0.77775120  0.56741803  1
  O  O30  1  0.72486853  0.07833133  0.73827319  1
  O  O31  1  0.37655055  0.03138131  0.56741803  1
  O  O32  1  0.41251873  0.77088453  0.24271652  1
  O  O33  1  0.22911547  0.39891669  0.24271652  1
  O  O34  1  0.04645233  0.07126165  0.25215771  1
  O  O35  1  0.78870604  0.38076475  0.43192100  1
  O  O36  1  0.60108331  0.58748127  0.24271652  1
  O  O37  1  0.92873835  0.72303198  0.25215771  1
  O  O38  1  0.70603701  0.50254418  0.07992916  1
  O  O39  1  0.49745582  0.12356366  0.07992916  1
  O  O40  1  0.87643634  0.29396299  0.07992916  1
