# generated using pymatgen
data_LiCu2C2O7
_symmetry_space_group_name_H-M   'P 1'
_cell_length_a   4.81169555
_cell_length_b   4.83058875
_cell_length_c   15.25322125
_cell_angle_alpha   89.66898916
_cell_angle_beta   89.63929269
_cell_angle_gamma   60.26248140
_symmetry_Int_Tables_number   1
_chemical_formula_structural   LiCu2C2O7
_chemical_formula_sum   'Li2 Cu4 C4 O14'
_cell_volume   307.83811227
_cell_formula_units_Z   2
loop_
 _symmetry_equiv_pos_site_id
 _symmetry_equiv_pos_as_xyz
  1  'x, y, z'
loop_
 _atom_site_type_symbol
 _atom_site_label
 _atom_site_symmetry_multiplicity
 _atom_site_fract_x
 _atom_site_fract_y
 _atom_site_fract_z
 _atom_site_occupancy
  Li  Li0  1  0.00178020  0.99597521  0.49939925  1
  Li  Li1  1  0.00003665  0.00399339  0.99989662  1
  Cu  Cu2  1  0.33109518  0.33424948  0.86479923  1
  Cu  Cu3  1  0.33231159  0.33731510  0.63467099  1
  Cu  Cu4  1  0.66409162  0.66843593  0.36635042  1
  Cu  Cu5  1  0.67134417  0.66001628  0.13620945  1
  C  C6  1  0.66407228  0.66984585  0.58853504  1
  C  C7  1  0.66532255  0.66935324  0.91072112  1
  C  C8  1  0.33343088  0.33192483  0.41075847  1
  C  C9  1  0.33428539  0.32966432  0.08876196  1
  O  O10  1  0.38796352  0.92577560  0.91289418  1
  O  O11  1  0.07773137  0.60941154  0.41268819  1
  O  O12  1  0.38578367  0.68880790  0.58578602  1
  O  O13  1  0.31615178  0.60630098  0.09079668  1
  O  O14  1  0.68503501  0.92675667  0.58679666  1
  O  O15  1  0.07397067  0.31263123  0.08555373  1
  O  O16  1  0.67708211  0.67895314  0.25113251  1
  O  O17  1  0.34756642  0.30903855  0.74972664  1
  O  O18  1  0.92302609  0.69112589  0.90837614  1
  O  O19  1  0.30939197  0.07643608  0.41153158  1
  O  O20  1  0.68392767  0.39259115  0.91297471  1
  O  O21  1  0.61323218  0.30913129  0.41009026  1
  O  O22  1  0.92021119  0.39265736  0.59085366  1
  O  O23  1  0.61038583  0.07218199  0.08773548  1
