# generated using pymatgen
data_Li9Mn2Co5O16
_symmetry_space_group_name_H-M   'P 1'
_cell_length_a   5.83270014
_cell_length_b   5.91936451
_cell_length_c   10.13135485
_cell_angle_alpha   106.94289350
_cell_angle_beta   106.72951591
_cell_angle_gamma   60.48314664
_symmetry_Int_Tables_number   1
_chemical_formula_structural   Li9Mn2Co5O16
_chemical_formula_sum   'Li9 Mn2 Co5 O16'
_cell_volume   286.77556983
_cell_formula_units_Z   1
loop_
 _symmetry_equiv_pos_site_id
 _symmetry_equiv_pos_as_xyz
  1  'x, y, z'
loop_
 _atom_site_type_symbol
 _atom_site_label
 _atom_site_symmetry_multiplicity
 _atom_site_fract_x
 _atom_site_fract_y
 _atom_site_fract_z
 _atom_site_occupancy
  Li  Li0  1  0.50000000  0.50000000  -0.00000000  1
  Li  Li1  1  0.00000000  0.50000000  -0.00000000  1
  Li  Li2  1  0.25533250  0.74590836  0.25657336  1
  Li  Li3  1  0.75006776  0.75474814  0.25488366  1
  Li  Li4  1  0.00000000  -0.00000000  0.50000000  1
  Li  Li5  1  0.50000000  -0.00000000  0.50000000  1
  Li  Li6  1  0.74466750  0.25409164  0.74342664  1
  Li  Li7  1  0.24993224  0.24525186  0.74511634  1
  Li  Li8  1  0.50000000  0.50000000  0.50000000  1
  Mn  Mn9  1  0.00000000  -0.00000000  -0.00000000  1
  Mn  Mn10  1  0.00000000  0.50000000  0.50000000  1
  Co  Co11  1  0.50000000  -0.00000000  -0.00000000  1
  Co  Co12  1  0.74427017  0.25563381  0.25616384  1
  Co  Co13  1  0.25625986  0.25563381  0.25616384  1
  Co  Co14  1  0.25572983  0.74436619  0.74383616  1
  Co  Co15  1  0.74374014  0.74436619  0.74383616  1
  O  O16  1  0.64828915  0.11093172  0.88333639  1
  O  O17  1  0.12411552  0.11093172  0.88333639  1
  O  O18  1  0.38331133  0.35578941  0.12241206  1
  O  O19  1  0.89444690  0.33804127  0.12693507  1
  O  O20  1  0.11993128  0.60621629  0.37766609  1
  O  O21  1  0.65151853  0.60621629  0.37766609  1
  O  O22  1  0.88462979  0.84891214  0.61817171  1
  O  O23  1  0.38730053  0.86706785  0.64166890  1
  O  O24  1  0.35171085  0.88906828  0.11666361  1
  O  O25  1  0.87588448  0.88906828  0.11666361  1
  O  O26  1  0.11537021  0.15108786  0.38182829  1
  O  O27  1  0.61269947  0.13293215  0.35833110  1
  O  O28  1  0.88006872  0.39378371  0.62233391  1
  O  O29  1  0.34848147  0.39378371  0.62233391  1
  O  O30  1  0.61668867  0.64421059  0.87758794  1
  O  O31  1  0.10555310  0.66195873  0.87306493  1
