# generated using pymatgen
data_LiFe2(PO3)5
_symmetry_space_group_name_H-M   'P 1'
_cell_length_a   7.29070507
_cell_length_b   7.29070507
_cell_length_c   13.21028892
_cell_angle_alpha   85.75316725
_cell_angle_beta   94.24683275
_cell_angle_gamma   63.95302421
_symmetry_Int_Tables_number   1
_chemical_formula_structural   LiFe2(PO3)5
_chemical_formula_sum   'Li2 Fe4 P10 O30'
_cell_volume   624.66836020
_cell_formula_units_Z   2
loop_
 _symmetry_equiv_pos_site_id
 _symmetry_equiv_pos_as_xyz
  1  'x, y, z'
loop_
 _atom_site_type_symbol
 _atom_site_label
 _atom_site_symmetry_multiplicity
 _atom_site_fract_x
 _atom_site_fract_y
 _atom_site_fract_z
 _atom_site_occupancy
  Li  Li0  1  0.88000955  0.95216653  0.78824776  1
  Li  Li1  1  0.04783347  0.11999045  0.28824776  1
  Fe  Fe2  1  0.21092536  0.30916568  0.74446793  1
  Fe  Fe3  1  0.69083432  0.78907464  0.24446793  1
  Fe  Fe4  1  0.78413027  0.27410178  0.60461924  1
  Fe  Fe5  1  0.72589822  0.21586973  0.10461924  1
  P  P6  1  0.64802589  0.97531445  0.51001208  1
  P  P7  1  0.30725976  0.59986336  0.55838499  1
  P  P8  1  0.37506984  0.84439295  0.83868095  1
  P  P9  1  0.02468555  0.35197411  0.01001208  1
  P  P10  1  0.40013664  0.69274024  0.05838499  1
  P  P11  1  0.15560705  0.62493016  0.33868095  1
  P  P12  1  0.19626539  0.07029267  0.52796593  1
  P  P13  1  0.92970733  0.80373461  0.02796593  1
  P  P14  1  0.77011332  0.44902797  0.81097604  1
  P  P15  1  0.55097203  0.22988668  0.31097604  1
  O  O16  1  0.17232794  0.84977554  0.81182618  1
  O  O17  1  0.15022446  0.82767206  0.31182618  1
  O  O18  1  0.24858834  0.51846642  0.65135326  1
  O  O19  1  0.48153358  0.75141166  0.15135326  1
  O  O20  1  0.22247158  0.84210593  0.55650966  1
  O  O21  1  0.15789407  0.77752842  0.05650966  1
  O  O22  1  0.43438131  0.81544436  0.96138964  1
  O  O23  1  0.18455564  0.56561869  0.46138964  1
  O  O24  1  0.41527763  0.02027149  0.79586254  1
  O  O25  1  0.97972851  0.58472237  0.29586254  1
  O  O26  1  0.21136987  0.29216230  0.95763357  1
  O  O27  1  0.70783770  0.78863013  0.45763357  1
  O  O28  1  0.83873219  0.91333749  0.92490363  1
  O  O29  1  0.53174773  0.51257460  0.54479047  1
  O  O30  1  0.08666251  0.16126781  0.42490363  1
  O  O31  1  0.54843854  0.63583259  0.80387240  1
  O  O32  1  0.48742540  0.46825227  0.04479047  1
  O  O33  1  0.36416741  0.45156146  0.30387240  1
  O  O34  1  0.08889220  0.18915769  0.61537361  1
  O  O35  1  0.81084231  0.91110780  0.11537361  1
  O  O36  1  0.41892150  0.05798204  0.54522400  1
  O  O37  1  0.94201796  0.58107850  0.04522400  1
  O  O38  1  0.92073621  0.51783175  0.76996519  1
  O  O39  1  0.48216825  0.07926379  0.26996519  1
  O  O40  1  0.82827921  0.37558272  0.93098698  1
  O  O41  1  0.62441728  0.17172079  0.43098698  1
  O  O42  1  0.74917819  0.27817733  0.76000114  1
  O  O43  1  0.72182267  0.25082181  0.26000114  1
  O  O44  1  0.77158257  0.99447575  0.60275181  1
  O  O45  1  0.00552425  0.22841743  0.10275181  1
