# generated using pymatgen
data_Mn3NbFe2(PO4)6
_symmetry_space_group_name_H-M   'P 1'
_cell_length_a   8.64214500
_cell_length_b   8.64214536
_cell_length_c   8.64214520
_cell_angle_alpha   60.78104875
_cell_angle_beta   60.78105376
_cell_angle_gamma   60.78104856
_symmetry_Int_Tables_number   1
_chemical_formula_structural   Mn3NbFe2(PO4)6
_chemical_formula_sum   'Mn3 Nb1 Fe2 P6 O24'
_cell_volume   464.44561071
_cell_formula_units_Z   1
loop_
 _symmetry_equiv_pos_site_id
 _symmetry_equiv_pos_as_xyz
  1  'x, y, z'
loop_
 _atom_site_type_symbol
 _atom_site_label
 _atom_site_symmetry_multiplicity
 _atom_site_fract_x
 _atom_site_fract_y
 _atom_site_fract_z
 _atom_site_occupancy
  Mn  Mn0  1  0.14561814  0.14561814  0.14561814  1
  Mn  Mn1  1  0.35664613  0.35664613  0.35664613  1
  Mn  Mn2  1  0.64343348  0.64343348  0.64343348  1
  Nb  Nb3  1  0.85749520  0.85749520  0.85749520  1
  Fe  Fe4  1  0.00542490  0.00542490  0.00542490  1
  Fe  Fe5  1  0.50041274  0.50041274  0.50041274  1
  P  P6  1  0.74830157  0.45062980  0.04522375  1
  P  P7  1  0.25616554  0.53960793  0.95566173  1
  P  P8  1  0.53960793  0.95566173  0.25616554  1
  P  P9  1  0.95566173  0.25616554  0.53960793  1
  P  P10  1  0.04522375  0.74830157  0.45062980  1
  P  P11  1  0.45062980  0.04522375  0.74830157  1
  O  O12  1  0.11003035  0.31263031  0.51207288  1
  O  O13  1  0.31263031  0.51207288  0.11003035  1
  O  O14  1  0.05906403  0.91179260  0.26027671  1
  O  O15  1  0.51207288  0.11003035  0.31263031  1
  O  O16  1  0.99127049  0.81733833  0.61525604  1
  O  O17  1  0.23828423  0.59376733  0.44767131  1
  O  O18  1  0.26027671  0.05906403  0.91179260  1
  O  O19  1  0.44767131  0.23828423  0.59376733  1
  O  O20  1  0.19083105  0.38754295  0.98887368  1
  O  O21  1  0.59376733  0.44767131  0.23828423  1
  O  O22  1  0.09055748  0.73851923  0.93560777  1
  O  O23  1  0.38754295  0.98887368  0.19083105  1
  O  O24  1  0.61525604  0.99127049  0.81733833  1
  O  O25  1  0.91179260  0.26027671  0.05906403  1
  O  O26  1  0.41082322  0.55984257  0.75840947  1
  O  O27  1  0.81733833  0.61525604  0.99127049  1
  O  O28  1  0.55984257  0.75840947  0.41082322  1
  O  O29  1  0.73851923  0.93560777  0.09055748  1
  O  O30  1  0.75840947  0.41082322  0.55984257  1
  O  O31  1  0.98887368  0.19083105  0.38754295  1
  O  O32  1  0.48853768  0.88822239  0.68815403  1
  O  O33  1  0.93560777  0.09055748  0.73851923  1
  O  O34  1  0.68815403  0.48853768  0.88822239  1
  O  O35  1  0.88822239  0.68815403  0.48853768  1
