# generated using pymatgen
data_LiFePO4
_symmetry_space_group_name_H-M   'P 1'
_cell_length_a   7.85705032
_cell_length_b   5.25135579
_cell_length_c   8.81783665
_cell_angle_alpha   90.00000000
_cell_angle_beta   98.60867014
_cell_angle_gamma   90.00000000
_symmetry_Int_Tables_number   1
_chemical_formula_structural   LiFePO4
_chemical_formula_sum   'Li4 Fe4 P4 O16'
_cell_volume   359.72645902
_cell_formula_units_Z   4
loop_
 _symmetry_equiv_pos_site_id
 _symmetry_equiv_pos_as_xyz
  1  'x, y, z'
loop_
 _atom_site_type_symbol
 _atom_site_label
 _atom_site_symmetry_multiplicity
 _atom_site_fract_x
 _atom_site_fract_y
 _atom_site_fract_z
 _atom_site_occupancy
  Li  Li0  1  0.99831717  0.05108344  0.10457918  1
  Li  Li1  1  0.48053122  0.42236099  0.70132130  1
  Li  Li2  1  0.51946878  0.92236099  0.29867870  1
  Li  Li3  1  0.00168283  0.55108344  0.89542082  1
  Fe  Fe4  1  0.19536511  0.96876056  0.58621184  1
  Fe  Fe5  1  0.35571511  0.55854314  0.08245898  1
  Fe  Fe6  1  0.64428489  0.05854314  0.91754102  1
  Fe  Fe7  1  0.80463489  0.46876056  0.41378816  1
  P  P8  1  0.23374228  0.47695923  0.41425704  1
  P  P9  1  0.28331559  0.04633393  0.94657447  1
  P  P10  1  0.71668441  0.54633393  0.05342553  1
  P  P11  1  0.76625772  0.97695923  0.58574296  1
  O  O12  1  0.03963725  0.51245722  0.35656118  1
  O  O13  1  0.28378800  0.60343241  0.57557493  1
  O  O14  1  0.18301873  0.79128644  0.94307754  1
  O  O15  1  0.17290731  0.26179169  0.00451388  1
  O  O16  1  0.28247110  0.18919987  0.42781552  1
  O  O17  1  0.33901812  0.61231163  0.30161685  1
  O  O18  1  0.33718152  0.10943055  0.78957343  1
  O  O19  1  0.45264915  0.00843391  0.06431413  1
  O  O20  1  0.54735085  0.50843391  0.93568587  1
  O  O21  1  0.66281848  0.60943055  0.21042657  1
  O  O22  1  0.66098188  0.11231163  0.69838315  1
  O  O23  1  0.71752890  0.68919987  0.57218448  1
  O  O24  1  0.82709269  0.76179169  0.99548612  1
  O  O25  1  0.81698127  0.29128644  0.05692246  1
  O  O26  1  0.71621200  0.10343241  0.42442507  1
  O  O27  1  0.96036275  0.01245722  0.64343882  1
