# generated using pymatgen
data_Mg2BiWO6
_symmetry_space_group_name_H-M   'P 1'
_cell_length_a   5.89741423
_cell_length_b   6.62923038
_cell_length_c   8.02125844
_cell_angle_alpha   91.23037004
_cell_angle_beta   134.27398522
_cell_angle_gamma   122.64321389
_symmetry_Int_Tables_number   1
_chemical_formula_structural   Mg2BiWO6
_chemical_formula_sum   'Mg2 Bi1 W1 O6'
_cell_volume   142.01293703
_cell_formula_units_Z   1
loop_
 _symmetry_equiv_pos_site_id
 _symmetry_equiv_pos_as_xyz
  1  'x, y, z'
loop_
 _atom_site_type_symbol
 _atom_site_label
 _atom_site_symmetry_multiplicity
 _atom_site_fract_x
 _atom_site_fract_y
 _atom_site_fract_z
 _atom_site_occupancy
  Mg  Mg0  1  0.08374044  0.68237871  0.33520947  1
  Mg  Mg1  1  0.91491364  0.59046033  0.65486022  1
  Bi  Bi2  1  0.99286136  0.02880242  0.50309217  1
  W  W3  1  0.00345237  0.95707890  0.00624431  1
  O  O4  1  0.36547820  0.11009236  0.41679515  1
  O  O5  1  0.65622879  0.76758956  0.58279527  1
  O  O6  1  0.56382602  0.41006256  0.24040532  1
  O  O7  1  0.51277820  0.90943783  0.80216058  1
  O  O8  1  0.36285219  0.89231734  0.08694439  1
  O  O9  1  0.56729279  0.51504700  0.88661511  1
