# generated using pymatgen
data_Mn7Cu(PO4)12
_symmetry_space_group_name_H-M   'P 1'
_cell_length_a   8.51408115
_cell_length_b   8.53339229
_cell_length_c   11.88193402
_cell_angle_alpha   90.03753821
_cell_angle_beta   90.01674499
_cell_angle_gamma   90.09284859
_symmetry_Int_Tables_number   1
_chemical_formula_structural   Mn7Cu(PO4)12
_chemical_formula_sum   'Mn7 Cu1 P12 O48'
_cell_volume   863.26861222
_cell_formula_units_Z   1
loop_
 _symmetry_equiv_pos_site_id
 _symmetry_equiv_pos_as_xyz
  1  'x, y, z'
loop_
 _atom_site_type_symbol
 _atom_site_label
 _atom_site_symmetry_multiplicity
 _atom_site_fract_x
 _atom_site_fract_y
 _atom_site_fract_z
 _atom_site_occupancy
  Mn  Mn0  1  0.25017195  0.96576605  0.61688636  1
  Mn  Mn1  1  0.25106136  0.53567752  0.38163940  1
  Mn  Mn2  1  0.24937715  0.03493563  0.11722198  1
  Mn  Mn3  1  0.25074259  0.46385095  0.88426805  1
  Mn  Mn4  1  0.75082350  0.53529430  0.11757444  1
  Mn  Mn5  1  0.74971101  0.96479592  0.88342804  1
  Mn  Mn6  1  0.74866540  0.03564594  0.38232919  1
  Cu  Cu7  1  0.74909799  0.46180653  0.61613105  1
  P  P8  1  0.10673743  0.39160793  0.14592184  1
  P  P9  1  0.10644630  0.10838370  0.85445790  1
  P  P10  1  0.39079155  0.60987608  0.64592964  1
  P  P11  1  0.39295537  0.89235879  0.35398601  1
  P  P12  1  0.60770485  0.10496592  0.64667381  1
  P  P13  1  0.60550766  0.39030397  0.35260133  1
  P  P14  1  0.89379989  0.60953288  0.85616388  1
  P  P15  1  0.89312000  0.89160620  0.14591109  1
  P  P16  1  0.03914284  0.24904267  0.49888433  1
  P  P17  1  0.46260318  0.74989409  0.00027550  1
  P  P18  1  0.53743054  0.24985800  0.00002735  1
  P  P19  1  0.96418183  0.75135188  0.49885012  1
  O  O20  1  0.06007464  0.64276780  0.42241100  1
  O  O21  1  0.06002422  0.86041243  0.57561562  1
  O  O22  1  0.07467810  0.90034912  0.15855005  1
  O  O23  1  0.07497424  0.59844589  0.84043008  1
  O  O24  1  0.15071391  0.15838812  0.57888021  1
  O  O25  1  0.14625862  0.34221995  0.41752896  1
  O  O26  1  0.15736702  0.43888677  0.02694845  1
  O  O27  1  0.15823934  0.06099740  0.97266337  1
  O  O28  1  0.15237624  0.22224909  0.17579921  1
  O  O29  1  0.15276687  0.27784719  0.82428911  1
  O  O30  1  0.18187906  0.51256620  0.22724421  1
  O  O31  1  0.17923012  0.98867671  0.77141486  1
  O  O32  1  0.31928142  0.01232883  0.27187950  1
  O  O33  1  0.31973877  0.48771564  0.72831380  1
  O  O34  1  0.34315513  0.77855559  0.67629151  1
  O  O35  1  0.34779110  0.72244137  0.32359635  1
  O  O36  1  0.34098373  0.56152507  0.52741514  1
  O  O37  1  0.34131078  0.93823494  0.47274701  1
  O  O38  1  0.35382192  0.84166281  0.08107500  1
  O  O39  1  0.35312554  0.65864003  0.91897751  1
  O  O40  1  0.42619856  0.09567011  0.65958200  1
  O  O41  1  0.42338546  0.39833893  0.33916301  1
  O  O42  1  0.44086435  0.14192776  0.07685537  1
  O  O43  1  0.44139328  0.35860711  0.92299256  1
  O  O44  1  0.55918379  0.64157307  0.07651243  1
  O  O45  1  0.55848779  0.85856243  0.92311364  1
  O  O46  1  0.57105953  0.60396451  0.66316076  1
  O  O47  1  0.57471354  0.89983779  0.34227457  1
  O  O48  1  0.64691844  0.34158820  0.08043787  1
  O  O49  1  0.64577964  0.15806218  0.91881426  1
  O  O50  1  0.65927728  0.06199562  0.52739517  1
  O  O51  1  0.65311355  0.44272407  0.46954228  1
  O  O52  1  0.65172684  0.22122902  0.32198173  1
  O  O53  1  0.65106405  0.27266714  0.68108436  1
  O  O54  1  0.67564349  0.51196487  0.26941662  1
  O  O55  1  0.68138858  0.98336705  0.72800981  1
  O  O56  1  0.81989930  0.01198869  0.22828749  1
  O  O57  1  0.82164013  0.48632783  0.77621615  1
  O  O58  1  0.84764965  0.72219168  0.17671256  1
  O  O59  1  0.84922196  0.77851994  0.82521141  1
  O  O60  1  0.84341938  0.56460096  0.97504145  1
  O  O61  1  0.84132620  0.93864145  0.02751517  1
  O  O62  1  0.85447959  0.66381714  0.58076641  1
  O  O63  1  0.85399311  0.84157086  0.41795279  1
  O  O64  1  0.92485971  0.09955975  0.84116560  1
  O  O65  1  0.92536262  0.40041406  0.15876211  1
  O  O66  1  0.94136907  0.14104239  0.42280736  1
  O  O67  1  0.94871995  0.35778351  0.57799180  1
