# generated using pymatgen
data_Li4Ti3Mn2(Fe2O9)2
_symmetry_space_group_name_H-M   'P 1'
_cell_length_a   9.06535394
_cell_length_b   25.33079267
_cell_length_c   2.93969504
_cell_angle_alpha   90.00000000
_cell_angle_beta   90.00000000
_cell_angle_gamma   90.00000000
_symmetry_Int_Tables_number   1
_chemical_formula_structural   Li4Ti3Mn2(Fe2O9)2
_chemical_formula_sum   'Li8 Ti6 Mn4 Fe8 O36'
_cell_volume   675.04981858
_cell_formula_units_Z   2
loop_
 _symmetry_equiv_pos_site_id
 _symmetry_equiv_pos_as_xyz
  1  'x, y, z'
loop_
 _atom_site_type_symbol
 _atom_site_label
 _atom_site_symmetry_multiplicity
 _atom_site_fract_x
 _atom_site_fract_y
 _atom_site_fract_z
 _atom_site_occupancy
  Li  Li0  1  0.19592603  0.99108245  -0.00000000  1
  Li  Li1  1  0.19477010  0.20342001  -0.00000000  1
  Li  Li2  1  0.30522990  0.70342001  -0.00000000  1
  Li  Li3  1  0.30407397  0.49108245  -0.00000000  1
  Li  Li4  1  0.69263020  0.51246437  -0.00000000  1
  Li  Li5  1  0.69863135  0.30376496  -0.00000000  1
  Li  Li6  1  0.80136865  0.80376496  0.00000000  1
  Li  Li7  1  0.80736980  0.01246437  0.00000000  1
  Ti  Ti8  1  0.00639946  0.10035377  -0.00000000  1
  Ti  Ti9  1  0.49360054  0.60035377  0.00000000  1
  Ti  Ti10  1  0.50105925  0.39908977  0.00000000  1
  Ti  Ti11  1  0.64908099  0.69160752  0.50000000  1
  Ti  Ti12  1  0.85091901  0.19160752  0.50000000  1
  Ti  Ti13  1  0.99894075  0.89908977  0.00000000  1
  Mn  Mn14  1  0.99797134  0.50015579  0.00000000  1
  Mn  Mn15  1  0.14669711  0.80772620  0.50000000  1
  Mn  Mn16  1  0.35330289  0.30772620  0.50000000  1
  Mn  Mn17  1  0.50202866  0.00015579  -0.00000000  1
  Fe  Fe18  1  0.01919457  0.30597513  -0.00000000  1
  Fe  Fe19  1  0.14105158  0.58866581  0.50000000  1
  Fe  Fe20  1  0.35894842  0.08866581  0.50000000  1
  Fe  Fe21  1  0.48080543  0.80597513  0.00000000  1
  Fe  Fe22  1  0.51215612  0.19521273  0.00000000  1
  Fe  Fe23  1  0.64240454  0.91129989  0.50000000  1
  Fe  Fe24  1  0.85759546  0.41129889  0.50000000  1
  Fe  Fe25  1  0.98784388  0.69521273  0.00000000  1
  O  O26  1  0.00041111  0.42425198  0.00000000  1
  O  O27  1  0.99699393  0.57609242  0.00000000  1
  O  O28  1  0.06450833  0.94162520  0.50000000  1
  O  O29  1  0.05149834  0.15627379  0.50000000  1
  O  O30  1  0.11283819  0.66639148  0.50000000  1
  O  O31  1  0.10015835  0.76068315  -0.00000000  1
  O  O32  1  0.14085266  0.50397265  0.50000000  1
  O  O33  1  0.15349712  0.28123983  0.50000000  1
  O  O34  1  0.19062996  0.85458844  -0.00000000  1
  O  O35  1  0.20457625  0.08002579  -0.00000000  1
  O  O36  1  0.29542375  0.58002579  -0.00000000  1
  O  O37  1  0.30937004  0.35458844  -0.00000000  1
  O  O38  1  0.34650288  0.78123983  0.50000000  1
  O  O39  1  0.35914734  0.00397265  0.50000000  1
  O  O40  1  0.39984165  0.26068315  -0.00000000  1
  O  O41  1  0.38716181  0.16639148  0.50000000  1
  O  O42  1  0.44850166  0.65627379  0.50000000  1
  O  O43  1  0.43549167  0.44162520  0.50000000  1
  O  O44  1  0.50300607  0.07609242  -0.00000000  1
  O  O45  1  0.49958889  0.92425198  -0.00000000  1
  O  O46  1  0.56003953  0.55682087  0.50000000  1
  O  O47  1  0.54720695  0.34126425  0.50000000  1
  O  O48  1  0.61051890  0.83377327  0.50000000  1
  O  O49  1  0.59095715  0.73960485  -0.00000000  1
  O  O50  1  0.64587522  0.99581620  0.50000000  1
  O  O51  1  0.64925926  0.21737152  0.50000000  1
  O  O52  1  0.68820664  0.64328698  -0.00000000  1
  O  O53  1  0.70108092  0.41609790  -0.00000000  1
  O  O54  1  0.79891908  0.91609790  -0.00000000  1
  O  O55  1  0.81179336  0.14328698  -0.00000000  1
  O  O56  1  0.85074074  0.71737152  0.50000000  1
  O  O57  1  0.85412478  0.49581620  0.50000000  1
  O  O58  1  0.90904285  0.23960485  -0.00000000  1
  O  O59  1  0.88948110  0.33377327  0.50000000  1
  O  O60  1  0.95279305  0.84126425  0.50000000  1
  O  O61  1  0.93996047  0.05682087  0.50000000  1
