# generated using pymatgen
data_Li4Ti3V6O18
_symmetry_space_group_name_H-M   'P 1'
_cell_length_a   9.01153096
_cell_length_b   25.35725387
_cell_length_c   2.98734745
_cell_angle_alpha   90.00000000
_cell_angle_beta   90.00000000
_cell_angle_gamma   90.00000000
_symmetry_Int_Tables_number   1
_chemical_formula_structural   Li4Ti3V6O18
_chemical_formula_sum   'Li8 Ti6 V12 O36'
_cell_volume   682.63183011
_cell_formula_units_Z   2
loop_
 _symmetry_equiv_pos_site_id
 _symmetry_equiv_pos_as_xyz
  1  'x, y, z'
loop_
 _atom_site_type_symbol
 _atom_site_label
 _atom_site_symmetry_multiplicity
 _atom_site_fract_x
 _atom_site_fract_y
 _atom_site_fract_z
 _atom_site_occupancy
  Li  Li0  1  0.19513063  0.99100786  0.00000000  1
  Li  Li1  1  0.18670592  0.19712365  -0.00000000  1
  Li  Li2  1  0.31329408  0.69712365  0.00000000  1
  Li  Li3  1  0.30486937  0.49100786  -0.00000000  1
  Li  Li4  1  0.68994754  0.50871659  -0.00000000  1
  Li  Li5  1  0.67755769  0.29785376  -0.00000000  1
  Li  Li6  1  0.82244231  0.79785376  -0.00000000  1
  Li  Li7  1  0.81005246  0.00871659  -0.00000000  1
  Ti  Ti8  1  0.99634763  0.10168104  0.00000000  1
  Ti  Ti9  1  0.50365237  0.60168104  0.00000000  1
  Ti  Ti10  1  0.48890135  0.39823343  -0.00000000  1
  Ti  Ti11  1  0.64173953  0.69693166  0.50000000  1
  Ti  Ti12  1  0.85826047  0.19693166  0.50000000  1
  Ti  Ti13  1  0.01109865  0.89823343  0.00000000  1
  V  V14  1  0.99760849  0.49958081  -0.00000000  1
  V  V15  1  0.02730881  0.31152224  -0.00000000  1
  V  V16  1  0.14688884  0.58553850  0.50000000  1
  V  V17  1  0.14235432  0.80346721  0.50000000  1
  V  V18  1  0.35764568  0.30346721  0.50000000  1
  V  V19  1  0.35311116  0.08553850  0.50000000  1
  V  V20  1  0.47269119  0.81152224  0.00000000  1
  V  V21  1  0.50239151  0.99958081  -0.00000000  1
  V  V22  1  0.52264856  0.19038792  -0.00000000  1
  V  V23  1  0.65292662  0.91408278  0.50000000  1
  V  V24  1  0.84707338  0.41408278  0.50000000  1
  V  V25  1  0.97735144  0.69038792  0.00000000  1
  O  O26  1  0.99728018  0.42559294  0.00000000  1
  O  O27  1  0.99871042  0.57461188  0.00000000  1
  O  O28  1  0.06809159  0.94106916  0.50000000  1
  O  O29  1  0.05069909  0.15778014  0.50000000  1
  O  O30  1  0.10426792  0.66318319  0.50000000  1
  O  O31  1  0.08466049  0.75836986  -0.00000000  1
  O  O32  1  0.14681730  0.50399038  0.50000000  1
  O  O33  1  0.15812843  0.28132231  0.50000000  1
  O  O34  1  0.19235784  0.85344853  0.00000000  1
  O  O35  1  0.19780382  0.08163492  0.00000000  1
  O  O36  1  0.30219618  0.58163492  0.00000000  1
  O  O37  1  0.30764216  0.35344853  -0.00000000  1
  O  O38  1  0.34187157  0.78132231  0.50000000  1
  O  O39  1  0.35318270  0.00399038  0.50000000  1
  O  O40  1  0.41533951  0.25836986  0.00000000  1
  O  O41  1  0.39573208  0.16318319  0.50000000  1
  O  O42  1  0.44930091  0.65778014  0.50000000  1
  O  O43  1  0.43190841  0.44106916  0.50000000  1
  O  O44  1  0.50128958  0.07461188  -0.00000000  1
  O  O45  1  0.50271982  0.92559294  -0.00000000  1
  O  O46  1  0.56535720  0.55945799  0.50000000  1
  O  O47  1  0.54519978  0.34119429  0.50000000  1
  O  O48  1  0.59874566  0.83787899  0.50000000  1
  O  O49  1  0.58456297  0.74336647  0.00000000  1
  O  O50  1  0.65188198  0.99563889  0.50000000  1
  O  O51  1  0.65424991  0.22008623  0.50000000  1
  O  O52  1  0.68869212  0.64815973  -0.00000000  1
  O  O53  1  0.69326119  0.41708667  0.00000000  1
  O  O54  1  0.80673881  0.91708667  0.00000000  1
  O  O55  1  0.81130788  0.14815973  0.00000000  1
  O  O56  1  0.84575009  0.72008623  0.50000000  1
  O  O57  1  0.84811802  0.49563889  0.50000000  1
  O  O58  1  0.91543703  0.24336647  -0.00000000  1
  O  O59  1  0.90125434  0.33787899  0.50000000  1
  O  O60  1  0.95480022  0.84119429  0.50000000  1
  O  O61  1  0.93464280  0.05945799  0.50000000  1
