# generated using pymatgen
data_Li7V3(SiO6)2
_symmetry_space_group_name_H-M   'P 1'
_cell_length_a   4.98671512
_cell_length_b   4.98671417
_cell_length_c   9.84164919
_cell_angle_alpha   94.84556648
_cell_angle_beta   94.84556674
_cell_angle_gamma   119.99420325
_symmetry_Int_Tables_number   1
_chemical_formula_structural   Li7V3(SiO6)2
_chemical_formula_sum   'Li7 V3 Si2 O12'
_cell_volume   208.91339269
_cell_formula_units_Z   1
loop_
 _symmetry_equiv_pos_site_id
 _symmetry_equiv_pos_as_xyz
  1  'x, y, z'
loop_
 _atom_site_type_symbol
 _atom_site_label
 _atom_site_symmetry_multiplicity
 _atom_site_fract_x
 _atom_site_fract_y
 _atom_site_fract_z
 _atom_site_occupancy
  Li  Li0  1  0.32217703  0.66404075  0.99247015  1
  Li  Li1  1  0.16078018  0.82744718  0.50768016  1
  Li  Li2  1  0.51115597  0.50262525  0.50752985  1
  Li  Li3  1  0.67255282  0.33921982  0.99231984  1
  Li  Li4  1  0.91666700  0.58333300  0.75000000  1
  Li  Li5  1  0.83595925  0.17782296  0.50752985  1
  Li  Li6  1  0.99737475  0.98884404  0.99247015  1
  V  V7  1  0.74983201  0.75016799  0.25000000  1
  V  V8  1  0.08350099  0.41649901  0.25000000  1
  V  V9  1  0.41666700  0.08333300  0.25000000  1
  Si  Si10  1  0.58332054  0.91667946  0.75000000  1
  Si  Si11  1  0.25001246  0.24998754  0.75000000  1
  O  O12  1  0.88262689  0.92343617  0.64747821  1
  O  O13  1  0.45593736  0.79006167  0.36963051  1
  O  O14  1  0.32491679  0.99158279  0.85249199  1
  O  O15  1  0.04185049  0.70851749  0.12729796  1
  O  O16  1  0.57656383  0.61737311  0.85252179  1
  O  O17  1  0.37739564  0.37660433  0.13036949  1
  O  O18  1  0.79148251  0.45814951  0.37270304  1
  O  O19  1  0.25677017  0.54929289  0.64747821  1
  O  O20  1  0.70993833  0.04406264  0.13036949  1
  O  O21  1  0.95070711  0.24322983  0.85252179  1
  O  O22  1  0.12339567  0.12260436  0.36963051  1
  O  O23  1  0.50841721  0.17508321  0.64750801  1
