# generated using pymatgen
data_Li4V3Ni2Sb3O16
_symmetry_space_group_name_H-M   'P 1'
_cell_length_a   6.13888976
_cell_length_b   6.11786889
_cell_length_c   9.81073586
_cell_angle_alpha   89.99949341
_cell_angle_beta   90.40989040
_cell_angle_gamma   119.88688401
_symmetry_Int_Tables_number   1
_chemical_formula_structural   Li4V3Ni2Sb3O16
_chemical_formula_sum   'Li4 V3 Ni2 Sb3 O16'
_cell_volume   319.44886065
_cell_formula_units_Z   1
loop_
 _symmetry_equiv_pos_site_id
 _symmetry_equiv_pos_as_xyz
  1  'x, y, z'
loop_
 _atom_site_type_symbol
 _atom_site_label
 _atom_site_symmetry_multiplicity
 _atom_site_fract_x
 _atom_site_fract_y
 _atom_site_fract_z
 _atom_site_occupancy
  Li  Li0  1  0.32532248  0.66267787  0.87500453  1
  Li  Li1  1  0.98513988  0.99257602  0.99098080  1
  Li  Li2  1  0.98728748  0.99365613  0.50622130  1
  Li  Li3  1  0.65725437  0.32865087  0.39897932  1
  V  V4  1  0.66445731  0.83223074  0.21594448  1
  V  V5  1  0.83269460  0.66207612  0.71420663  1
  V  V6  1  0.83268118  0.17061225  0.71421716  1
  Ni  Ni7  1  0.34680138  0.67340596  0.51108458  1
  Ni  Ni8  1  0.68212192  0.34105954  0.97368949  1
  Sb  Sb9  1  0.16994257  0.83147174  0.21612822  1
  Sb  Sb10  1  0.16993636  0.33849855  0.21612016  1
  Sb  Sb11  1  0.34076311  0.17039528  0.71465200  1
  O  O12  1  0.16469680  0.84581559  0.60080435  1
  O  O13  1  0.02934780  0.51468384  0.33349872  1
  O  O14  1  0.32400876  0.66202252  0.10199286  1
  O  O15  1  0.00910322  0.00457104  0.32116798  1
  O  O16  1  0.01153964  0.00578351  0.81286318  1
  O  O17  1  0.16470726  0.31890021  0.60079873  1
  O  O18  1  0.48045517  0.96679085  0.32788161  1
  O  O19  1  0.48044684  0.51369138  0.32788014  1
  O  O20  1  0.31118978  0.15561231  0.10330657  1
  O  O21  1  0.68327455  0.84164622  0.60541817  1
  O  O22  1  0.51373466  0.47873909  0.83729695  1
  O  O23  1  0.51373196  0.03501246  0.83729621  1
  O  O24  1  0.65587236  0.32794073  0.60133451  1
  O  O25  1  0.84969404  0.68995188  0.10805609  1
  O  O26  1  0.96410646  0.48206456  0.83296674  1
  O  O27  1  0.84968706  0.15976272  0.10804851  1
