# generated using pymatgen
data_Li4V9O18
_symmetry_space_group_name_H-M   'P 1'
_cell_length_a   8.88684272
_cell_length_b   25.29255882
_cell_length_c   2.99780563
_cell_angle_alpha   90.00000000
_cell_angle_beta   90.00000000
_cell_angle_gamma   90.00000000
_symmetry_Int_Tables_number   1
_chemical_formula_structural   Li4V9O18
_chemical_formula_sum   'Li8 V18 O36'
_cell_volume   673.81974594
_cell_formula_units_Z   2
loop_
 _symmetry_equiv_pos_site_id
 _symmetry_equiv_pos_as_xyz
  1  'x, y, z'
loop_
 _atom_site_type_symbol
 _atom_site_label
 _atom_site_symmetry_multiplicity
 _atom_site_fract_x
 _atom_site_fract_y
 _atom_site_fract_z
 _atom_site_occupancy
  Li  Li0  1  0.18300675  0.98946771  0.00000000  1
  Li  Li1  1  0.18285256  0.20122846  0.00000000  1
  Li  Li2  1  0.31714744  0.70122846  -0.00000000  1
  Li  Li3  1  0.31699325  0.48946771  0.00000000  1
  Li  Li4  1  0.68300675  0.51053229  -0.00000000  1
  Li  Li5  1  0.68285256  0.29877154  -0.00000000  1
  Li  Li6  1  0.81714744  0.79877154  0.00000000  1
  Li  Li7  1  0.81699325  0.01053229  0.00000000  1
  V  V8  1  -0.00000000  0.50000000  0.00000000  1
  V  V9  1  0.98878327  0.10278278  -0.00000000  1
  V  V10  1  0.02729447  0.31079029  -0.00000000  1
  V  V11  1  0.15080844  0.58626249  0.50000000  1
  V  V12  1  0.13693761  0.80282389  0.50000000  1
  V  V13  1  0.36306239  0.30282389  0.50000000  1
  V  V14  1  0.34919156  0.08626249  0.50000000  1
  V  V15  1  0.47270553  0.81079029  0.00000000  1
  V  V16  1  0.51121673  0.60278278  0.00000000  1
  V  V17  1  0.50000000  0.00000000  0.00000000  1
  V  V18  1  0.48878327  0.39721722  0.00000000  1
  V  V19  1  0.52729447  0.18920971  0.00000000  1
  V  V20  1  0.65080844  0.91373751  0.50000000  1
  V  V21  1  0.63693761  0.69717611  0.50000000  1
  V  V22  1  0.86306239  0.19717611  0.50000000  1
  V  V23  1  0.84919156  0.41373751  0.50000000  1
  V  V24  1  0.97270553  0.68920971  -0.00000000  1
  V  V25  1  0.01121673  0.89721722  0.00000000  1
  O  O26  1  -0.00130223  0.42508308  -0.00000000  1
  O  O27  1  0.00130223  0.57491692  -0.00000000  1
  O  O28  1  0.06839549  0.94124941  0.50000000  1
  O  O29  1  0.04805800  0.15959394  0.50000000  1
  O  O30  1  0.10230405  0.66342158  0.50000000  1
  O  O31  1  0.08126801  0.75767038  0.00000000  1
  O  O32  1  0.15092630  0.50517391  0.50000000  1
  O  O33  1  0.16003187  0.28033939  0.50000000  1
  O  O34  1  0.19060071  0.85336109  -0.00000000  1
  O  O35  1  0.19315917  0.08463252  -0.00000000  1
  O  O36  1  0.30684083  0.58463252  0.00000000  1
  O  O37  1  0.30939929  0.35336109  0.00000000  1
  O  O38  1  0.33996813  0.78033939  0.50000000  1
  O  O39  1  0.34907370  0.00517391  0.50000000  1
  O  O40  1  0.41873199  0.25767038  -0.00000000  1
  O  O41  1  0.39769595  0.16342158  0.50000000  1
  O  O42  1  0.45194200  0.65959394  0.50000000  1
  O  O43  1  0.43160451  0.44124941  0.50000000  1
  O  O44  1  0.49869777  0.07491692  0.00000000  1
  O  O45  1  0.50130223  0.92508308  0.00000000  1
  O  O46  1  0.56839549  0.55875059  0.50000000  1
  O  O47  1  0.54805800  0.34040606  0.50000000  1
  O  O48  1  0.60230405  0.83657842  0.50000000  1
  O  O49  1  0.58126801  0.74232962  0.00000000  1
  O  O50  1  0.65092630  0.99482609  0.50000000  1
  O  O51  1  0.66003187  0.21966061  0.50000000  1
  O  O52  1  0.69060071  0.64663891  0.00000000  1
  O  O53  1  0.69315917  0.41536748  0.00000000  1
  O  O54  1  0.80684083  0.91536748  -0.00000000  1
  O  O55  1  0.80939929  0.14663891  -0.00000000  1
  O  O56  1  0.83996813  0.71966061  0.50000000  1
  O  O57  1  0.84907370  0.49482609  0.50000000  1
  O  O58  1  0.91873199  0.24232962  -0.00000000  1
  O  O59  1  0.89769595  0.33657842  0.50000000  1
  O  O60  1  0.95194200  0.84040606  0.50000000  1
  O  O61  1  0.93160451  0.05875059  0.50000000  1
