# generated using pymatgen
data_Li9Nb7V12O48
_symmetry_space_group_name_H-M   'P 1'
_cell_length_a   5.18864011
_cell_length_b   10.53406168
_cell_length_c   17.75175745
_cell_angle_alpha   89.74140930
_cell_angle_beta   91.49852580
_cell_angle_gamma   90.12994037
_symmetry_Int_Tables_number   1
_chemical_formula_structural   Li9Nb7V12O48
_chemical_formula_sum   'Li9 Nb7 V12 O48'
_cell_volume   969.92192810
_cell_formula_units_Z   1
loop_
 _symmetry_equiv_pos_site_id
 _symmetry_equiv_pos_as_xyz
  1  'x, y, z'
loop_
 _atom_site_type_symbol
 _atom_site_label
 _atom_site_symmetry_multiplicity
 _atom_site_fract_x
 _atom_site_fract_y
 _atom_site_fract_z
 _atom_site_occupancy
  Li  Li0  1  0.24952337  0.41838624  0.96084211  1
  Li  Li1  1  0.25102426  0.73079140  0.30149302  1
  Li  Li2  1  0.25355370  0.26976199  0.79810525  1
  Li  Li3  1  0.24557965  0.58418036  0.46688405  1
  Li  Li4  1  0.41227088  0.74264634  0.74742351  1
  Li  Li5  1  0.58051695  0.25569030  0.25184118  1
  Li  Li6  1  0.76398016  0.08524434  0.53765438  1
  Li  Li7  1  0.75304785  0.74145536  0.20694954  1
  Li  Li8  1  0.76926693  0.25027341  0.70315735  1
  Nb  Nb9  1  0.07679416  0.25266449  0.24977387  1
  Nb  Nb10  1  0.23159277  0.07950041  0.96361127  1
  Nb  Nb11  1  0.22880217  0.93154729  0.47575685  1
  Nb  Nb12  1  0.76375961  0.43108792  0.52393434  1
  Nb  Nb13  1  0.72055062  0.55379532  0.02517583  1
  Nb  Nb14  1  0.74207775  0.91596644  0.03299584  1
  Nb  Nb15  1  0.91332828  0.74922617  0.75089586  1
  V  V16  1  0.25470978  0.02477313  0.66221209  1
  V  V17  1  0.23082057  0.47343942  0.65318096  1
  V  V18  1  0.27459565  0.53152258  0.15711077  1
  V  V19  1  0.27986768  0.96590276  0.16870321  1
  V  V20  1  0.73476789  0.47155296  0.84244764  1
  V  V21  1  0.68857474  0.04441582  0.82015932  1
  V  V22  1  0.77279210  0.53108871  0.34354487  1
  V  V23  1  0.75996650  0.97627624  0.34357620  1
  V  V24  1  0.19292333  0.74802699  0.94066062  1
  V  V25  1  0.30012275  0.25418586  0.44288650  1
  V  V26  1  0.69941486  0.75132959  0.55622546  1
  V  V27  1  0.79266094  0.23582560  0.05854295  1
  O  O28  1  0.08207272  0.23789161  0.99048283  1
  O  O29  1  0.04223894  0.61089231  0.37049242  1
  O  O30  1  0.04941065  0.89379082  0.37701042  1
  O  O31  1  0.10400039  0.62716985  0.20978437  1
  O  O32  1  0.07241709  0.87057688  0.20974420  1
  O  O33  1  0.11516073  0.10963395  0.46859812  1
  O  O34  1  0.05670191  0.37468535  0.46991783  1
  O  O35  1  0.06169762  0.00484881  0.07344010  1
  O  O36  1  0.07163481  0.50342165  0.07767365  1
  O  O37  1  0.15111176  0.74566376  0.83533082  1
  O  O38  1  0.15158197  0.61586879  0.70035696  1
  O  O39  1  0.14860023  0.87875261  0.70143839  1
  O  O40  1  0.31987924  0.12616153  0.20935701  1
  O  O41  1  0.31763449  0.38374323  0.20603124  1
  O  O42  1  0.32748953  0.25371178  0.34379769  1
  O  O43  1  0.41906746  0.98866043  0.57655362  1
  O  O44  1  0.42416164  0.50585215  0.57473807  1
  O  O45  1  0.41543262  0.89294999  0.96777816  1
  O  O46  1  0.43458289  0.62125014  0.97171900  1
  O  O47  1  0.46591656  0.09968950  0.72801020  1
  O  O48  1  0.39996377  0.37218863  0.70656084  1
  O  O49  1  0.41822351  0.12016460  0.87880061  1
  O  O50  1  0.46175234  0.39598568  0.86700397  1
  O  O51  1  0.43029037  0.76821636  0.48785880  1
  O  O52  1  0.56494350  0.26526013  0.51241894  1
  O  O53  1  0.57023444  0.60403422  0.12567204  1
  O  O54  1  0.56876839  0.88096049  0.12193581  1
  O  O55  1  0.58936379  0.62617230  0.28753043  1
  O  O56  1  0.57960392  0.89235964  0.28149065  1
  O  O57  1  0.56064322  0.09834201  0.03310265  1
  O  O58  1  0.59606597  0.38637302  0.03086700  1
  O  O59  1  0.56802569  0.00330267  0.42168903  1
  O  O60  1  0.58476583  0.48847702  0.42501755  1
  O  O61  1  0.67382848  0.74801155  0.65469535  1
  O  O62  1  0.67788142  0.61642353  0.78842010  1
  O  O63  1  0.68259363  0.87321490  0.79061814  1
  O  O64  1  0.85006244  0.12226157  0.30135216  1
  O  O65  1  0.85657851  0.38462440  0.29530121  1
  O  O66  1  0.84987440  0.24681213  0.16370984  1
  O  O67  1  0.91725995  0.52059458  0.92799906  1
  O  O68  1  0.91574903  0.98870901  0.92852326  1
  O  O69  1  0.88768359  0.60899419  0.53185298  1
  O  O70  1  0.93702862  0.87753036  0.53046087  1
  O  O71  1  0.93883399  0.13044042  0.79568858  1
  O  O72  1  0.91663764  0.37690929  0.79041523  1
  O  O73  1  0.99758630  0.11412930  0.63735419  1
  O  O74  1  0.93490324  0.39257987  0.62293339  1
  O  O75  1  0.90317489  0.75115657  0.01273039  1
