# generated using pymatgen
data_Li4Mn3CoCu2(PO4)6
_symmetry_space_group_name_H-M   'P 1'
_cell_length_a   8.26672840
_cell_length_b   8.98515173
_cell_length_c   8.85580854
_cell_angle_alpha   60.15648145
_cell_angle_beta   59.26760028
_cell_angle_gamma   62.98707948
_symmetry_Int_Tables_number   1
_chemical_formula_structural   Li4Mn3CoCu2(PO4)6
_chemical_formula_sum   'Li4 Mn3 Co1 Cu2 P6 O24'
_cell_volume   472.47788084
_cell_formula_units_Z   1
loop_
 _symmetry_equiv_pos_site_id
 _symmetry_equiv_pos_as_xyz
  1  'x, y, z'
loop_
 _atom_site_type_symbol
 _atom_site_label
 _atom_site_symmetry_multiplicity
 _atom_site_fract_x
 _atom_site_fract_y
 _atom_site_fract_z
 _atom_site_occupancy
  Li  Li0  1  0.25204781  0.86672306  0.64732877  1
  Li  Li1  1  0.73419067  0.15298865  0.34408415  1
  Li  Li2  1  0.70159375  0.79306196  0.15701587  1
  Li  Li3  1  0.75167659  0.34272959  0.76050172  1
  Mn  Mn4  1  0.06474503  0.64544498  0.64449404  1
  Mn  Mn5  1  0.44089317  0.84329389  0.86027743  1
  Mn  Mn6  1  0.95577439  0.34380718  0.34804272  1
  Co  Co7  1  0.54475626  0.15801647  0.14325273  1
  Cu  Cu8  1  0.99973013  0.01615565  0.00006108  1
  Cu  Cu9  1  0.50034712  0.48977596  0.50521451  1
  P  P10  1  0.25484537  0.25056240  0.55416036  1
  P  P11  1  0.22739441  0.95197187  0.24661749  1
  P  P12  1  0.27486144  0.54168145  0.93152186  1
  P  P13  1  0.74361400  0.46082834  0.04937591  1
  P  P14  1  0.77961712  0.03345872  0.75135947  1
  P  P15  1  0.73386275  0.75458966  0.45910586  1
  O  O16  1  0.04580584  0.10016347  0.30253720  1
  O  O17  1  0.08982717  0.49935065  0.09673594  1
  O  O18  1  0.06187172  0.32605709  0.52079916  1
  O  O19  1  0.22473882  0.08034941  0.74054654  1
  O  O20  1  0.43510118  0.19112591  0.39546924  1
  O  O21  1  0.28596498  0.39422759  0.57862768  1
  O  O22  1  0.21755012  0.93112593  0.08580740  1
  O  O23  1  0.23963360  0.76688589  0.40922723  1
  O  O24  1  0.56506780  0.61270271  0.02039164  1
  O  O25  1  0.27929226  0.58472423  0.73231968  1
  O  O26  1  0.75628591  0.27717269  0.05903973  1
  O  O27  1  0.60216441  0.97405053  0.81223865  1
  O  O28  1  0.42366464  0.98438420  0.18593001  1
  O  O29  1  0.25793410  0.72928546  0.91831401  1
  O  O30  1  0.72966636  0.42458089  0.24953260  1
  O  O31  1  0.46278823  0.39443802  0.94417596  1
  O  O32  1  0.75242928  0.22431441  0.60082110  1
  O  O33  1  0.77894932  0.05867260  0.91754404  1
  O  O34  1  0.70986933  0.60987543  0.42575233  1
  O  O35  1  0.53941952  0.82772679  0.59849332  1
  O  O36  1  0.77876071  0.90982753  0.26351114  1
  O  O37  1  0.89715016  0.67501319  0.53334584  1
  O  O38  1  0.93393496  0.50545471  0.89189188  1
  O  O39  1  0.97218258  0.89640289  0.69153371  1
