# generated using pymatgen
data_Li5Mn2(PO4)3
_symmetry_space_group_name_H-M   'P 1'
_cell_length_a   8.78525813
_cell_length_b   9.10066320
_cell_length_c   8.62060144
_cell_angle_alpha   116.23933351
_cell_angle_beta   60.67161306
_cell_angle_gamma   113.47261915
_symmetry_Int_Tables_number   1
_chemical_formula_structural   Li5Mn2(PO4)3
_chemical_formula_sum   'Li10 Mn4 P6 O24'
_cell_volume   524.21174443
_cell_formula_units_Z   2
loop_
 _symmetry_equiv_pos_site_id
 _symmetry_equiv_pos_as_xyz
  1  'x, y, z'
loop_
 _atom_site_type_symbol
 _atom_site_label
 _atom_site_symmetry_multiplicity
 _atom_site_fract_x
 _atom_site_fract_y
 _atom_site_fract_z
 _atom_site_occupancy
  Li  Li0  1  0.95698585  0.91405157  0.28885329  1
  Li  Li1  1  0.44284205  0.63858069  0.02407675  1
  Li  Li2  1  0.38035799  0.36504013  0.30435104  1
  Li  Li3  1  0.28996727  0.86763781  0.65625352  1
  Li  Li4  1  0.86468104  0.60456609  0.24385813  1
  Li  Li5  1  0.14483442  0.39126236  0.76156244  1
  Li  Li6  1  0.62811786  0.63170389  0.70161733  1
  Li  Li7  1  0.56728356  0.36013618  0.98178507  1
  Li  Li8  1  0.72018703  0.13046932  0.34993902  1
  Li  Li9  1  0.05065529  0.08206937  0.72210632  1
  Mn  Mn10  1  0.10738297  0.38631259  0.13405328  1
  Mn  Mn11  1  0.35446317  0.02366528  0.32736315  1
  Mn  Mn12  1  0.65461854  0.97448261  0.67922668  1
  Mn  Mn13  1  0.90256496  0.61232925  0.87262204  1
  P  P14  1  0.03539346  0.25467417  0.47670646  1
  P  P15  1  0.57627435  0.74190529  0.27103067  1
  P  P16  1  0.26291738  0.75506537  0.95535853  1
  P  P17  1  0.74585934  0.24262202  0.05145442  1
  P  P18  1  0.43325729  0.25565137  0.73508897  1
  P  P19  1  0.97353922  0.74329323  0.52992989  1
  O  O20  1  0.20418756  0.88454222  0.15257376  1
  O  O21  1  0.20403151  0.57558061  0.97618769  1
  O  O22  1  0.01289140  0.58675795  0.35997418  1
  O  O23  1  0.14588866  0.88196853  0.54553136  1
  O  O24  1  0.14804933  0.29390404  0.28820539  1
  O  O25  1  0.53262748  0.85110379  0.20749243  1
  O  O26  1  0.16825896  0.75321784  0.84257789  1
  O  O27  1  0.47489499  0.55556380  0.20199929  1
  O  O28  1  0.16071725  0.19344487  0.50644166  1
  O  O29  1  0.51993038  0.80584573  0.48541246  1
  O  O30  1  0.78419360  0.75114597  0.17205659  1
  O  O31  1  0.47044153  0.79012632  0.84926437  1
  O  O32  1  0.53841987  0.20745940  0.15785786  1
  O  O33  1  0.22533910  0.24635914  0.83443713  1
  O  O34  1  0.48941460  0.19115944  0.52077135  1
  O  O35  1  0.84844890  0.80527430  0.50065985  1
  O  O36  1  0.53444580  0.44215452  0.80360510  1
  O  O37  1  0.84121685  0.24573250  0.16423480  1
  O  O38  1  0.47719033  0.14700435  0.79897640  1
  O  O39  1  0.86067520  0.70371410  0.71814193  1
  O  O40  1  0.86320370  0.11559165  0.46119984  1
  O  O41  1  0.99541080  0.41138345  0.64627306  1
  O  O42  1  0.80427285  0.42167458  0.02965622  1
  O  O43  1  0.80436630  0.11247031  0.85473542  1
