# generated using pymatgen
data_Li4V2Si(PO6)2
_symmetry_space_group_name_H-M   'P 1'
_cell_length_a   8.99680466
_cell_length_b   9.01533978
_cell_length_c   14.41116391
_cell_angle_alpha   71.74019582
_cell_angle_beta   89.92046616
_cell_angle_gamma   119.99533940
_symmetry_Int_Tables_number   1
_chemical_formula_structural   Li4V2Si(PO6)2
_chemical_formula_sum   'Li16 V8 Si4 P8 O48'
_cell_volume   943.43810571
_cell_formula_units_Z   4
loop_
 _symmetry_equiv_pos_site_id
 _symmetry_equiv_pos_as_xyz
  1  'x, y, z'
loop_
 _atom_site_type_symbol
 _atom_site_label
 _atom_site_symmetry_multiplicity
 _atom_site_fract_x
 _atom_site_fract_y
 _atom_site_fract_z
 _atom_site_occupancy
  Li  Li0  1  0.37825987  0.83068915  0.88620269  1
  Li  Li1  1  0.96930452  0.25756011  0.87416364  1
  Li  Li2  1  0.01794643  0.51160846  0.99940843  1
  Li  Li3  1  0.29743286  0.66940217  0.36387041  1
  Li  Li4  1  0.54185457  0.74975567  0.62508797  1
  Li  Li5  1  0.11525280  0.15396981  0.62299925  1
  Li  Li6  1  0.21772498  0.34915297  0.11102275  1
  Li  Li7  1  0.50665850  0.52004852  0.50108255  1
  Li  Li8  1  0.78719404  0.67029261  0.86212955  1
  Li  Li9  1  0.86668777  0.82920292  0.38842573  1
  Li  Li10  1  0.46254084  0.24352027  0.37493345  1
  Li  Li11  1  0.25562155  0.98807275  0.25042647  1
  Li  Li12  1  0.71283126  0.34625094  0.62720376  1
  Li  Li13  1  0.03945893  0.74966559  0.12611020  1
  Li  Li14  1  0.61925352  0.15090109  0.13816053  1
  Li  Li15  1  0.73758751  0.98049927  0.74897882  1
  V  V16  1  0.17605652  0.85356183  0.46232487  1
  V  V17  1  0.07227261  0.64605166  0.78763779  1
  V  V18  1  0.67577213  0.85676100  0.96296611  1
  V  V19  1  0.56860967  0.64321149  0.28707176  1
  V  V20  1  0.43022923  0.36364783  0.71297629  1
  V  V21  1  0.31999929  0.14367172  0.03769736  1
  V  V22  1  0.92581156  0.35593871  0.21220837  1
  V  V23  1  0.81898173  0.13840522  0.53662120  1
  Si  Si24  1  0.57806590  0.95082608  0.37724748  1
  Si  Si25  1  0.32819065  0.74979715  0.12502361  1
  Si  Si26  1  0.37761542  0.54915223  0.87326936  1
  Si  Si27  1  0.82936698  0.74995413  0.62530777  1
  P  P28  1  0.07863765  0.95404094  0.87730914  1
  P  P29  1  0.12172341  0.45109748  0.62563722  1
  P  P30  1  0.17137385  0.24681681  0.37443433  1
  P  P31  1  0.62487299  0.45343391  0.12374199  1
  P  P32  1  0.67535909  0.25336936  0.87527415  1
  P  P33  1  0.42127629  0.04961924  0.62423419  1
  P  P34  1  0.87434341  0.54635123  0.37241723  1
  P  P35  1  0.92123978  0.04594785  0.12619103  1
  O  O36  1  0.14077980  0.98379663  0.97265473  1
  O  O37  1  0.04816874  0.76315666  0.88691931  1
  O  O38  1  0.03462534  0.73783002  0.36280033  1
  O  O39  1  0.29512523  0.88839688  0.71845998  1
  O  O40  1  0.38405349  0.92624824  0.36549629  1
  O  O41  1  0.09008455  0.47996949  0.72136558  1
  O  O42  1  0.29742555  0.91123580  0.13475883  1
  O  O43  1  0.20835581  0.57389630  0.88421619  1
  O  O44  1  0.15645087  0.61238989  0.53144094  1
  O  O45  1  0.13589321  0.58826064  0.11523132  1
  O  O46  1  0.55186158  0.75059161  0.86162851  1
  O  O47  1  0.64513761  0.97940733  0.47847715  1
  O  O48  1  0.39768906  0.68951738  0.22612904  1
  O  O49  1  0.33357336  0.37622018  0.97400941  1
  O  O50  1  0.27890040  0.42406707  0.61444776  1
  O  O51  1  0.45813932  0.80999965  0.02391294  1
  O  O52  1  0.41355625  0.51928901  0.77184016  1
  O  O53  1  0.55034769  0.74928633  0.38822604  1
  O  O54  1  0.89753345  0.93690358  0.86779185  1
  O  O55  1  0.04544339  0.18463738  0.47085049  1
  O  O56  1  0.79874841  0.90936528  0.63814771  1
  O  O57  1  0.10598943  0.30933050  0.28099401  1
  O  O58  1  0.20518585  0.11450456  0.78262588  1
  O  O59  1  0.35461435  0.39574978  0.38433186  1
  O  O60  1  0.63847112  0.58874753  0.61256296  1
  O  O61  1  0.79451202  0.88993903  0.22166358  1
  O  O62  1  0.89977498  0.69026444  0.72599168  1
  O  O63  1  0.19920991  0.09323691  0.36483363  1
  O  O64  1  0.95927046  0.80969348  0.52421233  1
  O  O65  1  0.10284503  0.06603281  0.13634665  1
  O  O66  1  0.44357926  0.23671444  0.61771923  1
  O  O67  1  0.59223664  0.48641056  0.21831492  1
  O  O68  1  0.54711595  0.19059747  0.96918124  1
  O  O69  1  0.70963054  0.56260222  0.38208565  1
  O  O70  1  0.65442898  0.60932759  0.02859584  1
  O  O71  1  0.61321916  0.31609124  0.77919191  1
  O  O72  1  0.36020848  0.02036996  0.52857076  1
  O  O73  1  0.46191295  0.26011247  0.13575617  1
  O  O74  1  0.85710931  0.40646890  0.88555017  1
  O  O75  1  0.84244328  0.38795485  0.46676890  1
  O  O76  1  0.78618428  0.43297197  0.11389240  1
  O  O77  1  0.70934707  0.10380929  0.86594708  1
  O  O78  1  0.90770963  0.51727355  0.27689705  1
  O  O79  1  0.60645151  0.07716661  0.63434362  1
  O  O80  1  0.70738638  0.12306080  0.27617985  1
  O  O81  1  0.95650037  0.26340175  0.63259540  1
  O  O82  1  0.95163011  0.23906621  0.11421704  1
  O  O83  1  0.85573172  0.01238460  0.03203120  1
