# generated using pymatgen
data_Li2VFe3O8
_symmetry_space_group_name_H-M   'P 1'
_cell_length_a   5.96536545
_cell_length_b   5.96680642
_cell_length_c   9.51218384
_cell_angle_alpha   89.93773660
_cell_angle_beta   90.11019674
_cell_angle_gamma   120.03146073
_symmetry_Int_Tables_number   1
_chemical_formula_structural   Li2VFe3O8
_chemical_formula_sum   'Li4 V2 Fe6 O16'
_cell_volume   293.12394398
_cell_formula_units_Z   2
loop_
 _symmetry_equiv_pos_site_id
 _symmetry_equiv_pos_as_xyz
  1  'x, y, z'
loop_
 _atom_site_type_symbol
 _atom_site_label
 _atom_site_symmetry_multiplicity
 _atom_site_fract_x
 _atom_site_fract_y
 _atom_site_fract_z
 _atom_site_occupancy
  Li  Li0  1  0.33349939  0.66496797  0.90347393  1
  Li  Li1  1  0.00057055  0.99679670  0.99049849  1
  Li  Li2  1  -0.00131137  0.00042882  0.49090939  1
  Li  Li3  1  0.66702238  0.33207045  0.40165724  1
  V  V4  1  0.33369500  0.66585986  0.49594903  1
  V  V5  1  0.66523967  0.33395052  0.99567754  1
  Fe  Fe6  1  0.17463785  0.82864237  0.21747700  1
  Fe  Fe7  1  0.16833106  0.34650347  0.21690306  1
  Fe  Fe8  1  0.65306615  0.82726056  0.21731801  1
  Fe  Fe9  1  0.34675746  0.16919202  0.71670377  1
  Fe  Fe10  1  0.82801505  0.65348707  0.71671202  1
  Fe  Fe11  1  0.82822397  0.17441968  0.71851642  1
  O  O12  1  0.17560304  0.82679703  0.58679955  1
  O  O13  1  0.04227454  0.52303617  0.34808974  1
  O  O14  1  0.33348413  0.66598213  0.10392541  1
  O  O15  1  -0.00005960  0.00037334  0.29970190  1
  O  O16  1  0.00088870  0.00018986  0.79975282  1
  O  O17  1  0.17495807  0.35428667  0.58911057  1
  O  O18  1  0.48002034  0.95878273  0.34747847  1
  O  O19  1  0.47623436  0.52252759  0.34899524  1
  O  O20  1  0.35300963  0.17538189  0.08889374  1
  O  O21  1  0.64667733  0.82425332  0.58881540  1
  O  O22  1  0.52249759  0.47683710  0.84825616  1
  O  O23  1  0.52201988  0.04224242  0.84814847  1
  O  O24  1  0.66686024  0.33237703  0.60421391  1
  O  O25  1  0.82280209  0.64658768  0.08886820  1
  O  O26  1  0.95857290  0.48082353  0.84780662  1
  O  O27  1  0.82640961  0.17624203  0.08718789  1
