# generated using pymatgen
data_Li2V4CuNiO12
_symmetry_space_group_name_H-M   'P 1'
_cell_length_a   6.85428365
_cell_length_b   6.85428409
_cell_length_c   5.80226406
_cell_angle_alpha   74.43627369
_cell_angle_beta   105.56372690
_cell_angle_gamma   96.83408201
_symmetry_Int_Tables_number   1
_chemical_formula_structural   Li2V4CuNiO12
_chemical_formula_sum   'Li2 V4 Cu1 Ni1 O12'
_cell_volume   252.64830806
_cell_formula_units_Z   1
loop_
 _symmetry_equiv_pos_site_id
 _symmetry_equiv_pos_as_xyz
  1  'x, y, z'
loop_
 _atom_site_type_symbol
 _atom_site_label
 _atom_site_symmetry_multiplicity
 _atom_site_fract_x
 _atom_site_fract_y
 _atom_site_fract_z
 _atom_site_occupancy
  Li  Li0  1  0.24440409  0.24440409  0.25000000  1
  Li  Li1  1  0.75947507  0.75947507  0.75000000  1
  V  V2  1  0.20053363  0.60921392  0.76596600  1
  V  V3  1  0.39299280  0.80444037  0.26934962  1
  V  V4  1  0.60921392  0.20053363  0.73403400  1
  V  V5  1  0.80444037  0.39299280  0.23065038  1
  Cu  Cu6  1  0.09529057  0.09529057  0.75000000  1
  Ni  Ni7  1  0.91618361  0.91618361  0.25000000  1
  O  O8  1  0.01499796  0.78722715  0.63980254  1
  O  O9  1  0.09472646  0.36934827  0.82340535  1
  O  O10  1  0.20204367  0.97984598  0.16212466  1
  O  O11  1  0.36393090  0.63603840  0.56341529  1
  O  O12  1  0.36934827  0.09472646  0.67659465  1
  O  O13  1  0.35182121  0.63754597  0.05887264  1
  O  O14  1  0.63603840  0.36393090  0.93658471  1
  O  O15  1  0.63741760  0.90252135  0.32730582  1
  O  O16  1  0.63754597  0.35182121  0.44112736  1
  O  O17  1  0.78722715  0.01499796  0.86019746  1
  O  O18  1  0.90252135  0.63741760  0.17269418  1
  O  O19  1  0.97984598  0.20204367  0.33787534  1
