# generated using pymatgen
data_Li4Mn2FeNi3(PO4)6
_symmetry_space_group_name_H-M   'P 1'
_cell_length_a   8.45826550
_cell_length_b   8.56806098
_cell_length_c   8.55694236
_cell_angle_alpha   62.36249284
_cell_angle_beta   62.67518423
_cell_angle_gamma   62.67926202
_symmetry_Int_Tables_number   1
_chemical_formula_structural   Li4Mn2FeNi3(PO4)6
_chemical_formula_sum   'Li4 Mn2 Fe1 Ni3 P6 O24'
_cell_volume   463.61231879
_cell_formula_units_Z   1
loop_
 _symmetry_equiv_pos_site_id
 _symmetry_equiv_pos_as_xyz
  1  'x, y, z'
loop_
 _atom_site_type_symbol
 _atom_site_label
 _atom_site_symmetry_multiplicity
 _atom_site_fract_x
 _atom_site_fract_y
 _atom_site_fract_z
 _atom_site_occupancy
  Li  Li0  1  0.74784421  0.14811699  0.35350243  1
  Li  Li1  1  0.27207311  0.85209755  0.64926024  1
  Li  Li2  1  0.64958516  0.27066702  0.85326116  1
  Li  Li3  1  0.85252777  0.64920234  0.27430015  1
  Mn  Mn4  1  0.01370925  0.00194444  0.99671486  1
  Mn  Mn5  1  0.48893366  0.50382029  0.49891923  1
  Fe  Fe6  1  0.85170006  0.84569088  0.85147164  1
  Ni  Ni7  1  0.14396133  0.14763983  0.14634252  1
  Ni  Ni8  1  0.35624482  0.35406615  0.35336472  1
  Ni  Ni9  1  0.64596828  0.64772263  0.65068158  1
  P  P10  1  0.24780634  0.54529454  0.95523559  1
  P  P11  1  0.55255604  0.95712880  0.24966514  1
  P  P12  1  0.94818128  0.24661047  0.54364194  1
  P  P13  1  0.04976721  0.74715319  0.44907062  1
  P  P14  1  0.44769176  0.04806800  0.75020296  1
  P  P15  1  0.74859982  0.44740106  0.04875321  1
  O  O16  1  0.11246898  0.30289406  0.49909861  1
  O  O17  1  0.31071219  0.51398581  0.10916589  1
  O  O18  1  0.05337559  0.91338396  0.26425169  1
  O  O19  1  0.54385981  0.10542236  0.30758473  1
  O  O20  1  0.00920165  0.80894015  0.61146603  1
  O  O21  1  0.24350117  0.59401552  0.43432272  1
  O  O22  1  0.25558478  0.07450502  0.90415281  1
  O  O23  1  0.45572579  0.23303606  0.58514656  1
  O  O24  1  0.18111555  0.39352232  0.98897492  1
  O  O25  1  0.59816764  0.43091056  0.24590018  1
  O  O26  1  0.09443067  0.74658081  0.92605756  1
  O  O27  1  0.38934957  0.00536205  0.19016388  1
  O  O28  1  0.61050260  0.00094336  0.81794749  1
  O  O29  1  0.90081823  0.25200002  0.07479112  1
  O  O30  1  0.40314434  0.56854891  0.75640028  1
  O  O31  1  0.81412474  0.60716072  0.00774073  1
  O  O32  1  0.56780522  0.75952787  0.40601577  1
  O  O33  1  0.75209786  0.92218799  0.09340540  1
  O  O34  1  0.75092645  0.40517552  0.57199069  1
  O  O35  1  0.95970472  0.18622299  0.39600216  1
  O  O36  1  0.47031555  0.89352236  0.69001354  1
  O  O37  1  0.92692918  0.09227396  0.74413342  1
  O  O38  1  0.68415681  0.47377831  0.89555190  1
  O  O39  1  0.89482982  0.68047714  0.47833194  1
