# generated using pymatgen
data_Li3Mn4(P2O7)4
_symmetry_space_group_name_H-M   'P 1'
_cell_length_a   9.81017220
_cell_length_b   9.80618418
_cell_length_c   11.06461256
_cell_angle_alpha   90.18355620
_cell_angle_beta   101.29330458
_cell_angle_gamma   88.87357739
_symmetry_Int_Tables_number   1
_chemical_formula_structural   Li3Mn4(P2O7)4
_chemical_formula_sum   'Li6 Mn8 P16 O56'
_cell_volume   1043.60794809
_cell_formula_units_Z   2
loop_
 _symmetry_equiv_pos_site_id
 _symmetry_equiv_pos_as_xyz
  1  'x, y, z'
loop_
 _atom_site_type_symbol
 _atom_site_label
 _atom_site_symmetry_multiplicity
 _atom_site_fract_x
 _atom_site_fract_y
 _atom_site_fract_z
 _atom_site_occupancy
  Li  Li0  1  0.09053238  0.10229664  0.02363477  1
  Li  Li1  1  0.40948249  0.60816138  0.97202426  1
  Li  Li2  1  0.58683152  0.39189092  0.02628031  1
  Li  Li3  1  0.90709532  0.89612523  0.97745772  1
  Li  Li4  1  0.84326911  0.57911230  0.46625289  1
  Li  Li5  1  0.89062028  0.28191021  0.54759497  1
  Mn  Mn6  1  0.19570102  0.91950394  0.65797095  1
  Mn  Mn7  1  0.26719283  0.21416221  0.82946182  1
  Mn  Mn8  1  0.22664296  0.71100395  0.17016924  1
  Mn  Mn9  1  0.30522940  0.42339519  0.34153938  1
  Mn  Mn10  1  0.69500052  0.57730258  0.66951864  1
  Mn  Mn11  1  0.76591170  0.29089079  0.82821423  1
  Mn  Mn12  1  0.73141505  0.78335315  0.17303755  1
  Mn  Mn13  1  0.80731633  0.07645914  0.33597707  1
  P  P14  1  0.02397026  0.44185081  0.75310718  1
  P  P15  1  0.11784898  0.71096523  0.87811689  1
  P  P16  1  0.06305235  0.92982476  0.24521035  1
  P  P17  1  0.13693471  0.14881624  0.43548823  1
  P  P18  1  0.37173005  0.64533388  0.57176861  1
  P  P19  1  0.43441215  0.42392971  0.75794693  1
  P  P20  1  0.53120994  0.06169536  0.75749718  1
  P  P21  1  0.37927545  0.21058262  0.12188881  1
  P  P22  1  0.61612338  0.79154750  0.88237178  1
  P  P23  1  0.46773773  0.93695667  0.24347050  1
  P  P24  1  0.56189744  0.56854011  0.24177865  1
  P  P25  1  0.62996957  0.35198258  0.42913571  1
  P  P26  1  0.86985372  0.85720629  0.56335188  1
  P  P27  1  0.93896635  0.06803929  0.75578174  1
  P  P28  1  0.88156519  0.28934298  0.11939466  1
  P  P29  1  0.97112680  0.56190594  0.24054518  1
  O  O30  1  0.01333842  0.41971691  0.61822263  1
  O  O31  1  0.02104878  0.85187980  0.54906391  1
  O  O32  1  0.08927578  0.07290092  0.72883028  1
  O  O33  1  0.11099277  0.33673887  0.84158872  1
  O  O34  1  0.09685674  0.58502582  0.78306919  1
  O  O35  1  0.18668008  0.81848311  0.80948533  1
  O  O36  1  0.22418802  0.65938109  0.99406310  1
  O  O37  1  0.01825332  0.25300745  0.08821478  1
  O  O38  1  0.13116269  0.06461409  0.30757132  1
  O  O39  1  0.06436112  0.93689430  0.10900016  1
  O  O40  1  0.11803709  0.55235229  0.20333408  1
  O  O41  1  0.19474348  0.28610780  0.41205518  1
  O  O42  1  0.15610744  0.80729174  0.30057259  1
  O  O43  1  0.22692790  0.06368862  0.53937459  1
  O  O44  1  0.28523050  0.56780164  0.46375571  1
  O  O45  1  0.33687219  0.30788189  0.70138241  1
  O  O46  1  0.31653466  0.78788476  0.59395472  1
  O  O47  1  0.38636073  0.05557641  0.79759593  1
  O  O48  1  0.36589506  0.56244715  0.69669922  1
  O  O49  1  0.43079452  0.43344483  0.89386306  1
  O  O50  1  0.47775613  0.76173401  0.91074742  1
  O  O51  1  0.27387189  0.16077189  0.00606198  1
  O  O52  1  0.31185955  0.32341956  0.18963873  1
  O  O53  1  0.39876773  0.08527696  0.21911926  1
  O  O54  1  0.41314760  0.57833350  0.26994576  1
  O  O55  1  0.37381911  0.83787159  0.15769170  1
  O  O56  1  0.52357353  0.09248518  0.62297050  1
  O  O57  1  0.48275437  0.34177970  0.44630074  1
  O  O58  1  0.52646243  0.65012945  0.56409879  1
  O  O59  1  0.47663795  0.90467901  0.37906761  1
  O  O60  1  0.62701113  0.15820557  0.84567025  1
  O  O61  1  0.58357738  0.41138697  0.73167855  1
  O  O62  1  0.60093806  0.91298757  0.78292101  1
  O  O63  1  0.68678087  0.67557295  0.81933656  1
  O  O64  1  0.72179942  0.84246551  0.99762725  1
  O  O65  1  0.51713989  0.24184999  0.09239824  1
  O  O66  1  0.56442624  0.56661682  0.10578231  1
  O  O67  1  0.63009037  0.42728516  0.29882654  1
  O  O68  1  0.61374908  0.94161887  0.20611225  1
  O  O69  1  0.70776761  0.21738307  0.41831724  1
  O  O70  1  0.66422231  0.67970584  0.30313191  1
  O  O71  1  0.72436201  0.44138884  0.52830215  1
  O  O72  1  0.77792513  0.94090984  0.45910724  1
  O  O73  1  0.84890521  0.19307733  0.69851008  1
  O  O74  1  0.81209596  0.71757023  0.58181956  1
  O  O75  1  0.87313215  0.45323481  0.78928156  1
  O  O76  1  0.93447659  0.06194037  0.89077447  1
  O  O77  1  0.86569746  0.93599859  0.69196213  1
  O  O78  1  0.98078648  0.74932124  0.90766843  1
  O  O79  1  0.77277746  0.34061323  0.00426477  1
  O  O80  1  0.81385110  0.18010639  0.18785330  1
  O  O81  1  0.90055345  0.41557970  0.21404184  1
  O  O82  1  0.88009930  0.66257018  0.14862917  1
  O  O83  1  0.91140867  0.92305391  0.27020633  1
  O  O84  1  0.98488381  0.16019502  0.45022726  1
  O  O85  1  0.97480128  0.58922605  0.37300317  1
