# generated using pymatgen
data_YV(WO4)2
_symmetry_space_group_name_H-M   'P 1'
_cell_length_a   5.15481561
_cell_length_b   5.97076718
_cell_length_c   6.41074258
_cell_angle_alpha   106.31199195
_cell_angle_beta   121.58431888
_cell_angle_gamma   88.52960305
_symmetry_Int_Tables_number   1
_chemical_formula_structural   YV(WO4)2
_chemical_formula_sum   'Y1 V1 W2 O8'
_cell_volume   159.52792373
_cell_formula_units_Z   1
loop_
 _symmetry_equiv_pos_site_id
 _symmetry_equiv_pos_as_xyz
  1  'x, y, z'
loop_
 _atom_site_type_symbol
 _atom_site_label
 _atom_site_symmetry_multiplicity
 _atom_site_fract_x
 _atom_site_fract_y
 _atom_site_fract_z
 _atom_site_occupancy
  Y  Y0  1  0.62270476  0.70459946  0.09810749  1
  V  V1  1  0.12683864  0.22978514  0.09869416  1
  W  W2  1  0.86994458  0.38943088  0.58669435  1
  W  W3  1  0.39262307  0.06231155  0.61733477  1
  O  O4  1  0.12039191  0.66761178  0.82165490  1
  O  O5  1  0.54859950  0.48279660  0.29306897  1
  O  O6  1  0.17240042  0.17584664  0.78624733  1
  O  O7  1  0.54359377  0.06352699  0.38520313  1
  O  O8  1  0.68539730  0.95611466  0.88228150  1
  O  O9  1  0.12613480  0.79201624  0.38997553  1
  O  O10  1  0.08264864  0.26659364  0.40526292  1
  O  O11  1  0.70472262  0.38786341  0.83156994  1
