# generated using pymatgen
data_Li3Mn4(P2O7)4
_symmetry_space_group_name_H-M   'P 1'
_cell_length_a   9.76354855
_cell_length_b   9.76086680
_cell_length_c   11.25350941
_cell_angle_alpha   90.00968495
_cell_angle_beta   101.19400556
_cell_angle_gamma   90.00930650
_symmetry_Int_Tables_number   1
_chemical_formula_structural   Li3Mn4(P2O7)4
_chemical_formula_sum   'Li6 Mn8 P16 O56'
_cell_volume   1052.06406853
_cell_formula_units_Z   2
loop_
 _symmetry_equiv_pos_site_id
 _symmetry_equiv_pos_as_xyz
  1  'x, y, z'
loop_
 _atom_site_type_symbol
 _atom_site_label
 _atom_site_symmetry_multiplicity
 _atom_site_fract_x
 _atom_site_fract_y
 _atom_site_fract_z
 _atom_site_occupancy
  Li  Li0  1  0.41091756  0.59414561  0.97900245  1
  Li  Li1  1  0.33494916  0.90994480  0.45851708  1
  Li  Li2  1  0.39380859  0.21593725  0.54818768  1
  Li  Li3  1  0.91085305  0.90597803  0.97903180  1
  Li  Li4  1  0.83523225  0.58990276  0.45856047  1
  Li  Li5  1  0.89377338  0.28370001  0.54846491  1
  Mn  Mn6  1  0.20279130  0.92474019  0.67362182  1
  Mn  Mn7  1  0.25354279  0.21297568  0.82674542  1
  Mn  Mn8  1  0.21643419  0.72877571  0.16423246  1
  Mn  Mn9  1  0.30547628  0.43246967  0.33498688  1
  Mn  Mn10  1  0.70259979  0.57470299  0.67320151  1
  Mn  Mn11  1  0.75332979  0.28683644  0.82668132  1
  Mn  Mn12  1  0.71620849  0.77140473  0.16391768  1
  Mn  Mn13  1  0.80575959  0.06798637  0.33510827  1
  P  P14  1  0.02267710  0.44391128  0.75590219  1
  P  P15  1  0.11453727  0.71354641  0.88255599  1
  P  P16  1  0.06506688  0.93172337  0.24499167  1
  P  P17  1  0.13378125  0.15386385  0.42384288  1
  P  P18  1  0.37979449  0.63968164  0.57299026  1
  P  P19  1  0.42944716  0.42288985  0.76036860  1
  P  P20  1  0.52268496  0.05562729  0.75562706  1
  P  P21  1  0.38006197  0.21365793  0.12117044  1
  P  P22  1  0.61466129  0.78597933  0.88209565  1
  P  P23  1  0.46993490  0.93810983  0.24149191  1
  P  P24  1  0.56496490  0.56866596  0.24514316  1
  P  P25  1  0.63369567  0.34664223  0.42423636  1
  P  P26  1  0.88006798  0.86027905  0.57305753  1
  P  P27  1  0.92965647  0.07692704  0.76047028  1
  P  P28  1  0.87991255  0.28660295  0.12119721  1
  P  P29  1  0.96986648  0.56228957  0.24134842  1
  O  O30  1  0.02116711  0.41800273  0.62527343  1
  O  O31  1  0.03739616  0.85902185  0.56840183  1
  O  O32  1  0.08039275  0.08740945  0.73589330  1
  O  O33  1  0.10606295  0.34085964  0.84717223  1
  O  O34  1  0.09633786  0.58822333  0.78765688  1
  O  O35  1  0.19258617  0.82157645  0.82022229  1
  O  O36  1  0.21777083  0.66124664  0.99839477  1
  O  O37  1  0.02084043  0.24600497  0.09165126  1
  O  O38  1  0.12649591  0.07813750  0.29400007  1
  O  O39  1  0.06849474  0.91495746  0.11212435  1
  O  O40  1  0.11802178  0.55959854  0.20652016  1
  O  O41  1  0.20497843  0.29045336  0.41063781  1
  O  O42  1  0.17105720  0.82345493  0.31081201  1
  O  O43  1  0.22903654  0.06420655  0.51966326  1
  O  O44  1  0.29340933  0.56307978  0.46473301  1
  O  O45  1  0.33637666  0.30307601  0.69646762  1
  O  O46  1  0.32539504  0.78350980  0.58763127  1
  O  O47  1  0.36808167  0.04461544  0.78467422  1
  O  O48  1  0.36427085  0.56025550  0.69435078  1
  O  O49  1  0.41154703  0.42827911  0.88918512  1
  O  O50  1  0.47538217  0.74692500  0.90500416  1
  O  O51  1  0.29092293  0.16224152  0.00145499  1
  O  O52  1  0.31383772  0.32679076  0.18553951  1
  O  O53  1  0.40270567  0.08998463  0.21531494  1
  O  O54  1  0.41593346  0.57758701  0.27304252  1
  O  O55  1  0.37758121  0.84086305  0.15151658  1
  O  O56  1  0.52101770  0.08163507  0.62501024  1
  O  O57  1  0.48468622  0.33376415  0.44308407  1
  O  O58  1  0.53697018  0.64068229  0.56810305  1
  O  O59  1  0.47379683  0.91505847  0.37242765  1
  O  O60  1  0.60612736  0.15868325  0.84688902  1
  O  O61  1  0.58020654  0.41220849  0.73591138  1
  O  O62  1  0.59657608  0.91143390  0.78733697  1
  O  O63  1  0.69313913  0.67815889  0.81976165  1
  O  O64  1  0.71774460  0.83852939  0.99799955  1
  O  O65  1  0.52098439  0.25400813  0.09150061  1
  O  O66  1  0.56837108  0.58487506  0.11227002  1
  O  O67  1  0.62670626  0.42250375  0.29455518  1
  O  O68  1  0.61801735  0.94070559  0.20654044  1
  O  O69  1  0.70519329  0.21023358  0.41109524  1
  O  O70  1  0.67088088  0.67713444  0.31075605  1
  O  O71  1  0.72891328  0.43635566  0.52028068  1
  O  O72  1  0.79403795  0.93737357  0.46493513  1
  O  O73  1  0.83637207  0.19648642  0.69644529  1
  O  O74  1  0.82532498  0.71652476  0.58725593  1
  O  O75  1  0.86811631  0.45476791  0.78493788  1
  O  O76  1  0.91175540  0.07179846  0.88929471  1
  O  O77  1  0.86467723  0.93933631  0.69461095  1
  O  O78  1  0.97539343  0.75264867  0.90567189  1
  O  O79  1  0.79065005  0.33754891  0.00144834  1
  O  O80  1  0.81364463  0.17360219  0.18572827  1
  O  O81  1  0.90277648  0.41031185  0.21532823  1
  O  O82  1  0.87733512  0.65914715  0.15124155  1
  O  O83  1  0.91603939  0.92280993  0.27285003  1
  O  O84  1  0.98478878  0.16683303  0.44282584  1
  O  O85  1  0.97373591  0.58572191  0.37224344  1
