# generated using pymatgen
data_Li2Mn(PO4)2
_symmetry_space_group_name_H-M   'P 1'
_cell_length_a   4.89384054
_cell_length_b   6.78931224
_cell_length_c   5.13835454
_cell_angle_alpha   106.96063579
_cell_angle_beta   113.44574781
_cell_angle_gamma   86.50825879
_symmetry_Int_Tables_number   1
_chemical_formula_structural   Li2Mn(PO4)2
_chemical_formula_sum   'Li2 Mn1 P2 O8'
_cell_volume   149.52151310
_cell_formula_units_Z   1
loop_
 _symmetry_equiv_pos_site_id
 _symmetry_equiv_pos_as_xyz
  1  'x, y, z'
loop_
 _atom_site_type_symbol
 _atom_site_label
 _atom_site_symmetry_multiplicity
 _atom_site_fract_x
 _atom_site_fract_y
 _atom_site_fract_z
 _atom_site_occupancy
  Li  Li0  1  0.21352753  0.15927752  0.71494364  1
  Li  Li1  1  0.78647247  0.84072248  0.28505636  1
  Mn  Mn2  1  0.50000000  0.50000000  0.50000000  1
  P  P3  1  0.13406221  0.72743847  0.86860180  1
  P  P4  1  0.86593779  0.27256153  0.13139820  1
  O  O5  1  0.10911357  0.88087853  0.69846106  1
  O  O6  1  0.25057165  0.52002174  0.71470521  1
  O  O7  1  0.18029674  0.33288313  0.14876639  1
  O  O8  1  0.35276493  0.79098258  0.19420295  1
  O  O9  1  0.64723507  0.20901742  0.80579705  1
  O  O10  1  0.81970326  0.66711687  0.85123361  1
  O  O11  1  0.74942835  0.47997826  0.28529479  1
  O  O12  1  0.89088643  0.11912147  0.30153894  1
