# generated using pymatgen
data_Li3Ti3VO8
_symmetry_space_group_name_H-M   'P 1'
_cell_length_a   10.43634661
_cell_length_b   10.43625071
_cell_length_c   14.79216390
_cell_angle_alpha   19.12554403
_cell_angle_beta   19.12582498
_cell_angle_gamma   32.96315312
_symmetry_Int_Tables_number   1
_chemical_formula_structural   Li3Ti3VO8
_chemical_formula_sum   'Li3 Ti3 V1 O8'
_cell_volume   149.82068674
_cell_formula_units_Z   1
loop_
 _symmetry_equiv_pos_site_id
 _symmetry_equiv_pos_as_xyz
  1  'x, y, z'
loop_
 _atom_site_type_symbol
 _atom_site_label
 _atom_site_symmetry_multiplicity
 _atom_site_fract_x
 _atom_site_fract_y
 _atom_site_fract_z
 _atom_site_occupancy
  Li  Li0  1  0.99999869  0.50000344  0.49999875  1
  Li  Li1  1  0.50000071  0.00000603  0.49999508  1
  Li  Li2  1  0.49999722  0.50000549  0.49999777  1
  Ti  Ti3  1  -0.00000024  0.50000372  0.99999713  1
  Ti  Ti4  1  0.50000089  0.00000157  -0.00000343  1
  Ti  Ti5  1  0.49999865  0.50000064  -0.00000016  1
  V  V6  1  0.00000943  0.99998748  0.00000446  1
  O  O7  1  0.00014709  0.00013852  0.25413341  1
  O  O8  1  0.99981465  0.49749145  0.26086676  1
  O  O9  1  0.49750235  0.99981998  0.26085603  1
  O  O10  1  -0.00014922  -0.00013135  0.74586224  1
  O  O11  1  0.50276732  0.50276535  0.25535827  1
  O  O12  1  0.00018337  0.50250652  0.73913538  1
  O  O13  1  0.50251146  0.00017894  0.73913688  1
  O  O14  1  0.49721864  0.49722221  0.74466144  1
