# generated using pymatgen
data_Li2VO2F
_symmetry_space_group_name_H-M   'P 1'
_cell_length_a   3.00459241
_cell_length_b   13.07605113
_cell_length_c   7.30915220
_cell_angle_alpha   90.31270023
_cell_angle_beta   89.99138445
_cell_angle_gamma   96.62088220
_symmetry_Int_Tables_number   1
_chemical_formula_structural   Li2VO2F
_chemical_formula_sum   'Li10 V5 O10 F5'
_cell_volume   285.24403345
_cell_formula_units_Z   5
loop_
 _symmetry_equiv_pos_site_id
 _symmetry_equiv_pos_as_xyz
  1  'x, y, z'
loop_
 _atom_site_type_symbol
 _atom_site_label
 _atom_site_symmetry_multiplicity
 _atom_site_fract_x
 _atom_site_fract_y
 _atom_site_fract_z
 _atom_site_occupancy
  Li  Li0  1  0.46477562  0.92946279  0.12019838  1
  Li  Li1  1  0.06796277  0.13591137  0.15888504  1
  Li  Li2  1  0.26649758  0.53339822  0.15590542  1
  Li  Li3  1  0.33730245  0.67490289  0.86412632  1
  Li  Li4  1  0.13419332  0.26840870  0.84147827  1
  Li  Li5  1  0.66724430  0.33464001  0.15815788  1
  Li  Li6  1  0.86937414  0.73891671  0.12740880  1
  Li  Li7  1  0.92567463  0.85137062  0.87014709  1
  Li  Li8  1  0.53519260  0.07031211  0.84441087  1
  Li  Li9  1  0.73354167  0.46726429  0.84086315  1
  V  V10  1  0.00252417  0.00532784  0.50161362  1
  V  V11  1  0.20040013  0.39974228  0.49882447  1
  V  V12  1  0.39451569  0.79199029  0.51874938  1
  V  V13  1  0.60130141  0.20249304  0.50076037  1
  V  V14  1  0.79864915  0.59735489  0.50168599  1
  O  O15  1  0.46711884  0.93386160  0.63350207  1
  O  O16  1  0.26464853  0.53092715  0.65323960  1
  O  O17  1  0.06654612  0.13561912  0.65571664  1
  O  O18  1  0.13553961  0.26655175  0.34489280  1
  O  O19  1  0.33434830  0.66740498  0.35742544  1
  O  O20  1  0.40035736  0.80069017  0.00318008  1
  O  O21  1  0.66892147  0.33367086  0.65458866  1
  O  O22  1  0.86634520  0.73137033  0.65671310  1
  O  O23  1  0.73141463  0.46555094  0.34436090  1
  O  O24  1  0.53353767  0.06829180  0.34612735  1
  F  F25  1  0.00448408  0.00840405  0.99910245  1
  F  F26  1  0.19885587  0.39756448  0.99970730  1
  F  F27  1  0.93182083  0.86462234  0.34575963  1
  F  F28  1  0.79584177  0.59214909  0.00188133  1
  F  F29  1  0.60097309  0.20182528  0.00058862  1
