# generated using pymatgen
data_SrLi2Al4(PO5)4
_symmetry_space_group_name_H-M   'P 1'
_cell_length_a   7.47409196
_cell_length_b   10.55903774
_cell_length_c   10.55903774
_cell_angle_alpha   67.15873636
_cell_angle_beta   69.27278203
_cell_angle_gamma   69.27278203
_symmetry_Int_Tables_number   1
_chemical_formula_structural   SrLi2Al4(PO5)4
_chemical_formula_sum   'Sr2 Li4 Al8 P8 O40'
_cell_volume   695.22561095
_cell_formula_units_Z   2
loop_
 _symmetry_equiv_pos_site_id
 _symmetry_equiv_pos_as_xyz
  1  'x, y, z'
loop_
 _atom_site_type_symbol
 _atom_site_label
 _atom_site_symmetry_multiplicity
 _atom_site_fract_x
 _atom_site_fract_y
 _atom_site_fract_z
 _atom_site_occupancy
  Sr  Sr0  1  -0.00000000  0.75000000  0.25000000  1
  Sr  Sr1  1  -0.00000000  0.25000000  0.75000000  1
  Li  Li2  1  0.99005598  0.28843724  0.28843724  1
  Li  Li3  1  0.00994402  0.71156276  0.71156276  1
  Li  Li4  1  0.43306955  0.78843724  0.78843724  1
  Li  Li5  1  0.56693045  0.21156276  0.21156276  1
  Al  Al6  1  0.76595198  0.74515749  0.00637845  1
  Al  Al7  1  0.23404802  0.99362155  0.25484251  1
  Al  Al8  1  0.48251208  0.50637845  0.24515749  1
  Al  Al9  1  0.51748792  0.75484251  0.49362155  1
  Al  Al10  1  0.23404802  0.25484251  0.99362155  1
  Al  Al11  1  0.76595198  0.00637845  0.74515749  1
  Al  Al12  1  0.51748792  0.49362155  0.75484251  1
  Al  Al13  1  0.48251208  0.24515749  0.50637845  1
  P  P14  1  0.20842998  0.54157002  0.04157002  1
  P  P15  1  0.79157002  0.95842998  0.45842998  1
  P  P16  1  0.79157002  0.45842998  0.95842998  1
  P  P17  1  0.20842998  0.04157002  0.54157002  1
  P  P18  1  0.31691932  0.95738947  0.95738947  1
  P  P19  1  0.68308068  0.04261053  0.04261053  1
  P  P20  1  0.76830174  0.45738947  0.45738947  1
  P  P21  1  0.23169826  0.54261053  0.54261053  1
  O  O22  1  0.77239739  0.62121014  0.91075577  1
  O  O23  1  0.22760261  0.08924423  0.37878986  1
  O  O24  1  0.69563670  0.41075577  0.12121014  1
  O  O25  1  0.30436330  0.87878986  0.58924423  1
  O  O26  1  0.22760261  0.37878986  0.08924423  1
  O  O27  1  0.77239739  0.91075577  0.62121014  1
  O  O28  1  0.30436330  0.58924423  0.87878986  1
  O  O29  1  0.69563670  0.12121014  0.41075577  1
  O  O30  1  0.99023665  0.62529488  0.07640282  1
  O  O31  1  0.00976335  0.92359718  0.37470512  1
  O  O32  1  0.30806566  0.57640282  0.12529488  1
  O  O33  1  0.69193434  0.87470512  0.42359718  1
  O  O34  1  0.00976335  0.37470512  0.92359718  1
  O  O35  1  0.99023665  0.07640282  0.62529488  1
  O  O36  1  0.69193434  0.42359718  0.87470512  1
  O  O37  1  0.30806566  0.12529488  0.57640282  1
  O  O38  1  0.21502950  0.89880191  0.89880191  1
  O  O39  1  0.78497050  0.10119809  0.10119809  1
  O  O40  1  0.98736667  0.39880191  0.39880191  1
  O  O41  1  0.01263333  0.60119809  0.60119809  1
  O  O42  1  0.54818048  0.90211883  0.90211883  1
  O  O43  1  0.45181952  0.09788117  0.09788117  1
  O  O44  1  0.64758185  0.40211883  0.40211883  1
  O  O45  1  0.35241815  0.59788117  0.59788117  1
  O  O46  1  0.74262997  0.87679837  0.09393502  1
  O  O47  1  0.25737003  0.90606498  0.12320163  1
  O  O48  1  0.28663664  0.59393502  0.37679837  1
  O  O49  1  0.71336336  0.62320163  0.40606498  1
  O  O50  1  0.25737003  0.12320163  0.90606498  1
  O  O51  1  0.74262997  0.09393502  0.87679837  1
  O  O52  1  0.71336336  0.40606498  0.62320163  1
  O  O53  1  0.28663664  0.37679837  0.59393502  1
  O  O54  1  0.91482701  0.83289901  0.83289901  1
  O  O55  1  0.08517299  0.16710099  0.16710099  1
  O  O56  1  0.41937497  0.33289901  0.33289901  1
  O  O57  1  0.58062503  0.66710099  0.66710099  1
  O  O58  1  0.59518211  0.65481789  0.15481789  1
  O  O59  1  0.40481789  0.84518211  0.34518211  1
  O  O60  1  0.40481789  0.34518211  0.84518211  1
  O  O61  1  0.59518211  0.15481789  0.65481789  1
