# generated using pymatgen
data_FeOF
_symmetry_space_group_name_H-M   'P 1'
_cell_length_a   9.44301974
_cell_length_b   14.20107919
_cell_length_c   3.12403767
_cell_angle_alpha   90.00000000
_cell_angle_beta   90.00000000
_cell_angle_gamma   89.98578985
_symmetry_Int_Tables_number   1
_chemical_formula_structural   FeOF
_chemical_formula_sum   'Fe12 O12 F12'
_cell_volume   418.93678484
_cell_formula_units_Z   12
loop_
 _symmetry_equiv_pos_site_id
 _symmetry_equiv_pos_as_xyz
  1  'x, y, z'
loop_
 _atom_site_type_symbol
 _atom_site_label
 _atom_site_symmetry_multiplicity
 _atom_site_fract_x
 _atom_site_fract_y
 _atom_site_fract_z
 _atom_site_occupancy
  Fe  Fe0  1  0.00681273  0.99499246  0.00000000  1
  Fe  Fe1  1  0.01946897  0.32099098  0.00000000  1
  Fe  Fe2  1  0.00197986  0.67744870  -0.00000000  1
  Fe  Fe3  1  0.23397441  0.15604240  0.50000000  1
  Fe  Fe4  1  0.24599818  0.52158119  0.50000000  1
  Fe  Fe5  1  0.22257321  0.83609820  0.50000000  1
  Fe  Fe6  1  0.51227585  0.33016301  -0.00000000  1
  Fe  Fe7  1  0.52416840  0.98829911  -0.00000000  1
  Fe  Fe8  1  0.49347592  0.66667578  0.00000000  1
  Fe  Fe9  1  0.72341818  0.16081509  0.50000000  1
  Fe  Fe10  1  0.74069904  0.48882749  0.50000000  1
  Fe  Fe11  1  0.77321956  0.84150351  0.50000000  1
  O  O12  1  0.10456243  0.26910086  0.50000000  1
  O  O13  1  0.08995459  0.60055110  0.50000000  1
  O  O14  1  0.09969796  0.94101187  0.50000000  1
  O  O15  1  0.14770505  0.10284684  0.00000000  1
  O  O16  1  0.16269014  0.76733539  -0.00000000  1
  O  O17  1  0.35641322  0.57064639  -0.00000000  1
  O  O18  1  0.59790617  0.27144625  0.50000000  1
  O  O19  1  0.59721015  0.92572957  0.50000000  1
  O  O20  1  0.64779356  0.10027209  -0.00000000  1
  O  O21  1  0.64737892  0.43807134  -0.00000000  1
  O  O22  1  0.84884024  0.90481136  -0.00000000  1
  O  O23  1  0.89675901  0.73110627  0.50000000  1
  F  F24  1  0.15364717  0.43493714  -0.00000000  1
  F  F25  1  0.34940330  0.23108340  0.00000000  1
  F  F26  1  0.34866274  0.89917623  0.00000000  1
  F  F27  1  0.40207715  0.06300151  0.50000000  1
  F  F28  1  0.39411732  0.39828495  0.50000000  1
  F  F29  1  0.41173097  0.73624639  0.50000000  1
  F  F30  1  0.60357030  0.60552900  0.50000000  1
  F  F31  1  0.64495854  0.76086685  0.00000000  1
  F  F32  1  0.84908868  0.23511615  0.00000000  1
  F  F33  1  0.84010657  0.55767920  0.00000000  1
  F  F34  1  0.89991965  0.07443846  0.50000000  1
  F  F35  1  0.90774587  0.39727545  0.50000000  1
