# generated using pymatgen
data_Ca2BiWO6
_symmetry_space_group_name_H-M   'P 1'
_cell_length_a   6.23667017
_cell_length_b   6.25181816
_cell_length_c   8.55338179
_cell_angle_alpha   85.04963378
_cell_angle_beta   136.72806497
_cell_angle_gamma   124.15190797
_symmetry_Int_Tables_number   1
_chemical_formula_structural   Ca2BiWO6
_chemical_formula_sum   'Ca2 Bi1 W1 O6'
_cell_volume   155.64115917
_cell_formula_units_Z   1
loop_
 _symmetry_equiv_pos_site_id
 _symmetry_equiv_pos_as_xyz
  1  'x, y, z'
loop_
 _atom_site_type_symbol
 _atom_site_label
 _atom_site_symmetry_multiplicity
 _atom_site_fract_x
 _atom_site_fract_y
 _atom_site_fract_z
 _atom_site_occupancy
  Ca  Ca0  1  0.00285845  0.60035889  0.30830164  1
  Ca  Ca1  1  0.00336723  0.55614711  0.78675862  1
  Bi  Bi2  1  0.00176988  0.08268230  0.54859970  1
  W  W3  1  0.00193665  0.96646833  0.99162146  1
  O  O4  1  0.71010191  0.78831045  0.04380157  1
  O  O5  1  0.29876423  0.07071614  0.92581386  1
  O  O6  1  0.57469204  0.36083660  0.33681057  1
  O  O7  1  0.72429788  0.08436110  0.76899713  1
  O  O8  1  0.23474375  0.77098756  0.15856565  1
  O  O9  1  0.46876997  0.53898051  0.62668780  1
