# generated using pymatgen
data_FeOF
_symmetry_space_group_name_H-M   'P 1'
_cell_length_a   14.13770659
_cell_length_b   9.42739547
_cell_length_c   3.09247216
_cell_angle_alpha   90.00000000
_cell_angle_beta   90.00000000
_cell_angle_gamma   89.90387688
_symmetry_Int_Tables_number   1
_chemical_formula_structural   FeOF
_chemical_formula_sum   'Fe12 O12 F12'
_cell_volume   412.16952454
_cell_formula_units_Z   12
loop_
 _symmetry_equiv_pos_site_id
 _symmetry_equiv_pos_as_xyz
  1  'x, y, z'
loop_
 _atom_site_type_symbol
 _atom_site_label
 _atom_site_symmetry_multiplicity
 _atom_site_fract_x
 _atom_site_fract_y
 _atom_site_fract_z
 _atom_site_occupancy
  Fe  Fe0  1  0.00113612  0.00075070  0.00000000  1
  Fe  Fe1  1  0.01094859  0.49521555  0.00000000  1
  Fe  Fe2  1  0.15171031  0.24486217  0.50000000  1
  Fe  Fe3  1  0.14985881  0.74772892  0.50000000  1
  Fe  Fe4  1  0.33315390  0.00069449  0.00000000  1
  Fe  Fe5  1  0.34451871  0.49715795  -0.00000000  1
  Fe  Fe6  1  0.49835325  0.73129884  0.50000000  1
  Fe  Fe7  1  0.50454750  0.27201905  0.50000000  1
  Fe  Fe8  1  0.67857913  0.99542842  0.00000000  1
  Fe  Fe9  1  0.65763451  0.50606708  -0.00000000  1
  Fe  Fe10  1  0.83298064  0.22822805  0.50000000  1
  Fe  Fe11  1  0.83836626  0.77091965  0.50000000  1
  O  O12  1  0.06409089  0.40290070  0.50000000  1
  O  O13  1  0.06765216  0.90776350  0.50000000  1
  O  O14  1  0.10275968  0.15123831  0.00000000  1
  O  O15  1  0.09878510  0.65373351  -0.00000000  1
  O  O16  1  0.39474695  0.39721324  0.50000000  1
  O  O17  1  0.43251502  0.65514361  -0.00000000  1
  O  O18  1  0.57017587  0.34446684  0.00000000  1
  O  O19  1  0.60487385  0.60237468  0.50000000  1
  O  O20  1  0.72766087  0.89647973  0.50000000  1
  O  O21  1  0.76509719  0.15646405  0.00000000  1
  O  O22  1  0.90124708  0.84594850  -0.00000000  1
  O  O23  1  0.93747058  0.09771978  0.50000000  1
  F  F24  1  0.23035564  0.35231691  -0.00000000  1
  F  F25  1  0.23354011  0.84474473  -0.00000000  1
  F  F26  1  0.26717540  0.10753275  0.50000000  1
  F  F27  1  0.26529693  0.60013109  0.50000000  1
  F  F28  1  0.40304214  0.90034071  0.50000000  1
  F  F29  1  0.43740130  0.15039990  -0.00000000  1
  F  F30  1  0.56161399  0.85293962  -0.00000000  1
  F  F31  1  0.59485970  0.09059648  0.50000000  1
  F  F32  1  0.73681956  0.40876605  0.50000000  1
  F  F33  1  0.77281054  0.64632596  -0.00000000  1
  F  F34  1  0.89633692  0.35224402  -0.00000000  1
  F  F35  1  0.93188182  0.59184547  0.50000000  1
