# generated using pymatgen
data_Fe3OF5
_symmetry_space_group_name_H-M   'P 1'
_cell_length_a   4.82818808
_cell_length_b   4.82818808
_cell_length_c   9.58627987
_cell_angle_alpha   90.15186422
_cell_angle_beta   90.15186422
_cell_angle_gamma   92.33727523
_symmetry_Int_Tables_number   1
_chemical_formula_structural   Fe3OF5
_chemical_formula_sum   'Fe6 O2 F10'
_cell_volume   223.28206055
_cell_formula_units_Z   2
loop_
 _symmetry_equiv_pos_site_id
 _symmetry_equiv_pos_as_xyz
  1  'x, y, z'
loop_
 _atom_site_type_symbol
 _atom_site_label
 _atom_site_symmetry_multiplicity
 _atom_site_fract_x
 _atom_site_fract_y
 _atom_site_fract_z
 _atom_site_occupancy
  Fe  Fe0  1  0.96991771  0.96991771  0.00528895  1
  Fe  Fe1  1  0.03008229  0.03008229  0.32804405  1
  Fe  Fe2  1  -0.00000000  0.00000000  0.66666700  1
  Fe  Fe3  1  0.50000000  0.50000000  0.16666700  1
  Fe  Fe4  1  0.50635102  0.50635102  0.84186095  1
  Fe  Fe5  1  0.49364898  0.49364898  0.49147305  1
  O  O6  1  0.31559011  0.31559011  0.31707098  1
  O  O7  1  0.68440989  0.68440989  0.01626202  1
  F  F8  1  0.20013584  0.79986416  0.16666700  1
  F  F9  1  0.20102564  0.81275136  0.49439246  1
  F  F10  1  0.18724764  0.79897436  0.83894054  1
  F  F11  1  0.28157557  0.28157557  0.01214499  1
  F  F12  1  0.30757622  0.30757622  0.66937971  1
  F  F13  1  0.71842443  0.71842443  0.32118801  1
  F  F14  1  0.69242378  0.69242378  0.66395329  1
  F  F15  1  0.79986416  0.20013584  0.16666700  1
  F  F16  1  0.79897436  0.18724764  0.83894054  1
  F  F17  1  0.81275136  0.20102564  0.49439246  1
