# generated using pymatgen
data_Fe5(OF4)2
_symmetry_space_group_name_H-M   'P 1'
_cell_length_a   4.79064384
_cell_length_b   4.78924327
_cell_length_c   16.05825223
_cell_angle_alpha   90.00000000
_cell_angle_beta   90.00000000
_cell_angle_gamma   90.00000000
_symmetry_Int_Tables_number   1
_chemical_formula_structural   Fe5(OF4)2
_chemical_formula_sum   'Fe10 O4 F16'
_cell_volume   368.43345378
_cell_formula_units_Z   2
loop_
 _symmetry_equiv_pos_site_id
 _symmetry_equiv_pos_as_xyz
  1  'x, y, z'
loop_
 _atom_site_type_symbol
 _atom_site_label
 _atom_site_symmetry_multiplicity
 _atom_site_fract_x
 _atom_site_fract_y
 _atom_site_fract_z
 _atom_site_occupancy
  Fe  Fe0  1  0.01821527  0.01776112  0.00103836  1
  Fe  Fe1  1  0.01821527  0.01776112  0.19896164  1
  Fe  Fe2  1  0.00493017  0.98937888  0.40633585  1
  Fe  Fe3  1  0.03000035  0.97007676  0.60000000  1
  Fe  Fe4  1  0.00493017  0.98937888  0.79366415  1
  Fe  Fe5  1  0.46999965  0.47007676  0.10000000  1
  Fe  Fe6  1  0.48178473  0.51776112  0.50103836  1
  Fe  Fe7  1  0.49506983  0.48937888  0.29366415  1
  Fe  Fe8  1  0.48178473  0.51776112  0.69896164  1
  Fe  Fe9  1  0.49506983  0.48937888  0.90633585  1
  O  O10  1  0.19660187  0.80306393  0.50578439  1
  O  O11  1  0.19660187  0.80306393  0.69421561  1
  O  O12  1  0.30339813  0.30306393  0.00578439  1
  O  O13  1  0.30339813  0.30306393  0.19421561  1
  F  F14  1  0.20175701  0.80085940  0.10000000  1
  F  F15  1  0.19528005  0.80324134  0.29751462  1
  F  F16  1  0.19528005  0.80324134  0.90248538  1
  F  F17  1  0.30471995  0.30324134  0.40248538  1
  F  F18  1  0.29824299  0.30085940  0.60000000  1
  F  F19  1  0.30471995  0.30324134  0.79751462  1
  F  F20  1  0.71069366  0.70959965  0.00888606  1
  F  F21  1  0.71069366  0.70959965  0.19111394  1
  F  F22  1  0.69076645  0.69063582  0.40002186  1
  F  F23  1  0.69932081  0.70170235  0.60000000  1
  F  F24  1  0.69076645  0.69063582  0.79997814  1
  F  F25  1  0.80067919  0.20170235  0.10000000  1
  F  F26  1  0.78930634  0.20959965  0.50888606  1
  F  F27  1  0.80923355  0.19063582  0.29997814  1
  F  F28  1  0.80923355  0.19063582  0.90002186  1
  F  F29  1  0.78930634  0.20959965  0.69111394  1
