# generated using pymatgen
data_EuZrO3
_symmetry_space_group_name_H-M   'P 1'
_cell_length_a   8.36717215
_cell_length_b   8.36717215
_cell_length_c   8.36717215
_cell_angle_alpha   90.00000000
_cell_angle_beta   90.00000000
_cell_angle_gamma   90.00000000
_symmetry_Int_Tables_number   1
_chemical_formula_structural   EuZrO3
_chemical_formula_sum   'Eu8 Zr8 O24'
_cell_volume   585.78212256
_cell_formula_units_Z   8
loop_
 _symmetry_equiv_pos_site_id
 _symmetry_equiv_pos_as_xyz
  1  'x, y, z'
loop_
 _atom_site_type_symbol
 _atom_site_label
 _atom_site_symmetry_multiplicity
 _atom_site_fract_x
 _atom_site_fract_y
 _atom_site_fract_z
 _atom_site_occupancy
  Eu  Eu0  1  0.24407874  0.24407874  0.24407874  1
  Eu  Eu1  1  0.27619610  0.22380390  0.77619610  1
  Eu  Eu2  1  0.22380390  0.77619610  0.27619610  1
  Eu  Eu3  1  0.25592126  0.75592126  0.74407874  1
  Eu  Eu4  1  0.77619610  0.27619610  0.22380390  1
  Eu  Eu5  1  0.74407874  0.25592126  0.75592126  1
  Eu  Eu6  1  0.75592126  0.74407874  0.25592126  1
  Eu  Eu7  1  0.72380390  0.72380390  0.72380390  1
  Zr  Zr8  1  0.00717835  0.00717835  0.00717835  1
  Zr  Zr9  1  0.99021758  0.00978242  0.50978242  1
  Zr  Zr10  1  0.00978242  0.50978242  0.99021758  1
  Zr  Zr11  1  0.99282165  0.50717835  0.49282165  1
  Zr  Zr12  1  0.49021758  0.49021758  0.49021758  1
  Zr  Zr13  1  0.50978242  0.99021758  0.00978242  1
  Zr  Zr14  1  0.49282165  0.99282165  0.50717835  1
  Zr  Zr15  1  0.50717835  0.49282165  0.99282165  1
  O  O16  1  0.02557920  0.01743464  0.26065327  1
  O  O17  1  0.01743464  0.26065327  0.02557920  1
  O  O18  1  0.01345802  0.03550868  0.75975689  1
  O  O19  1  0.03550868  0.75975689  0.01345802  1
  O  O20  1  0.26065327  0.02557920  0.01743464  1
  O  O21  1  0.25975689  0.48654198  0.96449132  1
  O  O22  1  0.24024311  0.51345802  0.46449132  1
  O  O23  1  0.23934673  0.97442080  0.51743464  1
  O  O24  1  0.46449132  0.24024311  0.51345802  1
  O  O25  1  0.48654198  0.96449132  0.25975689  1
  O  O26  1  0.48256536  0.73934673  0.52557920  1
  O  O27  1  0.47442080  0.98256536  0.76065327  1
  O  O28  1  0.51345802  0.46449132  0.24024311  1
  O  O29  1  0.52557920  0.48256536  0.73934673  1
  O  O30  1  0.51743464  0.23934673  0.97442080  1
  O  O31  1  0.53550868  0.74024311  0.98654198  1
  O  O32  1  0.75975689  0.01345802  0.03550868  1
  O  O33  1  0.73934673  0.52557920  0.48256536  1
  O  O34  1  0.76065327  0.47442080  0.98256536  1
  O  O35  1  0.74024311  0.98654198  0.53550868  1
  O  O36  1  0.96449132  0.25975689  0.48654198  1
  O  O37  1  0.97442080  0.51743464  0.23934673  1
  O  O38  1  0.98654198  0.53550868  0.74024311  1
  O  O39  1  0.98256536  0.76065327  0.47442080  1
