# generated using pymatgen
data_Fe5(OF4)2
_symmetry_space_group_name_H-M   'P 1'
_cell_length_a   4.76520587
_cell_length_b   13.74132882
_cell_length_c   5.71096713
_cell_angle_alpha   100.10824643
_cell_angle_beta   89.45714901
_cell_angle_gamma   89.63854246
_symmetry_Int_Tables_number   1
_chemical_formula_structural   Fe5(OF4)2
_chemical_formula_sum   'Fe10 O4 F16'
_cell_volume   368.12245886
_cell_formula_units_Z   2
loop_
 _symmetry_equiv_pos_site_id
 _symmetry_equiv_pos_as_xyz
  1  'x, y, z'
loop_
 _atom_site_type_symbol
 _atom_site_label
 _atom_site_symmetry_multiplicity
 _atom_site_fract_x
 _atom_site_fract_y
 _atom_site_fract_z
 _atom_site_occupancy
  Fe  Fe0  1  0.50000000  0.00000000  0.50000000  1
  Fe  Fe1  1  0.48116899  0.40152559  0.29409515  1
  Fe  Fe2  1  0.48146307  0.20649061  0.90100689  1
  Fe  Fe3  1  0.51883101  0.59847441  0.70590485  1
  Fe  Fe4  1  0.51853693  0.79350939  0.09899311  1
  Fe  Fe5  1  0.02271333  0.39295179  0.81298407  1
  Fe  Fe6  1  0.03465845  0.81400858  0.60411268  1
  Fe  Fe7  1  0.96534155  0.18599142  0.39588732  1
  Fe  Fe8  1  0.97728667  0.60704821  0.18701593  1
  Fe  Fe9  1  0.00000000  0.00000000  -0.00000000  1
  O  O10  1  0.78826155  0.04656072  0.29780143  1
  O  O11  1  0.70820187  0.65773366  0.01866283  1
  O  O12  1  0.29179813  0.34226634  0.98133717  1
  O  O13  1  0.21173845  0.95343928  0.70219857  1
  F  F14  1  0.80516697  0.26389486  0.72724604  1
  F  F15  1  0.80509407  0.86832070  0.93096737  1
  F  F16  1  0.81277801  0.65890939  0.50864039  1
  F  F17  1  0.81002633  0.46432392  0.12081893  1
  F  F18  1  0.70566769  0.06409306  0.80668123  1
  F  F19  1  0.71151967  0.45460742  0.62471435  1
  F  F20  1  0.68905352  0.86116494  0.43802816  1
  F  F21  1  0.69866681  0.26192241  0.22389403  1
  F  F22  1  0.30133319  0.73807759  0.77610597  1
  F  F23  1  0.31094648  0.13883506  0.56197184  1
  F  F24  1  0.29433231  0.93590694  0.19331877  1
  F  F25  1  0.28848033  0.54539258  0.37528565  1
  F  F26  1  0.19490593  0.13168030  0.06903263  1
  F  F27  1  0.18997367  0.53567608  0.87918107  1
  F  F28  1  0.18722199  0.34109061  0.49135961  1
  F  F29  1  0.19483303  0.73610514  0.27275396  1
