# generated using pymatgen
data_Fe2O3
_symmetry_space_group_name_H-M   'P 1'
_cell_length_a   5.16483496
_cell_length_b   5.40719962
_cell_length_c   15.05091237
_cell_angle_alpha   90.00000000
_cell_angle_beta   90.00000000
_cell_angle_gamma   90.00000000
_symmetry_Int_Tables_number   1
_chemical_formula_structural   Fe2O3
_chemical_formula_sum   'Fe16 O24'
_cell_volume   420.33124920
_cell_formula_units_Z   8
loop_
 _symmetry_equiv_pos_site_id
 _symmetry_equiv_pos_as_xyz
  1  'x, y, z'
loop_
 _atom_site_type_symbol
 _atom_site_label
 _atom_site_symmetry_multiplicity
 _atom_site_fract_x
 _atom_site_fract_y
 _atom_site_fract_z
 _atom_site_occupancy
  Fe  Fe0  1  0.99871474  0.20084406  0.07142632  1
  Fe  Fe1  1  0.99880495  0.76658324  0.18062759  1
  Fe  Fe2  1  0.99871474  0.29915594  0.57142632  1
  Fe  Fe3  1  0.99880495  0.73341676  0.68062759  1
  Fe  Fe4  1  0.50119505  0.26658324  0.18062759  1
  Fe  Fe5  1  0.50119505  0.23341676  0.68062759  1
  Fe  Fe6  1  0.50128526  0.70084406  0.07142632  1
  Fe  Fe7  1  0.50128526  0.79915594  0.57142632  1
  Fe  Fe8  1  0.49871474  0.20084406  0.42857368  1
  Fe  Fe9  1  0.49871474  0.29915594  0.92857368  1
  Fe  Fe10  1  0.49880495  0.76658324  0.31937241  1
  Fe  Fe11  1  0.49880495  0.73341676  0.81937241  1
  Fe  Fe12  1  0.00128526  0.70084406  0.42857368  1
  Fe  Fe13  1  0.00119505  0.26658324  0.31937241  1
  Fe  Fe14  1  0.00119505  0.23341676  0.81937241  1
  Fe  Fe15  1  0.00128526  0.79915594  0.92857368  1
  O  O16  1  0.14209818  0.12957545  0.20322907  1
  O  O17  1  0.14209818  0.37042455  0.70322907  1
  O  O18  1  0.15026267  0.84255862  0.05124498  1
  O  O19  1  0.15026267  0.65744138  0.55124498  1
  O  O20  1  0.19795074  0.98185456  0.37639345  1
  O  O21  1  0.19795074  0.51814544  0.87639345  1
  O  O22  1  0.30204926  0.48185456  0.37639345  1
  O  O23  1  0.30204926  0.01814544  0.87639345  1
  O  O24  1  0.34973733  0.15744138  0.55124498  1
  O  O25  1  0.34973733  0.34255862  0.05124498  1
  O  O26  1  0.35790182  0.62957545  0.20322907  1
  O  O27  1  0.35790182  0.87042455  0.70322907  1
  O  O28  1  0.64209818  0.12957545  0.29677093  1
  O  O29  1  0.64209818  0.37042455  0.79677093  1
  O  O30  1  0.65026267  0.84255862  0.44875502  1
  O  O31  1  0.65026267  0.65744138  0.94875502  1
  O  O32  1  0.69795074  0.51814544  0.62360655  1
  O  O33  1  0.69795074  0.98185456  0.12360655  1
  O  O34  1  0.80204926  0.48185456  0.12360655  1
  O  O35  1  0.80204926  0.01814544  0.62360655  1
  O  O36  1  0.84973733  0.34255862  0.44875502  1
  O  O37  1  0.84973733  0.15744138  0.94875502  1
  O  O38  1  0.85790182  0.87042455  0.79677093  1
  O  O39  1  0.85790182  0.62957545  0.29677093  1
