# generated using pymatgen
data_Fe2OF3
_symmetry_space_group_name_H-M   'P 1'
_cell_length_a   4.75184740
_cell_length_b   13.66022013
_cell_length_c   5.66294852
_cell_angle_alpha   100.32849151
_cell_angle_beta   90.11834466
_cell_angle_gamma   89.76429697
_symmetry_Int_Tables_number   1
_chemical_formula_structural   Fe2OF3
_chemical_formula_sum   'Fe10 O5 F15'
_cell_volume   361.62944152
_cell_formula_units_Z   5
loop_
 _symmetry_equiv_pos_site_id
 _symmetry_equiv_pos_as_xyz
  1  'x, y, z'
loop_
 _atom_site_type_symbol
 _atom_site_label
 _atom_site_symmetry_multiplicity
 _atom_site_fract_x
 _atom_site_fract_y
 _atom_site_fract_z
 _atom_site_occupancy
  Fe  Fe0  1  0.50029891  0.99913545  0.50078013  1
  Fe  Fe1  1  0.49118994  0.40190093  0.30370050  1
  Fe  Fe2  1  0.47187580  0.21222534  0.90563112  1
  Fe  Fe3  1  0.55069304  0.59188395  0.71277997  1
  Fe  Fe4  1  0.51537388  0.78993974  0.09119749  1
  Fe  Fe5  1  0.00547252  0.40007000  0.80250231  1
  Fe  Fe6  1  0.03234071  0.81105765  0.60485686  1
  Fe  Fe7  1  0.96576876  0.18630811  0.40071857  1
  Fe  Fe8  1  0.99391511  0.60400502  0.19336307  1
  Fe  Fe9  1  0.99817920  0.00035179  0.99909338  1
  O  O10  1  0.78609226  0.04866476  0.29852426  1
  O  O11  1  0.70365594  0.45552941  0.60708181  1
  O  O12  1  0.69120994  0.65092451  0.00437988  1
  O  O13  1  0.28952109  0.35231768  0.00363090  1
  O  O14  1  0.21177858  0.95278441  0.70246584  1
  F  F15  1  0.81341141  0.26402168  0.73817380  1
  F  F16  1  0.80247928  0.86781117  0.93034311  1
  F  F17  1  0.79755930  0.66502116  0.52090373  1
  F  F18  1  0.79622116  0.45570891  0.11278750  1
  F  F19  1  0.70673878  0.06749531  0.80915725  1
  F  F20  1  0.68648877  0.86267235  0.43607457  1
  F  F21  1  0.68843620  0.26818515  0.23948859  1
  F  F22  1  0.30311759  0.72500781  0.75856258  1
  F  F23  1  0.31693565  0.14101619  0.56412165  1
  F  F24  1  0.29156421  0.93766736  0.19149494  1
  F  F25  1  0.30743037  0.53819166  0.37725598  1
  F  F26  1  0.19018350  0.13538177  0.07026360  1
  F  F27  1  0.19565536  0.53377352  0.85338437  1
  F  F28  1  0.20100242  0.33773109  0.49210223  1
  F  F29  1  0.19541131  0.74321816  0.27518101  1
