# generated using pymatgen
data_Ac3Lu
_symmetry_space_group_name_H-M   'P 1'
_cell_length_a   7.81939063
_cell_length_b   7.81939052
_cell_length_c   6.30725168
_cell_angle_alpha   90.00000000
_cell_angle_beta   90.00000000
_cell_angle_gamma   120.00000044
_symmetry_Int_Tables_number   1
_chemical_formula_structural   Ac3Lu
_chemical_formula_sum   'Ac6 Lu2'
_cell_volume   333.97703416
_cell_formula_units_Z   2
loop_
 _symmetry_equiv_pos_site_id
 _symmetry_equiv_pos_as_xyz
  1  'x, y, z'
loop_
 _atom_site_type_symbol
 _atom_site_label
 _atom_site_symmetry_multiplicity
 _atom_site_fract_x
 _atom_site_fract_y
 _atom_site_fract_z
 _atom_site_occupancy
  Ac  Ac0  1  0.82973012  0.17027088  0.75000000  1
  Ac  Ac1  1  0.34054076  0.17027088  0.75000000  1
  Ac  Ac2  1  0.82973012  0.65945824  0.75000000  1
  Ac  Ac3  1  0.17027088  0.82972912  0.25000100  1
  Ac  Ac4  1  0.65945824  0.82972912  0.25000100  1
  Ac  Ac5  1  0.17026988  0.34054076  0.25000100  1
  Lu  Lu6  1  0.66666700  0.33333300  0.25000100  1
  Lu  Lu7  1  0.33333300  0.66666700  0.75000000  1
