# generated using pymatgen
data_Y4AlSi2(O2F)5
_symmetry_space_group_name_H-M   'P 1'
_cell_length_a   8.75688899
_cell_length_b   8.81609441
_cell_length_c   4.33165286
_cell_angle_alpha   101.70613669
_cell_angle_beta   98.29065961
_cell_angle_gamma   117.09846454
_symmetry_Int_Tables_number   1
_chemical_formula_structural   Y4AlSi2(O2F)5
_chemical_formula_sum   'Y4 Al1 Si2 O10 F5'
_cell_volume   280.56405542
_cell_formula_units_Z   1
loop_
 _symmetry_equiv_pos_site_id
 _symmetry_equiv_pos_as_xyz
  1  'x, y, z'
loop_
 _atom_site_type_symbol
 _atom_site_label
 _atom_site_symmetry_multiplicity
 _atom_site_fract_x
 _atom_site_fract_y
 _atom_site_fract_z
 _atom_site_occupancy
  Y  Y0  1  0.28861725  0.44759136  0.32792097  1
  Y  Y1  1  0.26132838  0.80423968  0.98323778  1
  Y  Y2  1  0.73884687  0.54233571  0.71773821  1
  Y  Y3  1  0.71225497  0.15847823  0.03534858  1
  Al  Al4  1  0.00093253  0.00281035  0.00773716  1
  Si  Si5  1  0.69024194  0.83690962  0.35280394  1
  Si  Si6  1  0.31150909  0.14820249  0.66717556  1
  O  O7  1  0.00164423  0.81184206  0.71556548  1
  O  O8  1  0.41973337  0.06545887  0.84633369  1
  O  O9  1  0.99989750  0.20854209  0.26712928  1
  O  O10  1  0.56341784  0.90102814  0.16610248  1
  O  O11  1  0.81296051  0.99729951  0.70515529  1
  O  O12  1  0.19021983  0.18596370  0.89906833  1
  O  O13  1  0.43768129  0.33965448  0.60701944  1
  O  O14  1  0.81907057  0.81521121  0.12428174  1
  O  O15  1  0.18197528  0.99735897  0.30975759  1
  O  O16  1  0.58152128  0.64675153  0.42694148  1
  F  F17  1  0.73365693  0.43722940  0.17884480  1
  F  F18  1  0.26431980  0.70292820  0.44691676  1
  F  F19  1  0.28224050  0.53790507  0.86601639  1
  F  F20  1  0.71597082  0.25407932  0.57841523  1
  F  F21  1  0.99945823  0.56397702  0.90849084  1
