# generated using pymatgen
data_Be(HO)2
_symmetry_space_group_name_H-M   'P 1'
_cell_length_a   10.89520104
_cell_length_b   4.77683122
_cell_length_c   8.64051028
_cell_angle_alpha   90.00000000
_cell_angle_beta   95.62661575
_cell_angle_gamma   90.00000000
_symmetry_Int_Tables_number   1
_chemical_formula_structural   Be(HO)2
_chemical_formula_sum   'Be12 H24 O24'
_cell_volume   447.52472212
_cell_formula_units_Z   12
loop_
 _symmetry_equiv_pos_site_id
 _symmetry_equiv_pos_as_xyz
  1  'x, y, z'
loop_
 _atom_site_type_symbol
 _atom_site_label
 _atom_site_symmetry_multiplicity
 _atom_site_fract_x
 _atom_site_fract_y
 _atom_site_fract_z
 _atom_site_occupancy
  Be  Be0  1  0.67720907  0.07484698  0.59208973  1
  Be  Be1  1  0.32279093  0.57484698  0.40791027  1
  Be  Be2  1  0.68623048  0.58251151  0.78349880  1
  Be  Be3  1  0.31376952  0.08251151  0.21650120  1
  Be  Be4  1  0.67745932  0.87342663  0.07996027  1
  Be  Be5  1  0.32254068  0.37342663  0.92003973  1
  Be  Be6  1  0.30201439  0.81153515  0.71452656  1
  Be  Be7  1  0.69798561  0.31153515  0.28547344  1
  Be  Be8  1  0.08775796  0.71742111  0.53588384  1
  Be  Be9  1  0.91224204  0.21742111  0.46411616  1
  Be  Be10  1  0.91938468  0.73462682  0.97724742  1
  Be  Be11  1  0.08061532  0.23462682  0.02275258  1
  H  H12  1  0.65254965  0.62639846  0.53751894  1
  H  H13  1  0.34745035  0.12639846  0.46248106  1
  H  H14  1  0.35815362  0.83980519  0.96177808  1
  H  H15  1  0.64184638  0.33980519  0.03822192  1
  H  H16  1  0.37805428  0.36280793  0.67538652  1
  H  H17  1  0.62194572  0.86280793  0.32461348  1
  H  H18  1  0.68115404  0.13493234  0.83200111  1
  H  H19  1  0.31884596  0.63493234  0.16799889  1
  H  H20  1  0.86376566  0.03102563  0.68719524  1
  H  H21  1  0.13623434  0.53102563  0.31280476  1
  H  H22  1  0.47408140  0.71561135  0.59470214  1
  H  H23  1  0.52591860  0.21561135  0.40529786  1
  H  H24  1  0.04983790  0.33063452  0.64431802  1
  H  H25  1  0.95016210  0.83063452  0.35568198  1
  H  H26  1  0.87845559  0.55604751  0.73494437  1
  H  H27  1  0.12154441  0.05604751  0.26505563  1
  H  H28  1  0.15100032  0.53403489  0.84158946  1
  H  H29  1  0.84899968  0.03403489  0.15841054  1
  H  H30  1  0.48265498  0.19607934  0.77065164  1
  H  H31  1  0.51734502  0.69607934  0.22934836  1
  H  H32  1  0.06552474  0.92173264  0.83976334  1
  H  H33  1  0.93447526  0.42173264  0.16023666  1
  H  H34  1  0.52710766  0.70015255  0.91167229  1
  H  H35  1  0.47289234  0.20015255  0.08832771  1
  O  O36  1  0.62762560  0.74589876  0.62061604  1
  O  O37  1  0.37237440  0.24589876  0.37938396  1
  O  O38  1  0.63549025  0.24660830  0.75074651  1
  O  O39  1  0.36450975  0.74660830  0.24925349  1
  O  O40  1  0.61778381  0.18995762  0.42221545  1
  O  O41  1  0.38221619  0.68995762  0.57778455  1
  O  O42  1  0.81897076  0.09141489  0.58982848  1
  O  O43  1  0.18102924  0.59141489  0.41017152  1
  O  O44  1  0.61920850  0.70102972  0.93193006  1
  O  O45  1  0.38079150  0.20102972  0.06806994  1
  O  O46  1  0.83016263  0.61785922  0.81957450  1
  O  O47  1  0.16983737  0.11785922  0.18042550  1
  O  O48  1  0.62695973  0.19534759  0.11543896  1
  O  O49  1  0.37304027  0.69534759  0.88456104  1
  O  O50  1  0.82004230  0.87901432  0.08732426  1
  O  O51  1  0.17995770  0.37901432  0.91267574  1
  O  O52  1  0.61139854  0.71019129  0.24425141  1
  O  O53  1  0.38860146  0.21019129  0.75574859  1
  O  O54  1  0.99618616  0.44892024  0.57447810  1
  O  O55  1  0.00381384  0.94892024  0.42552190  1
  O  O56  1  0.01250197  0.97464626  0.92282720  1
  O  O57  1  0.98749803  0.47464626  0.07717280  1
  O  O58  1  0.16561560  0.81748124  0.69060596  1
  O  O59  1  0.83438440  0.31748124  0.30939404  1
