# generated using pymatgen
data_Fe(SeO3)3
_symmetry_space_group_name_H-M   'P 1'
_cell_length_a   8.52039025
_cell_length_b   12.20057442
_cell_length_c   11.19935312
_cell_angle_alpha   90.00000000
_cell_angle_beta   133.77014160
_cell_angle_gamma   90.00000000
_symmetry_Int_Tables_number   1
_chemical_formula_structural   Fe(SeO3)3
_chemical_formula_sum   'Fe4 Se12 O36'
_cell_volume   840.70295334
_cell_formula_units_Z   4
loop_
 _symmetry_equiv_pos_site_id
 _symmetry_equiv_pos_as_xyz
  1  'x, y, z'
loop_
 _atom_site_type_symbol
 _atom_site_label
 _atom_site_symmetry_multiplicity
 _atom_site_fract_x
 _atom_site_fract_y
 _atom_site_fract_z
 _atom_site_occupancy
  Fe  Fe0  1  0.55014441  0.19666502  0.76962021  1
  Fe  Fe1  1  0.44985559  0.69666502  0.73037979  1
  Fe  Fe2  1  0.44985559  0.80333498  0.23037979  1
  Fe  Fe3  1  0.55014441  0.30333498  0.26962121  1
  Se  Se4  1  0.71888556  0.35735465  0.08415545  1
  Se  Se5  1  0.28111444  0.85735465  0.41584455  1
  Se  Se6  1  0.28111444  0.64264535  0.91584455  1
  Se  Se7  1  0.71888556  0.14264535  0.58415545  1
  Se  Se8  1  0.08256555  0.17654968  0.97403732  1
  Se  Se9  1  0.91743445  0.67654968  0.52596268  1
  Se  Se10  1  0.91743445  0.82345032  0.02596268  1
  Se  Se11  1  0.08256555  0.32345032  0.47403732  1
  Se  Se12  1  0.69700502  0.03983417  0.23859666  1
  Se  Se13  1  0.30299498  0.53983417  0.26140334  1
  Se  Se14  1  0.30299498  0.96016583  0.76140334  1
  Se  Se15  1  0.69700502  0.46016583  0.73859666  1
  O  O16  1  0.53934140  0.27139568  0.92782014  1
  O  O17  1  0.46065860  0.77139568  0.57217986  1
  O  O18  1  0.46065860  0.72860432  0.07217986  1
  O  O19  1  0.53934140  0.22860432  0.42782014  1
  O  O20  1  0.60733721  0.40375784  0.15274105  1
  O  O21  1  0.39266279  0.90375784  0.34725895  1
  O  O22  1  0.39266279  0.59624216  0.84725895  1
  O  O23  1  0.60733721  0.09624216  0.65274105  1
  O  O24  1  0.80573364  0.45350890  0.04049265  1
  O  O25  1  0.19426636  0.95350890  0.45950735  1
  O  O26  1  0.19426636  0.54649110  0.95950735  1
  O  O27  1  0.80573364  0.04649110  0.54049265  1
  O  O28  1  0.22474151  0.29411936  0.06844892  1
  O  O29  1  0.77525849  0.79411936  0.43155108  1
  O  O30  1  0.77525849  0.70588064  0.93155108  1
  O  O31  1  0.22474151  0.20588064  0.56844892  1
  O  O32  1  0.87456209  0.19704226  0.96097986  1
  O  O33  1  0.12543791  0.69704226  0.53902014  1
  O  O34  1  0.12543791  0.80295774  0.03902014  1
  O  O35  1  0.87456209  0.30295774  0.46097986  1
  O  O36  1  0.94831858  0.22076989  0.75483755  1
  O  O37  1  0.05168142  0.72076989  0.74516245  1
  O  O38  1  0.05168142  0.77923011  0.24516245  1
  O  O39  1  0.94831858  0.27923011  0.25483755  1
  O  O40  1  0.55329943  0.15979457  0.18334042  1
  O  O41  1  0.44670057  0.65979457  0.31665958  1
  O  O42  1  0.44670057  0.84020543  0.81665958  1
  O  O43  1  0.55329943  0.34020543  0.68334042  1
  O  O44  1  0.49658115  0.94411055  0.15990072  1
  O  O45  1  0.50341885  0.44411055  0.34009928  1
  O  O46  1  0.50341885  0.05588945  0.84009928  1
  O  O47  1  0.49658115  0.55588945  0.65990072  1
  O  O48  1  0.75613956  0.03412885  0.12400849  1
  O  O49  1  0.24386044  0.53412885  0.37599151  1
  O  O50  1  0.24386044  0.96587115  0.87599151  1
  O  O51  1  0.75613956  0.46587115  0.62400849  1
