# generated using pymatgen
data_Cr(PO3)4
_symmetry_space_group_name_H-M   'P 1'
_cell_length_a   9.34007363
_cell_length_b   10.45357866
_cell_length_c   9.06033335
_cell_angle_alpha   90.00000000
_cell_angle_beta   91.66462127
_cell_angle_gamma   90.00000000
_symmetry_Int_Tables_number   1
_chemical_formula_structural   Cr(PO3)4
_chemical_formula_sum   'Cr4 P16 O48'
_cell_volume   884.25220637
_cell_formula_units_Z   4
loop_
 _symmetry_equiv_pos_site_id
 _symmetry_equiv_pos_as_xyz
  1  'x, y, z'
loop_
 _atom_site_type_symbol
 _atom_site_label
 _atom_site_symmetry_multiplicity
 _atom_site_fract_x
 _atom_site_fract_y
 _atom_site_fract_z
 _atom_site_occupancy
  Cr  Cr0  1  0.01530831  0.21049856  0.25517339  1
  Cr  Cr1  1  0.48469169  0.71049856  0.74482661  1
  Cr  Cr2  1  0.51530831  0.28950144  0.25517339  1
  Cr  Cr3  1  0.98469169  0.78950144  0.74482661  1
  P  P4  1  0.19584250  0.39344279  0.73553833  1
  P  P5  1  0.21096737  0.61401963  0.93822940  1
  P  P6  1  0.20780683  0.60700320  0.53573181  1
  P  P7  1  0.23686212  0.47932135  0.24354460  1
  P  P8  1  0.26313788  0.97932135  0.75645540  1
  P  P9  1  0.29219317  0.10700320  0.46426819  1
  P  P10  1  0.28903263  0.11401963  0.06177060  1
  P  P11  1  0.30415750  0.89344279  0.26446167  1
  P  P12  1  0.69584250  0.10655721  0.73553833  1
  P  P13  1  0.71096737  0.88598037  0.93822940  1
  P  P14  1  0.70780683  0.89299680  0.53573181  1
  P  P15  1  0.73686212  0.02067865  0.24354460  1
  P  P16  1  0.76313788  0.52067865  0.75645540  1
  P  P17  1  0.79219317  0.39299680  0.46426819  1
  P  P18  1  0.78903263  0.38598037  0.06177060  1
  P  P19  1  0.80415750  0.60655721  0.26446167  1
  O  O20  1  0.11366639  0.27023183  0.74786499  1
  O  O21  1  0.11113823  0.72503318  0.91304527  1
  O  O22  1  0.09874970  0.70233993  0.58357325  1
  O  O23  1  0.10562327  0.94991839  0.74294561  1
  O  O24  1  0.13820825  0.49559740  0.84962385  1
  O  O25  1  0.13885756  0.12836857  0.41488345  1
  O  O26  1  0.16010329  0.46227257  0.58173897  1
  O  O27  1  0.13416992  0.12835122  0.09940158  1
  O  O28  1  0.14739028  0.86034700  0.24124131  1
  O  O29  1  0.19299193  0.58739775  0.36199946  1
  O  O30  1  0.13503903  0.36953529  0.25017650  1
  O  O31  1  0.19698815  0.56454233  0.10180592  1
  O  O32  1  0.30301185  0.06454233  0.89819408  1
  O  O33  1  0.36496097  0.86953529  0.74982350  1
  O  O34  1  0.30700807  0.08739775  0.63800054  1
  O  O35  1  0.35260972  0.36034700  0.75875869  1
  O  O36  1  0.36583008  0.62835122  0.90059842  1
  O  O37  1  0.33989671  0.96227257  0.41826103  1
  O  O38  1  0.36114244  0.62836857  0.58511655  1
  O  O39  1  0.36179175  0.99559740  0.15037615  1
  O  O40  1  0.39437673  0.44991839  0.25705439  1
  O  O41  1  0.40125030  0.20233993  0.41642675  1
  O  O42  1  0.38886177  0.22503318  0.08695473  1
  O  O43  1  0.38633361  0.77023183  0.25213501  1
  O  O44  1  0.61366639  0.22976817  0.74786499  1
  O  O45  1  0.61113823  0.77496682  0.91304527  1
  O  O46  1  0.59874970  0.79766007  0.58357325  1
  O  O47  1  0.60562327  0.55008161  0.74294561  1
  O  O48  1  0.63820825  0.00440260  0.84962385  1
  O  O49  1  0.63885756  0.37163143  0.41488345  1
  O  O50  1  0.66010329  0.03772743  0.58173897  1
  O  O51  1  0.63416992  0.37164878  0.09940158  1
  O  O52  1  0.64739028  0.63965300  0.24124131  1
  O  O53  1  0.69299193  0.91260225  0.36199946  1
  O  O54  1  0.63503903  0.13046471  0.25017650  1
  O  O55  1  0.69698815  0.93545767  0.10180592  1
  O  O56  1  0.80301185  0.43545767  0.89819408  1
  O  O57  1  0.86496097  0.63046471  0.74982350  1
  O  O58  1  0.80700807  0.41260225  0.63800054  1
  O  O59  1  0.85260972  0.13965300  0.75875869  1
  O  O60  1  0.86583008  0.87164878  0.90059842  1
  O  O61  1  0.83989671  0.53772743  0.41826103  1
  O  O62  1  0.86114244  0.87163143  0.58511655  1
  O  O63  1  0.86179175  0.50440260  0.15037615  1
  O  O64  1  0.89437673  0.05008161  0.25705439  1
  O  O65  1  0.90125030  0.29766007  0.41642675  1
  O  O66  1  0.88886177  0.27496682  0.08695473  1
  O  O67  1  0.88633361  0.72976817  0.25213501  1
