# generated using pymatgen
data_Na(SeO3)2
_symmetry_space_group_name_H-M   'P 1'
_cell_length_a   5.56910765
_cell_length_b   5.90533062
_cell_length_c   11.93948063
_cell_angle_alpha   72.07435798
_cell_angle_beta   90.00000000
_cell_angle_gamma   90.00000000
_symmetry_Int_Tables_number   1
_chemical_formula_structural   Na(SeO3)2
_chemical_formula_sum   'Na2 Se4 O12'
_cell_volume   373.59780813
_cell_formula_units_Z   2
loop_
 _symmetry_equiv_pos_site_id
 _symmetry_equiv_pos_as_xyz
  1  'x, y, z'
loop_
 _atom_site_type_symbol
 _atom_site_label
 _atom_site_symmetry_multiplicity
 _atom_site_fract_x
 _atom_site_fract_y
 _atom_site_fract_z
 _atom_site_occupancy
  Na  Na0  1  0.97096802  0.51404305  0.48826210  1
  Na  Na1  1  0.02903198  0.01404305  0.98826210  1
  Se  Se2  1  0.29735556  0.04818661  0.28821702  1
  Se  Se3  1  0.70264444  0.54818661  0.78821702  1
  Se  Se4  1  0.85297745  0.44751785  0.21950535  1
  Se  Se5  1  0.14702255  0.94751785  0.71950535  1
  O  O6  1  0.23292916  0.83027528  0.40927042  1
  O  O7  1  0.76707084  0.33027528  0.90927042  1
  O  O8  1  0.11101927  0.30723976  0.30686380  1
  O  O9  1  0.88898073  0.80723976  0.80686380  1
  O  O10  1  0.20355162  0.99819278  0.16723900  1
  O  O11  1  0.79644838  0.49819278  0.66723900  1
  O  O12  1  0.73967269  0.57585131  0.31246757  1
  O  O13  1  0.26032731  0.07585131  0.81246757  1
  O  O14  1  0.68606864  0.22605696  0.19970906  1
  O  O15  1  0.31393136  0.72605696  0.69970906  1
  O  O16  1  0.94382711  0.62063640  0.09146568  1
  O  O17  1  0.05617289  0.12063640  0.59146568  1
