# generated using pymatgen
data_Be2BO4
_symmetry_space_group_name_H-M   'P 1'
_cell_length_a   4.47113114
_cell_length_b   9.59405790
_cell_length_c   12.71096482
_cell_angle_alpha   90.00000000
_cell_angle_beta   90.00000000
_cell_angle_gamma   90.00000000
_symmetry_Int_Tables_number   1
_chemical_formula_structural   Be2BO4
_chemical_formula_sum   'Be16 B8 O32'
_cell_volume   545.25324626
_cell_formula_units_Z   8
loop_
 _symmetry_equiv_pos_site_id
 _symmetry_equiv_pos_as_xyz
  1  'x, y, z'
loop_
 _atom_site_type_symbol
 _atom_site_label
 _atom_site_symmetry_multiplicity
 _atom_site_fract_x
 _atom_site_fract_y
 _atom_site_fract_z
 _atom_site_occupancy
  Be  Be0  1  0.22852333  0.50651011  0.19260681  1
  Be  Be1  1  0.77147667  0.00651011  0.30739319  1
  Be  Be2  1  0.27147667  0.49348989  0.69260681  1
  Be  Be3  1  0.72852333  0.99348989  0.80739319  1
  Be  Be4  1  0.77147667  0.49348989  0.80739319  1
  Be  Be5  1  0.22852333  0.99348989  0.69260681  1
  Be  Be6  1  0.72852333  0.50651011  0.30739319  1
  Be  Be7  1  0.27147667  0.00651011  0.19260681  1
  Be  Be8  1  0.21418662  0.74007705  0.06569725  1
  Be  Be9  1  0.78581338  0.24007705  0.43430275  1
  Be  Be10  1  0.28581338  0.25992295  0.56569725  1
  Be  Be11  1  0.71418662  0.75992295  0.93430275  1
  Be  Be12  1  0.78581338  0.25992295  0.93430275  1
  Be  Be13  1  0.21418662  0.75992295  0.56569725  1
  Be  Be14  1  0.71418662  0.74007705  0.43430275  1
  Be  Be15  1  0.28581338  0.24007705  0.06569725  1
  B  B16  1  0.71919819  0.61427669  0.11309099  1
  B  B17  1  0.28080181  0.11427669  0.38690901  1
  B  B18  1  0.78080181  0.38572331  0.61309099  1
  B  B19  1  0.21919819  0.88572331  0.88690901  1
  B  B20  1  0.28080181  0.38572331  0.88690901  1
  B  B21  1  0.71919819  0.88572331  0.61309099  1
  B  B22  1  0.21919819  0.61427669  0.38690901  1
  B  B23  1  0.78080181  0.11427669  0.11309099  1
  O  O24  1  0.87098993  0.54039319  0.18921330  1
  O  O25  1  0.12901007  0.04039319  0.31078670  1
  O  O26  1  0.62901007  0.45960681  0.68921330  1
  O  O27  1  0.37098993  0.95960681  0.81078670  1
  O  O28  1  0.12901007  0.45960681  0.81078670  1
  O  O29  1  0.87098993  0.95960681  0.68921330  1
  O  O30  1  0.37098993  0.54039319  0.31078670  1
  O  O31  1  0.62901007  0.04039319  0.18921330  1
  O  O32  1  0.41057045  0.60902130  0.11003627  1
  O  O33  1  0.58942955  0.10902130  0.38996373  1
  O  O34  1  0.08942955  0.39097870  0.61003627  1
  O  O35  1  0.91057045  0.89097870  0.88996373  1
  O  O36  1  0.58942955  0.39097870  0.88996373  1
  O  O37  1  0.41057045  0.89097870  0.61003627  1
  O  O38  1  0.91057045  0.60902130  0.38996373  1
  O  O39  1  0.08942955  0.10902130  0.11003627  1
  O  O40  1  0.87069692  0.69400328  0.03989536  1
  O  O41  1  0.12930308  0.19400328  0.46010464  1
  O  O42  1  0.62930308  0.30599672  0.53989536  1
  O  O43  1  0.37069692  0.80599672  0.96010464  1
  O  O44  1  0.12930308  0.30599672  0.96010464  1
  O  O45  1  0.87069692  0.80599672  0.53989536  1
  O  O46  1  0.37069692  0.69400328  0.46010464  1
  O  O47  1  0.62930308  0.19400328  0.03989536  1
  O  O48  1  0.30513859  0.34864455  0.16172617  1
  O  O49  1  0.69486141  0.84864455  0.33827383  1
  O  O50  1  0.19486141  0.65135545  0.66172617  1
  O  O51  1  0.80513859  0.15135545  0.83827383  1
  O  O52  1  0.69486141  0.65135545  0.83827383  1
  O  O53  1  0.30513859  0.15135545  0.66172617  1
  O  O54  1  0.80513859  0.34864455  0.33827383  1
  O  O55  1  0.19486141  0.84864455  0.16172617  1
