# generated using pymatgen
data_Co21As11O48
_symmetry_space_group_name_H-M   'P 1'
_cell_length_a   10.61512195
_cell_length_b   6.13740079
_cell_length_c   15.06230582
_cell_angle_alpha   90.10417236
_cell_angle_beta   90.21952532
_cell_angle_gamma   90.06242906
_symmetry_Int_Tables_number   1
_chemical_formula_structural   Co21As11O48
_chemical_formula_sum   'Co21 As11 O48'
_cell_volume   981.28863028
_cell_formula_units_Z   1
loop_
 _symmetry_equiv_pos_site_id
 _symmetry_equiv_pos_as_xyz
  1  'x, y, z'
loop_
 _atom_site_type_symbol
 _atom_site_label
 _atom_site_symmetry_multiplicity
 _atom_site_fract_x
 _atom_site_fract_y
 _atom_site_fract_z
 _atom_site_occupancy
  Co  Co0  1  0.00006491  0.50074153  0.33033194  1
  Co  Co1  1  0.00089372  0.99651202  0.66719192  1
  Co  Co2  1  0.00045636  0.49997749  0.66769270  1
  Co  Co3  1  0.24193035  0.76132583  0.52086814  1
  Co  Co4  1  0.20940007  0.75116464  0.15742230  1
  Co  Co5  1  0.23202618  0.74879666  0.81295293  1
  Co  Co6  1  0.26672237  0.24878203  0.00207589  1
  Co  Co7  1  0.26742214  0.23918334  0.33209268  1
  Co  Co8  1  0.28028715  0.25725173  0.64412435  1
  Co  Co9  1  0.49776997  0.00548003  0.16766881  1
  Co  Co10  1  0.49680020  0.49319910  0.16792182  1
  Co  Co11  1  0.49439645  0.98999547  0.82867141  1
  Co  Co12  1  0.49510383  0.50882830  0.82992278  1
  Co  Co13  1  0.48894743  0.98590191  0.52269429  1
  Co  Co14  1  0.48723766  0.51318251  0.52189932  1
  Co  Co15  1  0.73440082  0.74462361  0.00168335  1
  Co  Co16  1  0.72530770  0.75664922  0.33744960  1
  Co  Co17  1  0.70817376  0.74812518  0.66509467  1
  Co  Co18  1  0.78807446  0.24995178  0.84157670  1
  Co  Co19  1  0.77763548  0.24927620  0.49876814  1
  Co  Co20  1  0.78331165  0.25493931  0.17775208  1
  As  As21  1  0.09183326  0.25789366  0.14342722  1
  As  As22  1  0.09071878  0.24432138  0.47263370  1
  As  As23  1  0.10464841  0.24855375  0.81009436  1
  As  As24  1  0.40203584  0.74766252  0.31277471  1
  As  As25  1  0.40428211  0.74952676  0.97928675  1
  As  As26  1  0.59569243  0.24805898  0.02138580  1
  As  As27  1  0.59339129  0.25132279  0.35910956  1
  As  As28  1  0.59520688  0.24929175  0.69075429  1
  As  As29  1  0.91518481  0.75125796  0.85834940  1
  As  As30  1  0.89784745  0.75971989  0.18846007  1
  As  As31  1  0.90362868  0.74489055  0.52248704  1
  O  O32  1  0.04894437  0.74078153  0.23268127  1
  O  O33  1  0.06866593  0.74767993  0.88629867  1
  O  O34  1  0.05280363  0.74591120  0.57550324  1
  O  O35  1  0.07903877  0.24821528  0.58929580  1
  O  O36  1  0.10209405  0.27058754  0.25883247  1
  O  O37  1  0.11000373  0.25165102  0.92017520  1
  O  O38  1  0.17771039  0.46771333  0.09384755  1
  O  O39  1  0.17983588  0.04391159  0.09914835  1
  O  O40  1  0.16465315  0.02785087  0.74934590  1
  O  O41  1  0.15723792  0.46964034  0.41928884  1
  O  O42  1  0.16648978  0.46641427  0.74796518  1
  O  O43  1  0.17153501  0.02713987  0.43031899  1
  O  O44  1  0.32291441  0.50073166  0.57098116  1
  O  O45  1  0.33136573  0.99964547  0.58010897  1
  O  O46  1  0.34021595  0.98094547  0.93133600  1
  O  O47  1  0.33634998  0.52261916  0.25916055  1
  O  O48  1  0.34076994  0.51666703  0.93127776  1
  O  O49  1  0.33271060  0.96810706  0.25776647  1
  O  O50  1  0.40509924  0.75016820  0.42532242  1
  O  O51  1  0.40028626  0.75020843  0.09425244  1
  O  O52  1  0.40735228  0.74856543  0.77959692  1
  O  O53  1  0.44358630  0.24575183  0.40392949  1
  O  O54  1  0.44562795  0.25065438  0.07134204  1
  O  O55  1  0.44525727  0.25015048  0.73841735  1
  O  O56  1  0.55323706  0.75228473  0.26310078  1
  O  O57  1  0.55751674  0.74834611  0.93476594  1
  O  O58  1  0.58684485  0.74846525  0.57187413  1
  O  O59  1  0.59414943  0.25051081  0.90577303  1
  O  O60  1  0.59926092  0.25257987  0.24337502  1
  O  O61  1  0.60268599  0.25096894  0.57680239  1
  O  O62  1  0.66139758  0.02210064  0.07188321  1
  O  O63  1  0.67201103  0.03500975  0.40950574  1
  O  O64  1  0.66661386  0.02767613  0.74317427  1
  O  O65  1  0.66572562  0.46752079  0.07668522  1
  O  O66  1  0.66834922  0.47123385  0.40906172  1
  O  O67  1  0.66620351  0.47097801  0.74412650  1
  O  O68  1  0.82369964  0.53936018  0.90101076  1
  O  O69  1  0.82711636  0.96539258  0.90112052  1
  O  O70  1  0.83226616  0.53647436  0.25006937  1
  O  O71  1  0.83925782  0.52200251  0.57984871  1
  O  O72  1  0.80963130  0.96244080  0.24017445  1
  O  O73  1  0.84271309  0.97677114  0.57507019  1
  O  O74  1  0.90588059  0.74989616  0.73904743  1
  O  O75  1  0.89144922  0.74797724  0.07716653  1
  O  O76  1  0.89873415  0.73828397  0.40992942  1
  O  O77  1  0.95026062  0.24992984  0.76107379  1
  O  O78  1  0.93967028  0.24690089  0.10936158  1
  O  O79  1  0.93855784  0.26879318  0.42904655  1
