# generated using pymatgen
data_La3Yb
_symmetry_space_group_name_H-M   'P 1'
_cell_length_a   7.59912560
_cell_length_b   7.59858183
_cell_length_c   6.04212462
_cell_angle_alpha   90.02410751
_cell_angle_beta   89.97379566
_cell_angle_gamma   119.98639962
_symmetry_Int_Tables_number   1
_chemical_formula_structural   La3Yb
_chemical_formula_sum   'La6 Yb2'
_cell_volume   302.18710225
_cell_formula_units_Z   2
loop_
 _symmetry_equiv_pos_site_id
 _symmetry_equiv_pos_as_xyz
  1  'x, y, z'
loop_
 _atom_site_type_symbol
 _atom_site_label
 _atom_site_symmetry_multiplicity
 _atom_site_fract_x
 _atom_site_fract_y
 _atom_site_fract_z
 _atom_site_occupancy
  La  La0  1  0.16505060  0.33039685  0.25000347  1
  La  La1  1  0.66958735  0.83494233  0.24998959  1
  La  La2  1  0.16521244  0.83477478  0.25003536  1
  La  La3  1  0.83518085  0.67025120  0.74999447  1
  La  La4  1  0.32976078  0.16482337  0.75000621  1
  La  La5  1  0.83519274  0.16483513  0.74996258  1
  Yb  Yb6  1  0.33334781  0.66665887  0.74999809  1
  Yb  Yb7  1  0.66666843  0.33331748  0.25001022  1
