# generated using pymatgen
data_Hf3Bi
_symmetry_space_group_name_H-M   'P 1'
_cell_length_a   6.32873809
_cell_length_b   6.32854656
_cell_length_c   5.23479296
_cell_angle_alpha   89.99817697
_cell_angle_beta   90.00205096
_cell_angle_gamma   120.00223578
_symmetry_Int_Tables_number   1
_chemical_formula_structural   Hf3Bi
_chemical_formula_sum   'Hf6 Bi2'
_cell_volume   181.56889874
_cell_formula_units_Z   2
loop_
 _symmetry_equiv_pos_site_id
 _symmetry_equiv_pos_as_xyz
  1  'x, y, z'
loop_
 _atom_site_type_symbol
 _atom_site_label
 _atom_site_symmetry_multiplicity
 _atom_site_fract_x
 _atom_site_fract_y
 _atom_site_fract_z
 _atom_site_occupancy
  Hf  Hf0  1  0.16223486  0.32447574  0.24999566  1
  Hf  Hf1  1  0.67550933  0.83775330  0.24999547  1
  Hf  Hf2  1  0.16226105  0.83772585  0.25001560  1
  Hf  Hf3  1  0.83776458  0.67552678  0.75000492  1
  Hf  Hf4  1  0.32449089  0.16224756  0.75000731  1
  Hf  Hf5  1  0.83773696  0.16227023  0.74998423  1
  Bi  Bi6  1  0.33333652  0.66664896  0.75000059  1
  Bi  Bi7  1  0.66666781  0.33335358  0.25000022  1
