# generated using pymatgen
data_Mg16Al12V
_symmetry_space_group_name_H-M   'P 1'
_cell_length_a   9.27406207
_cell_length_b   9.00456949
_cell_length_c   9.00456913
_cell_angle_alpha   108.85703199
_cell_angle_beta   110.07864423
_cell_angle_gamma   110.07862629
_symmetry_Int_Tables_number   1
_chemical_formula_structural   Mg16Al12V
_chemical_formula_sum   'Mg16 Al12 V1'
_cell_volume   574.46471793
_cell_formula_units_Z   1
loop_
 _symmetry_equiv_pos_site_id
 _symmetry_equiv_pos_as_xyz
  1  'x, y, z'
loop_
 _atom_site_type_symbol
 _atom_site_label
 _atom_site_symmetry_multiplicity
 _atom_site_fract_x
 _atom_site_fract_y
 _atom_site_fract_z
 _atom_site_occupancy
  Mg  Mg0  1  0.99418835  -0.00000000  0.00000000  1
  Mg  Mg1  1  0.00494409  0.35129616  0.00000000  1
  Mg  Mg2  1  0.31907914  0.60306557  0.00000000  1
  Mg  Mg3  1  0.59149063  0.29945799  0.00000000  1
  Mg  Mg4  1  0.68402266  0.68223966  0.28285316  1
  Mg  Mg5  1  0.59149063  -0.00000000  0.29945799  1
  Mg  Mg6  1  0.00178300  0.60061250  0.31776034  1
  Mg  Mg7  1  0.00494409  0.00000000  0.35129616  1
  Mg  Mg8  1  0.71601356  0.39693443  0.39693543  1
  Mg  Mg9  1  0.40117050  0.71714784  0.39938750  1
  Mg  Mg10  1  0.00178300  0.31776034  0.60061350  1
  Mg  Mg11  1  0.31907914  0.00000000  0.60306557  1
  Mg  Mg12  1  0.65364692  0.64870284  0.64870284  1
  Mg  Mg13  1  0.68402366  0.28285316  0.68223966  1
  Mg  Mg14  1  0.29203264  0.70054101  0.70054101  1
  Mg  Mg15  1  0.40117050  0.39938750  0.71714884  1
  Al  Al16  1  0.63931580  0.81177928  0.99999900  1
  Al  Al17  1  0.81357858  0.62608716  0.00000000  1
  Al  Al18  1  0.36738372  0.36360625  0.18079688  1
  Al  Al19  1  0.18658584  0.81920212  0.18280937  1
  Al  Al20  1  0.82753452  0.18822072  0.18822072  1
  Al  Al21  1  0.36738372  0.18079688  0.36360625  1
  Al  Al22  1  0.18749142  0.37391384  0.37391384  1
  Al  Al23  1  0.81357858  0.00000000  0.62608716  1
  Al  Al24  1  0.00377847  0.81719163  0.63639475  1
  Al  Al25  1  0.63931480  -0.00000000  0.81177828  1
  Al  Al26  1  0.00377747  0.63639475  0.81719163  1
  Al  Al27  1  0.18658684  0.18280937  0.81920212  1
  V  V28  1  0.30282675  0.00000000  0.00000100  1
