# generated using pymatgen
data_Ag3As
_symmetry_space_group_name_H-M   'P 1'
_cell_length_a   5.94003860
_cell_length_b   5.94003998
_cell_length_c   4.80040728
_cell_angle_alpha   90.00000000
_cell_angle_beta   90.00000000
_cell_angle_gamma   119.99999232
_symmetry_Int_Tables_number   1
_chemical_formula_structural   Ag3As
_chemical_formula_sum   'Ag6 As2'
_cell_volume   146.68556777
_cell_formula_units_Z   2
loop_
 _symmetry_equiv_pos_site_id
 _symmetry_equiv_pos_as_xyz
  1  'x, y, z'
loop_
 _atom_site_type_symbol
 _atom_site_label
 _atom_site_symmetry_multiplicity
 _atom_site_fract_x
 _atom_site_fract_y
 _atom_site_fract_z
 _atom_site_occupancy
  Ag  Ag0  1  0.16659849  0.33319798  0.25000000  1
  Ag  Ag1  1  0.66680102  0.83340151  0.25000000  1
  Ag  Ag2  1  0.16660049  0.83340151  0.25000000  1
  Ag  Ag3  1  0.83339951  0.66680102  0.75000100  1
  Ag  Ag4  1  0.33319998  0.16659949  0.75000100  1
  Ag  Ag5  1  0.83340151  0.16659949  0.75000100  1
  As  As6  1  0.33333400  0.66666900  0.75000100  1
  As  As7  1  0.66666500  0.33333200  0.25000000  1
