# generated using pymatgen
data_Nb2Zn2TeO8
_symmetry_space_group_name_H-M   'P 1'
_cell_length_a   5.26814369
_cell_length_b   6.14409029
_cell_length_c   11.91369598
_cell_angle_alpha   109.32614982
_cell_angle_beta   96.73512179
_cell_angle_gamma   90.19055085
_symmetry_Int_Tables_number   1
_chemical_formula_structural   Nb2Zn2TeO8
_chemical_formula_sum   'Nb4 Zn4 Te2 O16'
_cell_volume   361.01536844
_cell_formula_units_Z   2
loop_
 _symmetry_equiv_pos_site_id
 _symmetry_equiv_pos_as_xyz
  1  'x, y, z'
loop_
 _atom_site_type_symbol
 _atom_site_label
 _atom_site_symmetry_multiplicity
 _atom_site_fract_x
 _atom_site_fract_y
 _atom_site_fract_z
 _atom_site_occupancy
  Nb  Nb0  1  0.72110051  0.27152073  0.28111356  1
  Nb  Nb1  1  0.80263520  0.05876109  0.74509012  1
  Nb  Nb2  1  0.27913267  0.72965499  0.72004496  1
  Nb  Nb3  1  0.19752661  0.94206327  0.25631787  1
  Zn  Zn4  1  0.74725538  0.42457242  0.55439054  1
  Zn  Zn5  1  0.73428503  0.87948095  0.45186739  1
  Zn  Zn6  1  0.25331510  0.57641331  0.44694662  1
  Zn  Zn7  1  0.26625544  0.12170948  0.54956135  1
  Te  Te8  1  0.66602943  0.64425593  0.97937945  1
  Te  Te9  1  0.33171120  0.35702294  0.02232764  1
  O  O10  1  0.01108527  0.17029378  0.19305440  1
  O  O11  1  0.50110213  0.03163359  0.81671946  1
  O  O12  1  0.98905875  0.83039285  0.80813765  1
  O  O13  1  0.49903169  0.96928149  0.18465139  1
  O  O14  1  0.54312793  0.42509280  0.17778465  1
  O  O15  1  0.96695193  0.32388834  0.85312501  1
  O  O16  1  0.45710387  0.57639802  0.82360201  1
  O  O17  1  0.03369504  0.67643145  0.14836772  1
  O  O18  1  0.44712517  0.29439755  0.39443531  1
  O  O19  1  0.08485778  0.92852624  0.62438480  1
  O  O20  1  0.35140108  0.84450168  0.39638401  1
  O  O21  1  0.12673338  0.43775119  0.59991351  1
  O  O22  1  0.64906950  0.15656743  0.60501017  1
  O  O23  1  0.87378404  0.56317562  0.40123177  1
  O  O24  1  0.91549517  0.07238999  0.37682185  1
  O  O25  1  0.55341270  0.70658885  0.60680977  1
