# generated using pymatgen
data_OsRh3
_symmetry_space_group_name_H-M   'P 1'
_cell_length_a   5.49196791
_cell_length_b   5.49196932
_cell_length_c   4.38430761
_cell_angle_alpha   90.00000000
_cell_angle_beta   90.00000000
_cell_angle_gamma   119.99999848
_symmetry_Int_Tables_number   1
_chemical_formula_structural   OsRh3
_chemical_formula_sum   'Os2 Rh6'
_cell_volume   114.52169031
_cell_formula_units_Z   2
loop_
 _symmetry_equiv_pos_site_id
 _symmetry_equiv_pos_as_xyz
  1  'x, y, z'
loop_
 _atom_site_type_symbol
 _atom_site_label
 _atom_site_symmetry_multiplicity
 _atom_site_fract_x
 _atom_site_fract_y
 _atom_site_fract_z
 _atom_site_occupancy
  Os  Os0  1  0.33333400  0.66666800  0.75000100  1
  Os  Os1  1  0.66666600  0.33333300  0.25000000  1
  Rh  Rh2  1  0.83167013  0.16833187  0.75000100  1
  Rh  Rh3  1  0.33666174  0.16833187  0.75000100  1
  Rh  Rh4  1  0.83167013  0.66334026  0.75000100  1
  Rh  Rh5  1  0.16832987  0.83166913  0.25000000  1
  Rh  Rh6  1  0.66333826  0.83166913  0.25000000  1
  Rh  Rh7  1  0.16832987  0.33666074  0.25000000  1
