# generated using pymatgen
data_Rb2MgH4
_symmetry_space_group_name_H-M   'P 1'
_cell_length_a   8.80249495
_cell_length_b   10.49252926
_cell_length_c   8.21214461
_cell_angle_alpha   90.00000000
_cell_angle_beta   90.00000000
_cell_angle_gamma   90.00000000
_symmetry_Int_Tables_number   1
_chemical_formula_structural   Rb2MgH4
_chemical_formula_sum   'Rb8 Mg4 H16'
_cell_volume   758.47725523
_cell_formula_units_Z   4
loop_
 _symmetry_equiv_pos_site_id
 _symmetry_equiv_pos_as_xyz
  1  'x, y, z'
loop_
 _atom_site_type_symbol
 _atom_site_label
 _atom_site_symmetry_multiplicity
 _atom_site_fract_x
 _atom_site_fract_y
 _atom_site_fract_z
 _atom_site_occupancy
  Rb  Rb0  1  0.49135983  0.24668538  0.25000000  1
  Rb  Rb1  1  0.99136083  0.25331462  0.25000000  1
  Rb  Rb2  1  0.74312591  0.65917381  0.25000000  1
  Rb  Rb3  1  0.24312491  0.84082719  0.25000000  1
  Rb  Rb4  1  0.75687409  0.15917281  0.75000100  1
  Rb  Rb5  1  0.25687409  0.34082619  0.75000100  1
  Rb  Rb6  1  0.00864017  0.74668638  0.75000100  1
  Rb  Rb7  1  0.50863917  0.75331462  0.75000100  1
  Mg  Mg8  1  0.74344886  0.00559947  0.25000000  1
  Mg  Mg9  1  0.24344786  0.49439953  0.25000000  1
  Mg  Mg10  1  0.75655114  0.50559947  0.75000100  1
  Mg  Mg11  1  0.25655114  0.99439953  0.75000100  1
  H  H12  1  0.74370498  0.12992387  0.08450277  1
  H  H13  1  0.24370498  0.37007713  0.08450277  1
  H  H14  1  0.06633220  0.58807661  0.25000000  1
  H  H15  1  0.41957355  0.58916330  0.25000000  1
  H  H16  1  0.91957355  0.91083670  0.25000000  1
  H  H17  1  0.56633120  0.91192439  0.25000000  1
  H  H18  1  0.74370498  0.12992387  0.41549723  1
  H  H19  1  0.24370498  0.37007713  0.41549723  1
  H  H20  1  0.75629602  0.62992487  0.58450177  1
  H  H21  1  0.25629602  0.87007513  0.58450177  1
  H  H22  1  0.43366880  0.08807661  0.75000100  1
  H  H23  1  0.08042745  0.08916330  0.75000100  1
  H  H24  1  0.58042745  0.41083670  0.75000100  1
  H  H25  1  0.93366880  0.41192439  0.75000100  1
  H  H26  1  0.75629602  0.62992487  0.91549723  1
  H  H27  1  0.25629602  0.87007513  0.91549723  1
