# generated using pymatgen
data_Mg(AgO2)2
_symmetry_space_group_name_H-M   'P 1'
_cell_length_a   3.09849837
_cell_length_b   5.53002088
_cell_length_c   9.88214347
_cell_angle_alpha   90.00000000
_cell_angle_beta   90.00000000
_cell_angle_gamma   106.26930675
_symmetry_Int_Tables_number   1
_chemical_formula_structural   Mg(AgO2)2
_chemical_formula_sum   'Mg2 Ag4 O8'
_cell_volume   162.54750301
_cell_formula_units_Z   2
loop_
 _symmetry_equiv_pos_site_id
 _symmetry_equiv_pos_as_xyz
  1  'x, y, z'
loop_
 _atom_site_type_symbol
 _atom_site_label
 _atom_site_symmetry_multiplicity
 _atom_site_fract_x
 _atom_site_fract_y
 _atom_site_fract_z
 _atom_site_occupancy
  Mg  Mg0  1  0.39062905  0.78125811  0.75000000  1
  Mg  Mg1  1  0.60937095  0.21874189  0.25000000  1
  Ag  Ag2  1  0.86860858  0.73721917  0.07282586  1
  Ag  Ag3  1  0.13139142  0.26278083  0.92717414  1
  Ag  Ag4  1  0.86860858  0.73721917  0.42717414  1
  Ag  Ag5  1  0.13139142  0.26278083  0.57282586  1
  O  O6  1  0.21096765  0.42193629  0.37851751  1
  O  O7  1  0.78903235  0.57806371  0.62148249  1
  O  O8  1  0.78903235  0.57806371  0.87851751  1
  O  O9  1  0.21096765  0.42193629  0.12148249  1
  O  O10  1  0.97488793  0.94977686  0.25000000  1
  O  O11  1  0.02511207  0.05022314  0.75000000  1
  O  O12  1  0.50000000  -0.00000000  -0.00000000  1
  O  O13  1  0.50000000  -0.00000000  0.50000000  1
