# generated using pymatgen
data_Na3Ca
_symmetry_space_group_name_H-M   'P 1'
_cell_length_a   7.63881427
_cell_length_b   7.63970446
_cell_length_c   5.99917206
_cell_angle_alpha   90.00000000
_cell_angle_beta   90.00000000
_cell_angle_gamma   120.00136354
_symmetry_Int_Tables_number   1
_chemical_formula_structural   Na3Ca
_chemical_formula_sum   'Na6 Ca2'
_cell_volume   303.19252584
_cell_formula_units_Z   2
loop_
 _symmetry_equiv_pos_site_id
 _symmetry_equiv_pos_as_xyz
  1  'x, y, z'
loop_
 _atom_site_type_symbol
 _atom_site_label
 _atom_site_symmetry_multiplicity
 _atom_site_fract_x
 _atom_site_fract_y
 _atom_site_fract_z
 _atom_site_occupancy
  Na  Na0  1  0.16168550  0.32340866  0.25000000  1
  Na  Na1  1  0.67659774  0.83832203  0.25000000  1
  Na  Na2  1  0.16173269  0.83822495  0.25000000  1
  Na  Na3  1  0.83831350  0.67659134  0.75000100  1
  Na  Na4  1  0.32340126  0.16167797  0.75000100  1
  Na  Na5  1  0.83826831  0.16177505  0.75000100  1
  Ca  Ca6  1  0.33326744  0.66664164  0.75000100  1
  Ca  Ca7  1  0.66673256  0.33335836  0.25000000  1
