# generated using pymatgen
data_NaLi5N2
_symmetry_space_group_name_H-M   'P 1'
_cell_length_a   3.83143019
_cell_length_b   3.74392142
_cell_length_c   7.41055131
_cell_angle_alpha   90.00000000
_cell_angle_beta   117.91551127
_cell_angle_gamma   90.00000000
_symmetry_Int_Tables_number   1
_chemical_formula_structural   NaLi5N2
_chemical_formula_sum   'Na1 Li5 N2'
_cell_volume   93.93187603
_cell_formula_units_Z   1
loop_
 _symmetry_equiv_pos_site_id
 _symmetry_equiv_pos_as_xyz
  1  'x, y, z'
loop_
 _atom_site_type_symbol
 _atom_site_label
 _atom_site_symmetry_multiplicity
 _atom_site_fract_x
 _atom_site_fract_y
 _atom_site_fract_z
 _atom_site_occupancy
  Na  Na0  1  0.07204285  0.50000000  0.89250963  1
  Li  Li1  1  0.59523560  0.00000000  0.63867529  1
  Li  Li2  1  0.58326740  0.00000000  0.00425425  1
  Li  Li3  1  0.29351364  0.50000000  0.25946021  1
  Li  Li4  1  0.05512049  0.50000000  0.55262694  1
  Li  Li5  1  0.85775583  0.00000000  0.34934271  1
  N  N6  1  0.75023449  0.50000000  0.20624071  1
  N  N7  1  0.13083368  0.00000000  0.67889326  1
