# generated using pymatgen
data_Cr2FeO4
_symmetry_space_group_name_H-M   'P 1'
_cell_length_a   3.03451393
_cell_length_b   9.23942962
_cell_length_c   10.87014769
_cell_angle_alpha   90.00000000
_cell_angle_beta   90.00000000
_cell_angle_gamma   90.00000000
_symmetry_Int_Tables_number   1
_chemical_formula_structural   Cr2FeO4
_chemical_formula_sum   'Cr8 Fe4 O16'
_cell_volume   304.76826444
_cell_formula_units_Z   4
loop_
 _symmetry_equiv_pos_site_id
 _symmetry_equiv_pos_as_xyz
  1  'x, y, z'
loop_
 _atom_site_type_symbol
 _atom_site_label
 _atom_site_symmetry_multiplicity
 _atom_site_fract_x
 _atom_site_fract_y
 _atom_site_fract_z
 _atom_site_occupancy
  Cr  Cr0  1  0.75000000  0.44979568  0.11635190  1
  Cr  Cr1  1  0.75000000  0.94979568  0.38364810  1
  Cr  Cr2  1  0.25000000  0.55020432  0.88364810  1
  Cr  Cr3  1  0.25000000  0.05020432  0.61635190  1
  Cr  Cr4  1  0.75000000  0.40852519  0.59633927  1
  Cr  Cr5  1  0.75000000  0.90852519  0.90366073  1
  Cr  Cr6  1  0.25000000  0.59147481  0.40366073  1
  Cr  Cr7  1  0.25000000  0.09147481  0.09633927  1
  Fe  Fe8  1  0.75000000  0.24489909  0.82871797  1
  Fe  Fe9  1  0.75000000  0.74489909  0.67128203  1
  Fe  Fe10  1  0.25000000  0.75510091  0.17128203  1
  Fe  Fe11  1  0.25000000  0.25510091  0.32871797  1
  O  O12  1  0.75000000  0.19210274  0.65385533  1
  O  O13  1  0.75000000  0.69210274  0.84614467  1
  O  O14  1  0.25000000  0.80789726  0.34614467  1
  O  O15  1  0.25000000  0.30789726  0.15385533  1
  O  O16  1  0.75000000  0.11277381  0.97165355  1
  O  O17  1  0.75000000  0.61277381  0.52834645  1
  O  O18  1  0.25000000  0.88722619  0.02834645  1
  O  O19  1  0.25000000  0.38722619  0.47165355  1
  O  O20  1  0.75000000  0.05229648  0.21656957  1
  O  O21  1  0.75000000  0.55229648  0.28343043  1
  O  O22  1  0.25000000  0.94770352  0.78343043  1
  O  O23  1  0.25000000  0.44770352  0.71656957  1
  O  O24  1  0.75000000  0.41719392  0.93275412  1
  O  O25  1  0.75000000  0.91719392  0.56724588  1
  O  O26  1  0.25000000  0.58280608  0.06724588  1
  O  O27  1  0.25000000  0.08280608  0.43275412  1
