# generated using pymatgen
data_CuH2CS2N
_symmetry_space_group_name_H-M   'P 1'
_cell_length_a   5.96138487
_cell_length_b   6.81324462
_cell_length_c   9.61126804
_cell_angle_alpha   90.00000000
_cell_angle_beta   90.00000000
_cell_angle_gamma   90.00000000
_symmetry_Int_Tables_number   1
_chemical_formula_structural   CuH2CS2N
_chemical_formula_sum   'Cu4 H8 C4 S8 N4'
_cell_volume   390.37485150
_cell_formula_units_Z   4
loop_
 _symmetry_equiv_pos_site_id
 _symmetry_equiv_pos_as_xyz
  1  'x, y, z'
loop_
 _atom_site_type_symbol
 _atom_site_label
 _atom_site_symmetry_multiplicity
 _atom_site_fract_x
 _atom_site_fract_y
 _atom_site_fract_z
 _atom_site_occupancy
  Cu  Cu0  1  0.09368002  0.74005890  0.63009431  1
  Cu  Cu1  1  0.40631998  0.25994110  0.13009431  1
  Cu  Cu2  1  0.59368002  0.75994110  0.36990569  1
  Cu  Cu3  1  0.90631998  0.24005890  0.86990569  1
  H  H4  1  0.34250713  0.87055803  0.83970288  1
  H  H5  1  0.15749287  0.12944197  0.33970288  1
  H  H6  1  0.84250713  0.62944197  0.16029712  1
  H  H7  1  0.65749287  0.37055803  0.66029712  1
  H  H8  1  0.59910498  0.94574263  0.91111634  1
  H  H9  1  0.90089502  0.05425737  0.41111634  1
  H  H10  1  0.09910498  0.55425737  0.08888366  1
  H  H11  1  0.40089502  0.44574263  0.58888366  1
  C  C12  1  0.58656302  0.93826057  0.69751184  1
  C  C13  1  0.91343698  0.06173943  0.19751184  1
  C  C14  1  0.08656302  0.56173943  0.30248816  1
  C  C15  1  0.41343698  0.43826057  0.80248816  1
  S  S16  1  0.41377944  0.89183151  0.55769078  1
  S  S17  1  0.08622056  0.10816849  0.05769078  1
  S  S18  1  0.91377944  0.60816849  0.44230922  1
  S  S19  1  0.58622056  0.39183151  0.94230922  1
  S  S20  1  0.13947149  0.52239937  0.82128944  1
  S  S21  1  0.36052851  0.47760063  0.32128944  1
  S  S22  1  0.63947149  0.97760063  0.17871056  1
  S  S23  1  0.86052851  0.02239937  0.67871056  1
  N  N24  1  0.50343273  0.91846781  0.82512733  1
  N  N25  1  0.99656727  0.08153219  0.32512733  1
  N  N26  1  0.00343273  0.58153219  0.17487267  1
  N  N27  1  0.49656727  0.41846781  0.67487267  1
