# generated using pymatgen
data_La3BeGaS7
_symmetry_space_group_name_H-M   'P 1'
_cell_length_a   6.02996104
_cell_length_b   10.20291022
_cell_length_c   10.20297219
_cell_angle_alpha   119.99996047
_cell_angle_beta   90.00000000
_cell_angle_gamma   90.00000000
_symmetry_Int_Tables_number   1
_chemical_formula_structural   La3BeGaS7
_chemical_formula_sum   'La6 Be2 Ga2 S14'
_cell_volume   543.62081673
_cell_formula_units_Z   2
loop_
 _symmetry_equiv_pos_site_id
 _symmetry_equiv_pos_as_xyz
  1  'x, y, z'
loop_
 _atom_site_type_symbol
 _atom_site_label
 _atom_site_symmetry_multiplicity
 _atom_site_fract_x
 _atom_site_fract_y
 _atom_site_fract_z
 _atom_site_occupancy
  La  La0  1  0.25422112  0.25295831  0.39102830  1
  La  La1  1  0.25419607  0.60898873  0.86193260  1
  La  La2  1  0.25423225  0.13808450  0.74705190  1
  La  La3  1  0.75422112  0.74704169  0.60897170  1
  La  La4  1  0.75419607  0.39101127  0.13806740  1
  La  La5  1  0.75423225  0.86191550  0.25294810  1
  Be  Be6  1  0.84019820  0.33334554  0.66667327  1
  Be  Be7  1  0.34019820  0.66665446  0.33332673  1
  Ga  Ga8  1  0.49051973  0.00000410  0.00000340  1
  Ga  Ga9  1  0.99051973  0.99999590  0.99999660  1
  S  S10  1  0.72423507  0.14458669  0.22268555  1
  S  S11  1  0.72423378  0.77731589  0.92190873  1
  S  S12  1  0.72422993  0.07809088  0.85540777  1
  S  S13  1  0.22423507  0.85541331  0.77731445  1
  S  S14  1  0.22423378  0.22268411  0.07809127  1
  S  S15  1  0.22422993  0.92190912  0.14459223  1
  S  S16  1  0.97082152  0.11337936  0.51959583  1
  S  S17  1  0.97082227  0.48041258  0.59377990  1
  S  S18  1  0.97082465  0.40622301  0.88663659  1
  S  S19  1  0.47082152  0.88662064  0.48040417  1
  S  S20  1  0.47082227  0.51958742  0.40622010  1
  S  S21  1  0.47082465  0.59377699  0.11336341  1
  S  S22  1  0.48946543  0.33335078  0.66667633  1
  S  S23  1  0.98946543  0.66664922  0.33332367  1
