# generated using pymatgen
data_La3LuBeS7
_symmetry_space_group_name_H-M   'P 1'
_cell_length_a   6.18862204
_cell_length_b   10.30096045
_cell_length_c   10.30084254
_cell_angle_alpha   119.99893258
_cell_angle_beta   90.00000000
_cell_angle_gamma   90.00000000
_symmetry_Int_Tables_number   1
_chemical_formula_structural   La3LuBeS7
_chemical_formula_sum   'La6 Lu2 Be2 S14'
_cell_volume   568.69542022
_cell_formula_units_Z   2
loop_
 _symmetry_equiv_pos_site_id
 _symmetry_equiv_pos_as_xyz
  1  'x, y, z'
loop_
 _atom_site_type_symbol
 _atom_site_label
 _atom_site_symmetry_multiplicity
 _atom_site_fract_x
 _atom_site_fract_y
 _atom_site_fract_z
 _atom_site_occupancy
  La  La0  1  0.25053045  0.25923567  0.39608047  1
  La  La1  1  0.25051916  0.60393512  0.86315458  1
  La  La2  1  0.25053726  0.13685625  0.74076656  1
  La  La3  1  0.75053045  0.74076433  0.60391953  1
  La  La4  1  0.75051916  0.39606488  0.13684542  1
  La  La5  1  0.75053726  0.86314375  0.25923344  1
  Lu  Lu6  1  0.48153434  0.99999952  0.99999775  1
  Lu  Lu7  1  0.98153434  0.00000048  0.00000225  1
  Be  Be8  1  0.83933465  0.33334703  0.66667201  1
  Be  Be9  1  0.33933465  0.66665297  0.33332799  1
  S  S10  1  0.73007341  0.15596408  0.23660976  1
  S  S11  1  0.73008385  0.76339188  0.91936541  1
  S  S12  1  0.73007580  0.08063412  0.84402134  1
  S  S13  1  0.23007341  0.84403592  0.76339024  1
  S  S14  1  0.23008385  0.23660812  0.08063459  1
  S  S15  1  0.23007580  0.91936588  0.15597866  1
  S  S16  1  0.97144638  0.11606128  0.51953295  1
  S  S17  1  0.97145569  0.48048227  0.59652270  1
  S  S18  1  0.97145580  0.40347839  0.88395494  1
  S  S19  1  0.47144638  0.88393872  0.48046705  1
  S  S20  1  0.47145569  0.51951773  0.40347730  1
  S  S21  1  0.47145580  0.59652161  0.11604506  1
  S  S22  1  0.49095322  0.33335149  0.66667276  1
  S  S23  1  0.99095322  0.66664851  0.33332724  1
