# generated using pymatgen
data_VO2
_symmetry_space_group_name_H-M   'P 1'
_cell_length_a   2.98783186
_cell_length_b   8.75710126
_cell_length_c   10.60526179
_cell_angle_alpha   90.00000000
_cell_angle_beta   90.00000000
_cell_angle_gamma   90.00000000
_symmetry_Int_Tables_number   1
_chemical_formula_structural   VO2
_chemical_formula_sum   'V8 O16'
_cell_volume   277.48398255
_cell_formula_units_Z   8
loop_
 _symmetry_equiv_pos_site_id
 _symmetry_equiv_pos_as_xyz
  1  'x, y, z'
loop_
 _atom_site_type_symbol
 _atom_site_label
 _atom_site_symmetry_multiplicity
 _atom_site_fract_x
 _atom_site_fract_y
 _atom_site_fract_z
 _atom_site_occupancy
  V  V0  1  0.75000000  0.55719643  0.38285227  1
  V  V1  1  0.25000000  0.44280357  0.61714773  1
  V  V2  1  0.25000000  0.94280357  0.88285227  1
  V  V3  1  0.75000000  0.05719643  0.11714773  1
  V  V4  1  0.25000000  0.92347305  0.39685080  1
  V  V5  1  0.75000000  0.07652695  0.60314920  1
  V  V6  1  0.75000000  0.57652695  0.89685080  1
  V  V7  1  0.25000000  0.42347305  0.10314920  1
  O  O8  1  0.25000000  0.70623657  0.35890344  1
  O  O9  1  0.75000000  0.29376343  0.64109656  1
  O  O10  1  0.75000000  0.79376343  0.85890344  1
  O  O11  1  0.25000000  0.20623657  0.14109656  1
  O  O12  1  0.25000000  0.61220474  0.02181502  1
  O  O13  1  0.75000000  0.38779526  0.97818498  1
  O  O14  1  0.75000000  0.88779526  0.52181502  1
  O  O15  1  0.25000000  0.11220474  0.47818498  1
  O  O16  1  0.75000000  0.97114904  0.28499846  1
  O  O17  1  0.25000000  0.02885096  0.71500154  1
  O  O18  1  0.25000000  0.52885096  0.78499846  1
  O  O19  1  0.75000000  0.47114904  0.21500154  1
  O  O20  1  0.25000000  0.92626268  0.07104012  1
  O  O21  1  0.75000000  0.07373732  0.92895988  1
  O  O22  1  0.75000000  0.57373732  0.57104012  1
  O  O23  1  0.25000000  0.42626268  0.42895988  1
