# generated using pymatgen
data_Ti21Re25
_symmetry_space_group_name_H-M   'P 1'
_cell_length_a   8.45308801
_cell_length_b   14.76805563
_cell_length_c   14.76805543
_cell_angle_alpha   116.44860825
_cell_angle_beta   100.99928139
_cell_angle_gamma   100.99928124
_symmetry_Int_Tables_number   1
_chemical_formula_structural   Ti21Re25
_chemical_formula_sum   'Ti42 Re50'
_cell_volume   1538.46610612
_cell_formula_units_Z   2
loop_
 _symmetry_equiv_pos_site_id
 _symmetry_equiv_pos_as_xyz
  1  'x, y, z'
loop_
 _atom_site_type_symbol
 _atom_site_label
 _atom_site_symmetry_multiplicity
 _atom_site_fract_x
 _atom_site_fract_y
 _atom_site_fract_z
 _atom_site_occupancy
  Ti  Ti0  1  0.05410690  0.30410690  0.60821379  1
  Ti  Ti1  1  0.44589310  0.39178621  0.69589310  1
  Ti  Ti2  1  0.75000000  0.30410690  0.69589310  1
  Ti  Ti3  1  0.55410690  0.60821379  0.30410690  1
  Ti  Ti4  1  0.25000000  0.69589310  0.30410690  1
  Ti  Ti5  1  0.94589310  0.69589310  0.39178621  1
  Ti  Ti6  1  0.77870081  0.46333961  0.22856673  1
  Ti  Ti7  1  0.55013408  0.77143327  0.23477288  1
  Ti  Ti8  1  0.31536120  0.76522712  0.53666039  1
  Ti  Ti9  1  0.27870081  0.22856673  0.46333961  1
  Ti  Ti10  1  0.81536120  0.53666039  0.76522712  1
  Ti  Ti11  1  0.05013408  0.23477288  0.77143327  1
  Ti  Ti12  1  0.22129919  0.53666039  0.77143327  1
  Ti  Ti13  1  0.44986592  0.22856673  0.76522712  1
  Ti  Ti14  1  0.68463880  0.23477288  0.46333961  1
  Ti  Ti15  1  0.72129919  0.77143327  0.53666039  1
  Ti  Ti16  1  0.18463880  0.46333961  0.23477288  1
  Ti  Ti17  1  0.94986592  0.76522712  0.22856673  1
  Ti  Ti18  1  0.57063844  0.11602310  0.88348227  1
  Ti  Ti19  1  0.68715617  0.11651773  0.23254083  1
  Ti  Ti20  1  0.45461534  0.76745917  0.88397690  1
  Ti  Ti21  1  0.07063844  0.88348227  0.11602310  1
  Ti  Ti22  1  0.95461534  0.88397690  0.76745917  1
  Ti  Ti23  1  0.18715617  0.23254083  0.11651773  1
  Ti  Ti24  1  0.42936156  0.88397690  0.11651773  1
  Ti  Ti25  1  0.31284383  0.88348227  0.76745917  1
  Ti  Ti26  1  0.54538466  0.23254083  0.11602310  1
  Ti  Ti27  1  0.92936156  0.11651773  0.88397690  1
  Ti  Ti28  1  0.04538466  0.11602310  0.23254083  1
  Ti  Ti29  1  0.81284383  0.76745917  0.88348227  1
  Ti  Ti30  1  0.54419660  0.90676271  0.48474746  1
  Ti  Ti31  1  0.05944914  0.51525254  0.42201525  1
  Ti  Ti32  1  0.63743389  0.57798475  0.09323729  1
  Ti  Ti33  1  0.04419660  0.48474746  0.90676271  1
  Ti  Ti34  1  0.13743389  0.09323729  0.57798475  1
  Ti  Ti35  1  0.55944914  0.42201525  0.51525254  1
  Ti  Ti36  1  0.45580340  0.09323729  0.51525254  1
  Ti  Ti37  1  0.94055086  0.48474746  0.57798475  1
  Ti  Ti38  1  0.36256611  0.42201525  0.90676271  1
  Ti  Ti39  1  0.95580340  0.51525254  0.09323729  1
  Ti  Ti40  1  0.86256611  0.90676271  0.42201525  1
  Ti  Ti41  1  0.44055086  0.57798475  0.48474746  1
  Re  Re42  1  0.50000000  0.00000000  0.00000000  1
  Re  Re43  1  0.00000000  0.00000000  0.00000000  1
  Re  Re44  1  0.68866633  0.93866633  0.87733265  1
  Re  Re45  1  0.81133367  0.12266735  0.06133367  1
  Re  Re46  1  0.75000000  0.93866633  0.06133367  1
  Re  Re47  1  0.18866633  0.87733265  0.93866633  1
  Re  Re48  1  0.25000000  0.06133367  0.93866633  1
  Re  Re49  1  0.31133367  0.06133367  0.12266735  1
  Re  Re50  1  0.30928387  0.55928387  0.11856775  1
  Re  Re51  1  0.19071613  0.88143225  0.44071613  1
  Re  Re52  1  0.75000000  0.55928387  0.44071613  1
  Re  Re53  1  0.80928387  0.11856775  0.55928387  1
  Re  Re54  1  0.25000000  0.44071613  0.55928387  1
  Re  Re55  1  0.69071613  0.44071613  0.88143225  1
  Re  Re56  1  0.86932788  0.30271780  0.06285494  1
  Re  Re57  1  0.80647294  0.93714506  0.23986286  1
  Re  Re58  1  0.56661008  0.76013714  0.69728220  1
  Re  Re59  1  0.36932788  0.06285494  0.30271780  1
  Re  Re60  1  0.06661008  0.69728220  0.76013714  1
  Re  Re61  1  0.30647294  0.23986286  0.93714506  1
  Re  Re62  1  0.13067212  0.69728220  0.93714506  1
  Re  Re63  1  0.19352706  0.06285494  0.76013714  1
  Re  Re64  1  0.43338992  0.23986286  0.30271780  1
  Re  Re65  1  0.63067212  0.93714506  0.69728220  1
  Re  Re66  1  0.93338992  0.30271780  0.23986286  1
  Re  Re67  1  0.69352706  0.76013714  0.06285494  1
  Re  Re68  1  0.68450627  0.11980082  0.70610499  1
  Re  Re69  1  0.97840128  0.29389501  0.41369583  1
  Re  Re70  1  0.56470545  0.58630417  0.88019918  1
  Re  Re71  1  0.18450627  0.70610499  0.11980082  1
  Re  Re72  1  0.06470545  0.88019918  0.58630417  1
  Re  Re73  1  0.47840128  0.41369583  0.29389501  1
  Re  Re74  1  0.31549373  0.88019918  0.29389501  1
  Re  Re75  1  0.02159872  0.70610499  0.58630417  1
  Re  Re76  1  0.43529455  0.41369583  0.11980082  1
  Re  Re77  1  0.81549373  0.29389501  0.88019918  1
  Re  Re78  1  0.93529455  0.11980082  0.41369583  1
  Re  Re79  1  0.52159872  0.58630417  0.70610499  1
  Re  Re80  1  0.37951004  0.99709682  0.64231607  1
  Re  Re81  1  0.73719397  0.35768393  0.35478075  1
  Re  Re82  1  0.38241322  0.64521925  0.00290318  1
  Re  Re83  1  0.87951004  0.64231607  0.99709682  1
  Re  Re84  1  0.88241322  0.00290318  0.64521925  1
  Re  Re85  1  0.23719397  0.35478075  0.35768393  1
  Re  Re86  1  0.62048996  0.00290318  0.35768393  1
  Re  Re87  1  0.26280603  0.64231607  0.64521925  1
  Re  Re88  1  0.61758678  0.35478075  0.99709682  1
  Re  Re89  1  0.12048996  0.35768393  0.00290318  1
  Re  Re90  1  0.11758678  0.99709682  0.35478075  1
  Re  Re91  1  0.76280603  0.64521925  0.64231607  1
