# generated using pymatgen
data_K2Si4SbO11
_symmetry_space_group_name_H-M   'P 1'
_cell_length_a   6.51299951
_cell_length_b   10.97120732
_cell_length_c   15.78785740
_cell_angle_alpha   90.00000000
_cell_angle_beta   102.72007762
_cell_angle_gamma   90.00000000
_symmetry_Int_Tables_number   1
_chemical_formula_structural   K2Si4SbO11
_chemical_formula_sum   'K8 Si16 Sb4 O44'
_cell_volume   1100.44157636
_cell_formula_units_Z   4
loop_
 _symmetry_equiv_pos_site_id
 _symmetry_equiv_pos_as_xyz
  1  'x, y, z'
loop_
 _atom_site_type_symbol
 _atom_site_label
 _atom_site_symmetry_multiplicity
 _atom_site_fract_x
 _atom_site_fract_y
 _atom_site_fract_z
 _atom_site_occupancy
  K  K0  1  0.22201173  0.52719538  0.93010847  1
  K  K1  1  0.72201173  0.97280462  0.43010847  1
  K  K2  1  0.77798827  0.47280462  0.06989153  1
  K  K3  1  0.27798827  0.02719538  0.56989153  1
  K  K4  1  0.22374759  0.90860194  0.91966132  1
  K  K5  1  0.72374759  0.59139806  0.41966132  1
  K  K6  1  0.77625241  0.09139806  0.08033868  1
  K  K7  1  0.27625241  0.40860194  0.58033868  1
  Si  Si8  1  0.81633114  0.29004165  0.28827684  1
  Si  Si9  1  0.31633114  0.20995835  0.78827684  1
  Si  Si10  1  0.18366886  0.70995835  0.71172316  1
  Si  Si11  1  0.68366886  0.79004165  0.21172316  1
  Si  Si12  1  0.16014210  0.07845750  0.31801460  1
  Si  Si13  1  0.66014210  0.42154250  0.81801460  1
  Si  Si14  1  0.83985790  0.92154250  0.68198540  1
  Si  Si15  1  0.33985790  0.57845750  0.18198540  1
  Si  Si16  1  0.50048493  0.26600136  0.41001852  1
  Si  Si17  1  0.00048493  0.23399864  0.91001852  1
  Si  Si18  1  0.49951507  0.73399864  0.58998148  1
  Si  Si19  1  0.99951507  0.76600136  0.08998148  1
  Si  Si20  1  0.19354715  0.47547489  0.34424623  1
  Si  Si21  1  0.69354715  0.02452511  0.84424623  1
  Si  Si22  1  0.80645285  0.52452511  0.65575377  1
  Si  Si23  1  0.30645285  0.97547489  0.15575377  1
  Sb  Sb24  1  0.37029366  0.28171559  0.09811042  1
  Sb  Sb25  1  0.87029366  0.21828441  0.59811042  1
  Sb  Sb26  1  0.62970634  0.71828441  0.90188958  1
  Sb  Sb27  1  0.12970634  0.78171559  0.40188958  1
  O  O28  1  0.98506692  0.40336009  0.29043755  1
  O  O29  1  0.48506692  0.09663991  0.79043755  1
  O  O30  1  0.01493308  0.59663991  0.70956245  1
  O  O31  1  0.51493308  0.90336009  0.20956245  1
  O  O32  1  0.69064826  0.31607125  0.36616508  1
  O  O33  1  0.19064826  0.18392875  0.86616508  1
  O  O34  1  0.30935174  0.68392875  0.63383492  1
  O  O35  1  0.80935174  0.81607125  0.13383492  1
  O  O36  1  0.66487923  0.28491579  0.19303669  1
  O  O37  1  0.16487923  0.21508421  0.69303669  1
  O  O38  1  0.33512077  0.71508421  0.80696331  1
  O  O39  1  0.83512077  0.78491579  0.30696331  1
  O  O40  1  0.94776916  0.16124065  0.30688380  1
  O  O41  1  0.44776916  0.33875935  0.80688380  1
  O  O42  1  0.05223084  0.83875935  0.69311620  1
  O  O43  1  0.55223084  0.66124065  0.19311620  1
  O  O44  1  0.16522413  0.97368332  0.39043518  1
  O  O45  1  0.66522413  0.52631668  0.89043518  1
  O  O46  1  0.83477587  0.02631668  0.60956482  1
  O  O47  1  0.33477587  0.47368332  0.10956482  1
  O  O48  1  0.15959888  0.02139013  0.22170357  1
  O  O49  1  0.65959888  0.47860987  0.72170357  1
  O  O50  1  0.84040112  0.97860987  0.77829643  1
  O  O51  1  0.34040112  0.52139013  0.27829643  1
  O  O52  1  0.37474922  0.16183580  0.34357136  1
  O  O53  1  0.87474922  0.33816420  0.84357136  1
  O  O54  1  0.62525078  0.83816420  0.65642864  1
  O  O55  1  0.12525078  0.66183580  0.15642864  1
  O  O56  1  0.57055736  0.21052482  0.50734334  1
  O  O57  1  0.07055736  0.28947518  0.00734334  1
  O  O58  1  0.42944264  0.78947518  0.49265666  1
  O  O59  1  0.92944264  0.71052482  0.99265666  1
  O  O60  1  0.34428800  0.38303893  0.41349296  1
  O  O61  1  0.84428800  0.11696107  0.91349296  1
  O  O62  1  0.65571200  0.61696107  0.58650704  1
  O  O63  1  0.15571200  0.88303893  0.08650704  1
  O  O64  1  0.13008968  0.58567949  0.40141753  1
  O  O65  1  0.63008968  0.91432051  0.90141753  1
  O  O66  1  0.86991032  0.41432051  0.59858247  1
  O  O67  1  0.36991032  0.08567949  0.09858247  1
  O  O68  1  0.47425901  0.70746722  0.98783652  1
  O  O69  1  0.97425901  0.79253278  0.48783652  1
  O  O70  1  0.52574099  0.29253278  0.01216348  1
  O  O71  1  0.02574099  0.20746722  0.51216348  1
