# generated using pymatgen
data_Sr2V(PO4)3
_symmetry_space_group_name_H-M   'P 1'
_cell_length_a   8.23760210
_cell_length_b   8.23760210
_cell_length_c   9.15688013
_cell_angle_alpha   113.56726253
_cell_angle_beta   113.56726253
_cell_angle_gamma   96.68296042
_symmetry_Int_Tables_number   1
_chemical_formula_structural   Sr2V(PO4)3
_chemical_formula_sum   'Sr4 V2 P6 O24'
_cell_volume   493.01126954
_cell_formula_units_Z   2
loop_
 _symmetry_equiv_pos_site_id
 _symmetry_equiv_pos_as_xyz
  1  'x, y, z'
loop_
 _atom_site_type_symbol
 _atom_site_label
 _atom_site_symmetry_multiplicity
 _atom_site_fract_x
 _atom_site_fract_y
 _atom_site_fract_z
 _atom_site_occupancy
  Sr  Sr0  1  0.66731063  0.75617327  0.31248979  1
  Sr  Sr1  1  0.24382673  0.33268937  0.18751021  1
  Sr  Sr2  1  0.33268937  0.24382673  0.68751021  1
  Sr  Sr3  1  0.75617327  0.66731063  0.81248979  1
  V  V4  1  -0.00000000  0.50000000  0.50000000  1
  V  V5  1  0.50000000  0.00000000  -0.00000000  1
  P  P6  1  0.95373808  0.04626192  0.25000000  1
  P  P7  1  0.04626192  0.95373808  0.75000000  1
  P  P8  1  0.62289528  0.23949848  0.44167524  1
  P  P9  1  0.76050152  0.37710472  0.05832476  1
  P  P10  1  0.37710472  0.76050152  0.55832476  1
  P  P11  1  0.23949848  0.62289528  0.94167524  1
  O  O12  1  0.00370502  0.25600074  0.40297043  1
  O  O13  1  0.74399926  0.99629498  0.09702957  1
  O  O14  1  0.99629498  0.74399926  0.59702957  1
  O  O15  1  0.25600074  0.00370502  0.90297043  1
  O  O16  1  0.80396163  0.42128752  0.54403698  1
  O  O17  1  0.57871248  0.19603837  0.95596302  1
  O  O18  1  0.19603837  0.57871248  0.45596302  1
  O  O19  1  0.42128752  0.80396163  0.04403698  1
  O  O20  1  0.81202373  0.46719536  0.26861940  1
  O  O21  1  0.53280464  0.18797627  0.23138060  1
  O  O22  1  0.18797627  0.53280464  0.73138060  1
  O  O23  1  0.46719536  0.81202373  0.76861940  1
  O  O24  1  0.94327188  0.90905262  0.31700578  1
  O  O25  1  0.09094738  0.05672812  0.18299422  1
  O  O26  1  0.05672812  0.09094738  0.68299422  1
  O  O27  1  0.90905262  0.94327188  0.81700578  1
  O  O28  1  0.49707043  0.32116959  0.51682457  1
  O  O29  1  0.67883041  0.50292957  0.98317543  1
  O  O30  1  0.50292957  0.67883041  0.48317543  1
  O  O31  1  0.32116959  0.49707043  0.01682457  1
  O  O32  1  0.66764344  0.07616007  0.46095849  1
  O  O33  1  0.92383993  0.33235656  0.03904151  1
  O  O34  1  0.33235656  0.92383993  0.53904151  1
  O  O35  1  0.07616007  0.66764344  0.96095849  1
