# generated using pymatgen
data_Bi2PO6
_symmetry_space_group_name_H-M   'P 1'
_cell_length_a   7.02956691
_cell_length_b   7.05287071
_cell_length_c   10.53714738
_cell_angle_alpha   90.00000000
_cell_angle_beta   108.16509064
_cell_angle_gamma   90.00000000
_symmetry_Int_Tables_number   1
_chemical_formula_structural   Bi2PO6
_chemical_formula_sum   'Bi8 P4 O24'
_cell_volume   496.38115353
_cell_formula_units_Z   4
loop_
 _symmetry_equiv_pos_site_id
 _symmetry_equiv_pos_as_xyz
  1  'x, y, z'
loop_
 _atom_site_type_symbol
 _atom_site_label
 _atom_site_symmetry_multiplicity
 _atom_site_fract_x
 _atom_site_fract_y
 _atom_site_fract_z
 _atom_site_occupancy
  Bi  Bi0  1  0.25373061  0.10286401  0.97402689  1
  Bi  Bi1  1  0.74626939  0.60286401  0.52597311  1
  Bi  Bi2  1  0.74626939  0.89713599  0.02597311  1
  Bi  Bi3  1  0.25373061  0.39713599  0.47402689  1
  Bi  Bi4  1  0.39506586  0.62313910  0.18208611  1
  Bi  Bi5  1  0.60493414  0.12313910  0.31791389  1
  Bi  Bi6  1  0.60493414  0.37686090  0.81791389  1
  Bi  Bi7  1  0.39506586  0.87686090  0.68208611  1
  P  P8  1  0.13044238  0.93099084  0.33082849  1
  P  P9  1  0.86955762  0.43099084  0.16917151  1
  P  P10  1  0.86955762  0.06900916  0.66917151  1
  P  P11  1  0.13044238  0.56900916  0.83082849  1
  O  O12  1  0.50892498  0.92971512  0.12044137  1
  O  O13  1  0.49107502  0.42971512  0.37955863  1
  O  O14  1  0.49107502  0.07028488  0.87955863  1
  O  O15  1  0.50892498  0.57028488  0.62044137  1
  O  O16  1  0.42161049  0.29365907  0.13839372  1
  O  O17  1  0.57838951  0.79365907  0.36160628  1
  O  O18  1  0.57838951  0.70634093  0.86160628  1
  O  O19  1  0.42161049  0.20634093  0.63839372  1
  O  O20  1  0.16659799  0.85222621  0.20202105  1
  O  O21  1  0.83340201  0.35222621  0.29797895  1
  O  O22  1  0.83340201  0.14777379  0.79797895  1
  O  O23  1  0.16659799  0.64777379  0.70202105  1
  O  O24  1  0.18489507  0.79292981  0.45189436  1
  O  O25  1  0.81510493  0.29292981  0.04810564  1
  O  O26  1  0.81510493  0.20707019  0.54810564  1
  O  O27  1  0.18489507  0.70707019  0.95189436  1
  O  O28  1  0.27186270  0.10763145  0.37211959  1
  O  O29  1  0.72813730  0.60763145  0.12788041  1
  O  O30  1  0.72813730  0.89236855  0.62788041  1
  O  O31  1  0.27186270  0.39236855  0.87211959  1
  O  O32  1  0.90583472  0.98221729  0.28608878  1
  O  O33  1  0.09416528  0.48221729  0.21391122  1
  O  O34  1  0.09416528  0.01778271  0.71391122  1
  O  O35  1  0.90583472  0.51778271  0.78608878  1
