# generated using pymatgen
data_Mo4O9
_symmetry_space_group_name_H-M   'P 1'
_cell_length_a   3.85187469
_cell_length_b   9.62232905
_cell_length_c   9.62156366
_cell_angle_alpha   89.99368810
_cell_angle_beta   90.00028836
_cell_angle_gamma   89.99996229
_symmetry_Int_Tables_number   1
_chemical_formula_structural   Mo4O9
_chemical_formula_sum   'Mo8 O18'
_cell_volume   356.61368845
_cell_formula_units_Z   2
loop_
 _symmetry_equiv_pos_site_id
 _symmetry_equiv_pos_as_xyz
  1  'x, y, z'
loop_
 _atom_site_type_symbol
 _atom_site_label
 _atom_site_symmetry_multiplicity
 _atom_site_fract_x
 _atom_site_fract_y
 _atom_site_fract_z
 _atom_site_occupancy
  Mo  Mo0  1  0.50419181  0.53485575  0.33842483  1
  Mo  Mo1  1  0.49579861  0.83845809  0.46515106  1
  Mo  Mo2  1  0.50412580  0.33856051  0.96506019  1
  Mo  Mo3  1  0.49586910  0.03494639  0.83851640  1
  Mo  Mo4  1  0.50413517  0.96514544  0.16158007  1
  Mo  Mo5  1  0.50415246  0.16143795  0.53493914  1
  Mo  Mo6  1  0.49593152  0.46505440  0.66148053  1
  Mo  Mo7  1  0.49580249  0.66154784  0.03484818  1
  O  O8  1  0.49998428  0.74999891  0.24999898  1
  O  O9  1  0.50001599  0.24999484  0.75000624  1
  O  O10  1  0.99738167  0.66500680  0.03499793  1
  O  O11  1  0.99750120  0.46502978  0.66538454  1
  O  O12  1  0.99744924  0.03496730  0.83461425  1
  O  O13  1  0.99738801  0.83499099  0.46500289  1
  O  O14  1  0.00254247  0.33461480  0.96506401  1
  O  O15  1  0.00261014  0.53503218  0.33500079  1
  O  O16  1  0.00256185  0.96496995  0.16500063  1
  O  O17  1  0.00256661  0.16538481  0.53493430  1
  O  O18  1  0.50082191  0.02802881  0.36625570  1
  O  O19  1  0.50079530  0.13375988  0.02807724  1
  O  O20  1  0.50085443  0.36624196  0.47192220  1
  O  O21  1  0.50082480  0.47197034  0.13374078  1
  O  O22  1  0.49917313  0.52805095  0.86622308  1
  O  O23  1  0.49915422  0.86627933  0.97193564  1
  O  O24  1  0.49920617  0.63372043  0.52806482  1
  O  O25  1  0.49916360  0.97195158  0.63377856  1
