# generated using pymatgen
data_C3N4
_symmetry_space_group_name_H-M   'P 1'
_cell_length_a   7.03989008
_cell_length_b   7.13453862
_cell_length_c   7.13455087
_cell_angle_alpha   119.99999364
_cell_angle_beta   90.00000000
_cell_angle_gamma   90.00000000
_symmetry_Int_Tables_number   1
_chemical_formula_structural   C3N4
_chemical_formula_sum   'C12 N16'
_cell_volume   310.33379308
_cell_formula_units_Z   4
loop_
 _symmetry_equiv_pos_site_id
 _symmetry_equiv_pos_as_xyz
  1  'x, y, z'
loop_
 _atom_site_type_symbol
 _atom_site_label
 _atom_site_symmetry_multiplicity
 _atom_site_fract_x
 _atom_site_fract_y
 _atom_site_fract_z
 _atom_site_occupancy
  C  C0  1  -0.00000000  0.11906589  0.88092473  1
  C  C1  1  -0.00000000  0.11907957  0.23814180  1
  C  C2  1  0.00000000  0.76186012  0.88093577  1
  C  C3  1  -0.00000000  0.44604164  0.89208384  1
  C  C4  1  0.00000000  0.10792476  0.55395897  1
  C  C5  1  0.00000000  0.44604789  0.55396590  1
  C  C6  1  0.50000000  0.77913659  0.55828281  1
  C  C7  1  0.50000000  0.44171050  0.22084758  1
  C  C8  1  0.50000000  0.77914955  0.22086528  1
  C  C9  1  0.50000000  0.09387002  0.54694930  1
  C  C10  1  0.50000000  0.45305406  0.54691991  1
  C  C11  1  0.50000000  0.45308306  0.90613473  1
  N  N12  1  0.00000000  0.00000265  0.00000196  1
  N  N13  1  0.00000000  0.00351196  0.33860746  1
  N  N14  1  -0.00000000  0.66140051  0.66490435  1
  N  N15  1  0.00000000  0.33510412  0.99649809  1
  N  N16  1  0.00000000  0.33333998  0.66667063  1
  N  N17  1  0.50000000  0.99445999  0.66307909  1
  N  N18  1  0.50000000  0.33691752  0.33137876  1
  N  N19  1  0.50000000  0.66862147  0.00554069  1
  N  N20  1  0.50000000  0.66666401  0.33332965  1
  N  N21  1  0.50000000  0.33333661  0.66666826  1
  N  N22  1  -0.00000000  0.00350288  0.66489059  1
  N  N23  1  -0.00000000  0.33511837  0.33861520  1
  N  N24  1  -0.00000000  0.66139453  0.99650503  1
  N  N25  1  0.50000000  0.99447224  0.33141337  1
  N  N26  1  0.50000000  0.66859132  0.66305766  1
  N  N27  1  0.50000000  0.33693818  0.00552861  1
