# generated using pymatgen
data_ZnBP2PbO9
_symmetry_space_group_name_H-M   'P 1'
_cell_length_a   5.33081476
_cell_length_b   7.99863308
_cell_length_c   8.29842227
_cell_angle_alpha   89.30802526
_cell_angle_beta   79.46910596
_cell_angle_gamma   88.03057686
_symmetry_Int_Tables_number   1
_chemical_formula_structural   ZnBP2PbO9
_chemical_formula_sum   'Zn2 B2 P4 Pb2 O18'
_cell_volume   347.66693381
_cell_formula_units_Z   2
loop_
 _symmetry_equiv_pos_site_id
 _symmetry_equiv_pos_as_xyz
  1  'x, y, z'
loop_
 _atom_site_type_symbol
 _atom_site_label
 _atom_site_symmetry_multiplicity
 _atom_site_fract_x
 _atom_site_fract_y
 _atom_site_fract_z
 _atom_site_occupancy
  Zn  Zn0  1  0.72290921  0.80429317  0.20303659  1
  Zn  Zn1  1  0.27709079  0.19570683  0.79696341  1
  B  B2  1  0.88516926  0.74691182  0.54372270  1
  B  B3  1  0.11483074  0.25308818  0.45627730  1
  P  P4  1  0.80042411  0.43275927  0.69996087  1
  P  P5  1  0.19957589  0.56724073  0.30003913  1
  P  P6  1  0.76993187  0.93768105  0.81991806  1
  P  P7  1  0.23006813  0.06231895  0.18008194  1
  Pb  Pb8  1  0.27091630  0.69694516  0.90967283  1
  Pb  Pb9  1  0.72908370  0.30305484  0.09032717  1
  O  O10  1  0.97975175  0.56304187  0.20254281  1
  O  O11  1  0.02024825  0.43695813  0.79745719  1
  O  O12  1  0.94692147  0.87504138  0.65474472  1
  O  O13  1  0.05307853  0.12495862  0.34525528  1
  O  O14  1  0.89785777  0.09399826  0.86684241  1
  O  O15  1  0.10214223  0.90600174  0.13315759  1
  O  O16  1  0.86599854  0.31716281  0.54747721  1
  O  O17  1  0.13400146  0.68283719  0.45252279  1
  O  O18  1  0.77598511  0.78866694  0.94279257  1
  O  O19  1  0.22401489  0.21133306  0.05720743  1
  O  O20  1  0.73203358  0.61267008  0.63644925  1
  O  O21  1  0.26796642  0.38732992  0.36355075  1
  O  O22  1  0.71168161  0.82122610  0.44554622  1
  O  O23  1  0.28831839  0.17877390  0.55445378  1
  O  O24  1  0.55275802  0.37913925  0.81229080  1
  O  O25  1  0.44724198  0.62086075  0.18770920  1
  O  O26  1  0.49031427  0.97135261  0.80015466  1
  O  O27  1  0.50968573  0.02864739  0.19984534  1
