# generated using pymatgen
data_Y5Mg5Al12(Fe2Si3)2
_symmetry_space_group_name_H-M   'P 1'
_cell_length_a   3.99859308
_cell_length_b   11.91120747
_cell_length_c   11.91120747
_cell_angle_alpha   90.00000000
_cell_angle_beta   90.00000000
_cell_angle_gamma   90.00000000
_symmetry_Int_Tables_number   1
_chemical_formula_structural   Y5Mg5Al12(Fe2Si3)2
_chemical_formula_sum   'Y5 Mg5 Al12 Fe4 Si6'
_cell_volume   567.30784418
_cell_formula_units_Z   1
loop_
 _symmetry_equiv_pos_site_id
 _symmetry_equiv_pos_as_xyz
  1  'x, y, z'
loop_
 _atom_site_type_symbol
 _atom_site_label
 _atom_site_symmetry_multiplicity
 _atom_site_fract_x
 _atom_site_fract_y
 _atom_site_fract_z
 _atom_site_occupancy
  Y  Y0  1  -0.00000000  0.50000000  0.25170597  1
  Y  Y1  1  0.00000000  0.50000000  0.74829403  1
  Y  Y2  1  -0.00000000  0.74829403  0.50000000  1
  Y  Y3  1  0.00000000  0.25170597  0.50000000  1
  Y  Y4  1  0.00000000  -0.00000000  0.00000000  1
  Mg  Mg5  1  0.00000000  0.20210327  0.20210327  1
  Mg  Mg6  1  -0.00000000  0.79789673  0.79789673  1
  Mg  Mg7  1  0.00000000  0.79789673  0.20210327  1
  Mg  Mg8  1  -0.00000000  0.20210327  0.79789673  1
  Mg  Mg9  1  0.50000000  0.50000000  0.50000000  1
  Al  Al10  1  0.50000000  0.37280097  0.11222357  1
  Al  Al11  1  0.50000000  0.62719903  0.88777643  1
  Al  Al12  1  0.50000000  0.62719903  0.11222357  1
  Al  Al13  1  0.50000000  0.37280097  0.88777643  1
  Al  Al14  1  0.50000000  0.88777643  0.37280097  1
  Al  Al15  1  0.50000000  0.11222357  0.62719903  1
  Al  Al16  1  0.50000000  0.11222357  0.37280097  1
  Al  Al17  1  0.50000000  0.88777643  0.62719903  1
  Al  Al18  1  0.50000000  0.33152937  0.33152937  1
  Al  Al19  1  0.50000000  0.66847063  0.66847063  1
  Al  Al20  1  0.50000000  0.66847063  0.33152937  1
  Al  Al21  1  0.50000000  0.33152937  0.66847063  1
  Fe  Fe22  1  0.00000000  -0.00000000  0.30598339  1
  Fe  Fe23  1  -0.00000000  -0.00000000  0.69401661  1
  Fe  Fe24  1  0.00000000  0.69401661  0.00000000  1
  Fe  Fe25  1  -0.00000000  0.30598339  0.00000000  1
  Si  Si26  1  0.50000000  -0.00000000  0.18921363  1
  Si  Si27  1  0.50000000  -0.00000000  0.81078637  1
  Si  Si28  1  0.50000000  0.81078637  0.00000000  1
  Si  Si29  1  0.50000000  0.18921363  0.00000000  1
  Si  Si30  1  -0.00000000  0.50000000  -0.00000000  1
  Si  Si31  1  -0.00000000  -0.00000000  0.50000000  1
