# generated using pymatgen
data_K2UH4C4SNO10
_symmetry_space_group_name_H-M   'P 1'
_cell_length_a   8.11877144
_cell_length_b   11.54698345
_cell_length_c   15.71309342
_cell_angle_alpha   90.00000000
_cell_angle_beta   90.00000000
_cell_angle_gamma   99.80187745
_symmetry_Int_Tables_number   1
_chemical_formula_structural   K2UH4C4SNO10
_chemical_formula_sum   'K8 U4 H16 C16 S4 N4 O40'
_cell_volume   1451.55712403
_cell_formula_units_Z   4
loop_
 _symmetry_equiv_pos_site_id
 _symmetry_equiv_pos_as_xyz
  1  'x, y, z'
loop_
 _atom_site_type_symbol
 _atom_site_label
 _atom_site_symmetry_multiplicity
 _atom_site_fract_x
 _atom_site_fract_y
 _atom_site_fract_z
 _atom_site_occupancy
  K  K0  1  0.04399901  0.76275462  0.81005631  1
  K  K1  1  0.54399901  0.26275462  0.68994369  1
  K  K2  1  0.95600099  0.23724538  0.18994369  1
  K  K3  1  0.45600099  0.73724538  0.31005631  1
  K  K4  1  0.57459757  0.88775349  0.88272807  1
  K  K5  1  0.07459757  0.38775349  0.61727193  1
  K  K6  1  0.42540243  0.11224651  0.11727193  1
  K  K7  1  0.92540243  0.61224651  0.38272807  1
  U  U8  1  0.69913054  0.81718387  0.58107677  1
  U  U9  1  0.19913054  0.31718387  0.91892323  1
  U  U10  1  0.30086946  0.18281613  0.41892323  1
  U  U11  1  0.80086946  0.68281613  0.08107677  1
  H  H12  1  0.39521509  0.67560171  0.74804477  1
  H  H13  1  0.89521509  0.17560171  0.75195523  1
  H  H14  1  0.60478491  0.32439829  0.25195523  1
  H  H15  1  0.10478491  0.82439829  0.24804477  1
  H  H16  1  0.35388647  0.63369024  0.84200927  1
  H  H17  1  0.85388647  0.13369024  0.65799073  1
  H  H18  1  0.64611353  0.36630976  0.15799073  1
  H  H19  1  0.14611353  0.86630976  0.34200927  1
  H  H20  1  0.52765741  0.15440399  0.89834520  1
  H  H21  1  0.02765741  0.65440399  0.60165480  1
  H  H22  1  0.47234259  0.84559601  0.10165480  1
  H  H23  1  0.97234259  0.34559601  0.39834520  1
  H  H24  1  0.72173848  0.16465612  0.88592617  1
  H  H25  1  0.22173848  0.66465612  0.61407383  1
  H  H26  1  0.27826152  0.83534388  0.11407383  1
  H  H27  1  0.77826152  0.33534388  0.38592617  1
  C  C28  1  0.37731616  0.95897774  0.66388757  1
  C  C29  1  0.87731616  0.45897774  0.83611243  1
  C  C30  1  0.62268384  0.04102226  0.33611243  1
  C  C31  1  0.12268384  0.54102226  0.16388757  1
  C  C32  1  0.70193681  0.53208272  0.58101247  1
  C  C33  1  0.20193681  0.03208272  0.91898753  1
  C  C34  1  0.29806319  0.46791728  0.41898753  1
  C  C35  1  0.79806319  0.96791728  0.08101247  1
  C  C36  1  0.52324656  0.54346419  0.61362322  1
  C  C37  1  0.02324656  0.04346419  0.88637678  1
  C  C38  1  0.47675344  0.45653581  0.38637678  1
  C  C39  1  0.97675344  0.95653581  0.11362322  1
  C  C40  1  0.03696949  0.94835406  0.48133127  1
  C  C41  1  0.53696949  0.44835406  0.01866873  1
  C  C42  1  0.96303051  0.05164594  0.51866873  1
  C  C43  1  0.46303051  0.55164594  0.98133127  1
  S  S44  1  0.22211432  0.01713365  0.69540000  1
  S  S45  1  0.72211432  0.51713365  0.80460000  1
  S  S46  1  0.77788568  0.98286635  0.30460000  1
  S  S47  1  0.27788568  0.48286635  0.19540000  1
  N  N48  1  0.49334871  0.91580967  0.64123071  1
  N  N49  1  0.99334871  0.41580967  0.85876929  1
  N  N50  1  0.50665129  0.08419033  0.35876929  1
  N  N51  1  0.00665129  0.58419033  0.14123071  1
  O  O52  1  0.80564733  0.81996874  0.68302239  1
  O  O53  1  0.30564733  0.31996874  0.81697761  1
  O  O54  1  0.19435267  0.18003126  0.31697761  1
  O  O55  1  0.69435267  0.68003126  0.18302239  1
  O  O56  1  0.59799835  0.81483164  0.47809408  1
  O  O57  1  0.09799835  0.31483164  0.02190592  1
  O  O58  1  0.40200165  0.18516836  0.52190592  1
  O  O59  1  0.90200165  0.68516836  0.97809408  1
  O  O60  1  0.78911842  0.63141316  0.55630801  1
  O  O61  1  0.28911842  0.13141316  0.94369199  1
  O  O62  1  0.21088158  0.36858684  0.44369199  1
  O  O63  1  0.71088158  0.86858684  0.05630801  1
  O  O64  1  0.50071677  0.65161875  0.62314094  1
  O  O65  1  0.00071677  0.15161875  0.87685906  1
  O  O66  1  0.49928323  0.34838125  0.37685906  1
  O  O67  1  0.99928323  0.84838125  0.12314094  1
  O  O68  1  0.74890124  0.43538574  0.58023786  1
  O  O69  1  0.24890124  0.93538574  0.91976214  1
  O  O70  1  0.25109876  0.56461426  0.41976214  1
  O  O71  1  0.75109876  0.06461426  0.08023786  1
  O  O72  1  0.41782672  0.45482968  0.62833650  1
  O  O73  1  0.91782672  0.95482968  0.87166350  1
  O  O74  1  0.58217328  0.54517032  0.37166350  1
  O  O75  1  0.08217328  0.04517032  0.12833650  1
  O  O76  1  0.96467749  0.84564764  0.49940804  1
  O  O77  1  0.46467749  0.34564764  0.00059196  1
  O  O78  1  0.03532251  0.15435236  0.50059196  1
  O  O79  1  0.53532251  0.65435236  0.99940804  1
  O  O80  1  0.83453106  0.02469367  0.56547831  1
  O  O81  1  0.33453106  0.52469367  0.93452169  1
  O  O82  1  0.16546894  0.97530633  0.43452169  1
  O  O83  1  0.66546894  0.47530633  0.06547831  1
  O  O84  1  0.36793961  0.70289364  0.80442944  1
  O  O85  1  0.86793961  0.20289364  0.69557056  1
  O  O86  1  0.63206039  0.29710636  0.19557056  1
  O  O87  1  0.13206039  0.79710636  0.30442944  1
  O  O88  1  0.61367600  0.13381939  0.86010964  1
  O  O89  1  0.11367600  0.63381939  0.63989036  1
  O  O90  1  0.38632400  0.86618061  0.13989036  1
  O  O91  1  0.88632400  0.36618061  0.36010964  1
