# generated using pymatgen
data_Be3V2(SiO4)3
_symmetry_space_group_name_H-M   'P 1'
_cell_length_a   7.55190766
_cell_length_b   8.05181157
_cell_length_c   13.80869744
_cell_angle_alpha   89.56761302
_cell_angle_beta   90.00088720
_cell_angle_gamma   90.00060007
_symmetry_Int_Tables_number   1
_chemical_formula_structural   Be3V2(SiO4)3
_chemical_formula_sum   'Be12 V8 Si12 O48'
_cell_volume   839.63516858
_cell_formula_units_Z   4
loop_
 _symmetry_equiv_pos_site_id
 _symmetry_equiv_pos_as_xyz
  1  'x, y, z'
loop_
 _atom_site_type_symbol
 _atom_site_label
 _atom_site_symmetry_multiplicity
 _atom_site_fract_x
 _atom_site_fract_y
 _atom_site_fract_z
 _atom_site_occupancy
  Be  Be0  1  0.85028741  0.92626731  0.76569969  1
  Be  Be1  1  0.65368381  0.92985828  0.40244985  1
  Be  Be2  1  0.15368684  0.57012811  0.09754702  1
  Be  Be3  1  0.34631519  0.07014072  0.59755015  1
  Be  Be4  1  0.84631316  0.42987189  0.90245298  1
  Be  Be5  1  0.14940287  0.61455125  0.41546402  1
  Be  Be6  1  0.64939595  0.88544300  0.08454319  1
  Be  Be7  1  0.85059713  0.38544775  0.58453598  1
  Be  Be8  1  0.35060305  0.11455700  0.91545681  1
  Be  Be9  1  0.64972223  0.42625173  0.26569695  1
  Be  Be10  1  0.14971259  0.07373169  0.23430031  1
  Be  Be11  1  0.35027877  0.57374827  0.73430305  1
  V  V12  1  0.45602832  0.24100860  0.09176984  1
  V  V13  1  0.04394653  0.74101723  0.59176327  1
  V  V14  1  0.54397268  0.75899140  0.90823016  1
  V  V15  1  0.95605347  0.25898277  0.40823673  1
  V  V16  1  0.56013736  0.24928574  0.42976449  1
  V  V17  1  0.06014056  0.25068514  0.07023819  1
  V  V18  1  0.43986264  0.75071426  0.57023551  1
  V  V19  1  0.93985944  0.74931486  0.92976181  1
  Si  Si20  1  0.22994811  0.92665979  0.76562495  1
  Si  Si21  1  0.72996174  0.57334139  0.73437684  1
  Si  Si22  1  0.77005189  0.07333921  0.23437505  1
  Si  Si23  1  0.27003926  0.42665861  0.26562316  1
  Si  Si24  1  0.73264316  0.11501637  0.91853799  1
  Si  Si25  1  0.23266028  0.38497865  0.58146118  1
  Si  Si26  1  0.26735684  0.88498363  0.08146201  1
  Si  Si27  1  0.76733872  0.61502235  0.41853882  1
  Si  Si28  1  0.23483372  0.44061651  0.90221091  1
  Si  Si29  1  0.73482756  0.05938845  0.59778598  1
  Si  Si30  1  0.76516628  0.55938349  0.09778909  1
  Si  Si31  1  0.26517244  0.94061055  0.40221402  1
  O  O32  1  0.12297214  0.74992112  0.03713355  1
  O  O33  1  0.04117378  0.89220164  0.82309157  1
  O  O34  1  0.54117557  0.60781340  0.67690854  1
  O  O35  1  0.95882622  0.10779836  0.17690843  1
  O  O36  1  0.45882343  0.39218560  0.32309146  1
  O  O37  1  0.53954532  0.18453682  0.95762928  1
  O  O38  1  0.03954851  0.31546875  0.54237340  1
  O  O39  1  0.46045468  0.81546318  0.04237072  1
  O  O40  1  0.96045049  0.68453125  0.45762660  1
  O  O41  1  0.03712895  0.52734913  0.89015996  1
  O  O42  1  0.53712409  0.97265355  0.60983864  1
  O  O43  1  0.96287105  0.47265187  0.10984004  1
  O  O44  1  0.12474835  0.07887701  0.35413147  1
  O  O45  1  0.62474097  0.42111577  0.14586518  1
  O  O46  1  0.87525265  0.92112299  0.64586853  1
  O  O47  1  0.37525903  0.57888523  0.85413482  1
  O  O48  1  0.62297110  0.75007296  0.46286142  1
  O  O49  1  0.46287691  0.02734645  0.39016136  1
  O  O50  1  0.37702990  0.24992704  0.53713858  1
  O  O51  1  0.87702786  0.25007788  0.96286645  1
  O  O52  1  0.76133277  0.07675812  0.47514891  1
  O  O53  1  0.62088596  0.06662847  0.14485180  1
  O  O54  1  0.87911088  0.56663028  0.64485387  1
  O  O55  1  0.37911304  0.93337153  0.85514820  1
  O  O56  1  0.73678355  0.42263859  0.80868806  1
  O  O57  1  0.23678450  0.07735953  0.69131405  1
  O  O58  1  0.26321645  0.57736141  0.19131194  1
  O  O59  1  0.76321450  0.92263947  0.30868595  1
  O  O60  1  0.74518958  0.07203498  0.80690966  1
  O  O61  1  0.24519494  0.42797278  0.69309173  1
  O  O62  1  0.25480942  0.92796502  0.19309034  1
  O  O63  1  0.75480506  0.57202822  0.30690827  1
  O  O64  1  0.24000062  0.25258700  0.86803921  1
  O  O65  1  0.74001037  0.24741962  0.63196082  1
  O  O66  1  0.76000038  0.74741300  0.13196079  1
  O  O67  1  0.25998963  0.75258138  0.36803918  1
  O  O68  1  0.74894462  0.74528882  0.80551020  1
  O  O69  1  0.24893647  0.75470636  0.69449229  1
  O  O70  1  0.25105538  0.25471018  0.19448980  1
  O  O71  1  0.75106353  0.24529464  0.30550771  1
  O  O72  1  0.75177281  0.92639473  0.97405227  1
  O  O73  1  0.25177335  0.57360545  0.52594530  1
  O  O74  1  0.24822819  0.07360527  0.02594773  1
  O  O75  1  0.74822665  0.42639355  0.47405470  1
  O  O76  1  0.73867216  0.57675692  0.97514723  1
  O  O77  1  0.23866823  0.92324188  0.52485109  1
  O  O78  1  0.26132784  0.42324308  0.02485277  1
  O  O79  1  0.12088912  0.43336872  0.35514613  1
