# generated using pymatgen
data_HgH20C6(NCl2)2
_symmetry_space_group_name_H-M   'P 1'
_cell_length_a   6.66764985
_cell_length_b   13.73744618
_cell_length_c   19.15059552
_cell_angle_alpha   90.00000000
_cell_angle_beta   92.13222187
_cell_angle_gamma   90.00000000
_symmetry_Int_Tables_number   1
_chemical_formula_structural   HgH20C6(NCl2)2
_chemical_formula_sum   'Hg4 H80 C24 N8 Cl16'
_cell_volume   1752.91264817
_cell_formula_units_Z   4
loop_
 _symmetry_equiv_pos_site_id
 _symmetry_equiv_pos_as_xyz
  1  'x, y, z'
loop_
 _atom_site_type_symbol
 _atom_site_label
 _atom_site_symmetry_multiplicity
 _atom_site_fract_x
 _atom_site_fract_y
 _atom_site_fract_z
 _atom_site_occupancy
  Hg  Hg0  1  0.78015126  0.24266654  0.84447189  1
  Hg  Hg1  1  0.71984874  0.74266654  0.65552811  1
  Hg  Hg2  1  0.21984874  0.75733346  0.15552811  1
  Hg  Hg3  1  0.28015126  0.25733346  0.34447189  1
  H  H4  1  0.63243431  0.74003779  0.04037032  1
  H  H5  1  0.86756569  0.24003779  0.45962968  1
  H  H6  1  0.36756569  0.25996221  0.95962968  1
  H  H7  1  0.13243431  0.75996221  0.54037032  1
  H  H8  1  0.83844760  0.41527474  0.30287093  1
  H  H9  1  0.66155240  0.91527474  0.19712907  1
  H  H10  1  0.16155240  0.58472526  0.69712907  1
  H  H11  1  0.33844760  0.08472526  0.80287093  1
  H  H12  1  0.91433627  0.83277391  0.00653223  1
  H  H13  1  0.58566373  0.33277391  0.49346777  1
  H  H14  1  0.08566373  0.16722609  0.99346777  1
  H  H15  1  0.41433627  0.66722609  0.50653223  1
  H  H16  1  0.83043947  0.81570071  0.91650498  1
  H  H17  1  0.66956053  0.31570071  0.58349502  1
  H  H18  1  0.16956053  0.18429929  0.08349502  1
  H  H19  1  0.33043947  0.68429929  0.41650498  1
  H  H20  1  0.68359215  0.88679121  0.97511642  1
  H  H21  1  0.81640785  0.38679121  0.52488358  1
  H  H22  1  0.31640785  0.11320879  0.02488358  1
  H  H23  1  0.18359215  0.61320879  0.47511642  1
  H  H24  1  0.72570765  0.58184724  0.99808406  1
  H  H25  1  0.77429235  0.08184724  0.50191594  1
  H  H26  1  0.27429235  0.41815276  0.00191594  1
  H  H27  1  0.22570765  0.91815276  0.49808406  1
  H  H28  1  0.85451767  0.64224005  0.92989599  1
  H  H29  1  0.64548233  0.14224005  0.57010401  1
  H  H30  1  0.14548233  0.35775995  0.07010401  1
  H  H31  1  0.35451767  0.85775995  0.42989599  1
  H  H32  1  0.93899891  0.65714106  0.02004005  1
  H  H33  1  0.56100109  0.15714106  0.47995995  1
  H  H34  1  0.06100109  0.34285894  0.97995995  1
  H  H35  1  0.43899891  0.84285894  0.52004005  1
  H  H36  1  0.41730807  0.65352662  0.95625516  1
  H  H37  1  0.08269193  0.15352662  0.54374484  1
  H  H38  1  0.58269193  0.34647338  0.04374484  1
  H  H39  1  0.91730807  0.84647338  0.45625516  1
  H  H40  1  0.39129570  0.78301100  0.95107964  1
  H  H41  1  0.10870430  0.28301100  0.54892036  1
  H  H42  1  0.60870430  0.21698900  0.04892036  1
  H  H43  1  0.89129570  0.71698900  0.45107964  1
  H  H44  1  0.54153414  0.71965526  0.88843479  1
  H  H45  1  0.95846586  0.21965526  0.61156521  1
  H  H46  1  0.45846586  0.28034474  0.11156521  1
  H  H47  1  0.04153414  0.78034474  0.38843479  1
  H  H48  1  0.06603564  0.55083755  0.32689327  1
  H  H49  1  0.43396436  0.05083755  0.17310673  1
  H  H50  1  0.93396436  0.44916245  0.67310673  1
  H  H51  1  0.56603564  0.94916245  0.82689327  1
  H  H52  1  0.08422141  0.50475053  0.23984927  1
  H  H53  1  0.41577859  0.00475053  0.26015073  1
  H  H54  1  0.91577859  0.49524947  0.76015073  1
  H  H55  1  0.58422141  0.99524947  0.73984927  1
  H  H56  1  0.94323060  0.61414431  0.25434154  1
  H  H57  1  0.55676940  0.11414431  0.24565846  1
  H  H58  1  0.05676940  0.38585569  0.74565846  1
  H  H59  1  0.44323060  0.88585569  0.75434154  1
  H  H60  1  0.78507904  0.44277827  0.17867969  1
  H  H61  1  0.71492096  0.94277827  0.32132031  1
  H  H62  1  0.21492096  0.55722173  0.82132031  1
  H  H63  1  0.28507904  0.05722173  0.67867969  1
  H  H64  1  0.55725558  0.42762948  0.22486874  1
  H  H65  1  0.94274442  0.92762948  0.27513126  1
  H  H66  1  0.44274442  0.57237052  0.77513126  1
  H  H67  1  0.05725558  0.07237052  0.72486874  1
  H  H68  1  0.63744753  0.54748634  0.20026724  1
  H  H69  1  0.86255247  0.04748634  0.29973276  1
  H  H70  1  0.36255247  0.45251366  0.79973276  1
  H  H71  1  0.13744753  0.95251366  0.70026724  1
  H  H72  1  0.75815276  0.53638135  0.38745829  1
  H  H73  1  0.74184724  0.03638135  0.11254171  1
  H  H74  1  0.24184724  0.46361865  0.61254171  1
  H  H75  1  0.25815276  0.96361865  0.88745829  1
  H  H76  1  0.62544547  0.60178329  0.31794858  1
  H  H77  1  0.87455453  0.10178329  0.18205142  1
  H  H78  1  0.37455453  0.39821671  0.68205142  1
  H  H79  1  0.12544547  0.89821671  0.81794858  1
  H  H80  1  0.54189478  0.48303643  0.34478811  1
  H  H81  1  0.95810522  0.98303643  0.15521189  1
  H  H82  1  0.45810522  0.51696357  0.65521189  1
  H  H83  1  0.04189478  0.01696357  0.84478811  1
  C  C84  1  0.78403077  0.82440731  0.97046857  1
  C  C85  1  0.71596923  0.32440731  0.52953143  1
  C  C86  1  0.21596923  0.17559269  0.02953143  1
  C  C87  1  0.28403077  0.67559269  0.47046857  1
  C  C88  1  0.80897736  0.64718920  0.98414900  1
  C  C89  1  0.69102264  0.14718920  0.51585100  1
  C  C90  1  0.19102264  0.35281080  0.01585100  1
  C  C91  1  0.30897736  0.85281080  0.48414900  1
  C  C92  1  0.49154898  0.72150212  0.94229047  1
  C  C93  1  0.00845102  0.22150212  0.55770953  1
  C  C94  1  0.50845102  0.27849788  0.05770953  1
  C  C95  1  0.99154898  0.77849788  0.44229047  1
  C  C96  1  0.98856010  0.54304610  0.27605873  1
  C  C97  1  0.51143990  0.04304610  0.22394127  1
  C  C98  1  0.01143990  0.45695390  0.72394127  1
  C  C99  1  0.48856010  0.95695390  0.77605873  1
  C  C100  1  0.68641369  0.47466753  0.21707062  1
  C  C101  1  0.81358631  0.97466753  0.28292938  1
  C  C102  1  0.31358631  0.52533247  0.78292938  1
  C  C103  1  0.18641369  0.02533247  0.71707062  1
  C  C104  1  0.67224627  0.53018452  0.33788388  1
  C  C105  1  0.82775373  0.03018452  0.16211612  1
  C  C106  1  0.32775373  0.46981548  0.66211612  1
  C  C107  1  0.17224627  0.96981548  0.83788388  1
  N  N108  1  0.67442109  0.73364548  0.98884818  1
  N  N109  1  0.82557891  0.23364548  0.51115182  1
  N  N110  1  0.32557891  0.26635452  0.01115182  1
  N  N111  1  0.17442109  0.76635452  0.48884818  1
  N  N112  1  0.80191577  0.48495272  0.28491065  1
  N  N113  1  0.69808423  0.98495272  0.21508935  1
  N  N114  1  0.19808423  0.51504728  0.71508935  1
  N  N115  1  0.30191577  0.01504728  0.78491065  1
  Cl  Cl116  1  0.17041443  0.22981275  0.84588470  1
  Cl  Cl117  1  0.32958557  0.72981275  0.65411530  1
  Cl  Cl118  1  0.82958557  0.77018725  0.15411530  1
  Cl  Cl119  1  0.67041443  0.27018725  0.34588470  1
  Cl  Cl120  1  0.67992132  0.39701316  0.90539411  1
  Cl  Cl121  1  0.82007868  0.89701316  0.59460589  1
  Cl  Cl122  1  0.32007868  0.60298684  0.09460589  1
  Cl  Cl123  1  0.17992132  0.10298684  0.40539411  1
  Cl  Cl124  1  0.67085607  0.10285316  0.92470350  1
  Cl  Cl125  1  0.82914393  0.60285316  0.57529650  1
  Cl  Cl126  1  0.32914393  0.89714684  0.07529650  1
  Cl  Cl127  1  0.17085607  0.39714684  0.42470350  1
  Cl  Cl128  1  0.65710655  0.21519310  0.71938963  1
  Cl  Cl129  1  0.84289345  0.71519310  0.78061037  1
  Cl  Cl130  1  0.34289345  0.78480690  0.28061037  1
  Cl  Cl131  1  0.15710655  0.28480690  0.21938963  1
