# generated using pymatgen
data_VTeH11(NO4)2
_symmetry_space_group_name_H-M   'P 1'
_cell_length_a   7.52963189
_cell_length_b   7.48318635
_cell_length_c   17.11763397
_cell_angle_alpha   90.00000000
_cell_angle_beta   90.00000000
_cell_angle_gamma   118.98796707
_symmetry_Int_Tables_number   1
_chemical_formula_structural   VTeH11(NO4)2
_chemical_formula_sum   'V4 Te4 H44 N8 O32'
_cell_volume   843.67240546
_cell_formula_units_Z   4
loop_
 _symmetry_equiv_pos_site_id
 _symmetry_equiv_pos_as_xyz
  1  'x, y, z'
loop_
 _atom_site_type_symbol
 _atom_site_label
 _atom_site_symmetry_multiplicity
 _atom_site_fract_x
 _atom_site_fract_y
 _atom_site_fract_z
 _atom_site_occupancy
  V  V0  1  0.39763688  0.44848323  0.39656237  1
  V  V1  1  0.89763688  0.94848323  0.10343763  1
  V  V2  1  0.60236312  0.55151677  0.60343763  1
  V  V3  1  0.10236312  0.05151677  0.89656237  1
  Te  Te4  1  0.60427416  0.23186370  0.48218377  1
  Te  Te5  1  0.10427416  0.73186370  0.01781623  1
  Te  Te6  1  0.39572584  0.76813630  0.51781623  1
  Te  Te7  1  0.89572584  0.26813630  0.98218377  1
  H  H8  1  0.97221520  0.35305245  0.44956644  1
  H  H9  1  0.47221520  0.85305245  0.05043356  1
  H  H10  1  0.02778480  0.64694755  0.55043356  1
  H  H11  1  0.52778480  0.14694755  0.94956644  1
  H  H12  1  0.78098479  0.50544367  0.30836301  1
  H  H13  1  0.28098479  0.00544367  0.19163699  1
  H  H14  1  0.21901521  0.49455633  0.69163699  1
  H  H15  1  0.71901521  0.99455633  0.80836301  1
  H  H16  1  0.82434798  0.64773239  0.23425934  1
  H  H17  1  0.32434798  0.14773239  0.26574066  1
  H  H18  1  0.17565202  0.35226761  0.76574066  1
  H  H19  1  0.67565202  0.85226761  0.73425934  1
  H  H20  1  0.60757424  0.08045212  0.26637018  1
  H  H21  1  0.10757424  0.58045212  0.23362982  1
  H  H22  1  0.39242576  0.91954788  0.73362982  1
  H  H23  1  0.89242576  0.41954788  0.76637018  1
  H  H24  1  0.83280635  0.08413983  0.24486867  1
  H  H25  1  0.33280635  0.58413983  0.25513133  1
  H  H26  1  0.16719365  0.91586017  0.75513133  1
  H  H27  1  0.66719365  0.41586017  0.74486867  1
  H  H28  1  0.64952759  0.89518623  0.30274566  1
  H  H29  1  0.14952759  0.39518623  0.19725434  1
  H  H30  1  0.35047241  0.10481377  0.69725434  1
  H  H31  1  0.85047241  0.60481377  0.80274566  1
  H  H32  1  0.78368482  0.13432528  0.33791972  1
  H  H33  1  0.28368482  0.63432528  0.16208028  1
  H  H34  1  0.21631518  0.86567472  0.66208028  1
  H  H35  1  0.71631518  0.36567472  0.83791972  1
  H  H36  1  0.95298109  0.77464410  0.36384992  1
  H  H37  1  0.45298109  0.27464410  0.13615008  1
  H  H38  1  0.04701891  0.22535590  0.63615008  1
  H  H39  1  0.54701891  0.72535590  0.86384992  1
  H  H40  1  0.06565308  0.85080828  0.45289521  1
  H  H41  1  0.56565308  0.35080828  0.04710479  1
  H  H42  1  0.93434692  0.14919172  0.54710479  1
  H  H43  1  0.43434692  0.64919172  0.95289521  1
  H  H44  1  0.83059771  0.82094452  0.43920402  1
  H  H45  1  0.33059771  0.32094452  0.06079598  1
  H  H46  1  0.16940229  0.17905548  0.56079598  1
  H  H47  1  0.66940229  0.67905548  0.93920402  1
  H  H48  1  0.04423453  0.01865993  0.39386999  1
  H  H49  1  0.54423453  0.51865993  0.10613001  1
  H  H50  1  0.95576547  0.98134007  0.60613001  1
  H  H51  1  0.45576547  0.48134007  0.89386999  1
  N  N52  1  0.72018138  0.05002436  0.28769961  1
  N  N53  1  0.22018138  0.55002436  0.21230039  1
  N  N54  1  0.27981862  0.94997564  0.71230039  1
  N  N55  1  0.77981862  0.44997564  0.78769961  1
  N  N56  1  0.97260183  0.86675805  0.41233658  1
  N  N57  1  0.47260183  0.36675805  0.08766342  1
  N  N58  1  0.02739817  0.13324195  0.58766342  1
  N  N59  1  0.52739817  0.63324195  0.91233658  1
  O  O60  1  0.38750978  0.29055368  0.50583163  1
  O  O61  1  0.88750978  0.79055368  0.99416837  1
  O  O62  1  0.61249022  0.70944632  0.49416837  1
  O  O63  1  0.11249022  0.20944632  0.00583163  1
  O  O64  1  0.77544816  0.46353031  0.54768893  1
  O  O65  1  0.27544816  0.96353031  0.95231107  1
  O  O66  1  0.22455184  0.53646969  0.45231107  1
  O  O67  1  0.72455184  0.03646969  0.04768893  1
  O  O68  1  0.43732318  0.96172515  0.43023996  1
  O  O69  1  0.93732318  0.46172515  0.06976004  1
  O  O70  1  0.56267682  0.03827485  0.56976004  1
  O  O71  1  0.06267682  0.53827485  0.93023996  1
  O  O72  1  0.84720273  0.21525911  0.44876970  1
  O  O73  1  0.34720273  0.71525911  0.05123030  1
  O  O74  1  0.15279727  0.78474089  0.55123030  1
  O  O75  1  0.65279727  0.28474089  0.94876970  1
  O  O76  1  0.50238099  0.63626622  0.32883464  1
  O  O77  1  0.00238099  0.13626622  0.17116536  1
  O  O78  1  0.49761901  0.36373378  0.67116536  1
  O  O79  1  0.99761901  0.86373378  0.82883464  1
  O  O80  1  0.62099468  0.38240653  0.38812547  1
  O  O81  1  0.12099468  0.88240653  0.11187453  1
  O  O82  1  0.37900532  0.61759347  0.61187453  1
  O  O83  1  0.87900532  0.11759347  0.88812547  1
  O  O84  1  0.21002722  0.25250137  0.34839818  1
  O  O85  1  0.71002722  0.75250137  0.15160182  1
  O  O86  1  0.78997278  0.74749863  0.65160182  1
  O  O87  1  0.28997278  0.24749863  0.84839818  1
  O  O88  1  0.89166406  0.60778685  0.27483998  1
  O  O89  1  0.39166406  0.10778685  0.22516002  1
  O  O90  1  0.10833594  0.39221315  0.72516002  1
  O  O91  1  0.60833594  0.89221315  0.77483998  1
