# generated using pymatgen
data_AgPHNO2
_symmetry_space_group_name_H-M   'P 1'
_cell_length_a   7.91993323
_cell_length_b   10.13646569
_cell_length_c   12.09220147
_cell_angle_alpha   107.61592228
_cell_angle_beta   90.00000000
_cell_angle_gamma   90.00000000
_symmetry_Int_Tables_number   1
_chemical_formula_structural   AgPHNO2
_chemical_formula_sum   'Ag12 P12 H12 N12 O24'
_cell_volume   925.24112408
_cell_formula_units_Z   12
loop_
 _symmetry_equiv_pos_site_id
 _symmetry_equiv_pos_as_xyz
  1  'x, y, z'
loop_
 _atom_site_type_symbol
 _atom_site_label
 _atom_site_symmetry_multiplicity
 _atom_site_fract_x
 _atom_site_fract_y
 _atom_site_fract_z
 _atom_site_occupancy
  Ag  Ag0  1  0.44007829  0.27039188  0.23947094  1
  Ag  Ag1  1  0.94007829  0.22960812  0.76052906  1
  Ag  Ag2  1  0.55992171  0.72960812  0.76052906  1
  Ag  Ag3  1  0.05992171  0.77039188  0.23947094  1
  Ag  Ag4  1  0.42415083  0.56514869  0.14352461  1
  Ag  Ag5  1  0.92415083  0.93485131  0.85647539  1
  Ag  Ag6  1  0.57584917  0.43485131  0.85647539  1
  Ag  Ag7  1  0.07584917  0.06514869  0.14352461  1
  Ag  Ag8  1  0.34833834  0.66452714  0.44039199  1
  Ag  Ag9  1  0.84833834  0.83547286  0.55960801  1
  Ag  Ag10  1  0.65166166  0.33547286  0.55960801  1
  Ag  Ag11  1  0.15166166  0.16452714  0.44039199  1
  P  P12  1  0.05476251  0.42242729  0.26302965  1
  P  P13  1  0.55476251  0.07757271  0.73697035  1
  P  P14  1  0.94523749  0.57757271  0.73697035  1
  P  P15  1  0.44523749  0.92242729  0.26302965  1
  P  P16  1  0.77339235  0.37399256  0.08894153  1
  P  P17  1  0.27339235  0.12600744  0.91105847  1
  P  P18  1  0.22660765  0.62600744  0.91105847  1
  P  P19  1  0.72660765  0.87399256  0.08894153  1
  P  P20  1  0.71726295  0.55313092  0.32985663  1
  P  P21  1  0.21726295  0.94686908  0.67014337  1
  P  P22  1  0.28273705  0.44686908  0.67014337  1
  P  P23  1  0.78273705  0.05313092  0.32985663  1
  H  H24  1  0.05916408  0.35601995  0.05791434  1
  H  H25  1  0.55916408  0.14398005  0.94208566  1
  H  H26  1  0.94083592  0.64398005  0.94208566  1
  H  H27  1  0.44083592  0.85601995  0.05791434  1
  H  H28  1  0.75096005  0.61057266  0.15850995  1
  H  H29  1  0.25096005  0.88942734  0.84149005  1
  H  H30  1  0.24903995  0.38942734  0.84149005  1
  H  H31  1  0.74903995  0.11057266  0.15850995  1
  H  H32  1  0.83356198  0.35994841  0.35851691  1
  H  H33  1  0.33356198  0.14005159  0.64148309  1
  H  H34  1  0.16643802  0.64005159  0.64148309  1
  H  H35  1  0.66643802  0.85994841  0.35851691  1
  N  N36  1  0.97731301  0.36825723  0.12605202  1
  N  N37  1  0.47731301  0.13174277  0.87394798  1
  N  N38  1  0.02268699  0.63174277  0.87394798  1
  N  N39  1  0.52268699  0.86825723  0.12605202  1
  N  N40  1  0.69759471  0.52831983  0.18144846  1
  N  N41  1  0.19759471  0.97168017  0.81855154  1
  N  N42  1  0.30240529  0.47168017  0.81855154  1
  N  N43  1  0.80240529  0.02831983  0.18144846  1
  N  N44  1  0.87592771  0.44863073  0.34131589  1
  N  N45  1  0.37592771  0.05136927  0.65868411  1
  N  N46  1  0.12407229  0.55136927  0.65868411  1
  N  N47  1  0.62407229  0.94863073  0.34131589  1
  O  O48  1  0.15030080  0.30616103  0.29076406  1
  O  O49  1  0.65030080  0.19383897  0.70923594  1
  O  O50  1  0.84969920  0.69383897  0.70923594  1
  O  O51  1  0.34969920  0.80616103  0.29076406  1
  O  O52  1  0.15300817  0.55612317  0.27979380  1
  O  O53  1  0.65300817  0.94387683  0.72020620  1
  O  O54  1  0.84699183  0.44387683  0.72020620  1
  O  O55  1  0.34699183  0.05612317  0.27979380  1
  O  O56  1  0.67144141  0.25888079  0.11315420  1
  O  O57  1  0.17144141  0.24111921  0.88684580  1
  O  O58  1  0.32855859  0.74111921  0.88684580  1
  O  O59  1  0.82855859  0.75888079  0.11315420  1
  O  O60  1  0.77554082  0.38548598  0.96720380  1
  O  O61  1  0.27554082  0.11451402  0.03279620  1
  O  O62  1  0.22445918  0.61451402  0.03279620  1
  O  O63  1  0.72445918  0.88548598  0.96720380  1
  O  O64  1  0.56002506  0.49923759  0.37262595  1
  O  O65  1  0.06002506  0.00076241  0.62737405  1
  O  O66  1  0.43997494  0.50076241  0.62737405  1
  O  O67  1  0.93997494  0.99923759  0.37262595  1
  O  O68  1  0.76410866  0.70469248  0.37998735  1
  O  O69  1  0.26410866  0.79530752  0.62001265  1
  O  O70  1  0.23589134  0.29530752  0.62001265  1
  O  O71  1  0.73589134  0.20469248  0.37998735  1
