# generated using pymatgen
data_Zn3P4H24C6(NO6)2
_symmetry_space_group_name_H-M   'P 1'
_cell_length_a   8.69881530
_cell_length_b   9.39920941
_cell_length_c   16.47242122
_cell_angle_alpha   79.81237887
_cell_angle_beta   74.68997618
_cell_angle_gamma   62.43582324
_symmetry_Int_Tables_number   1
_chemical_formula_structural   Zn3P4H24C6(NO6)2
_chemical_formula_sum   'Zn6 P8 H48 C12 N4 O24'
_cell_volume   1149.21513006
_cell_formula_units_Z   2
loop_
 _symmetry_equiv_pos_site_id
 _symmetry_equiv_pos_as_xyz
  1  'x, y, z'
loop_
 _atom_site_type_symbol
 _atom_site_label
 _atom_site_symmetry_multiplicity
 _atom_site_fract_x
 _atom_site_fract_y
 _atom_site_fract_z
 _atom_site_occupancy
  Zn  Zn0  1  0.65814608  0.25000000  0.75000000  1
  Zn  Zn1  1  0.34185392  0.75000000  0.25000000  1
  Zn  Zn2  1  0.75572256  0.25195476  0.47925633  1
  Zn  Zn3  1  0.48693365  0.24804524  0.02074367  1
  Zn  Zn4  1  0.24427744  0.74804524  0.52074367  1
  Zn  Zn5  1  0.51306635  0.75195476  0.97925633  1
  P  P6  1  0.39862504  0.39261741  0.62192990  1
  P  P7  1  0.41317235  0.10738259  0.87807010  1
  P  P8  1  0.60137496  0.60738259  0.37807010  1
  P  P9  1  0.58682765  0.89261741  0.12192990  1
  P  P10  1  0.03174895  0.09987767  0.60467676  1
  P  P11  1  0.73630338  0.40012233  0.89532324  1
  P  P12  1  0.96825105  0.90012233  0.39532324  1
  P  P13  1  0.26369662  0.59987767  0.10467676  1
  H  H14  1  0.12261754  0.17527115  0.62597870  1
  H  H15  1  0.92386739  0.32472885  0.87402130  1
  H  H16  1  0.87738246  0.82472885  0.37402130  1
  H  H17  1  0.07613261  0.67527115  0.12597870  1
  H  H18  1  0.29739756  0.30969673  0.66528048  1
  H  H19  1  0.27237478  0.19030327  0.83471952  1
  H  H20  1  0.70260244  0.69030327  0.33471952  1
  H  H21  1  0.72762522  0.80969673  0.16528048  1
  H  H22  1  0.12099562  0.23479632  0.43203420  1
  H  H23  1  0.78782615  0.26520368  0.06796580  1
  H  H24  1  0.87900438  0.76520368  0.56796580  1
  H  H25  1  0.21217385  0.73479632  0.93203420  1
  H  H26  1  0.28381951  0.28127558  0.25106959  1
  H  H27  1  0.81616468  0.21872442  0.24893041  1
  H  H28  1  0.71618049  0.71872442  0.74893041  1
  H  H29  1  0.18383532  0.78127558  0.75106959  1
  H  H30  1  0.19835345  0.13632077  0.29296211  1
  H  H31  1  0.62763633  0.36367923  0.20703789  1
  H  H32  1  0.80164655  0.86367923  0.70703789  1
  H  H33  1  0.37236367  0.63632077  0.79296211  1
  H  H34  1  0.05141190  0.34731247  0.29630408  1
  H  H35  1  0.69502845  0.15268753  0.20369592  1
  H  H36  1  0.94858810  0.65268753  0.70369592  1
  H  H37  1  0.30497155  0.84731247  0.79630408  1
  H  H38  1  0.30758909  0.43923936  0.35722924  1
  H  H39  1  0.10405769  0.06076064  0.14277076  1
  H  H40  1  0.69241091  0.56076064  0.64277076  1
  H  H41  1  0.89594231  0.93923936  0.85722924  1
  H  H42  1  0.07115709  0.51162784  0.38131050  1
  H  H43  1  0.96409544  0.98837216  0.11868950  1
  H  H44  1  0.92884291  0.48837216  0.61868950  1
  H  H45  1  0.03590456  0.01162784  0.88131050  1
  H  H46  1  0.19383400  0.42617834  0.46383029  1
  H  H47  1  0.08384263  0.07382166  0.03616971  1
  H  H48  1  0.80616600  0.57382166  0.53616971  1
  H  H49  1  0.91615737  0.92617834  0.96383029  1
  H  H50  1  0.41310027  0.13686910  0.45853869  1
  H  H51  1  0.00850805  0.36313090  0.04146131  1
  H  H52  1  0.58689973  0.86313090  0.54146131  1
  H  H53  1  0.99149195  0.63686910  0.95853869  1
  H  H54  1  0.40345298  0.01254782  0.39041701  1
  H  H55  1  0.80641781  0.48745218  0.10958299  1
  H  H56  1  0.59654702  0.98745218  0.60958299  1
  H  H57  1  0.19358219  0.51254782  0.89041701  1
  H  H58  1  0.49594349  0.15282550  0.34794939  1
  H  H59  1  0.99671838  0.34717450  0.15205061  1
  H  H60  1  0.50405651  0.84717450  0.65205061  1
  H  H61  1  0.00328162  0.65282550  0.84794939  1
  C  C62  1  0.18557064  0.25532837  0.30005648  1
  C  C63  1  0.74095549  0.24467163  0.19994352  1
  C  C64  1  0.81442936  0.74467163  0.69994352  1
  C  C65  1  0.25904451  0.75532837  0.80005648  1
  C  C66  1  0.19570648  0.42029241  0.39771112  1
  C  C67  1  0.01371001  0.07970759  0.10228888  1
  C  C68  1  0.80429352  0.57970759  0.60228888  1
  C  C69  1  0.98628999  0.92029241  0.89771112  1
  C  C70  1  0.39452290  0.13056163  0.39628398  1
  C  C71  1  0.92136851  0.36943837  0.10371602  1
  C  C72  1  0.60547710  0.86943837  0.60371602  1
  C  C73  1  0.07863149  0.63056163  0.89628398  1
  N  N74  1  0.21641142  0.25833149  0.38476829  1
  N  N75  1  0.85951120  0.24166851  0.11523171  1
  N  N76  1  0.78358858  0.74166851  0.61523171  1
  N  N77  1  0.14048880  0.75833149  0.88476829  1
  O  O78  1  0.97068418  0.19962420  0.52343995  1
  O  O79  1  0.69374833  0.30037580  0.97656005  1
  O  O80  1  0.02931582  0.80037580  0.47656005  1
  O  O81  1  0.30625167  0.69962420  0.02343995  1
  O  O82  1  0.87856702  0.10946584  0.67882513  1
  O  O83  1  0.66685799  0.39053416  0.82117487  1
  O  O84  1  0.12143298  0.89053416  0.32117487  1
  O  O85  1  0.33314201  0.60946584  0.17882513  1
  O  O86  1  0.52799549  0.28177191  0.55070838  1
  O  O87  1  0.36047578  0.21822809  0.94929162  1
  O  O88  1  0.47200451  0.71822809  0.44929162  1
  O  O89  1  0.63952422  0.78177191  0.05070838  1
  O  O90  1  0.49101747  0.41290402  0.68386597  1
  O  O91  1  0.58778746  0.08709598  0.81613403  1
  O  O92  1  0.50898253  0.58709598  0.31613403  1
  O  O93  1  0.41221254  0.91290402  0.18386597  1
  O  O94  1  0.73984479  0.44535160  0.40691623  1
  O  O95  1  0.59211262  0.05464840  0.09308377  1
  O  O96  1  0.26015521  0.55464840  0.59308377  1
  O  O97  1  0.40788738  0.94535160  0.90691623  1
  O  O98  1  0.83136044  0.07377704  0.40908841  1
  O  O99  1  0.31422589  0.42622296  0.09091159  1
  O  O100  1  0.16863956  0.92622296  0.59091159  1
  O  O101  1  0.68577411  0.57377704  0.90908841  1
