# generated using pymatgen
data_K(IO3)2
_symmetry_space_group_name_H-M   'P 1'
_cell_length_a   7.14977120
_cell_length_b   7.14977120
_cell_length_c   20.61412486
_cell_angle_alpha   96.41792394
_cell_angle_beta   96.41792394
_cell_angle_gamma   110.82016174
_symmetry_Int_Tables_number   1
_chemical_formula_structural   K(IO3)2
_chemical_formula_sum   'K6 I12 O36'
_cell_volume   965.68504027
_cell_formula_units_Z   6
loop_
 _symmetry_equiv_pos_site_id
 _symmetry_equiv_pos_as_xyz
  1  'x, y, z'
loop_
 _atom_site_type_symbol
 _atom_site_label
 _atom_site_symmetry_multiplicity
 _atom_site_fract_x
 _atom_site_fract_y
 _atom_site_fract_z
 _atom_site_occupancy
  K  K0  1  0.88372751  0.91527822  0.30089808  1
  K  K1  1  0.08472178  0.11627249  0.69910192  1
  K  K2  1  0.13561987  0.66717057  0.80089808  1
  K  K3  1  0.33282943  0.86438013  0.19910192  1
  K  K4  1  0.97994886  0.02005114  0.50000000  1
  K  K5  1  0.22994886  0.77005114  0.00000000  1
  I  I6  1  0.94975805  0.46726391  0.39863659  1
  I  I7  1  0.53273609  0.05024195  0.60136341  1
  I  I8  1  0.68137268  0.69887854  0.89863659  1
  I  I9  1  0.30112146  0.31862732  0.10136341  1
  I  I10  1  0.43310856  0.98688008  0.40063763  1
  I  I11  1  0.01311992  0.56689144  0.59936237  1
  I  I12  1  0.16375754  0.21752907  0.90063763  1
  I  I13  1  0.78247093  0.83624246  0.09936237  1
  I  I14  1  0.37233304  0.40304264  0.31853119  1
  I  I15  1  0.59695736  0.62766696  0.68146881  1
  I  I16  1  0.66548855  0.19619815  0.81853119  1
  I  I17  1  0.80380185  0.33451145  0.18146881  1
  O  O18  1  0.78014313  0.50582489  0.33252310  1
  O  O19  1  0.49417511  0.21985687  0.66747690  1
  O  O20  1  0.57669821  0.80237997  0.83252310  1
  O  O21  1  0.19762003  0.42330179  0.16747690  1
  O  O22  1  0.82586790  0.19277151  0.39721864  1
  O  O23  1  0.80722849  0.17413210  0.60278136  1
  O  O24  1  0.95444713  0.82135074  0.89721864  1
  O  O25  1  0.17864926  0.04555287  0.10278136  1
  O  O26  1  0.83200985  0.55558198  0.46890325  1
  O  O27  1  0.44441802  0.16799015  0.53109675  1
  O  O28  1  0.66332127  0.88689340  0.96890325  1
  O  O29  1  0.11310660  0.33667873  0.03109675  1
  O  O30  1  0.53220381  0.89665066  0.47478861  1
  O  O31  1  0.10334934  0.46779619  0.52521139  1
  O  O32  1  0.32813796  0.19258481  0.97478861  1
  O  O33  1  0.80741519  0.67186204  0.02521139  1
  O  O34  1  0.15944533  0.85414390  0.40116248  1
  O  O35  1  0.14585610  0.84055467  0.59883752  1
  O  O36  1  0.29701858  0.49171715  0.90116248  1
  O  O37  1  0.50828285  0.70298142  0.09883752  1
  O  O38  1  0.47458751  0.81376872  0.33623066  1
  O  O39  1  0.18623128  0.52541249  0.66376934  1
  O  O40  1  0.27246194  0.11164314  0.83623066  1
  O  O41  1  0.88835686  0.72753806  0.16376934  1
  O  O42  1  0.41599741  0.43006911  0.40795586  1
  O  O43  1  0.56993089  0.58400259  0.59204414  1
  O  O44  1  0.72788674  0.24195844  0.90795586  1
  O  O45  1  0.75804156  0.27211326  0.09204414  1
  O  O46  1  0.10326779  0.38966625  0.30773780  1
  O  O47  1  0.61033375  0.89673221  0.69226220  1
  O  O48  1  0.66807155  0.45447001  0.80773780  1
  O  O49  1  0.54552999  0.33192845  0.19226220  1
  O  O50  1  0.30786378  0.12610068  0.29969849  1
  O  O51  1  0.87389932  0.69213622  0.70030151  1
  O  O52  1  0.92359781  0.24183470  0.79969849  1
  O  O53  1  0.75816530  0.07640219  0.20030151  1
