# generated using pymatgen
data_Al4Fe(SiO6)2
_symmetry_space_group_name_H-M   'P 1'
_cell_length_a   5.64076869
_cell_length_b   7.87358881
_cell_length_c   9.37295396
_cell_angle_alpha   114.83562620
_cell_angle_beta   90.00000000
_cell_angle_gamma   90.00000000
_symmetry_Int_Tables_number   1
_chemical_formula_structural   Al4Fe(SiO6)2
_chemical_formula_sum   'Al8 Fe2 Si4 O24'
_cell_volume   377.78266873
_cell_formula_units_Z   2
loop_
 _symmetry_equiv_pos_site_id
 _symmetry_equiv_pos_as_xyz
  1  'x, y, z'
loop_
 _atom_site_type_symbol
 _atom_site_label
 _atom_site_symmetry_multiplicity
 _atom_site_fract_x
 _atom_site_fract_y
 _atom_site_fract_z
 _atom_site_occupancy
  Al  Al0  1  0.50000000  0.67310254  0.34620508  1
  Al  Al1  1  -0.00000000  0.67310254  0.34620508  1
  Al  Al2  1  0.50000000  0.32689746  0.65379492  1
  Al  Al3  1  -0.00000000  0.32689746  0.65379492  1
  Al  Al4  1  0.25000000  0.85625552  0.17179458  1
  Al  Al5  1  0.75000000  0.31553907  0.17179458  1
  Al  Al6  1  0.75000000  0.14374448  0.82820542  1
  Al  Al7  1  0.25000000  0.68446093  0.82820542  1
  Fe  Fe8  1  0.25000000  0.37597640  1.00000000  1
  Fe  Fe9  1  0.75000000  0.62402360  0.00000000  1
  Si  Si10  1  0.25000000  0.96574103  0.66198918  1
  Si  Si11  1  0.75000000  0.69624815  0.66198918  1
  Si  Si12  1  0.75000000  0.03425897  0.33801082  1
  Si  Si13  1  0.25000000  0.30375185  0.33801082  1
  O  O14  1  0.53457405  0.25465281  0.00000000  1
  O  O15  1  0.46542595  0.74534719  1.00000000  1
  O  O16  1  0.96542595  0.25465281  0.00000000  1
  O  O17  1  0.03457405  0.74534719  1.00000000  1
  O  O18  1  0.48569376  0.09732115  0.67786681  1
  O  O19  1  0.51430624  0.58054566  0.67786681  1
  O  O20  1  0.01430624  0.09732115  0.67786681  1
  O  O21  1  0.98569376  0.58054566  0.67786681  1
  O  O22  1  0.51430624  0.90267885  0.32213319  1
  O  O23  1  0.48569376  0.41945434  0.32213319  1
  O  O24  1  0.98569376  0.90267885  0.32213319  1
  O  O25  1  0.01430624  0.41945434  0.32213319  1
  O  O26  1  0.25000000  0.90277805  0.80610020  1
  O  O27  1  0.75000000  0.90332215  0.80610020  1
  O  O28  1  0.75000000  0.09722195  0.19389980  1
  O  O29  1  0.25000000  0.09667785  0.19389980  1
  O  O30  1  0.25000000  0.77381938  0.49329598  1
  O  O31  1  0.75000000  0.71947660  0.49329598  1
  O  O32  1  0.75000000  0.22618062  0.50670402  1
  O  O33  1  0.25000000  0.28052340  0.50670402  1
  O  O34  1  0.25000000  0.61625616  0.19303914  1
  O  O35  1  0.75000000  0.57678298  0.19303914  1
  O  O36  1  0.75000000  0.38374384  0.80696086  1
  O  O37  1  0.25000000  0.42321702  0.80696086  1
