# generated using pymatgen
data_AlH21C3(SO5)3
_symmetry_space_group_name_H-M   'P 1'
_cell_length_a   6.54218437
_cell_length_b   16.92847225
_cell_length_c   17.74317514
_cell_angle_alpha   117.31571068
_cell_angle_beta   90.00000000
_cell_angle_gamma   90.00000000
_symmetry_Int_Tables_number   1
_chemical_formula_structural   AlH21C3(SO5)3
_chemical_formula_sum   'Al4 H84 C12 S12 O60'
_cell_volume   1745.92317849
_cell_formula_units_Z   4
loop_
 _symmetry_equiv_pos_site_id
 _symmetry_equiv_pos_as_xyz
  1  'x, y, z'
loop_
 _atom_site_type_symbol
 _atom_site_label
 _atom_site_symmetry_multiplicity
 _atom_site_fract_x
 _atom_site_fract_y
 _atom_site_fract_z
 _atom_site_occupancy
  Al  Al0  1  0.99085509  0.09302692  0.87605218  1
  Al  Al1  1  0.50914491  0.59302692  0.37605218  1
  Al  Al2  1  0.00914491  0.90697308  0.12394782  1
  Al  Al3  1  0.49085509  0.40697308  0.62394782  1
  H  H4  1  0.03888367  0.14376986  0.75986649  1
  H  H5  1  0.46111633  0.64376986  0.25986649  1
  H  H6  1  0.96111633  0.85623014  0.24013351  1
  H  H7  1  0.53888367  0.35623014  0.74013351  1
  H  H8  1  0.14590205  0.21724996  0.84818436  1
  H  H9  1  0.35409795  0.71724996  0.34818436  1
  H  H10  1  0.85409795  0.78275004  0.15181564  1
  H  H11  1  0.64590205  0.28275004  0.65181564  1
  H  H12  1  0.34477562  0.01918814  0.81341657  1
  H  H13  1  0.15522438  0.51918814  0.31341657  1
  H  H14  1  0.65522438  0.98081186  0.18658343  1
  H  H15  1  0.84477562  0.48081186  0.68658343  1
  H  H16  1  0.26370541  0.98841787  0.88170174  1
  H  H17  1  0.23629459  0.48841787  0.38170174  1
  H  H18  1  0.73629459  0.01158213  0.11829826  1
  H  H19  1  0.76370541  0.51158213  0.61829826  1
  H  H20  1  0.76317969  0.98754463  0.75055385  1
  H  H21  1  0.73682031  0.48754463  0.25055385  1
  H  H22  1  0.23682031  0.01245537  0.24944615  1
  H  H23  1  0.26317969  0.51245537  0.74944615  1
  H  H24  1  0.01061425  0.96508540  0.72584144  1
  H  H25  1  0.48938575  0.46508540  0.22584144  1
  H  H26  1  0.98938575  0.03491460  0.27415856  1
  H  H27  1  0.51061425  0.53491460  0.77415856  1
  H  H28  1  0.03924497  0.24368608  0.01913577  1
  H  H29  1  0.46075503  0.74368608  0.51913577  1
  H  H30  1  0.96075503  0.75631392  0.98086423  1
  H  H31  1  0.53924497  0.25631392  0.48086423  1
  H  H32  1  0.23374456  0.17790285  0.99984355  1
  H  H33  1  0.26625544  0.67790285  0.49984355  1
  H  H34  1  0.76625544  0.82209715  0.00015645  1
  H  H35  1  0.73374456  0.32209715  0.50015645  1
  H  H36  1  0.67172955  0.18394172  0.86886185  1
  H  H37  1  0.82827045  0.68394172  0.36886185  1
  H  H38  1  0.32827045  0.81605828  0.13113815  1
  H  H39  1  0.17172955  0.31605828  0.63113815  1
  H  H40  1  0.64177467  0.15173342  0.94275463  1
  H  H41  1  0.85822533  0.65173342  0.44275463  1
  H  H42  1  0.35822533  0.84826658  0.05724537  1
  H  H43  1  0.14177467  0.34826658  0.55724537  1
  H  H44  1  0.81458206  0.97314533  0.90540872  1
  H  H45  1  0.68541794  0.47314533  0.40540872  1
  H  H46  1  0.18541794  0.02685467  0.09459128  1
  H  H47  1  0.31458206  0.52685467  0.59459128  1
  H  H48  1  0.83883744  0.05958815  0.99340478  1
  H  H49  1  0.66116256  0.55958815  0.49340478  1
  H  H50  1  0.16116256  0.94041185  0.00659522  1
  H  H51  1  0.33883744  0.44041185  0.50659522  1
  H  H52  1  0.38196906  0.95794849  0.53631311  1
  H  H53  1  0.11803094  0.45794849  0.03631311  1
  H  H54  1  0.61803094  0.04205151  0.46368689  1
  H  H55  1  0.88196906  0.54205151  0.96368689  1
  H  H56  1  0.59902634  0.01482359  0.60228520  1
  H  H57  1  0.90097366  0.51482359  0.10228520  1
  H  H58  1  0.40097366  0.98517641  0.39771480  1
  H  H59  1  0.09902634  0.48517641  0.89771480  1
  H  H60  1  0.34491821  0.05507878  0.63779048  1
  H  H61  1  0.15508179  0.55507878  0.13779048  1
  H  H62  1  0.65508179  0.94492122  0.36220952  1
  H  H63  1  0.84491821  0.44492122  0.86220952  1
  H  H64  1  0.45797285  0.29988905  0.19803148  1
  H  H65  1  0.04202715  0.79988905  0.69803148  1
  H  H66  1  0.54202715  0.70011095  0.80196852  1
  H  H67  1  0.95797285  0.20011095  0.30196852  1
  H  H68  1  0.72435620  0.28136441  0.17106513  1
  H  H69  1  0.77564380  0.78136441  0.67106513  1
  H  H70  1  0.27564380  0.71863559  0.82893487  1
  H  H71  1  0.22435620  0.21863559  0.32893487  1
  H  H72  1  0.61436572  0.24415278  0.24263349  1
  H  H73  1  0.88563428  0.74415278  0.74263349  1
  H  H74  1  0.38563428  0.75584722  0.75736651  1
  H  H75  1  0.11436572  0.25584722  0.25736651  1
  H  H76  1  0.52168573  0.44040285  0.01686819  1
  H  H77  1  0.97831427  0.94040285  0.51686819  1
  H  H78  1  0.47831427  0.55959715  0.98313181  1
  H  H79  1  0.02168573  0.05959715  0.48313181  1
  H  H80  1  0.74582382  0.37630952  0.96500543  1
  H  H81  1  0.75417618  0.87630952  0.46500543  1
  H  H82  1  0.25417618  0.62369048  0.03499457  1
  H  H83  1  0.24582382  0.12369048  0.53499457  1
  H  H84  1  0.55720989  0.33247919  0.00963310  1
  H  H85  1  0.94279011  0.83247919  0.50963310  1
  H  H86  1  0.44279011  0.66752081  0.99036690  1
  H  H87  1  0.05720989  0.16752081  0.49036690  1
  C  C88  1  0.43841735  0.99590308  0.60140695  1
  C  C89  1  0.06158265  0.49590308  0.10140695  1
  C  C90  1  0.56158265  0.00409692  0.39859305  1
  C  C91  1  0.93841735  0.50409692  0.89859305  1
  C  C92  1  0.58740644  0.25480309  0.18703139  1
  C  C93  1  0.91259356  0.75480309  0.68703139  1
  C  C94  1  0.41259356  0.74519691  0.81296861  1
  C  C95  1  0.08740644  0.24519691  0.31296861  1
  C  C96  1  0.58282930  0.37360434  0.97756311  1
  C  C97  1  0.91717070  0.87360434  0.47756311  1
  C  C98  1  0.41717070  0.62639566  0.02243689  1
  C  C99  1  0.08282930  0.12639566  0.52243689  1
  S  S100  1  0.41921832  0.92593324  0.65087592  1
  S  S101  1  0.08078168  0.42593324  0.15087592  1
  S  S102  1  0.58078168  0.07406676  0.34912408  1
  S  S103  1  0.91921832  0.57406676  0.84912408  1
  S  S104  1  0.52423998  0.15123620  0.10005183  1
  S  S105  1  0.97576002  0.65123620  0.60005183  1
  S  S106  1  0.47576002  0.84876380  0.89994817  1
  S  S107  1  0.02423998  0.34876380  0.39994817  1
  S  S108  1  0.45798709  0.32196740  0.87735359  1
  S  S109  1  0.04201291  0.82196740  0.37735359  1
  S  S110  1  0.54201291  0.67803260  0.12264641  1
  S  S111  1  0.95798709  0.17803260  0.62264641  1
  O  O112  1  0.51675178  0.97679955  0.73603346  1
  O  O113  1  0.98324822  0.47679955  0.23603346  1
  O  O114  1  0.48324822  0.02320045  0.26396654  1
  O  O115  1  0.01675178  0.52320045  0.76396654  1
  O  O116  1  0.20069122  0.91123621  0.65964465  1
  O  O117  1  0.29930878  0.41123621  0.15964465  1
  O  O118  1  0.79930878  0.08876379  0.34035535  1
  O  O119  1  0.70069122  0.58876379  0.84035535  1
  O  O120  1  0.53255456  0.84399406  0.59822940  1
  O  O121  1  0.96744544  0.34399406  0.09822940  1
  O  O122  1  0.46744544  0.15600594  0.40177060  1
  O  O123  1  0.03255456  0.65600594  0.90177060  1
  O  O124  1  0.48333520  0.16918050  0.02658402  1
  O  O125  1  0.01666480  0.66918050  0.52658402  1
  O  O126  1  0.51666480  0.83081950  0.97341598  1
  O  O127  1  0.98333520  0.33081950  0.47341598  1
  O  O128  1  0.70796164  0.09338417  0.08313869  1
  O  O129  1  0.79203836  0.59338417  0.58313869  1
  O  O130  1  0.29203836  0.90661583  0.91686131  1
  O  O131  1  0.20796164  0.40661583  0.41686131  1
  O  O132  1  0.34535204  0.11751033  0.12535005  1
  O  O133  1  0.15464796  0.61751033  0.62535005  1
  O  O134  1  0.65464796  0.88248967  0.87464995  1
  O  O135  1  0.84535204  0.38248967  0.37464995  1
  O  O136  1  0.24118617  0.31228978  0.89540086  1
  O  O137  1  0.25881383  0.81228978  0.39540086  1
  O  O138  1  0.75881383  0.68771022  0.10459914  1
  O  O139  1  0.74118617  0.18771022  0.60459914  1
  O  O140  1  0.48375632  0.38192692  0.83844557  1
  O  O141  1  0.01624368  0.88192692  0.33844557  1
  O  O142  1  0.51624368  0.61807308  0.16155443  1
  O  O143  1  0.98375632  0.11807308  0.66155443  1
  O  O144  1  0.56204006  0.23584279  0.82855106  1
  O  O145  1  0.93795994  0.73584279  0.32855106  1
  O  O146  1  0.43795994  0.76415721  0.17144894  1
  O  O147  1  0.06204006  0.26415721  0.67144894  1
  O  O148  1  0.08149428  0.15588961  0.81861369  1
  O  O149  1  0.41850572  0.65588961  0.31861369  1
  O  O150  1  0.91850572  0.84411039  0.18138631  1
  O  O151  1  0.58149428  0.34411039  0.68138631  1
  O  O152  1  0.24939703  0.03496840  0.86259268  1
  O  O153  1  0.25060297  0.53496840  0.36259268  1
  O  O154  1  0.75060297  0.96503160  0.13740732  1
  O  O155  1  0.74939703  0.46503160  0.63740732  1
  O  O156  1  0.90806210  0.99727947  0.77149897  1
  O  O157  1  0.59193790  0.49727947  0.27149897  1
  O  O158  1  0.09193790  0.00272053  0.22850103  1
  O  O159  1  0.40806210  0.50272053  0.72850103  1
  O  O160  1  0.09132486  0.18242799  0.98219071  1
  O  O161  1  0.40867514  0.68242799  0.48219071  1
  O  O162  1  0.90867514  0.81757201  0.01780929  1
  O  O163  1  0.59132486  0.31757201  0.51780929  1
  O  O164  1  0.73253347  0.14787225  0.89625617  1
  O  O165  1  0.76746653  0.64787225  0.39625617  1
  O  O166  1  0.26746653  0.85212775  0.10374383  1
  O  O167  1  0.23253347  0.35212775  0.60374383  1
  O  O168  1  0.89746832  0.02827759  0.93469988  1
  O  O169  1  0.60253168  0.52827759  0.43469988  1
  O  O170  1  0.10253168  0.97172241  0.06530012  1
  O  O171  1  0.39746832  0.47172241  0.56530012  1
