# generated using pymatgen
data_AsH9C2S(NO)4
_symmetry_space_group_name_H-M   'P 1'
_cell_length_a   4.90154882
_cell_length_b   8.39457203
_cell_length_c   12.13964940
_cell_angle_alpha   88.88070626
_cell_angle_beta   83.50141078
_cell_angle_gamma   85.65448515
_symmetry_Int_Tables_number   1
_chemical_formula_structural   AsH9C2S(NO)4
_chemical_formula_sum   'As2 H18 C4 S2 N8 O8'
_cell_volume   494.83645154
_cell_formula_units_Z   2
loop_
 _symmetry_equiv_pos_site_id
 _symmetry_equiv_pos_as_xyz
  1  'x, y, z'
loop_
 _atom_site_type_symbol
 _atom_site_label
 _atom_site_symmetry_multiplicity
 _atom_site_fract_x
 _atom_site_fract_y
 _atom_site_fract_z
 _atom_site_occupancy
  As  As0  1  0.74274670  0.34526442  0.39274349  1
  As  As1  1  0.25725330  0.65473558  0.60725651  1
  H  H2  1  0.64927943  0.40066707  0.57902739  1
  H  H3  1  0.35072057  0.59933293  0.42097261  1
  H  H4  1  0.31524361  0.24351269  0.36196809  1
  H  H5  1  0.68475639  0.75648731  0.63803191  1
  H  H6  1  0.84692499  0.62566364  0.25583932  1
  H  H7  1  0.15307501  0.37433636  0.74416068  1
  H  H8  1  0.10816012  0.41666561  0.19203711  1
  H  H9  1  0.89183988  0.58333439  0.80796289  1
  H  H10  1  0.32980815  0.42913875  0.06862721  1
  H  H11  1  0.67019185  0.57086125  0.93137279  1
  H  H12  1  0.64390735  0.99166792  0.36128893  1
  H  H13  1  0.35609265  0.00833208  0.63871107  1
  H  H14  1  0.65818494  0.78242853  0.37889518  1
  H  H15  1  0.34181506  0.21757147  0.62110482  1
  H  H16  1  0.14915593  0.96198701  0.12373606  1
  H  H17  1  0.85084407  0.03801299  0.87626394  1
  H  H18  1  0.99798515  0.09562527  0.23206837  1
  H  H19  1  0.00201485  0.90437473  0.76793163  1
  C  C20  1  0.16105431  0.64540718  0.12681112  1
  C  C21  1  0.83894569  0.35459282  0.87318888  1
  C  C22  1  0.90519995  0.86152390  0.24561135  1
  C  C23  1  0.09480005  0.13847610  0.75438865  1
  S  S24  1  0.34309992  0.75700400  0.03203016  1
  S  S25  1  0.65690008  0.24299600  0.96796984  1
  N  N26  1  0.96636868  0.70719001  0.21020950  1
  N  N27  1  0.03363132  0.29280999  0.78979050  1
  N  N28  1  0.18784217  0.48581022  0.12649434  1
  N  N29  1  0.81215783  0.51418978  0.87350566  1
  N  N30  1  0.72299334  0.88001832  0.33585268  1
  N  N31  1  0.27700666  0.11998168  0.66414732  1
  N  N32  1  0.01548905  0.98555761  0.19426353  1
  N  N33  1  0.98451095  0.01444239  0.80573647  1
  O  O34  1  0.61059546  0.52565417  0.34963819  1
  O  O35  1  0.38940454  0.47434583  0.65036181  1
  O  O36  1  0.03376825  0.27703962  0.31337724  1
  O  O37  1  0.96623175  0.72296038  0.68662276  1
  O  O38  1  0.81283403  0.34235831  0.53099000  1
  O  O39  1  0.18716597  0.65764169  0.46901000  1
  O  O40  1  0.49780794  0.20106270  0.39041361  1
  O  O41  1  0.50219206  0.79893730  0.60958639  1
