# generated using pymatgen
data_CaGe3
_symmetry_space_group_name_H-M   'P 1'
_cell_length_a   7.72293556
_cell_length_b   7.72293556
_cell_length_c   7.91900336
_cell_angle_alpha   119.18429863
_cell_angle_beta   119.18429863
_cell_angle_gamma   90.00000000
_symmetry_Int_Tables_number   1
_chemical_formula_structural   CaGe3
_chemical_formula_sum   'Ca4 Ge12'
_cell_volume   342.04912866
_cell_formula_units_Z   4
loop_
 _symmetry_equiv_pos_site_id
 _symmetry_equiv_pos_as_xyz
  1  'x, y, z'
loop_
 _atom_site_type_symbol
 _atom_site_label
 _atom_site_symmetry_multiplicity
 _atom_site_fract_x
 _atom_site_fract_y
 _atom_site_fract_z
 _atom_site_occupancy
  Ca  Ca0  1  0.16617624  0.16617624  0.33235247  1
  Ca  Ca1  1  0.83382376  0.83382376  0.66764753  1
  Ca  Ca2  1  0.25000000  0.75000000  0.50000000  1
  Ca  Ca3  1  0.75000000  0.25000000  0.50000000  1
  Ge  Ge4  1  0.00000000  0.33095703  0.00000000  1
  Ge  Ge5  1  0.00000000  0.66904297  0.00000000  1
  Ge  Ge6  1  0.33095703  -0.00000000  0.00000000  1
  Ge  Ge7  1  0.66904297  -0.00000000  0.00000000  1
  Ge  Ge8  1  0.79956724  0.43412120  0.23368844  1
  Ge  Ge9  1  0.43412120  0.79956724  0.23368844  1
  Ge  Ge10  1  0.43412120  0.43412120  0.23368844  1
  Ge  Ge11  1  0.79956724  0.79956724  0.23368844  1
  Ge  Ge12  1  0.20043276  0.56587880  0.76631156  1
  Ge  Ge13  1  0.56587880  0.20043276  0.76631156  1
  Ge  Ge14  1  0.56587880  0.56587880  0.76631156  1
  Ge  Ge15  1  0.20043276  0.20043276  0.76631156  1
