# generated using pymatgen
data_RbB6(H9N2)2
_symmetry_space_group_name_H-M   'P 1'
_cell_length_a   8.07201467
_cell_length_b   9.83306934
_cell_length_c   15.06085267
_cell_angle_alpha   90.00000000
_cell_angle_beta   90.00000000
_cell_angle_gamma   90.00000000
_symmetry_Int_Tables_number   1
_chemical_formula_structural   RbB6(H9N2)2
_chemical_formula_sum   'Rb4 B24 H72 N16'
_cell_volume   1195.42023895
_cell_formula_units_Z   4
loop_
 _symmetry_equiv_pos_site_id
 _symmetry_equiv_pos_as_xyz
  1  'x, y, z'
loop_
 _atom_site_type_symbol
 _atom_site_label
 _atom_site_symmetry_multiplicity
 _atom_site_fract_x
 _atom_site_fract_y
 _atom_site_fract_z
 _atom_site_occupancy
  Rb  Rb0  1  0.50000000  0.69865043  0.50000000  1
  Rb  Rb1  1  -0.00000000  0.80134957  0.00000000  1
  Rb  Rb2  1  0.50000000  0.30134957  0.50000000  1
  Rb  Rb3  1  -0.00000000  0.19865043  0.00000000  1
  B  B4  1  0.05444719  0.00000000  0.60902052  1
  B  B5  1  0.94555281  0.00000000  0.39097948  1
  B  B6  1  0.44555281  0.50000000  0.10902052  1
  B  B7  1  0.55444719  0.50000000  0.89097948  1
  B  B8  1  0.20566645  -0.00000000  0.52247193  1
  B  B9  1  0.79433355  0.00000000  0.47752807  1
  B  B10  1  0.29433355  0.50000000  0.02247193  1
  B  B11  1  0.70566645  0.50000000  0.97752807  1
  B  B12  1  0.08042028  0.85369355  0.54070951  1
  B  B13  1  0.91957972  0.85369355  0.45929049  1
  B  B14  1  0.41957972  0.64630645  0.04070951  1
  B  B15  1  0.58042028  0.64630645  0.95929049  1
  B  B16  1  0.91957972  0.14630645  0.45929049  1
  B  B17  1  0.08042028  0.14630645  0.54070951  1
  B  B18  1  0.58042028  0.35369355  0.95929049  1
  B  B19  1  0.41957972  0.35369355  0.04070951  1
  B  B20  1  0.87789250  0.90938608  0.56973834  1
  B  B21  1  0.12210750  0.90938608  0.43026166  1
  B  B22  1  0.62210750  0.59061392  0.06973834  1
  B  B23  1  0.37789250  0.59061392  0.93026166  1
  B  B24  1  0.12210750  0.09061392  0.43026166  1
  B  B25  1  0.87789250  0.09061392  0.56973834  1
  B  B26  1  0.37789250  0.40938608  0.93026166  1
  B  B27  1  0.62210750  0.40938608  0.06973834  1
  H  H28  1  0.46371161  0.75409122  0.76395995  1
  H  H29  1  0.53628839  0.75409122  0.23604005  1
  H  H30  1  0.03628839  0.74590878  0.26395995  1
  H  H31  1  0.96371161  0.74590878  0.73604005  1
  H  H32  1  0.53628839  0.24590878  0.23604005  1
  H  H33  1  0.46371161  0.24590878  0.76395995  1
  H  H34  1  0.96371161  0.25409122  0.73604005  1
  H  H35  1  0.03628839  0.25409122  0.26395995  1
  H  H36  1  0.35397520  0.85141920  0.69720201  1
  H  H37  1  0.64602480  0.85141920  0.30279799  1
  H  H38  1  0.14602480  0.64858080  0.19720201  1
  H  H39  1  0.85397520  0.64858080  0.80279799  1
  H  H40  1  0.64602480  0.14858080  0.30279799  1
  H  H41  1  0.35397520  0.14858080  0.69720201  1
  H  H42  1  0.85397520  0.35141920  0.80279799  1
  H  H43  1  0.14602480  0.35141920  0.19720201  1
  H  H44  1  0.55725280  0.85992346  0.69643400  1
  H  H45  1  0.44274720  0.85992346  0.30356600  1
  H  H46  1  0.94274720  0.64007654  0.19643400  1
  H  H47  1  0.05725280  0.64007654  0.80356600  1
  H  H48  1  0.44274720  0.14007654  0.30356600  1
  H  H49  1  0.55725280  0.14007654  0.69643400  1
  H  H50  1  0.05725280  0.35992346  0.80356600  1
  H  H51  1  0.94274720  0.35992346  0.19643400  1
  H  H52  1  0.21095408  0.50000000  0.62886508  1
  H  H53  1  0.78904592  0.50000000  0.37113492  1
  H  H54  1  0.28904592  0.00000000  0.12886508  1
  H  H55  1  0.71095408  -0.00000000  0.87113492  1
  H  H56  1  0.36510633  0.58381904  0.67482398  1
  H  H57  1  0.63489367  0.58381904  0.32517602  1
  H  H58  1  0.13489367  0.91618096  0.17482398  1
  H  H59  1  0.86510633  0.91618096  0.82517602  1
  H  H60  1  0.63489367  0.41618096  0.32517602  1
  H  H61  1  0.36510633  0.41618096  0.67482398  1
  H  H62  1  0.86510633  0.08381904  0.82517602  1
  H  H63  1  0.13489367  0.08381904  0.17482398  1
  H  H64  1  0.77891734  0.50000000  0.64793804  1
  H  H65  1  0.22108266  0.50000000  0.35206196  1
  H  H66  1  0.72108266  0.00000000  0.14793804  1
  H  H67  1  0.27891734  -0.00000000  0.85206196  1
  H  H68  1  0.85502497  0.58327607  0.56352146  1
  H  H69  1  0.14497503  0.58327607  0.43647854  1
  H  H70  1  0.64497503  0.91672393  0.06352146  1
  H  H71  1  0.35502497  0.91672393  0.93647854  1
  H  H72  1  0.14497503  0.41672393  0.43647854  1
  H  H73  1  0.85502497  0.41672393  0.56352146  1
  H  H74  1  0.35502497  0.08327607  0.93647854  1
  H  H75  1  0.64497503  0.08327607  0.06352146  1
  H  H76  1  0.08960854  -0.00000000  0.68695558  1
  H  H77  1  0.91039146  -0.00000000  0.31304442  1
  H  H78  1  0.41039146  0.50000000  0.18695558  1
  H  H79  1  0.58960854  0.50000000  0.81304442  1
  H  H80  1  0.35281395  0.00000000  0.53666682  1
  H  H81  1  0.64718605  0.00000000  0.46333318  1
  H  H82  1  0.14718605  0.50000000  0.03666682  1
  H  H83  1  0.85281395  0.50000000  0.96333318  1
  H  H84  1  0.13790894  0.74988861  0.57026564  1
  H  H85  1  0.86209106  0.74988861  0.42973436  1
  H  H86  1  0.36209106  0.75011139  0.07026564  1
  H  H87  1  0.63790894  0.75011139  0.92973436  1
  H  H88  1  0.86209106  0.25011139  0.42973436  1
  H  H89  1  0.13790894  0.25011139  0.57026564  1
  H  H90  1  0.63790894  0.24988861  0.92973436  1
  H  H91  1  0.36209106  0.24988861  0.07026564  1
  H  H92  1  0.79178707  0.84292979  0.61885125  1
  H  H93  1  0.20821293  0.84292979  0.38114875  1
  H  H94  1  0.70821293  0.65707021  0.11885125  1
  H  H95  1  0.29178707  0.65707021  0.88114875  1
  H  H96  1  0.20821293  0.15707021  0.38114875  1
  H  H97  1  0.79178707  0.15707021  0.61885125  1
  H  H98  1  0.29178707  0.34292979  0.88114875  1
  H  H99  1  0.70821293  0.34292979  0.11885125  1
  N  N100  1  0.45947438  0.79436669  0.70136888  1
  N  N101  1  0.54052562  0.79436669  0.29863112  1
  N  N102  1  0.04052562  0.70563331  0.20136888  1
  N  N103  1  0.95947438  0.70563331  0.79863112  1
  N  N104  1  0.54052562  0.20563331  0.29863112  1
  N  N105  1  0.45947438  0.20563331  0.70136888  1
  N  N106  1  0.95947438  0.29436669  0.79863112  1
  N  N107  1  0.04052562  0.29436669  0.20136888  1
  N  N108  1  0.33593955  0.50000000  0.63806178  1
  N  N109  1  0.66406045  0.50000000  0.36193822  1
  N  N110  1  0.16406045  0.00000000  0.13806178  1
  N  N111  1  0.83593955  0.00000000  0.86193822  1
  N  N112  1  0.78566164  0.50000000  0.58027578  1
  N  N113  1  0.21433836  0.50000000  0.41972422  1
  N  N114  1  0.71433836  0.00000000  0.08027578  1
  N  N115  1  0.28566164  0.00000000  0.91972422  1
