# generated using pymatgen
data_Tm4NiB13
_symmetry_space_group_name_H-M   'P 1'
_cell_length_a   7.24575726
_cell_length_b   7.24575726
_cell_length_c   6.78485116
_cell_angle_alpha   90.00000000
_cell_angle_beta   90.00000000
_cell_angle_gamma   90.00000000
_symmetry_Int_Tables_number   1
_chemical_formula_structural   Tm4NiB13
_chemical_formula_sum   'Tm8 Ni2 B26'
_cell_volume   356.21145902
_cell_formula_units_Z   2
loop_
 _symmetry_equiv_pos_site_id
 _symmetry_equiv_pos_as_xyz
  1  'x, y, z'
loop_
 _atom_site_type_symbol
 _atom_site_label
 _atom_site_symmetry_multiplicity
 _atom_site_fract_x
 _atom_site_fract_y
 _atom_site_fract_z
 _atom_site_occupancy
  Tm  Tm0  1  0.18006374  0.68469242  0.50000000  1
  Tm  Tm1  1  0.81993626  0.31530758  0.50000000  1
  Tm  Tm2  1  0.31993626  0.18469242  -0.00000000  1
  Tm  Tm3  1  0.68006374  0.81530758  0.00000000  1
  Tm  Tm4  1  0.68469242  0.81993626  0.50000000  1
  Tm  Tm5  1  0.31530758  0.18006374  0.50000000  1
  Tm  Tm6  1  0.18469242  0.68006374  -0.00000000  1
  Tm  Tm7  1  0.81530758  0.31993626  0.00000000  1
  Ni  Ni8  1  0.50000000  0.50000000  0.50000000  1
  Ni  Ni9  1  0.00000000  0.00000000  -0.00000000  1
  B  B10  1  0.50000000  0.50000000  0.00000000  1
  B  B11  1  0.00000000  -0.00000000  0.50000000  1
  B  B12  1  0.40865967  0.90865967  0.25000000  1
  B  B13  1  0.59134033  0.09134033  0.25000000  1
  B  B14  1  0.09134033  0.40865967  0.75000000  1
  B  B15  1  0.90865967  0.59134033  0.75000000  1
  B  B16  1  0.90865967  0.59134033  0.25000000  1
  B  B17  1  0.09134033  0.40865967  0.25000000  1
  B  B18  1  0.40865967  0.90865967  0.75000000  1
  B  B19  1  0.59134033  0.09134033  0.75000000  1
  B  B20  1  0.67099490  0.53973089  0.24342207  1
  B  B21  1  0.32900510  0.46026911  0.24342207  1
  B  B22  1  0.82900510  0.03973089  0.74342207  1
  B  B23  1  0.17099490  0.96026911  0.74342207  1
  B  B24  1  0.53973089  0.32900510  0.24342207  1
  B  B25  1  0.46026911  0.67099490  0.24342207  1
  B  B26  1  0.03973089  0.17099490  0.74342207  1
  B  B27  1  0.96026911  0.82900510  0.74342207  1
  B  B28  1  0.32900510  0.46026911  0.75657793  1
  B  B29  1  0.67099490  0.53973089  0.75657793  1
  B  B30  1  0.17099490  0.96026911  0.25657793  1
  B  B31  1  0.82900510  0.03973089  0.25657793  1
  B  B32  1  0.46026911  0.67099490  0.75657793  1
  B  B33  1  0.53973089  0.32900510  0.75657793  1
  B  B34  1  0.96026911  0.82900510  0.25657793  1
  B  B35  1  0.03973089  0.17099490  0.25657793  1
