# generated using pymatgen
data_Sm11Hg45
_symmetry_space_group_name_H-M   'P 1'
_cell_length_a   15.69922457
_cell_length_b   15.69922457
_cell_length_c   15.69922457
_cell_angle_alpha   60.00000000
_cell_angle_beta   60.00000000
_cell_angle_gamma   60.00000000
_symmetry_Int_Tables_number   1
_chemical_formula_structural   Sm11Hg45
_chemical_formula_sum   'Sm22 Hg90'
_cell_volume   2736.02214057
_cell_formula_units_Z   2
loop_
 _symmetry_equiv_pos_site_id
 _symmetry_equiv_pos_as_xyz
  1  'x, y, z'
loop_
 _atom_site_type_symbol
 _atom_site_label
 _atom_site_symmetry_multiplicity
 _atom_site_fract_x
 _atom_site_fract_y
 _atom_site_fract_z
 _atom_site_occupancy
  Sm  Sm0  1  -0.00000000  -0.00000000  -0.00000000  1
  Sm  Sm1  1  0.36192399  0.66919640  0.98443981  1
  Sm  Sm2  1  0.36192399  0.98443981  0.98443981  1
  Sm  Sm3  1  0.36192399  0.98443981  0.66919640  1
  Sm  Sm4  1  0.66919640  0.36192399  0.98443981  1
  Sm  Sm5  1  0.98443981  0.36192399  0.66919640  1
  Sm  Sm6  1  0.98443981  0.36192399  0.98443981  1
  Sm  Sm7  1  0.98443981  0.98443981  0.36192399  1
  Sm  Sm8  1  0.98443981  0.66919640  0.36192399  1
  Sm  Sm9  1  0.66919640  0.98443981  0.36192399  1
  Sm  Sm10  1  0.98443981  0.98443981  0.66919640  1
  Sm  Sm11  1  0.66919640  0.98443981  0.98443981  1
  Sm  Sm12  1  0.98443981  0.66919640  0.98443981  1
  Sm  Sm13  1  0.75000000  0.75000000  0.75000000  1
  Sm  Sm14  1  0.21708318  0.59430561  0.59430561  1
  Sm  Sm15  1  0.59430561  0.21708318  0.59430561  1
  Sm  Sm16  1  0.59430561  0.59430561  0.21708318  1
  Sm  Sm17  1  0.59430561  0.59430561  0.59430561  1
  Sm  Sm18  1  0.98733910  0.33755363  0.33755363  1
  Sm  Sm19  1  0.33755363  0.98733910  0.33755363  1
  Sm  Sm20  1  0.33755363  0.33755363  0.98733910  1
  Sm  Sm21  1  0.33755363  0.33755363  0.33755363  1
  Hg  Hg22  1  0.24905861  0.91698046  0.91698046  1
  Hg  Hg23  1  0.91698046  0.24905861  0.91698046  1
  Hg  Hg24  1  0.91698046  0.91698046  0.24905861  1
  Hg  Hg25  1  0.91698046  0.91698046  0.91698046  1
  Hg  Hg26  1  0.74412941  0.08529020  0.08529020  1
  Hg  Hg27  1  0.08529020  0.74412941  0.08529020  1
  Hg  Hg28  1  0.08529020  0.08529020  0.74412941  1
  Hg  Hg29  1  0.08529020  0.08529020  0.08529020  1
  Hg  Hg30  1  0.15250235  0.84749765  0.84749765  1
  Hg  Hg31  1  0.15250235  0.84749765  0.15250235  1
  Hg  Hg32  1  0.15250235  0.15250235  0.84749765  1
  Hg  Hg33  1  0.84749765  0.15250235  0.15250235  1
  Hg  Hg34  1  0.84749765  0.15250235  0.84749765  1
  Hg  Hg35  1  0.84749765  0.84749765  0.15250235  1
  Hg  Hg36  1  0.98379714  0.80047681  0.60786303  1
  Hg  Hg37  1  0.98379714  0.60786303  0.60786303  1
  Hg  Hg38  1  0.98379714  0.60786303  0.80047681  1
  Hg  Hg39  1  0.80047681  0.98379714  0.60786303  1
  Hg  Hg40  1  0.60786303  0.98379714  0.80047681  1
  Hg  Hg41  1  0.60786303  0.98379714  0.60786303  1
  Hg  Hg42  1  0.60786303  0.60786303  0.98379714  1
  Hg  Hg43  1  0.60786303  0.80047681  0.98379714  1
  Hg  Hg44  1  0.80047681  0.60786303  0.98379714  1
  Hg  Hg45  1  0.60786303  0.60786303  0.80047681  1
  Hg  Hg46  1  0.80047681  0.60786303  0.60786303  1
  Hg  Hg47  1  0.60786303  0.80047681  0.60786303  1
  Hg  Hg48  1  0.48537727  0.83820758  0.83820758  1
  Hg  Hg49  1  0.83820758  0.48537727  0.83820758  1
  Hg  Hg50  1  0.83820758  0.83820758  0.48537727  1
  Hg  Hg51  1  0.83820758  0.83820758  0.83820758  1
  Hg  Hg52  1  0.12870226  0.38851242  0.74139266  1
  Hg  Hg53  1  0.12870226  0.74139266  0.74139266  1
  Hg  Hg54  1  0.12870226  0.74139266  0.38851242  1
  Hg  Hg55  1  0.38851242  0.12870226  0.74139266  1
  Hg  Hg56  1  0.74139266  0.12870226  0.38851242  1
  Hg  Hg57  1  0.74139266  0.12870226  0.74139266  1
  Hg  Hg58  1  0.74139266  0.74139266  0.12870226  1
  Hg  Hg59  1  0.74139266  0.38851242  0.12870226  1
  Hg  Hg60  1  0.38851242  0.74139266  0.12870226  1
  Hg  Hg61  1  0.74139266  0.74139266  0.38851242  1
  Hg  Hg62  1  0.38851242  0.74139266  0.74139266  1
  Hg  Hg63  1  0.74139266  0.38851242  0.74139266  1
  Hg  Hg64  1  0.50000000  0.50000000  0.50000000  1
  Hg  Hg65  1  0.73434506  0.55196842  0.35684326  1
  Hg  Hg66  1  0.73434506  0.35684326  0.35684326  1
  Hg  Hg67  1  0.73434506  0.35684326  0.55196842  1
  Hg  Hg68  1  0.55196842  0.73434506  0.35684326  1
  Hg  Hg69  1  0.35684326  0.73434506  0.55196842  1
  Hg  Hg70  1  0.35684326  0.73434506  0.35684326  1
  Hg  Hg71  1  0.35684326  0.35684326  0.73434506  1
  Hg  Hg72  1  0.35684326  0.55196842  0.73434506  1
  Hg  Hg73  1  0.55196842  0.35684326  0.73434506  1
  Hg  Hg74  1  0.35684326  0.35684326  0.55196842  1
  Hg  Hg75  1  0.55196842  0.35684326  0.35684326  1
  Hg  Hg76  1  0.35684326  0.55196842  0.35684326  1
  Hg  Hg77  1  0.86205764  0.16366425  0.48713906  1
  Hg  Hg78  1  0.86205764  0.48713906  0.48713906  1
  Hg  Hg79  1  0.86205764  0.48713906  0.16366425  1
  Hg  Hg80  1  0.16366425  0.86205764  0.48713906  1
  Hg  Hg81  1  0.48713906  0.86205764  0.16366425  1
  Hg  Hg82  1  0.48713906  0.86205764  0.48713906  1
  Hg  Hg83  1  0.48713906  0.48713906  0.86205764  1
  Hg  Hg84  1  0.48713906  0.16366425  0.86205764  1
  Hg  Hg85  1  0.16366425  0.48713906  0.86205764  1
  Hg  Hg86  1  0.48713906  0.48713906  0.16366425  1
  Hg  Hg87  1  0.16366425  0.48713906  0.48713906  1
  Hg  Hg88  1  0.48713906  0.16366425  0.48713906  1
  Hg  Hg89  1  0.25000000  0.25000000  0.25000000  1
  Hg  Hg90  1  0.48133526  0.17288825  0.17288825  1
  Hg  Hg91  1  0.17288825  0.48133526  0.17288825  1
  Hg  Hg92  1  0.17288825  0.17288825  0.48133526  1
  Hg  Hg93  1  0.17288825  0.17288825  0.17288825  1
  Hg  Hg94  1  0.41185066  0.08814934  0.08814934  1
  Hg  Hg95  1  0.41185066  0.08814934  0.41185066  1
  Hg  Hg96  1  0.41185066  0.41185066  0.08814934  1
  Hg  Hg97  1  0.08814934  0.41185066  0.41185066  1
  Hg  Hg98  1  0.08814934  0.41185066  0.08814934  1
  Hg  Hg99  1  0.08814934  0.08814934  0.41185066  1
  Hg  Hg100  1  0.59588087  0.93643668  0.23384122  1
  Hg  Hg101  1  0.59588087  0.23384122  0.23384122  1
  Hg  Hg102  1  0.59588087  0.23384122  0.93643668  1
  Hg  Hg103  1  0.93643668  0.59588087  0.23384122  1
  Hg  Hg104  1  0.23384122  0.59588087  0.93643668  1
  Hg  Hg105  1  0.23384122  0.59588087  0.23384122  1
  Hg  Hg106  1  0.23384122  0.23384122  0.59588087  1
  Hg  Hg107  1  0.23384122  0.93643668  0.59588087  1
  Hg  Hg108  1  0.93643668  0.23384122  0.59588087  1
  Hg  Hg109  1  0.23384122  0.23384122  0.93643668  1
  Hg  Hg110  1  0.93643668  0.23384122  0.23384122  1
  Hg  Hg111  1  0.23384122  0.93643668  0.23384122  1
