# generated using pymatgen
data_U3S3O16
_symmetry_space_group_name_H-M   'P 1'
_cell_length_a   9.11833222
_cell_length_b   9.11833222
_cell_length_c   9.11833222
_cell_angle_alpha   108.55941051
_cell_angle_beta   108.55941051
_cell_angle_gamma   111.31064836
_symmetry_Int_Tables_number   1
_chemical_formula_structural   U3S3O16
_chemical_formula_sum   'U6 S6 O32'
_cell_volume   583.15941740
_cell_formula_units_Z   2
loop_
 _symmetry_equiv_pos_site_id
 _symmetry_equiv_pos_as_xyz
  1  'x, y, z'
loop_
 _atom_site_type_symbol
 _atom_site_label
 _atom_site_symmetry_multiplicity
 _atom_site_fract_x
 _atom_site_fract_y
 _atom_site_fract_z
 _atom_site_occupancy
  U  U0  1  0.25110881  0.25110881  0.00000000  1
  U  U1  1  0.74889119  0.74889119  0.00000000  1
  U  U2  1  0.03515057  0.75694782  0.79209839  1
  U  U3  1  0.96484943  0.24305218  0.20790161  1
  U  U4  1  0.75694782  0.96484943  0.72179726  1
  U  U5  1  0.24305218  0.03515057  0.27820274  1
  S  S6  1  0.75000000  0.25000000  0.50000000  1
  S  S7  1  0.25000000  0.75000000  0.50000000  1
  S  S8  1  0.37513313  0.72041173  0.09554486  1
  S  S9  1  0.62486687  0.27958827  0.90445514  1
  S  S10  1  0.72041173  0.62486687  0.34527860  1
  S  S11  1  0.27958827  0.37513313  0.65472140  1
  O  O12  1  0.26300001  0.02529335  0.03767776  1
  O  O13  1  0.98761559  0.22532225  0.96232224  1
  O  O14  1  0.02529335  0.98761559  0.76229334  1
  O  O15  1  0.22532225  0.26300001  0.23770666  1
  O  O16  1  0.73699999  0.97470665  0.96232224  1
  O  O17  1  0.01238441  0.77467775  0.03767776  1
  O  O18  1  0.97470665  0.01238441  0.23770666  1
  O  O19  1  0.77467775  0.73699999  0.76229334  1
  O  O20  1  0.21914988  0.77381042  0.65462294  1
  O  O21  1  0.11918748  0.56452694  0.34537706  1
  O  O22  1  0.77381042  0.11918748  0.55466054  1
  O  O23  1  0.56452694  0.21914988  0.44533946  1
  O  O24  1  0.78085012  0.22618958  0.34537706  1
  O  O25  1  0.88081252  0.43547306  0.65462294  1
  O  O26  1  0.22618958  0.88081252  0.44533946  1
  O  O27  1  0.43547306  0.78085012  0.55466054  1
  O  O28  1  0.55616174  0.78928223  0.10901086  1
  O  O29  1  0.68027138  0.44715088  0.89098914  1
  O  O30  1  0.78928223  0.68027138  0.23312049  1
  O  O31  1  0.44715088  0.55616174  0.76687951  1
  O  O32  1  0.44383826  0.21071777  0.89098914  1
  O  O33  1  0.31972862  0.55284912  0.10901086  1
  O  O34  1  0.21071777  0.31972862  0.76687951  1
  O  O35  1  0.55284912  0.44383826  0.23312049  1
  O  O36  1  0.24150915  0.68100523  0.92251438  1
  O  O37  1  0.75849085  0.31899477  0.07748562  1
  O  O38  1  0.68100523  0.75849085  0.43949607  1
  O  O39  1  0.31899477  0.24150915  0.56050393  1
  O  O40  1  0.38464123  0.85830690  0.24294814  1
  O  O41  1  0.61535877  0.14169310  0.75705186  1
  O  O42  1  0.85830690  0.61535877  0.47366567  1
  O  O43  1  0.14169310  0.38464123  0.52633433  1
