# generated using pymatgen
data_CsV2P3O14
_symmetry_space_group_name_H-M   'P 1'
_cell_length_a   6.25274651
_cell_length_b   10.07809738
_cell_length_c   18.38138176
_cell_angle_alpha   90.00000000
_cell_angle_beta   90.00000000
_cell_angle_gamma   94.89142947
_symmetry_Int_Tables_number   1
_chemical_formula_structural   CsV2P3O14
_chemical_formula_sum   'Cs4 V8 P12 O56'
_cell_volume   1154.09873973
_cell_formula_units_Z   4
loop_
 _symmetry_equiv_pos_site_id
 _symmetry_equiv_pos_as_xyz
  1  'x, y, z'
loop_
 _atom_site_type_symbol
 _atom_site_label
 _atom_site_symmetry_multiplicity
 _atom_site_fract_x
 _atom_site_fract_y
 _atom_site_fract_z
 _atom_site_occupancy
  Cs  Cs0  1  0.19768421  0.99389991  0.30196915  1
  Cs  Cs1  1  0.80231579  0.50610009  0.80196915  1
  Cs  Cs2  1  0.80231579  0.00610009  0.69803085  1
  Cs  Cs3  1  0.19768421  0.49389991  0.19803085  1
  V  V4  1  0.70090457  0.15978762  0.12711129  1
  V  V5  1  0.29909543  0.34021238  0.62711129  1
  V  V6  1  0.29909543  0.84021238  0.87288871  1
  V  V7  1  0.70090457  0.65978762  0.37288871  1
  V  V8  1  0.23755722  0.33240057  0.93539374  1
  V  V9  1  0.76244278  0.16759943  0.43539374  1
  V  V10  1  0.76244278  0.66759943  0.06460626  1
  V  V11  1  0.23755722  0.83240057  0.56460626  1
  P  P12  1  0.65926177  0.86292243  0.19579157  1
  P  P13  1  0.34073823  0.63707757  0.69579157  1
  P  P14  1  0.34073823  0.13707757  0.80420843  1
  P  P15  1  0.65926177  0.36292243  0.30420843  1
  P  P16  1  0.74435230  0.37157416  0.99290753  1
  P  P17  1  0.25564770  0.12842584  0.49290753  1
  P  P18  1  0.25564770  0.62842584  0.00709247  1
  P  P19  1  0.74435230  0.87157416  0.50709247  1
  P  P20  1  0.20387116  0.12906668  0.10016332  1
  P  P21  1  0.79612884  0.37093332  0.60016332  1
  P  P22  1  0.79612884  0.87093332  0.89983668  1
  P  P23  1  0.20387116  0.62906668  0.39983668  1
  O  O24  1  0.42147038  0.80715497  0.19861021  1
  O  O25  1  0.57852962  0.69284503  0.69861021  1
  O  O26  1  0.57852962  0.19284503  0.80138979  1
  O  O27  1  0.42147038  0.30715497  0.30138979  1
  O  O28  1  0.75024061  0.80368144  0.26479017  1
  O  O29  1  0.24975939  0.69631856  0.76479017  1
  O  O30  1  0.24975939  0.19631856  0.73520983  1
  O  O31  1  0.75024061  0.30368144  0.23520983  1
  O  O32  1  0.77260805  0.82550224  0.12448560  1
  O  O33  1  0.22739195  0.67449776  0.62448560  1
  O  O34  1  0.22739195  0.17449776  0.87551440  1
  O  O35  1  0.77260805  0.32550224  0.37551440  1
  O  O36  1  0.67818478  0.01876304  0.19994583  1
  O  O37  1  0.32181522  0.48123696  0.69994583  1
  O  O38  1  0.32181522  0.98123696  0.80005417  1
  O  O39  1  0.67818478  0.51876304  0.30005417  1
  O  O40  1  0.67875048  0.06497848  0.05800066  1
  O  O41  1  0.32124952  0.43502152  0.55800066  1
  O  O42  1  0.32124952  0.93502152  0.94199934  1
  O  O43  1  0.67875048  0.56497848  0.44199934  1
  O  O44  1  0.76435211  0.32504963  0.07283180  1
  O  O45  1  0.23564789  0.17495037  0.57283180  1
  O  O46  1  0.23564789  0.67495037  0.92716820  1
  O  O47  1  0.76435211  0.82504963  0.42716820  1
  O  O48  1  0.92870745  0.32760366  0.94418162  1
  O  O49  1  0.07129255  0.17239634  0.44418162  1
  O  O50  1  0.07129255  0.67239634  0.05581838  1
  O  O51  1  0.92870745  0.82760366  0.55581838  1
  O  O52  1  0.75191199  0.52592561  0.99018188  1
  O  O53  1  0.24808801  0.97407439  0.49018188  1
  O  O54  1  0.24808801  0.47407439  0.00981812  1
  O  O55  1  0.75191199  0.02592561  0.50981812  1
  O  O56  1  0.53375002  0.31209991  0.95788341  1
  O  O57  1  0.46624998  0.18790009  0.45788341  1
  O  O58  1  0.46624998  0.68790009  0.04211659  1
  O  O59  1  0.53375002  0.81209991  0.54211659  1
  O  O60  1  0.27155345  0.43271098  0.86707805  1
  O  O61  1  0.72844655  0.06728902  0.36707805  1
  O  O62  1  0.72844655  0.56728902  0.13292195  1
  O  O63  1  0.27155345  0.93271098  0.63292195  1
  O  O64  1  0.18834519  0.18172039  0.02352966  1
  O  O65  1  0.81165481  0.31827961  0.52352966  1
  O  O66  1  0.81165481  0.81827961  0.97647034  1
  O  O67  1  0.18834519  0.68172039  0.47647034  1
  O  O68  1  0.01451742  0.17163734  0.14791556  1
  O  O69  1  0.98548258  0.32836266  0.64791556  1
  O  O70  1  0.98548258  0.82836266  0.85208444  1
  O  O71  1  0.01451742  0.67163734  0.35208444  1
  O  O72  1  0.19542742  0.97632204  0.10365660  1
  O  O73  1  0.80457258  0.52367796  0.60365660  1
  O  O74  1  0.80457258  0.02367796  0.89634340  1
  O  O75  1  0.19542742  0.47632204  0.39634340  1
  O  O76  1  0.41060614  0.19384852  0.14058629  1
  O  O77  1  0.58939386  0.30615148  0.64058629  1
  O  O78  1  0.58939386  0.80615148  0.85941371  1
  O  O79  1  0.41060614  0.69384852  0.35941371  1
