# generated using pymatgen
data_K2UH6C4SeO15
_symmetry_space_group_name_H-M   'P 1'
_cell_length_a   7.33482538
_cell_length_b   9.03135942
_cell_length_c   12.62703562
_cell_angle_alpha   95.22564034
_cell_angle_beta   89.16895224
_cell_angle_gamma   93.96186760
_symmetry_Int_Tables_number   1
_chemical_formula_structural   K2UH6C4SeO15
_chemical_formula_sum   'K4 U2 H12 C8 Se2 O30'
_cell_volume   830.96279307
_cell_formula_units_Z   2
loop_
 _symmetry_equiv_pos_site_id
 _symmetry_equiv_pos_as_xyz
  1  'x, y, z'
loop_
 _atom_site_type_symbol
 _atom_site_label
 _atom_site_symmetry_multiplicity
 _atom_site_fract_x
 _atom_site_fract_y
 _atom_site_fract_z
 _atom_site_occupancy
  K  K0  1  0.82157599  0.99504052  0.24272693  1
  K  K1  1  0.17842401  0.00495948  0.75727307  1
  K  K2  1  0.79231911  0.48996949  0.34024056  1
  K  K3  1  0.20768089  0.51003051  0.65975944  1
  U  U4  1  0.69977510  0.75372665  0.72414099  1
  U  U5  1  0.30022490  0.24627335  0.27585901  1
  H  H6  1  0.81661123  0.23771403  0.53865931  1
  H  H7  1  0.18338877  0.76228597  0.46134069  1
  H  H8  1  0.68841402  0.58278970  0.09592233  1
  H  H9  1  0.31158598  0.41721030  0.90407767  1
  H  H10  1  0.57790852  0.42653128  0.10246915  1
  H  H11  1  0.42209148  0.57346872  0.89753085  1
  H  H12  1  0.81960447  0.38900678  0.02478647  1
  H  H13  1  0.18039553  0.61099322  0.97521353  1
  H  H14  1  0.89040140  0.33556399  0.89514967  1
  H  H15  1  0.10959860  0.66443601  0.10485033  1
  H  H16  1  0.84572761  0.20664328  0.98966027  1
  H  H17  1  0.15427239  0.79335672  0.01033973  1
  C  C18  1  0.74891799  0.95729274  0.95383632  1
  C  C19  1  0.25108201  0.04270726  0.04616368  1
  C  C20  1  0.67997288  0.80151432  0.98706945  1
  C  C21  1  0.32002712  0.19848568  0.01293055  1
  C  C22  1  0.71606460  0.80851703  0.47232001  1
  C  C23  1  0.28393540  0.19148297  0.52767999  1
  C  C24  1  0.76093541  0.96703044  0.52834788  1
  C  C25  1  0.23906459  0.03296956  0.47165212  1
  Se  Se26  1  0.72255488  0.33338298  0.70466046  1
  Se  Se27  1  0.27744512  0.66661702  0.29533954  1
  O  O28  1  0.94518660  0.72825674  0.72840874  1
  O  O29  1  0.05481340  0.27174326  0.27159126  1
  O  O30  1  0.45607397  0.78511424  0.72053000  1
  O  O31  1  0.54392603  0.21488576  0.27947000  1
  O  O32  1  0.76881638  0.96660214  0.85410491  1
  O  O33  1  0.23118362  0.03339786  0.14589509  1
  O  O34  1  0.63984742  0.70597371  0.90772950  1
  O  O35  1  0.36015258  0.29402629  0.09227050  1
  O  O36  1  0.78201262  0.06200015  0.02572746  1
  O  O37  1  0.21798738  0.93799985  0.97427254  1
  O  O38  1  0.67042586  0.77823522  0.08306804  1
  O  O39  1  0.32957414  0.22176478  0.91693196  1
  O  O40  1  0.76658893  0.97244235  0.63018809  1
  O  O41  1  0.23341107  0.02755765  0.36981191  1
  O  O42  1  0.69774695  0.70588380  0.53707581  1
  O  O43  1  0.30225305  0.29411620  0.46292419  1
  O  O44  1  0.70266468  0.78800919  0.37366692  1
  O  O45  1  0.29733532  0.21199081  0.62633308  1
  O  O46  1  0.78863520  0.07549949  0.47345213  1
  O  O47  1  0.21136480  0.92450051  0.52654787  1
  O  O48  1  0.83058646  0.34334589  0.57628183  1
  O  O49  1  0.16941354  0.65665411  0.42371817  1
  O  O50  1  0.90966063  0.36437661  0.78264281  1
  O  O51  1  0.09033937  0.63562339  0.21735719  1
  O  O52  1  0.62739916  0.50334929  0.71199783  1
  O  O53  1  0.37260084  0.49665071  0.28800217  1
  O  O54  1  0.70217720  0.47593681  0.10692044  1
  O  O55  1  0.29782280  0.52406319  0.89307956  1
  O  O56  1  0.89370065  0.31652068  0.97593485  1
  O  O57  1  0.10629935  0.68347932  0.02406515  1
