# generated using pymatgen
data_Be3Si3(NiO6)2
_symmetry_space_group_name_H-M   'P 1'
_cell_length_a   7.61350113
_cell_length_b   7.98389263
_cell_length_c   13.78669120
_cell_angle_alpha   90.06803046
_cell_angle_beta   90.01241727
_cell_angle_gamma   90.01254331
_symmetry_Int_Tables_number   1
_chemical_formula_structural   Be3Si3(NiO6)2
_chemical_formula_sum   'Be12 Si12 Ni8 O48'
_cell_volume   838.02857233
_cell_formula_units_Z   4
loop_
 _symmetry_equiv_pos_site_id
 _symmetry_equiv_pos_as_xyz
  1  'x, y, z'
loop_
 _atom_site_type_symbol
 _atom_site_label
 _atom_site_symmetry_multiplicity
 _atom_site_fract_x
 _atom_site_fract_y
 _atom_site_fract_z
 _atom_site_occupancy
  Be  Be0  1  0.85042503  0.92087937  0.76549387  1
  Be  Be1  1  0.64771087  0.93257740  0.40485854  1
  Be  Be2  1  0.14804693  0.56732367  0.09504206  1
  Be  Be3  1  0.35208437  0.06751966  0.59511193  1
  Be  Be4  1  0.85061187  0.43288800  0.90559498  1
  Be  Be5  1  0.14594682  0.60961371  0.41815296  1
  Be  Be6  1  0.64563305  0.88966692  0.08252980  1
  Be  Be7  1  0.85487060  0.39005118  0.58173499  1
  Be  Be8  1  0.35370603  0.10941610  0.91812658  1
  Be  Be9  1  0.64924736  0.42087996  0.26554886  1
  Be  Be10  1  0.14878079  0.07851396  0.23434868  1
  Be  Be11  1  0.35048743  0.57904539  0.73444769  1
  Si  Si12  1  0.22458827  0.92066093  0.77057051  1
  Si  Si13  1  0.72486930  0.57977443  0.72938169  1
  Si  Si14  1  0.77484496  0.07944960  0.22929009  1
  Si  Si15  1  0.27513950  0.41997209  0.27062021  1
  Si  Si16  1  0.73236082  0.11364025  0.92585974  1
  Si  Si17  1  0.23186863  0.38565549  0.57407086  1
  Si  Si18  1  0.26812481  0.88552214  0.07417969  1
  Si  Si19  1  0.76785087  0.61492260  0.42557086  1
  Si  Si20  1  0.23361893  0.44915557  0.90369302  1
  Si  Si21  1  0.73345401  0.05091889  0.59610816  1
  Si  Si22  1  0.76655229  0.55153623  0.09685957  1
  Si  Si23  1  0.26622481  0.94903181  0.40380135  1
  Ni  Ni24  1  0.45340906  0.24897576  0.09082424  1
  Ni  Ni25  1  0.04716585  0.74943386  0.59094471  1
  Ni  Ni26  1  0.54740300  0.75068923  0.90925210  1
  Ni  Ni27  1  0.95264220  0.25061822  0.40896379  1
  Ni  Ni28  1  0.56028554  0.25173741  0.42890791  1
  Ni  Ni29  1  0.06053690  0.24822433  0.07122506  1
  Ni  Ni30  1  0.43935161  0.74852129  0.57121794  1
  Ni  Ni31  1  0.93910389  0.75163464  0.92909381  1
  O  O32  1  0.12097143  0.74750216  0.04103789  1
  O  O33  1  0.03381266  0.90632749  0.82446462  1
  O  O34  1  0.53430149  0.59393847  0.67565282  1
  O  O35  1  0.96547142  0.09374706  0.17546303  1
  O  O36  1  0.46558427  0.40589364  0.32421390  1
  O  O37  1  0.53833451  0.18386778  0.95725008  1
  O  O38  1  0.03873157  0.31626401  0.54189931  1
  O  O39  1  0.46157236  0.81605385  0.04228896  1
  O  O40  1  0.96154922  0.68417504  0.45783201  1
  O  O41  1  0.03612810  0.52703781  0.88599940  1
  O  O42  1  0.53670789  0.97269437  0.61413193  1
  O  O43  1  0.96355969  0.47247130  0.11398229  1
  O  O44  1  0.12336180  0.07405674  0.35201063  1
  O  O45  1  0.62363950  0.42626087  0.14795281  1
  O  O46  1  0.87641370  0.92581312  0.64801724  1
  O  O47  1  0.37641819  0.57398489  0.85208946  1
  O  O48  1  0.62134418  0.75294759  0.45909503  1
  O  O49  1  0.46296462  0.02700772  0.38621924  1
  O  O50  1  0.37897680  0.24727940  0.54088795  1
  O  O51  1  0.87891410  0.25238168  0.95911537  1
  O  O52  1  0.75922432  0.07343595  0.47613194  1
  O  O53  1  0.62276935  0.06210370  0.14575582  1
  O  O54  1  0.87768051  0.56174049  0.64578690  1
  O  O55  1  0.37657155  0.93793789  0.85424974  1
  O  O56  1  0.73734252  0.42692093  0.80805607  1
  O  O57  1  0.23496159  0.07297705  0.69126796  1
  O  O58  1  0.26458470  0.57268587  0.19115187  1
  O  O59  1  0.76521208  0.92729043  0.30888871  1
  O  O60  1  0.74056207  0.07334968  0.80932651  1
  O  O61  1  0.23850567  0.42779245  0.69057252  1
  O  O62  1  0.26139731  0.92791780  0.19077278  1
  O  O63  1  0.76255047  0.57137876  0.30914831  1
  O  O64  1  0.24557131  0.25501552  0.86548714  1
  O  O65  1  0.74320580  0.24553109  0.63287431  1
  O  O66  1  0.75659627  0.74593170  0.13520202  1
  O  O67  1  0.25424328  0.75500597  0.36575830  1
  O  O68  1  0.74243771  0.74827964  0.80064330  1
  O  O69  1  0.24234387  0.75201983  0.69944576  1
  O  O70  1  0.25720963  0.25154254  0.19920789  1
  O  O71  1  0.75702873  0.24772371  0.30068600  1
  O  O72  1  0.75863121  0.92674296  0.97790623  1
  O  O73  1  0.25878008  0.57307456  0.52247489  1
  O  O74  1  0.24149514  0.07313889  0.02253506  1
  O  O75  1  0.74103477  0.42745078  0.47718587  1
  O  O76  1  0.74140945  0.57387691  0.97673825  1
  O  O77  1  0.24119855  0.92642682  0.52388137  1
  O  O78  1  0.25863433  0.42654484  0.02370183  1
  O  O79  1  0.12311382  0.43800219  0.35413245  1
