# generated using pymatgen
data_CeH(CO2)3
_symmetry_space_group_name_H-M   'P 1'
_cell_length_a   6.80671086
_cell_length_b   7.48062175
_cell_length_c   10.90619634
_cell_angle_alpha   90.00000000
_cell_angle_beta   90.00000000
_cell_angle_gamma   90.00000000
_symmetry_Int_Tables_number   1
_chemical_formula_structural   CeH(CO2)3
_chemical_formula_sum   'Ce4 H4 C12 O24'
_cell_volume   555.32638733
_cell_formula_units_Z   4
loop_
 _symmetry_equiv_pos_site_id
 _symmetry_equiv_pos_as_xyz
  1  'x, y, z'
loop_
 _atom_site_type_symbol
 _atom_site_label
 _atom_site_symmetry_multiplicity
 _atom_site_fract_x
 _atom_site_fract_y
 _atom_site_fract_z
 _atom_site_occupancy
  Ce  Ce0  1  0.62993552  0.29526446  0.53617576  1
  Ce  Ce1  1  0.37006448  0.70473554  0.03617576  1
  Ce  Ce2  1  0.12993552  0.20473554  0.03617576  1
  Ce  Ce3  1  0.87006448  0.79526446  0.53617576  1
  H  H4  1  0.38149800  0.72895346  0.53998224  1
  H  H5  1  0.61850200  0.27104654  0.03998224  1
  H  H6  1  0.88149800  0.77104654  0.03998224  1
  H  H7  1  0.11850200  0.22895346  0.53998224  1
  C  C8  1  0.37315212  0.87584037  0.53916419  1
  C  C9  1  0.62684788  0.12415963  0.03916419  1
  C  C10  1  0.87315212  0.62415963  0.03916419  1
  C  C11  1  0.12684788  0.37584037  0.53916419  1
  C  C12  1  0.45434742  0.40982932  0.80781477  1
  C  C13  1  0.54565258  0.59017068  0.30781477  1
  C  C14  1  0.95434742  0.09017068  0.30781477  1
  C  C15  1  0.04565258  0.90982932  0.80781477  1
  C  C16  1  0.45234479  0.41279427  0.26450500  1
  C  C17  1  0.54765521  0.58720573  0.76450500  1
  C  C18  1  0.95234479  0.08720573  0.76450500  1
  C  C19  1  0.04765521  0.91279427  0.26450500  1
  O  O20  1  0.53699870  0.96126153  0.53719307  1
  O  O21  1  0.46300130  0.03873847  0.03719307  1
  O  O22  1  0.03699870  0.53873847  0.03719307  1
  O  O23  1  0.96300130  0.46126153  0.53719307  1
  O  O24  1  0.85361480  0.08112143  0.40669265  1
  O  O25  1  0.14638520  0.91887857  0.90669265  1
  O  O26  1  0.35361480  0.41887857  0.90669265  1
  O  O27  1  0.64638520  0.58112143  0.40669265  1
  O  O28  1  0.85849743  0.08043798  0.66278471  1
  O  O29  1  0.14150257  0.91956202  0.16278471  1
  O  O30  1  0.35849743  0.41956202  0.16278471  1
  O  O31  1  0.64150257  0.58043798  0.66278471  1
  O  O32  1  0.48467475  0.27131941  0.74514558  1
  O  O33  1  0.51532525  0.72868059  0.24514558  1
  O  O34  1  0.98467475  0.22868059  0.24514558  1
  O  O35  1  0.01532525  0.77131941  0.74514558  1
  O  O36  1  0.20614670  0.94839339  0.54027245  1
  O  O37  1  0.79385330  0.05160661  0.04027245  1
  O  O38  1  0.70614670  0.55160661  0.04027245  1
  O  O39  1  0.29385330  0.44839339  0.54027245  1
  O  O40  1  0.47413805  0.27659555  0.33046957  1
  O  O41  1  0.52586195  0.72340445  0.83046957  1
  O  O42  1  0.97413805  0.22340445  0.83046957  1
  O  O43  1  0.02586195  0.77659555  0.33046957  1
