# generated using pymatgen
data_CoPH8C3N3O7
_symmetry_space_group_name_H-M   'P 1'
_cell_length_a   7.48945076
_cell_length_b   8.94002442
_cell_length_c   15.64528333
_cell_angle_alpha   101.48790198
_cell_angle_beta   90.00000000
_cell_angle_gamma   90.00000000
_symmetry_Int_Tables_number   1
_chemical_formula_structural   CoPH8C3N3O7
_chemical_formula_sum   'Co4 P4 H32 C12 N12 O28'
_cell_volume   1026.55792740
_cell_formula_units_Z   4
loop_
 _symmetry_equiv_pos_site_id
 _symmetry_equiv_pos_as_xyz
  1  'x, y, z'
loop_
 _atom_site_type_symbol
 _atom_site_label
 _atom_site_symmetry_multiplicity
 _atom_site_fract_x
 _atom_site_fract_y
 _atom_site_fract_z
 _atom_site_occupancy
  Co  Co0  1  0.97344205  0.28810145  0.60505549  1
  Co  Co1  1  0.52655795  0.78810145  0.10505549  1
  Co  Co2  1  0.02655795  0.71189855  0.39494451  1
  Co  Co3  1  0.47344205  0.21189855  0.89494451  1
  P  P4  1  0.62256579  0.36795306  0.73440666  1
  P  P5  1  0.87743421  0.86795306  0.23440666  1
  P  P6  1  0.37743421  0.63204694  0.26559334  1
  P  P7  1  0.12256579  0.13204694  0.76559334  1
  H  H8  1  0.55724264  0.50406499  0.78633903  1
  H  H9  1  0.94275736  0.00406499  0.28633903  1
  H  H10  1  0.44275736  0.49593501  0.21366097  1
  H  H11  1  0.05724264  0.99593501  0.71366097  1
  H  H12  1  0.35376690  0.28821961  0.68153069  1
  H  H13  1  0.14623310  0.78821961  0.18153069  1
  H  H14  1  0.64623310  0.71178039  0.31846931  1
  H  H15  1  0.85376690  0.21178039  0.81846931  1
  H  H16  1  0.62736295  0.77022962  0.52618267  1
  H  H17  1  0.87263705  0.27022962  0.02618267  1
  H  H18  1  0.37263705  0.22977038  0.47381733  1
  H  H19  1  0.12736295  0.72977038  0.97381733  1
  H  H20  1  0.42199568  0.67407806  0.52713782  1
  H  H21  1  0.07800432  0.17407806  0.02713782  1
  H  H22  1  0.57800432  0.32592194  0.47286218  1
  H  H23  1  0.92199568  0.82592194  0.97286218  1
  H  H24  1  0.68562620  0.97006132  0.64348578  1
  H  H25  1  0.81437380  0.47006132  0.14348578  1
  H  H26  1  0.31437380  0.02993868  0.35651422  1
  H  H27  1  0.18562620  0.52993868  0.85651422  1
  H  H28  1  0.56979362  0.97917882  0.74024090  1
  H  H29  1  0.93020638  0.47917882  0.24024090  1
  H  H30  1  0.43020638  0.02082118  0.25975910  1
  H  H31  1  0.06979362  0.52082118  0.75975910  1
  H  H32  1  0.33419055  0.81992057  0.74874985  1
  H  H33  1  0.16580945  0.31992057  0.24874985  1
  H  H34  1  0.66580945  0.18007943  0.25125015  1
  H  H35  1  0.83419055  0.68007943  0.75125015  1
  H  H36  1  0.28432353  0.66755302  0.66218620  1
  H  H37  1  0.21567647  0.16755302  0.16218620  1
  H  H38  1  0.71567647  0.33244698  0.33781380  1
  H  H39  1  0.78432353  0.83244698  0.83781380  1
  C  C40  1  0.08624930  0.02453730  0.47937132  1
  C  C41  1  0.41375070  0.52453730  0.97937132  1
  C  C42  1  0.91375070  0.97546270  0.52062868  1
  C  C43  1  0.58624930  0.47546270  0.02062868  1
  C  C44  1  0.07471357  0.54203239  0.52981088  1
  C  C45  1  0.42528643  0.04203239  0.02981088  1
  C  C46  1  0.92528643  0.45796761  0.47018912  1
  C  C47  1  0.57471357  0.95796761  0.97018912  1
  C  C48  1  0.49769811  0.80281852  0.64316606  1
  C  C49  1  0.00230189  0.30281852  0.14316606  1
  C  C50  1  0.50230189  0.19718148  0.35683394  1
  C  C51  1  0.99769811  0.69718148  0.85683394  1
  N  N52  1  0.52592195  0.73245365  0.56043261  1
  N  N53  1  0.97407805  0.23245365  0.06043261  1
  N  N54  1  0.47407805  0.26754635  0.43956739  1
  N  N55  1  0.02592195  0.76754635  0.93956739  1
  N  N56  1  0.60698707  0.91520003  0.68168571  1
  N  N57  1  0.89301293  0.41520003  0.18168571  1
  N  N58  1  0.39301293  0.08479997  0.31831429  1
  N  N59  1  0.10698707  0.58479997  0.81831429  1
  N  N60  1  0.36583356  0.75592452  0.68958745  1
  N  N61  1  0.13416644  0.25592452  0.18958745  1
  N  N62  1  0.63416644  0.24407548  0.31041255  1
  N  N63  1  0.86583356  0.74407548  0.81041255  1
  O  O64  1  0.47583306  0.31620332  0.66172660  1
  O  O65  1  0.02416694  0.81620332  0.16172660  1
  O  O66  1  0.52416694  0.68379668  0.33827340  1
  O  O67  1  0.97583306  0.18379668  0.83827340  1
  O  O68  1  0.64591654  0.25098136  0.79365923  1
  O  O69  1  0.85408346  0.75098136  0.29365923  1
  O  O70  1  0.35408346  0.74901864  0.20634077  1
  O  O71  1  0.14591654  0.24901864  0.70634077  1
  O  O72  1  0.79164140  0.40820157  0.69061721  1
  O  O73  1  0.70835860  0.90820157  0.19061721  1
  O  O74  1  0.20835860  0.59179843  0.30938279  1
  O  O75  1  0.29164140  0.09179843  0.80938279  1
  O  O76  1  0.14668925  0.15640372  0.51054316  1
  O  O77  1  0.35331075  0.65640372  0.01054316  1
  O  O78  1  0.85331075  0.84359628  0.48945684  1
  O  O79  1  0.64668925  0.34359628  0.98945684  1
  O  O80  1  0.15411501  0.92952184  0.41648964  1
  O  O81  1  0.34588499  0.42952184  0.91648964  1
  O  O82  1  0.84588499  0.07047816  0.58351036  1
  O  O83  1  0.65411501  0.57047816  0.08351036  1
  O  O84  1  0.10996483  0.49597914  0.59978149  1
  O  O85  1  0.39003517  0.99597914  0.09978149  1
  O  O86  1  0.89003517  0.50402086  0.40021851  1
  O  O87  1  0.60996483  0.00402086  0.90021851  1
  O  O88  1  0.15183465  0.65188470  0.50473171  1
  O  O89  1  0.34816535  0.15188470  0.00473171  1
  O  O90  1  0.84816535  0.34811530  0.49526829  1
  O  O91  1  0.65183465  0.84811530  0.99526829  1
