# generated using pymatgen
data_Sr2Y2Ti2O7
_symmetry_space_group_name_H-M   'P 1'
_cell_length_a   12.97934083
_cell_length_b   12.97934083
_cell_length_c   12.97934083
_cell_angle_alpha   35.24425777
_cell_angle_beta   155.15947082
_cell_angle_gamma   155.39762439
_symmetry_Int_Tables_number   1
_chemical_formula_structural   Sr2Y2Ti2O7
_chemical_formula_sum   'Sr4 Y4 Ti4 O14'
_cell_volume   381.96961941
_cell_formula_units_Z   2
loop_
 _symmetry_equiv_pos_site_id
 _symmetry_equiv_pos_as_xyz
  1  'x, y, z'
loop_
 _atom_site_type_symbol
 _atom_site_label
 _atom_site_symmetry_multiplicity
 _atom_site_fract_x
 _atom_site_fract_y
 _atom_site_fract_z
 _atom_site_occupancy
  Sr  Sr0  1  0.03850836  0.87236824  0.87597848  1
  Sr  Sr1  1  0.99638976  0.16252988  0.12402152  1
  Sr  Sr2  1  0.03850836  0.66252988  0.66614012  1
  Sr  Sr3  1  0.99638976  0.37236824  0.33385988  1
  Y  Y4  1  0.02836231  0.52836231  0.50000000  1
  Y  Y5  1  0.02836231  0.02836231  0.00000000  1
  Y  Y6  1  0.53041567  0.73443191  0.29598377  1
  Y  Y7  1  0.43844814  0.23443191  0.70401623  1
  Ti  Ti8  1  0.52705283  0.47002043  0.94142204  1
  Ti  Ti9  1  0.52859738  0.58562978  0.05857796  1
  Ti  Ti10  1  0.52705283  0.08562978  0.55703240  1
  Ti  Ti11  1  0.52859738  0.97002043  0.44296760  1
  O  O12  1  0.01145449  0.83420569  0.67724880  1
  O  O13  1  0.15695690  0.33420569  0.32275120  1
  O  O14  1  0.51768529  0.20993818  0.18146875  1
  O  O15  1  0.02847043  0.33621754  0.81853125  1
  O  O16  1  0.51768529  0.83621754  0.80774811  1
  O  O17  1  0.02847043  0.70993818  0.19225189  1
  O  O18  1  0.53626492  0.71782878  0.68960156  1
  O  O19  1  0.02822822  0.84666336  0.31039844  1
  O  O20  1  0.53626492  0.34666336  0.31843614  1
  O  O21  1  0.02822822  0.21782878  0.68156386  1
  O  O22  1  0.51938134  0.89401609  0.29159452  1
  O  O23  1  0.60242156  0.22778582  0.70840548  1
  O  O24  1  0.51938134  0.72778582  0.12536525  1
  O  O25  1  0.60242156  0.39401609  0.87463475  1
