# generated using pymatgen
data_Yb2MgTiO6
_symmetry_space_group_name_H-M   'P 1'
_cell_length_a   5.35430622
_cell_length_b   5.65157897
_cell_length_c   7.62507832
_cell_angle_alpha   90.00000000
_cell_angle_beta   88.57948911
_cell_angle_gamma   90.00000000
_symmetry_Int_Tables_number   1
_chemical_formula_structural   Yb2MgTiO6
_chemical_formula_sum   'Yb4 Mg2 Ti2 O12'
_cell_volume   230.66612870
_cell_formula_units_Z   2
loop_
 _symmetry_equiv_pos_site_id
 _symmetry_equiv_pos_as_xyz
  1  'x, y, z'
loop_
 _atom_site_type_symbol
 _atom_site_label
 _atom_site_symmetry_multiplicity
 _atom_site_fract_x
 _atom_site_fract_y
 _atom_site_fract_z
 _atom_site_occupancy
  Yb  Yb0  1  0.02150834  0.43505776  0.25515791  1
  Yb  Yb1  1  0.97849166  0.56494224  0.74484209  1
  Yb  Yb2  1  0.47849166  0.93505776  0.24484209  1
  Yb  Yb3  1  0.52150834  0.06494224  0.75515791  1
  Mg  Mg4  1  -0.00000000  -0.00000000  0.50000000  1
  Mg  Mg5  1  0.50000000  0.50000000  -0.00000000  1
  Ti  Ti6  1  -0.00000000  0.00000000  -0.00000000  1
  Ti  Ti7  1  0.50000000  0.50000000  0.50000000  1
  O  O8  1  0.89834210  0.03317702  0.24504616  1
  O  O9  1  0.10165790  0.96682298  0.75495384  1
  O  O10  1  0.60165790  0.53317702  0.25495384  1
  O  O11  1  0.39834210  0.46682298  0.74504616  1
  O  O12  1  0.19361597  0.71674569  0.05653234  1
  O  O13  1  0.80638403  0.28325431  0.94346766  1
  O  O14  1  0.30638403  0.21674569  0.44346766  1
  O  O15  1  0.69361597  0.78325431  0.55653234  1
  O  O16  1  0.29253029  0.19845036  0.04717011  1
  O  O17  1  0.70746971  0.80154964  0.95282989  1
  O  O18  1  0.20746971  0.69845036  0.45282989  1
  O  O19  1  0.79253029  0.30154964  0.54717011  1
