# generated using pymatgen
data_Tb2Fe17H3
_symmetry_space_group_name_H-M   'P 1'
_cell_length_a   8.21656005
_cell_length_b   8.54646361
_cell_length_c   8.54646361
_cell_angle_alpha   119.99999701
_cell_angle_beta   90.00000000
_cell_angle_gamma   90.00000000
_symmetry_Int_Tables_number   1
_chemical_formula_structural   Tb2Fe17H3
_chemical_formula_sum   'Tb4 Fe34 H6'
_cell_volume   519.74889454
_cell_formula_units_Z   2
loop_
 _symmetry_equiv_pos_site_id
 _symmetry_equiv_pos_as_xyz
  1  'x, y, z'
loop_
 _atom_site_type_symbol
 _atom_site_label
 _atom_site_symmetry_multiplicity
 _atom_site_fract_x
 _atom_site_fract_y
 _atom_site_fract_z
 _atom_site_occupancy
  Tb  Tb0  1  0.75000000  0.66666700  0.33333300  1
  Tb  Tb1  1  0.25000000  0.33333300  0.66666700  1
  Tb  Tb2  1  0.75000000  -0.00000000  0.00000000  1
  Tb  Tb3  1  0.25000000  -0.00000000  0.00000000  1
  Fe  Fe4  1  0.75000000  0.62279423  0.67112368  1
  Fe  Fe5  1  0.25000000  0.37720577  0.32887632  1
  Fe  Fe6  1  0.75000000  0.04832945  0.37720577  1
  Fe  Fe7  1  0.25000000  0.95167055  0.32887632  1
  Fe  Fe8  1  0.25000000  0.95167055  0.62279423  1
  Fe  Fe9  1  0.75000000  0.04832945  0.67112368  1
  Fe  Fe10  1  0.75000000  0.32887632  0.95167055  1
  Fe  Fe11  1  0.25000000  0.67112368  0.62279423  1
  Fe  Fe12  1  0.25000000  0.67112368  0.04832945  1
  Fe  Fe13  1  0.75000000  0.32887632  0.37720577  1
  Fe  Fe14  1  0.25000000  0.37720577  0.04832945  1
  Fe  Fe15  1  0.75000000  0.62279423  0.95167055  1
  Fe  Fe16  1  0.39478840  0.66666700  0.33333300  1
  Fe  Fe17  1  0.60521160  0.33333300  0.66666700  1
  Fe  Fe18  1  0.89478840  0.33333300  0.66666700  1
  Fe  Fe19  1  0.10521160  0.66666700  0.33333300  1
  Fe  Fe20  1  0.98453786  0.83337091  0.16662909  1
  Fe  Fe21  1  0.01546214  0.16662909  0.83337091  1
  Fe  Fe22  1  0.98453786  0.33325819  0.16662909  1
  Fe  Fe23  1  0.48453786  0.16662909  0.83337091  1
  Fe  Fe24  1  0.01546214  0.66674181  0.83337091  1
  Fe  Fe25  1  0.51546214  0.83337091  0.16662909  1
  Fe  Fe26  1  0.98453786  0.83337091  0.66674181  1
  Fe  Fe27  1  0.48453786  0.66674181  0.83337091  1
  Fe  Fe28  1  0.01546214  0.16662909  0.33325819  1
  Fe  Fe29  1  0.51546214  0.33325819  0.16662909  1
  Fe  Fe30  1  0.48453786  0.16662909  0.33325819  1
  Fe  Fe31  1  0.51546214  0.83337091  0.66674181  1
  Fe  Fe32  1  0.00000000  0.50000000  0.50000000  1
  Fe  Fe33  1  0.00000000  -0.00000000  0.50000000  1
  Fe  Fe34  1  0.50000000  0.50000000  0.50000000  1
  Fe  Fe35  1  0.00000000  0.50000000  0.00000000  1
  Fe  Fe36  1  0.50000000  -0.00000000  0.50000000  1
  Fe  Fe37  1  0.50000000  0.50000000  0.00000000  1
  H  H38  1  0.75000000  0.83512017  0.16487983  1
  H  H39  1  0.25000000  0.16487983  0.83512017  1
  H  H40  1  0.75000000  0.32975966  0.16487983  1
  H  H41  1  0.25000000  0.67024034  0.83512017  1
  H  H42  1  0.75000000  0.83512017  0.67024034  1
  H  H43  1  0.25000000  0.16487983  0.32975966  1
