# generated using pymatgen
data_Sr2La2Tl2Cu3O10
_symmetry_space_group_name_H-M   'P 1'
_cell_length_a   3.96367628
_cell_length_b   3.96367628
_cell_length_c   17.95581657
_cell_angle_alpha   96.33682039
_cell_angle_beta   96.33682039
_cell_angle_gamma   90.00000000
_symmetry_Int_Tables_number   1
_chemical_formula_structural   Sr2La2Tl2Cu3O10
_chemical_formula_sum   'Sr2 La2 Tl2 Cu3 O10'
_cell_volume   278.64119952
_cell_formula_units_Z   1
loop_
 _symmetry_equiv_pos_site_id
 _symmetry_equiv_pos_as_xyz
  1  'x, y, z'
loop_
 _atom_site_type_symbol
 _atom_site_label
 _atom_site_symmetry_multiplicity
 _atom_site_fract_x
 _atom_site_fract_y
 _atom_site_fract_z
 _atom_site_occupancy
  Sr  Sr0  1  0.35323404  0.35323404  0.70646808  1
  Sr  Sr1  1  0.64676596  0.64676596  0.29353192  1
  La  La2  1  0.45075532  0.45075532  0.90151064  1
  La  La3  1  0.54924468  0.54924468  0.09848936  1
  Tl  Tl4  1  0.21858197  0.21858197  0.43716395  1
  Tl  Tl5  1  0.78141803  0.78141803  0.56283605  1
  Cu  Cu6  1  0.09556793  0.09556793  0.19113586  1
  Cu  Cu7  1  0.90443207  0.90443207  0.80886414  1
  Cu  Cu8  1  0.00000000  0.00000000  0.00000000  1
  O  O9  1  0.09114674  0.59114674  0.18229348  1
  O  O10  1  0.90885326  0.40885326  0.81770652  1
  O  O11  1  0.59114674  0.09114674  0.18229348  1
  O  O12  1  0.40885326  0.90885326  0.81770652  1
  O  O13  1  0.00000000  0.50000000  0.00000000  1
  O  O14  1  0.50000000  0.00000000  0.00000000  1
  O  O15  1  0.27979460  0.27979460  0.55958920  1
  O  O16  1  0.72020540  0.72020540  0.44041080  1
  O  O17  1  0.15840723  0.15840723  0.31681445  1
  O  O18  1  0.84159277  0.84159277  0.68318555  1
