# generated using pymatgen
data_PH5CN2O3
_symmetry_space_group_name_H-M   'P 1'
_cell_length_a   4.91055835
_cell_length_b   5.88724507
_cell_length_c   8.63178414
_cell_angle_alpha   97.34222913
_cell_angle_beta   87.71598841
_cell_angle_gamma   99.86011426
_symmetry_Int_Tables_number   1
_chemical_formula_structural   PH5CN2O3
_chemical_formula_sum   'P2 H10 C2 N4 O6'
_cell_volume   243.79878603
_cell_formula_units_Z   2
loop_
 _symmetry_equiv_pos_site_id
 _symmetry_equiv_pos_as_xyz
  1  'x, y, z'
loop_
 _atom_site_type_symbol
 _atom_site_label
 _atom_site_symmetry_multiplicity
 _atom_site_fract_x
 _atom_site_fract_y
 _atom_site_fract_z
 _atom_site_occupancy
  P  P0  1  0.16088943  0.10797250  0.24752379  1
  P  P1  1  0.83911057  0.89202750  0.75247621  1
  H  H2  1  0.11550351  0.51027989  0.71226842  1
  H  H3  1  0.88449649  0.48972011  0.28773158  1
  H  H4  1  0.56903882  0.14840201  0.35697419  1
  H  H5  1  0.43096118  0.85159799  0.64302581  1
  H  H6  1  0.19736386  0.24316423  0.62550035  1
  H  H7  1  0.80263614  0.75683577  0.37449965  1
  H  H8  1  0.26531413  0.50836767  0.09577277  1
  H  H9  1  0.73468587  0.49163233  0.90422723  1
  H  H10  1  0.41289179  0.78140008  0.04093958  1
  H  H11  1  0.58710821  0.21859992  0.95906042  1
  C  C12  1  0.10183942  0.78611104  0.20695916  1
  C  C13  1  0.89816058  0.21388896  0.79304084  1
  N  N14  1  0.26708348  0.68639673  0.10632061  1
  N  N15  1  0.73291652  0.31360327  0.89367939  1
  N  N16  1  0.09348224  0.33166022  0.71094905  1
  N  N17  1  0.90651776  0.66833978  0.28905095  1
  O  O18  1  0.89207439  0.17883163  0.30946053  1
  O  O19  1  0.10792561  0.82116837  0.69053947  1
  O  O20  1  0.36816273  0.14658419  0.39018669  1
  O  O21  1  0.63183727  0.85341581  0.60981331  1
  O  O22  1  0.29745527  0.20836662  0.10625788  1
  O  O23  1  0.70254473  0.79163338  0.89374212  1
