# generated using pymatgen
data_Sn7(SI3)2
_symmetry_space_group_name_H-M   'P 1'
_cell_length_a   4.46598233
_cell_length_b   7.66401745
_cell_length_c   16.91151580
_cell_angle_alpha   85.25389391
_cell_angle_beta   82.41252425
_cell_angle_gamma   73.06057659
_symmetry_Int_Tables_number   1
_chemical_formula_structural   Sn7(SI3)2
_chemical_formula_sum   'Sn7 S2 I6'
_cell_volume   548.27621361
_cell_formula_units_Z   1
loop_
 _symmetry_equiv_pos_site_id
 _symmetry_equiv_pos_as_xyz
  1  'x, y, z'
loop_
 _atom_site_type_symbol
 _atom_site_label
 _atom_site_symmetry_multiplicity
 _atom_site_fract_x
 _atom_site_fract_y
 _atom_site_fract_z
 _atom_site_occupancy
  Sn  Sn0  1  0.60074891  0.74612773  0.05237445  1
  Sn  Sn1  1  0.39925109  0.25387227  0.94762555  1
  Sn  Sn2  1  0.62506813  0.22307985  0.52678388  1
  Sn  Sn3  1  0.37493187  0.77692015  0.47321612  1
  Sn  Sn4  1  -0.00000000  0.00000000  0.00000000  1
  Sn  Sn5  1  0.78056787  0.16022107  0.27864318  1
  Sn  Sn6  1  0.21943213  0.83977893  0.72135682  1
  S  S7  1  0.80488014  0.97075415  0.41948557  1
  S  S8  1  0.19511986  0.02924585  0.58051443  1
  I  I9  1  0.24899970  0.38278364  0.11921695  1
  I  I10  1  0.75100030  0.61721636  0.88078305  1
  I  I11  1  0.44682634  0.86574564  0.24060168  1
  I  I12  1  0.55317366  0.13425436  0.75939832  1
  I  I13  1  0.88604216  0.60259825  0.62531744  1
  I  I14  1  0.11395784  0.39740175  0.37468256  1
