# generated using pymatgen
data_Ge3Pb5O12
_symmetry_space_group_name_H-M   'P 1'
_cell_length_a   7.27737724
_cell_length_b   10.27961961
_cell_length_c   10.27961961
_cell_angle_alpha   119.99999434
_cell_angle_beta   90.00000000
_cell_angle_gamma   90.00000000
_symmetry_Int_Tables_number   1
_chemical_formula_structural   Ge3Pb5O12
_chemical_formula_sum   'Ge6 Pb10 O24'
_cell_volume   665.97761697
_cell_formula_units_Z   2
loop_
 _symmetry_equiv_pos_site_id
 _symmetry_equiv_pos_as_xyz
  1  'x, y, z'
loop_
 _atom_site_type_symbol
 _atom_site_label
 _atom_site_symmetry_multiplicity
 _atom_site_fract_x
 _atom_site_fract_y
 _atom_site_fract_z
 _atom_site_occupancy
  Ge  Ge0  1  0.75000000  0.60632470  0.62429714  1
  Ge  Ge1  1  0.25000000  0.39367530  0.37570286  1
  Ge  Ge2  1  0.75000000  0.01797244  0.39367530  1
  Ge  Ge3  1  0.25000000  0.98202756  0.60632470  1
  Ge  Ge4  1  0.75000000  0.37570286  0.98202756  1
  Ge  Ge5  1  0.25000000  0.62429714  0.01797244  1
  Pb  Pb6  1  0.99337802  0.66666700  0.33333300  1
  Pb  Pb7  1  0.00662198  0.33333300  0.66666700  1
  Pb  Pb8  1  0.49337802  0.33333300  0.66666700  1
  Pb  Pb9  1  0.50662198  0.66666700  0.33333300  1
  Pb  Pb10  1  0.75000000  0.73403657  0.98563718  1
  Pb  Pb11  1  0.25000000  0.26596343  0.01436282  1
  Pb  Pb12  1  0.75000000  0.25160061  0.26596343  1
  Pb  Pb13  1  0.25000000  0.74839939  0.73403657  1
  Pb  Pb14  1  0.75000000  0.01436282  0.74839939  1
  Pb  Pb15  1  0.25000000  0.98563718  0.25160061  1
  O  O16  1  0.93858157  0.65841265  0.75017731  1
  O  O17  1  0.06141843  0.34158735  0.24982269  1
  O  O18  1  0.93858157  0.09176466  0.34158735  1
  O  O19  1  0.43858157  0.34158735  0.24982269  1
  O  O20  1  0.06141843  0.90823534  0.65841265  1
  O  O21  1  0.56141843  0.65841265  0.75017731  1
  O  O22  1  0.93858157  0.24982269  0.90823534  1
  O  O23  1  0.43858157  0.90823534  0.65841265  1
  O  O24  1  0.06141843  0.75017731  0.09176466  1
  O  O25  1  0.56141843  0.09176466  0.34158735  1
  O  O26  1  0.43858157  0.75017731  0.09176466  1
  O  O27  1  0.56141843  0.24982269  0.90823534  1
  O  O28  1  0.75000000  0.40394335  0.51753894  1
  O  O29  1  0.25000000  0.59605665  0.48246106  1
  O  O30  1  0.75000000  0.11359559  0.59605665  1
  O  O31  1  0.25000000  0.88640441  0.40394335  1
  O  O32  1  0.75000000  0.48246106  0.88640441  1
  O  O33  1  0.25000000  0.51753894  0.11359559  1
  O  O34  1  0.75000000  0.82008212  0.31721704  1
  O  O35  1  0.25000000  0.17991788  0.68278296  1
  O  O36  1  0.75000000  0.49713492  0.17991788  1
  O  O37  1  0.25000000  0.50286508  0.82008212  1
  O  O38  1  0.75000000  0.68278296  0.50286508  1
  O  O39  1  0.25000000  0.31721704  0.49713492  1
