# generated using pymatgen
data_Er3Co6Sn5
_symmetry_space_group_name_H-M   'P 1'
_cell_length_a   4.31305808
_cell_length_b   8.09040495
_cell_length_c   8.09040495
_cell_angle_alpha   72.77490867
_cell_angle_beta   74.54069338
_cell_angle_gamma   74.54069338
_symmetry_Int_Tables_number   1
_chemical_formula_structural   Er3Co6Sn5
_chemical_formula_sum   'Er3 Co6 Sn5'
_cell_volume   254.43723648
_cell_formula_units_Z   1
loop_
 _symmetry_equiv_pos_site_id
 _symmetry_equiv_pos_as_xyz
  1  'x, y, z'
loop_
 _atom_site_type_symbol
 _atom_site_label
 _atom_site_symmetry_multiplicity
 _atom_site_fract_x
 _atom_site_fract_y
 _atom_site_fract_z
 _atom_site_occupancy
  Er  Er0  1  0.00000000  -0.00000000  -0.00000000  1
  Er  Er1  1  0.68293230  0.31706770  0.31706770  1
  Er  Er2  1  0.31706770  0.68293230  0.68293230  1
  Co  Co3  1  0.50000000  0.30422357  0.69577643  1
  Co  Co4  1  0.50000000  0.69577643  0.30422357  1
  Co  Co5  1  0.89200907  0.83467655  0.38130531  1
  Co  Co6  1  0.10799093  0.16532345  0.61869469  1
  Co  Co7  1  0.89200907  0.38130531  0.83467655  1
  Co  Co8  1  0.10799093  0.61869469  0.16532345  1
  Sn  Sn9  1  0.67678921  0.98092963  0.66549196  1
  Sn  Sn10  1  0.32321079  0.01907037  0.33450804  1
  Sn  Sn11  1  0.67678921  0.66549196  0.98092963  1
  Sn  Sn12  1  0.32321079  0.33450804  0.01907037  1
  Sn  Sn13  1  0.00000000  0.50000000  0.50000000  1
