# generated using pymatgen
data_CaMnO2
_symmetry_space_group_name_H-M   'P 1'
_cell_length_a   3.21896125
_cell_length_b   8.75598851
_cell_length_c   9.02256603
_cell_angle_alpha   94.67795945
_cell_angle_beta   72.01862294
_cell_angle_gamma   95.76358095
_symmetry_Int_Tables_number   1
_chemical_formula_structural   CaMnO2
_chemical_formula_sum   'Ca4 Mn4 O8'
_cell_volume   240.31538817
_cell_formula_units_Z   4
loop_
 _symmetry_equiv_pos_site_id
 _symmetry_equiv_pos_as_xyz
  1  'x, y, z'
loop_
 _atom_site_type_symbol
 _atom_site_label
 _atom_site_symmetry_multiplicity
 _atom_site_fract_x
 _atom_site_fract_y
 _atom_site_fract_z
 _atom_site_occupancy
  Ca  Ca0  1  0.36466186  0.07473952  0.26238785  1
  Ca  Ca1  1  0.63405750  0.90651030  0.76707260  1
  Ca  Ca2  1  0.27872972  0.71208857  0.09311151  1
  Ca  Ca3  1  0.71664748  0.26887377  0.93615313  1
  Mn  Mn4  1  0.47495638  0.25375908  0.61127656  1
  Mn  Mn5  1  0.00577355  0.40200669  0.28650850  1
  Mn  Mn6  1  0.98949015  0.57912121  0.74275343  1
  Mn  Mn7  1  0.52135619  0.72753556  0.41805565  1
  O  O8  1  0.89004402  0.71394770  0.57196050  1
  O  O9  1  0.39595809  0.43111965  0.79894310  1
  O  O10  1  0.59904449  0.55008548  0.23035244  1
  O  O11  1  0.10651697  0.26727698  0.45737002  1
  O  O12  1  0.18114923  0.09478870  0.77096803  1
  O  O13  1  0.03409220  0.21813737  0.12401423  1
  O  O14  1  0.81866728  0.88656448  0.25891109  1
  O  O15  1  0.96127892  0.76297293  0.90546637  1
