# generated using pymatgen
data_KAl2(SiO3)4
_symmetry_space_group_name_H-M   'P 1'
_cell_length_a   5.20489687
_cell_length_b   5.22117033
_cell_length_c   20.15319101
_cell_angle_alpha   87.40583307
_cell_angle_beta   84.79003488
_cell_angle_gamma   60.10305087
_symmetry_Int_Tables_number   1
_chemical_formula_structural   KAl2(SiO3)4
_chemical_formula_sum   'K2 Al4 Si8 O24'
_cell_volume   472.83164036
_cell_formula_units_Z   2
loop_
 _symmetry_equiv_pos_site_id
 _symmetry_equiv_pos_as_xyz
  1  'x, y, z'
loop_
 _atom_site_type_symbol
 _atom_site_label
 _atom_site_symmetry_multiplicity
 _atom_site_fract_x
 _atom_site_fract_y
 _atom_site_fract_z
 _atom_site_occupancy
  K  K0  1  0.09974613  0.80050775  0.75000000  1
  K  K1  1  0.90025387  0.19949225  0.25000000  1
  Al  Al2  1  0.32535329  0.83701796  0.99971866  1
  Al  Al3  1  0.67464671  0.16298204  0.00028134  1
  Al  Al4  1  0.83762875  0.83701796  0.50028134  1
  Al  Al5  1  0.16237125  0.16298204  0.49971866  1
  Si  Si6  1  0.46471511  0.14111451  0.63293615  1
  Si  Si7  1  0.53528489  0.85888549  0.36706385  1
  Si  Si8  1  0.39417037  0.14111451  0.86706385  1
  Si  Si9  1  0.60582963  0.85888549  0.13293615  1
  Si  Si10  1  0.70917855  0.48417756  0.86737564  1
  Si  Si11  1  0.29082145  0.51582244  0.13262436  1
  Si  Si12  1  0.80664389  0.48417756  0.63262436  1
  Si  Si13  1  0.19335611  0.51582244  0.36737564  1
  O  O14  1  0.62636485  0.50918534  0.94667926  1
  O  O15  1  0.37363515  0.49081466  0.05332074  1
  O  O16  1  0.86444981  0.50918534  0.55332074  1
  O  O17  1  0.13555019  0.49081466  0.44667926  1
  O  O18  1  0.07657428  0.90656925  0.54923478  1
  O  O19  1  0.92342572  0.09343075  0.45076522  1
  O  O20  1  0.01685646  0.90656925  0.95076522  1
  O  O21  1  0.98314354  0.09343075  0.04923478  1
  O  O22  1  0.58206721  0.35720369  0.65847267  1
  O  O23  1  0.41793279  0.64279631  0.34152733  1
  O  O24  1  0.06072909  0.35720369  0.84152733  1
  O  O25  1  0.93927091  0.64279631  0.15847267  1
  O  O26  1  0.60320746  0.27544142  0.83175965  1
  O  O27  1  0.39679254  0.72455858  0.16824035  1
  O  O28  1  0.12135113  0.27544142  0.66824035  1
  O  O29  1  0.87864887  0.72455858  0.33175965  1
  O  O30  1  0.52588745  0.81388592  0.83191463  1
  O  O31  1  0.47411255  0.18611408  0.16808537  1
  O  O32  1  0.66022664  0.81388592  0.66808537  1
  O  O33  1  0.33977336  0.18611408  0.33191463  1
  O  O34  1  0.47037807  0.11572673  0.55343295  1
  O  O35  1  0.52962193  0.88427327  0.44656705  1
  O  O36  1  0.41389519  0.11572673  0.94656705  1
  O  O37  1  0.58610481  0.88427327  0.05343295  1
