# generated using pymatgen
data_Na3Eu2(SiTe3)2
_symmetry_space_group_name_H-M   'P 1'
_cell_length_a   7.79650921
_cell_length_b   7.79650921
_cell_length_c   8.47864649
_cell_angle_alpha   98.78584616
_cell_angle_beta   98.78584616
_cell_angle_gamma   119.99515761
_symmetry_Int_Tables_number   1
_chemical_formula_structural   Na3Eu2(SiTe3)2
_chemical_formula_sum   'Na3 Eu2 Si2 Te6'
_cell_volume   425.01964383
_cell_formula_units_Z   1
loop_
 _symmetry_equiv_pos_site_id
 _symmetry_equiv_pos_as_xyz
  1  'x, y, z'
loop_
 _atom_site_type_symbol
 _atom_site_label
 _atom_site_symmetry_multiplicity
 _atom_site_fract_x
 _atom_site_fract_y
 _atom_site_fract_z
 _atom_site_occupancy
  Na  Na0  1  0.66848074  0.33151926  0.00000000  1
  Na  Na1  1  0.33151926  0.66848074  -0.00000000  1
  Na  Na2  1  -0.00000000  -0.00000000  0.00000000  1
  Eu  Eu3  1  0.83340823  0.16659177  0.50000000  1
  Eu  Eu4  1  0.16659177  0.83340823  0.50000000  1
  Si  Si5  1  0.54836192  0.54836192  0.64732640  1
  Si  Si6  1  0.45163808  0.45163808  0.35267360  1
  Te  Te7  1  0.58077015  0.89891299  0.74408495  1
  Te  Te8  1  0.41922985  0.10108701  0.25591505  1
  Te  Te9  1  0.10108701  0.41922985  0.25591505  1
  Te  Te10  1  0.89891299  0.58077015  0.74408495  1
  Te  Te11  1  0.26249058  0.26249058  0.74189339  1
  Te  Te12  1  0.73750942  0.73750942  0.25810661  1
