# generated using pymatgen
data_KAsOF5
_symmetry_space_group_name_H-M   'P 1'
_cell_length_a   9.51234429
_cell_length_b   9.52013101
_cell_length_c   11.39732955
_cell_angle_alpha   90.00000000
_cell_angle_beta   90.00000000
_cell_angle_gamma   90.00000000
_symmetry_Int_Tables_number   1
_chemical_formula_structural   KAsOF5
_chemical_formula_sum   'K8 As8 O8 F40'
_cell_volume   1032.12807527
_cell_formula_units_Z   8
loop_
 _symmetry_equiv_pos_site_id
 _symmetry_equiv_pos_as_xyz
  1  'x, y, z'
loop_
 _atom_site_type_symbol
 _atom_site_label
 _atom_site_symmetry_multiplicity
 _atom_site_fract_x
 _atom_site_fract_y
 _atom_site_fract_z
 _atom_site_occupancy
  K  K0  1  0.00132683  0.23398497  0.66695578  1
  K  K1  1  0.49867317  0.26601503  0.16695578  1
  K  K2  1  0.50132683  0.76601503  0.33304422  1
  K  K3  1  0.99867317  0.73398497  0.83304422  1
  K  K4  1  0.99867317  0.76601503  0.33304422  1
  K  K5  1  0.50132683  0.73398497  0.83304422  1
  K  K6  1  0.49867317  0.23398497  0.66695578  1
  K  K7  1  0.00132683  0.26601503  0.16695578  1
  As  As8  1  0.25000000  0.06413902  0.90342618  1
  As  As9  1  0.25000000  0.43586098  0.40342618  1
  As  As10  1  0.75000000  0.93586098  0.09657382  1
  As  As11  1  0.75000000  0.56413902  0.59657382  1
  As  As12  1  0.25000000  0.41112667  0.89979000  1
  As  As13  1  0.25000000  0.08887333  0.39979000  1
  As  As14  1  0.75000000  0.58887333  0.10021000  1
  As  As15  1  0.75000000  0.91112667  0.60021000  1
  O  O16  1  0.25000000  0.23618593  0.83712456  1
  O  O17  1  0.25000000  0.26381407  0.33712456  1
  O  O18  1  0.75000000  0.76381407  0.16287544  1
  O  O19  1  0.75000000  0.73618593  0.66287544  1
  O  O20  1  0.25000000  0.75358158  0.66986128  1
  O  O21  1  0.25000000  0.74641842  0.16986128  1
  O  O22  1  0.75000000  0.24641842  0.33013872  1
  O  O23  1  0.75000000  0.25358158  0.83013872  1
  F  F24  1  0.25000000  0.88509546  0.95112005  1
  F  F25  1  0.25000000  0.61490454  0.45112005  1
  F  F26  1  0.75000000  0.11490454  0.04887995  1
  F  F27  1  0.75000000  0.38509546  0.54887995  1
  F  F28  1  0.25000000  0.36186072  0.05110538  1
  F  F29  1  0.25000000  0.13813928  0.55110538  1
  F  F30  1  0.75000000  0.63813928  0.94889462  1
  F  F31  1  0.75000000  0.86186072  0.44889462  1
  F  F32  1  0.11629486  0.01388816  0.80042572  1
  F  F33  1  0.38370514  0.48611184  0.30042572  1
  F  F34  1  0.61629486  0.98611184  0.19957428  1
  F  F35  1  0.88370514  0.51388816  0.69957428  1
  F  F36  1  0.88370514  0.98611184  0.19957428  1
  F  F37  1  0.61629486  0.51388816  0.69957428  1
  F  F38  1  0.38370514  0.01388816  0.80042572  1
  F  F39  1  0.11629486  0.48611184  0.30042572  1
  F  F40  1  0.11727042  0.10252957  0.00785862  1
  F  F41  1  0.38272958  0.39747043  0.50785862  1
  F  F42  1  0.61727042  0.89747043  0.99214138  1
  F  F43  1  0.88272958  0.60252957  0.49214138  1
  F  F44  1  0.88272958  0.89747043  0.99214138  1
  F  F45  1  0.61727042  0.60252957  0.49214138  1
  F  F46  1  0.38272958  0.10252957  0.00785862  1
  F  F47  1  0.11727042  0.39747043  0.50785862  1
  F  F48  1  0.06255297  0.41459802  0.90235333  1
  F  F49  1  0.43744703  0.08540198  0.40235333  1
  F  F50  1  0.56255297  0.58540198  0.09764667  1
  F  F51  1  0.93744703  0.91459802  0.59764667  1
  F  F52  1  0.93744703  0.58540198  0.09764667  1
  F  F53  1  0.56255297  0.91459802  0.59764667  1
  F  F54  1  0.43744703  0.41459802  0.90235333  1
  F  F55  1  0.06255297  0.08540198  0.40235333  1
  F  F56  1  0.25000000  0.47386335  0.75207607  1
  F  F57  1  0.25000000  0.02613665  0.25207607  1
  F  F58  1  0.75000000  0.52613665  0.24792393  1
  F  F59  1  0.75000000  0.97386335  0.74792393  1
  F  F60  1  0.25000000  0.59167096  0.94390711  1
  F  F61  1  0.25000000  0.90832904  0.44390711  1
  F  F62  1  0.75000000  0.40832904  0.05609289  1
  F  F63  1  0.75000000  0.09167096  0.55609289  1
