# generated using pymatgen
data_V7S8
_symmetry_space_group_name_H-M   'P 1'
_cell_length_a   6.81893569
_cell_length_b   6.38977614
_cell_length_c   6.81894999
_cell_angle_alpha   76.43571630
_cell_angle_beta   55.88085798
_cell_angle_gamma   103.51545909
_symmetry_Int_Tables_number   1
_chemical_formula_structural   V7S8
_chemical_formula_sum   'V7 S8'
_cell_volume   213.06374877
_cell_formula_units_Z   1
loop_
 _symmetry_equiv_pos_site_id
 _symmetry_equiv_pos_as_xyz
  1  'x, y, z'
loop_
 _atom_site_type_symbol
 _atom_site_label
 _atom_site_symmetry_multiplicity
 _atom_site_fract_x
 _atom_site_fract_y
 _atom_site_fract_z
 _atom_site_occupancy
  V  V0  1  0.00098958  0.00005607  0.99905660  1
  V  V1  1  0.49901042  0.99994393  0.50094340  1
  V  V2  1  0.99768334  0.50040050  0.99684578  1
  V  V3  1  0.50231666  0.49959950  0.50315422  1
  V  V4  1  0.25000000  -0.00000000  0.25000000  1
  V  V5  1  0.75000000  -0.00000000  0.75000000  1
  V  V6  1  0.25000000  0.50000000  0.25000000  1
  S  S7  1  0.29823254  0.33553215  0.95541601  1
  S  S8  1  0.79100914  0.33558914  0.46262271  1
  S  S9  1  0.29036651  0.83327002  0.95718280  1
  S  S10  1  0.79170911  0.82789731  0.46368314  1
  S  S11  1  0.70829089  0.17210269  0.03631686  1
  S  S12  1  0.20963349  0.16672998  0.54281720  1
  S  S13  1  0.70899086  0.66441086  0.03737729  1
  S  S14  1  0.20176746  0.66446785  0.54458399  1
