# generated using pymatgen
data_FeBi6P2(O7F)2
_symmetry_space_group_name_H-M   'P 1'
_cell_length_a   5.59885852
_cell_length_b   8.85261958
_cell_length_c   16.40482908
_cell_angle_alpha   78.25523785
_cell_angle_beta   80.17458075
_cell_angle_gamma   71.56515251
_symmetry_Int_Tables_number   1
_chemical_formula_structural   FeBi6P2(O7F)2
_chemical_formula_sum   'Fe2 Bi12 P4 O28 F4'
_cell_volume   750.26357206
_cell_formula_units_Z   2
loop_
 _symmetry_equiv_pos_site_id
 _symmetry_equiv_pos_as_xyz
  1  'x, y, z'
loop_
 _atom_site_type_symbol
 _atom_site_label
 _atom_site_symmetry_multiplicity
 _atom_site_fract_x
 _atom_site_fract_y
 _atom_site_fract_z
 _atom_site_occupancy
  Fe  Fe0  1  0.00000000  -0.00000000  -0.00000000  1
  Fe  Fe1  1  0.00000000  0.50000000  0.50000000  1
  Bi  Bi2  1  0.88924986  0.89368335  0.32684381  1
  Bi  Bi3  1  0.11075014  0.10631665  0.67315619  1
  Bi  Bi4  1  0.10977702  0.60631665  0.17315619  1
  Bi  Bi5  1  0.89022298  0.39368335  0.82684381  1
  Bi  Bi6  1  0.76736525  0.23240108  0.16578214  1
  Bi  Bi7  1  0.23263475  0.76759892  0.83421786  1
  Bi  Bi8  1  0.16554848  0.26759892  0.33421786  1
  Bi  Bi9  1  0.83445152  0.73240108  0.66578214  1
  Bi  Bi10  1  0.57211546  0.54970226  0.32705346  1
  Bi  Bi11  1  0.42788454  0.45029774  0.67294654  1
  Bi  Bi12  1  0.44887117  0.95029774  0.17294654  1
  Bi  Bi13  1  0.55112883  0.04970226  0.82705346  1
  P  P14  1  0.63414583  0.71556225  0.99621201  1
  P  P15  1  0.36585417  0.28443775  0.00378799  1
  P  P16  1  0.34592009  0.78443775  0.50378799  1
  P  P17  1  0.65407991  0.21556225  0.49621201  1
  O  O18  1  0.82780533  0.00285041  0.11491032  1
  O  O19  1  0.17219467  0.99714959  0.88508968  1
  O  O20  1  0.94556606  0.49714959  0.38508968  1
  O  O21  1  0.05443394  0.50285041  0.61491032  1
  O  O22  1  0.21672969  0.75000000  0.25000000  1
  O  O23  1  0.78327031  0.25000000  0.75000000  1
  O  O24  1  0.71442799  0.75000000  0.25000000  1
  O  O25  1  0.28557201  0.25000000  0.75000000  1
  O  O26  1  0.61889576  0.68581227  0.51457224  1
  O  O27  1  0.38110424  0.31418773  0.48542776  1
  O  O28  1  0.81928027  0.81418773  0.98542776  1
  O  O29  1  0.18071973  0.18581227  0.01457224  1
  O  O30  1  0.38091118  0.77862723  0.04980380  1
  O  O31  1  0.61908882  0.22137277  0.95019620  1
  O  O32  1  0.20934220  0.72137277  0.45019620  1
  O  O33  1  0.79065780  0.27862723  0.54980380  1
  O  O34  1  0.38402749  0.33344875  0.08629213  1
  O  O35  1  0.61597251  0.66655125  0.91370787  1
  O  O36  1  0.80376836  0.16655125  0.41370787  1
  O  O37  1  0.19623164  0.83344875  0.58629213  1
  O  O38  1  0.40307820  0.42064924  0.24283085  1
  O  O39  1  0.59692180  0.57935076  0.75716915  1
  O  O40  1  0.06655829  0.07935076  0.25716915  1
  O  O41  1  0.93344171  0.92064924  0.74283085  1
  O  O42  1  0.56258380  0.08023530  0.25895235  1
  O  O43  1  0.43741620  0.91976470  0.74104765  1
  O  O44  1  0.90177146  0.41976470  0.24104765  1
  O  O45  1  0.09822854  0.58023530  0.75895235  1
  F  F46  1  0.36731899  0.95315761  0.44592592  1
  F  F47  1  0.63268101  0.04684239  0.55407408  1
  F  F48  1  0.76640252  0.54684239  0.05407408  1
  F  F49  1  0.23359748  0.45315761  0.94592592  1
