# generated using pymatgen
data_Ce6SiNi4
_symmetry_space_group_name_H-M   'P 1'
_cell_length_a   4.68163804
_cell_length_b   10.77139428
_cell_length_c   10.77139428
_cell_angle_alpha   119.99999933
_cell_angle_beta   90.00000000
_cell_angle_gamma   90.00000000
_symmetry_Int_Tables_number   1
_chemical_formula_structural   Ce6SiNi4
_chemical_formula_sum   'Ce12 Si2 Ni8'
_cell_volume   470.40541723
_cell_formula_units_Z   2
loop_
 _symmetry_equiv_pos_site_id
 _symmetry_equiv_pos_as_xyz
  1  'x, y, z'
loop_
 _atom_site_type_symbol
 _atom_site_label
 _atom_site_symmetry_multiplicity
 _atom_site_fract_x
 _atom_site_fract_y
 _atom_site_fract_z
 _atom_site_occupancy
  Ce  Ce0  1  0.75000000  0.76443340  0.00286540  1
  Ce  Ce1  1  0.25000000  0.23556660  0.99713460  1
  Ce  Ce2  1  0.75000000  0.23843200  0.23556660  1
  Ce  Ce3  1  0.25000000  0.76156800  0.76443340  1
  Ce  Ce4  1  0.75000000  0.99713460  0.76156800  1
  Ce  Ce5  1  0.25000000  0.00286540  0.23843200  1
  Ce  Ce6  1  0.75000000  0.47619070  0.61410688  1
  Ce  Ce7  1  0.25000000  0.52380930  0.38589312  1
  Ce  Ce8  1  0.75000000  0.13791618  0.52380930  1
  Ce  Ce9  1  0.25000000  0.86208382  0.47619070  1
  Ce  Ce10  1  0.75000000  0.38589312  0.86208382  1
  Ce  Ce11  1  0.25000000  0.61410688  0.13791618  1
  Si  Si12  1  0.75000000  0.66666700  0.33333300  1
  Si  Si13  1  0.25000000  0.33333300  0.66666700  1
  Ni  Ni14  1  0.75000000  0.85817653  0.28284831  1
  Ni  Ni15  1  0.25000000  0.14182347  0.71715169  1
  Ni  Ni16  1  0.75000000  0.42467178  0.14182347  1
  Ni  Ni17  1  0.25000000  0.57532822  0.85817653  1
  Ni  Ni18  1  0.75000000  0.71715169  0.57532822  1
  Ni  Ni19  1  0.25000000  0.28284831  0.42467178  1
  Ni  Ni20  1  0.00000000  -0.00000000  -0.00000000  1
  Ni  Ni21  1  0.50000000  -0.00000000  -0.00000000  1
