# generated using pymatgen
data_Zn9Fe4
_symmetry_space_group_name_H-M   'P 1'
_cell_length_a   7.76358735
_cell_length_b   7.76358735
_cell_length_c   7.78487650
_cell_angle_alpha   70.83250431
_cell_angle_beta   70.83250431
_cell_angle_gamma   110.09839076
_symmetry_Int_Tables_number   1
_chemical_formula_structural   Zn9Fe4
_chemical_formula_sum   'Zn18 Fe8'
_cell_volume   361.09398239
_cell_formula_units_Z   2
loop_
 _symmetry_equiv_pos_site_id
 _symmetry_equiv_pos_as_xyz
  1  'x, y, z'
loop_
 _atom_site_type_symbol
 _atom_site_label
 _atom_site_symmetry_multiplicity
 _atom_site_fract_x
 _atom_site_fract_y
 _atom_site_fract_z
 _atom_site_occupancy
  Zn  Zn0  1  0.38166484  0.66155822  0.34690752  1
  Zn  Zn1  1  0.65400898  0.65400898  0.62044071  1
  Zn  Zn2  1  0.66155822  0.38166484  0.34690752  1
  Zn  Zn3  1  0.61969591  0.28255082  0.72960044  1
  Zn  Zn4  1  0.33941494  0.71200762  0.01641230  1
  Zn  Zn5  1  0.34247492  0.99577942  0.27435783  1
  Zn  Zn6  1  0.99577942  0.34247492  0.27435783  1
  Zn  Zn7  1  0.71200762  0.33941494  0.01641230  1
  Zn  Zn8  1  0.28255082  0.61969591  0.72960044  1
  Zn  Zn9  1  0.99081252  0.71796060  0.65774768  1
  Zn  Zn10  1  0.28775774  0.28775774  0.36430925  1
  Zn  Zn11  1  0.71796060  0.99081252  0.65774768  1
  Zn  Zn12  1  0.33678588  0.33678588  0.66157692  1
  Zn  Zn13  1  0.66260241  0.00111269  0.99808782  1
  Zn  Zn14  1  0.00111269  0.66260241  0.99808782  1
  Zn  Zn15  1  0.00028362  0.00028362  0.33974897  1
  Zn  Zn16  1  0.36272051  0.00104678  0.63562444  1
  Zn  Zn17  1  0.00104678  0.36272051  0.63562444  1
  Fe  Fe18  1  0.65431372  0.65431372  0.99416391  1
  Fe  Fe19  1  0.65668889  0.00115586  0.34172579  1
  Fe  Fe20  1  0.00115586  0.65668889  0.34172579  1
  Fe  Fe21  1  0.35124152  0.35124152  0.99754497  1
  Fe  Fe22  1  0.78231414  0.78231414  0.21544381  1
  Fe  Fe23  1  0.20601653  0.99864367  0.00304379  1
  Fe  Fe24  1  0.99864367  0.20601653  0.00304379  1
  Fe  Fe25  1  -0.00061277  -0.00061277  0.79975623  1
