# generated using pymatgen
data_Yb7Mg3Si8
_symmetry_space_group_name_H-M   'P 1'
_cell_length_a   7.10389823
_cell_length_b   7.74619145
_cell_length_c   15.07811604
_cell_angle_alpha   89.47276034
_cell_angle_beta   90.00000000
_cell_angle_gamma   90.00000000
_symmetry_Int_Tables_number   1
_chemical_formula_structural   Yb7Mg3Si8
_chemical_formula_sum   'Yb14 Mg6 Si16'
_cell_volume   829.68578826
_cell_formula_units_Z   2
loop_
 _symmetry_equiv_pos_site_id
 _symmetry_equiv_pos_as_xyz
  1  'x, y, z'
loop_
 _atom_site_type_symbol
 _atom_site_label
 _atom_site_symmetry_multiplicity
 _atom_site_fract_x
 _atom_site_fract_y
 _atom_site_fract_z
 _atom_site_occupancy
  Yb  Yb0  1  0.48626247  0.68108700  0.40783775  1
  Yb  Yb1  1  0.98626247  0.81891300  0.09216225  1
  Yb  Yb2  1  0.51480141  0.32020097  0.90152589  1
  Yb  Yb3  1  0.01480141  0.17979903  0.59847411  1
  Yb  Yb4  1  0.51377244  0.32900113  0.59893886  1
  Yb  Yb5  1  0.01377244  0.17099887  0.90106114  1
  Yb  Yb6  1  0.48291071  0.68254389  0.09725993  1
  Yb  Yb7  1  0.98291071  0.81745611  0.40274007  1
  Yb  Yb8  1  0.82445284  0.31482849  0.37377772  1
  Yb  Yb9  1  0.32445284  0.18517151  0.12622228  1
  Yb  Yb10  1  0.82525244  0.31965224  0.12379306  1
  Yb  Yb11  1  0.32525244  0.18034776  0.37620694  1
  Yb  Yb12  1  0.17010044  0.68772342  0.62733752  1
  Yb  Yb13  1  0.67010044  0.81227658  0.87266248  1
  Mg  Mg14  1  0.34826553  0.01956444  0.74967982  1
  Mg  Mg15  1  0.84826553  0.48043556  0.75032018  1
  Mg  Mg16  1  0.65242639  0.97072306  0.24654177  1
  Mg  Mg17  1  0.15242639  0.52927694  0.25345823  1
  Mg  Mg18  1  0.17850419  0.68808941  0.87200424  1
  Mg  Mg19  1  0.67850419  0.81191059  0.62799576  1
  Si  Si20  1  0.46626846  0.59116115  0.75364265  1
  Si  Si21  1  0.96626846  0.90883885  0.74635735  1
  Si  Si22  1  0.52329346  0.41839167  0.25135902  1
  Si  Si23  1  0.02329346  0.08160833  0.24864098  1
  Si  Si24  1  0.34097884  0.96918093  0.96410745  1
  Si  Si25  1  0.84097884  0.53081907  0.53589255  1
  Si  Si26  1  0.66072703  0.02327488  0.47767537  1
  Si  Si27  1  0.16072703  0.47672512  0.02232463  1
  Si  Si28  1  0.64289830  0.02810957  0.02942396  1
  Si  Si29  1  0.14289830  0.47189043  0.47057604  1
  Si  Si30  1  0.36835573  0.97673501  0.54420019  1
  Si  Si31  1  0.86835573  0.52326499  0.95579981  1
  Si  Si32  1  0.23007287  0.37656808  0.74865482  1
  Si  Si33  1  0.73007287  0.12343192  0.75134518  1
  Si  Si34  1  0.77065644  0.62749273  0.24897598  1
  Si  Si35  1  0.27065644  0.87250727  0.25102402  1
