# generated using pymatgen
data_ZrTiZn4O8
_symmetry_space_group_name_H-M   'P 1'
_cell_length_a   6.18723536
_cell_length_b   6.16348265
_cell_length_c   6.19462544
_cell_angle_alpha   60.34044655
_cell_angle_beta   58.46291717
_cell_angle_gamma   89.03141554
_symmetry_Int_Tables_number   1
_chemical_formula_structural   ZrTiZn4O8
_chemical_formula_sum   'Zr1 Ti1 Zn4 O8'
_cell_volume   165.36397770
_cell_formula_units_Z   1
loop_
 _symmetry_equiv_pos_site_id
 _symmetry_equiv_pos_as_xyz
  1  'x, y, z'
loop_
 _atom_site_type_symbol
 _atom_site_label
 _atom_site_symmetry_multiplicity
 _atom_site_fract_x
 _atom_site_fract_y
 _atom_site_fract_z
 _atom_site_occupancy
  Zr  Zr0  1  0.62500000  0.87500000  0.75000000  1
  Ti  Ti1  1  0.62500000  0.37500000  0.25000000  1
  Zn  Zn2  1  0.26377585  0.75856115  0.50557089  1
  Zn  Zn3  1  0.98622415  0.99143885  0.99442911  1
  Zn  Zn4  1  0.12500000  0.37500000  0.25000000  1
  Zn  Zn5  1  0.62500000  0.37500000  0.75000000  1
  O  O6  1  0.86395077  0.13730067  0.72622082  1
  O  O7  1  0.39401200  0.13305503  0.71441432  1
  O  O8  1  0.85598800  0.61694497  0.78558568  1
  O  O9  1  0.38604923  0.61269933  0.77377918  1
  O  O10  1  0.84978134  0.59001609  0.26013217  1
  O  O11  1  0.84794273  0.13209071  0.26177463  1
  O  O12  1  0.40205727  0.61790929  0.23822537  1
  O  O13  1  0.40021866  0.15998391  0.23986783  1
