# generated using pymatgen
data_VP2O7
_symmetry_space_group_name_H-M   'P 1'
_cell_length_a   6.95452649
_cell_length_b   8.58697930
_cell_length_c   9.36796370
_cell_angle_alpha   90.00000000
_cell_angle_beta   72.24720733
_cell_angle_gamma   90.00000000
_symmetry_Int_Tables_number   1
_chemical_formula_structural   VP2O7
_chemical_formula_sum   'V4 P8 O28'
_cell_volume   532.79958253
_cell_formula_units_Z   4
loop_
 _symmetry_equiv_pos_site_id
 _symmetry_equiv_pos_as_xyz
  1  'x, y, z'
loop_
 _atom_site_type_symbol
 _atom_site_label
 _atom_site_symmetry_multiplicity
 _atom_site_fract_x
 _atom_site_fract_y
 _atom_site_fract_z
 _atom_site_occupancy
  V  V0  1  0.70429604  0.07768654  0.19411655  1
  V  V1  1  0.70429604  0.42231346  0.69411655  1
  V  V2  1  0.29570396  0.57768654  0.30588345  1
  V  V3  1  0.29570396  0.92231346  0.80588345  1
  P  P4  1  0.52396960  0.71393331  0.53624111  1
  P  P5  1  0.09529846  0.24427230  0.24622651  1
  P  P6  1  0.90470154  0.74427230  0.25377349  1
  P  P7  1  0.09529846  0.25572770  0.74622651  1
  P  P8  1  0.52396960  0.78606669  0.03624111  1
  P  P9  1  0.90470154  0.75572770  0.75377349  1
  P  P10  1  0.47603040  0.21393331  0.96375889  1
  P  P11  1  0.47603040  0.28606669  0.46375889  1
  O  O12  1  0.51953325  0.12709852  0.37966682  1
  O  O13  1  0.26127453  0.22286589  0.08086693  1
  O  O14  1  0.89396958  0.26373341  0.70954790  1
  O  O15  1  0.12790587  0.07797541  0.78307459  1
  O  O16  1  0.48046675  0.87290148  0.62033318  1
  O  O17  1  0.73872547  0.77713411  0.91913307  1
  O  O18  1  0.63520740  0.19689811  0.04849166  1
  O  O19  1  0.52219725  0.91714373  0.14522165  1
  O  O20  1  0.87209413  0.57797541  0.71692541  1
  O  O21  1  0.36479260  0.69689811  0.45150834  1
  O  O22  1  0.51953325  0.37290148  0.87966682  1
  O  O23  1  0.87386005  0.86657941  0.64389871  1
  O  O24  1  0.48046675  0.62709852  0.12033318  1
  O  O25  1  0.10603042  0.73626659  0.29045210  1
  O  O26  1  0.47780275  0.41714373  0.35477835  1
  O  O27  1  0.36479260  0.80310189  0.95150834  1
  O  O28  1  0.87209413  0.92202459  0.21692541  1
  O  O29  1  0.89396958  0.23626659  0.20954790  1
  O  O30  1  0.12613995  0.13342059  0.35610129  1
  O  O31  1  0.52219725  0.58285627  0.64522165  1
  O  O32  1  0.26127453  0.27713411  0.58086693  1
  O  O33  1  0.63520740  0.30310189  0.54849166  1
  O  O34  1  0.47780275  0.08285627  0.85477835  1
  O  O35  1  0.12790587  0.42202459  0.28307459  1
  O  O36  1  0.73872547  0.72286589  0.41913307  1
  O  O37  1  0.87386005  0.63342059  0.14389871  1
  O  O38  1  0.10603042  0.76373341  0.79045210  1
  O  O39  1  0.12613995  0.36657941  0.85610129  1
