# generated using pymatgen
data_YCo2(B2Rh)2
_symmetry_space_group_name_H-M   'P 1'
_cell_length_a   5.21898594
_cell_length_b   5.21898594
_cell_length_c   7.24045785
_cell_angle_alpha   90.00000000
_cell_angle_beta   90.00000000
_cell_angle_gamma   90.00000000
_symmetry_Int_Tables_number   1
_chemical_formula_structural   YCo2(B2Rh)2
_chemical_formula_sum   'Y2 Co4 B8 Rh4'
_cell_volume   197.21424594
_cell_formula_units_Z   2
loop_
 _symmetry_equiv_pos_site_id
 _symmetry_equiv_pos_as_xyz
  1  'x, y, z'
loop_
 _atom_site_type_symbol
 _atom_site_label
 _atom_site_symmetry_multiplicity
 _atom_site_fract_x
 _atom_site_fract_y
 _atom_site_fract_z
 _atom_site_occupancy
  Y  Y0  1  0.75000000  0.25000000  0.25646860  1
  Y  Y1  1  0.25000000  0.75000000  0.75646860  1
  Co  Co2  1  0.00200062  0.75000000  0.10728997  1
  Co  Co3  1  0.49799938  0.75000000  0.10728997  1
  Co  Co4  1  0.75000000  0.00200062  0.60728997  1
  Co  Co5  1  0.75000000  0.49799938  0.60728997  1
  B  B6  1  0.58593987  0.75000000  0.40473988  1
  B  B7  1  0.91406013  0.75000000  0.40473988  1
  B  B8  1  0.75000000  0.58593987  0.90473988  1
  B  B9  1  0.75000000  0.91406013  0.90473988  1
  B  B10  1  0.43353987  0.25000000  0.59423199  1
  B  B11  1  0.06646013  0.25000000  0.59423199  1
  B  B12  1  0.25000000  0.43353987  0.09423199  1
  B  B13  1  0.25000000  0.06646013  0.09423199  1
  Rh  Rh14  1  0.99696921  0.25000000  0.89050387  1
  Rh  Rh15  1  0.50303079  0.25000000  0.89050387  1
  Rh  Rh16  1  0.25000000  0.99696921  0.39050387  1
  Rh  Rh17  1  0.25000000  0.50303079  0.39050387  1
