# generated using pymatgen
data_Tm4US7
_symmetry_space_group_name_H-M   'P 1'
_cell_length_a   3.74216988
_cell_length_b   6.61896625
_cell_length_c   11.56482112
_cell_angle_alpha   104.18664024
_cell_angle_beta   90.00000000
_cell_angle_gamma   73.57946270
_symmetry_Int_Tables_number   1
_chemical_formula_structural   Tm4US7
_chemical_formula_sum   'Tm4 U1 S7'
_cell_volume   265.64883255
_cell_formula_units_Z   1
loop_
 _symmetry_equiv_pos_site_id
 _symmetry_equiv_pos_as_xyz
  1  'x, y, z'
loop_
 _atom_site_type_symbol
 _atom_site_label
 _atom_site_symmetry_multiplicity
 _atom_site_fract_x
 _atom_site_fract_y
 _atom_site_fract_z
 _atom_site_occupancy
  Tm  Tm0  1  0.69961358  0.60077283  0.18735179  1
  Tm  Tm1  1  0.30177021  0.39645958  0.81159825  1
  Tm  Tm2  1  0.11791923  0.76416155  0.57747888  1
  Tm  Tm3  1  0.99983578  0.00032844  0.99740074  1
  U  U4  1  0.88428186  0.23143628  0.42392064  1
  S  S5  1  0.73902587  0.52194826  0.65379316  1
  S  S6  1  0.25381931  0.49236137  0.34844535  1
  S  S7  1  0.04106633  0.91786734  0.21212664  1
  S  S8  1  0.95950082  0.08099836  0.78445353  1
  S  S9  1  0.50236372  0.99527256  0.50339916  1
  S  S10  1  0.34142003  0.31715994  0.05039564  1
  S  S11  1  0.65938325  0.68123350  0.94963623  1
