# generated using pymatgen
data_ThFe2Ni3
_symmetry_space_group_name_H-M   'P 1'
_cell_length_a   3.99874893
_cell_length_b   4.98620631
_cell_length_c   4.98560475
_cell_angle_alpha   120.00398810
_cell_angle_beta   90.00000000
_cell_angle_gamma   90.00000000
_symmetry_Int_Tables_number   1
_chemical_formula_structural   ThFe2Ni3
_chemical_formula_sum   'Th1 Fe2 Ni3'
_cell_volume   86.08458765
_cell_formula_units_Z   1
loop_
 _symmetry_equiv_pos_site_id
 _symmetry_equiv_pos_as_xyz
  1  'x, y, z'
loop_
 _atom_site_type_symbol
 _atom_site_label
 _atom_site_symmetry_multiplicity
 _atom_site_fract_x
 _atom_site_fract_y
 _atom_site_fract_z
 _atom_site_occupancy
  Th  Th0  1  -0.00000000  0.99999402  0.00000000  1
  Fe  Fe1  1  -0.00000000  0.33331719  0.66673105  1
  Fe  Fe2  1  -0.00000000  0.66658614  0.33326895  1
  Ni  Ni3  1  0.50000000  0.50001410  1.00000000  1
  Ni  Ni4  1  0.50000000  0.49999879  0.50000902  1
  Ni  Ni5  1  0.50000000  0.99998977  0.49999098  1
