# generated using pymatgen
data_ThUH8(C2O5)4
_symmetry_space_group_name_H-M   'P 1'
_cell_length_a   6.97822251
_cell_length_b   6.97822251
_cell_length_c   9.61195251
_cell_angle_alpha   90.00000000
_cell_angle_beta   90.00000000
_cell_angle_gamma   103.06769265
_symmetry_Int_Tables_number   1
_chemical_formula_structural   ThUH8(C2O5)4
_chemical_formula_sum   'Th1 U1 H8 C8 O20'
_cell_volume   455.93863824
_cell_formula_units_Z   1
loop_
 _symmetry_equiv_pos_site_id
 _symmetry_equiv_pos_as_xyz
  1  'x, y, z'
loop_
 _atom_site_type_symbol
 _atom_site_label
 _atom_site_symmetry_multiplicity
 _atom_site_fract_x
 _atom_site_fract_y
 _atom_site_fract_z
 _atom_site_occupancy
  Th  Th0  1  -0.00000000  0.00000000  -0.00000000  1
  U  U1  1  0.50000000  0.50000000  0.50000000  1
  H  H2  1  0.28998662  0.86143012  0.54728967  1
  H  H3  1  0.71001338  0.13856988  0.54728967  1
  H  H4  1  0.86143012  0.28998662  0.45271033  1
  H  H5  1  0.13856988  0.71001338  0.45271033  1
  H  H6  1  0.21110054  0.63684121  0.95287476  1
  H  H7  1  0.78889946  0.36315879  0.95287476  1
  H  H8  1  0.63684121  0.21110054  0.04712524  1
  H  H9  1  0.36315879  0.78889946  0.04712524  1
  C  C10  1  0.76457333  0.65285444  0.78133847  1
  C  C11  1  0.23542667  0.34714556  0.78133847  1
  C  C12  1  0.65285444  0.76457333  0.21866153  1
  C  C13  1  0.34714556  0.23542667  0.21866153  1
  C  C14  1  0.73285020  0.84391358  0.71624054  1
  C  C15  1  0.26714980  0.15608642  0.71624054  1
  C  C16  1  0.84391358  0.73285020  0.28375946  1
  C  C17  1  0.15608642  0.26714980  0.28375946  1
  O  O18  1  0.63818477  0.82666572  0.60184911  1
  O  O19  1  0.36181523  0.17333428  0.60184911  1
  O  O20  1  0.82666572  0.63818477  0.39815089  1
  O  O21  1  0.17333428  0.36181523  0.39815089  1
  O  O22  1  0.85714173  0.66597154  0.89625390  1
  O  O23  1  0.14285827  0.33402846  0.89625390  1
  O  O24  1  0.66597154  0.85714173  0.10374610  1
  O  O25  1  0.33402846  0.14285827  0.10374610  1
  O  O26  1  0.26593497  0.73406503  0.50000000  1
  O  O27  1  0.73406503  0.26593497  0.50000000  1
  O  O28  1  0.23535291  0.76464709  0.00000000  1
  O  O29  1  0.76464709  0.23535291  0.00000000  1
  O  O30  1  0.69491147  0.49668588  0.71530459  1
  O  O31  1  0.30508853  0.50331412  0.71530459  1
  O  O32  1  0.49668588  0.69491147  0.28469541  1
  O  O33  1  0.50331412  0.30508853  0.28469541  1
  O  O34  1  0.80216406  0.00178012  0.77985101  1
  O  O35  1  0.19783594  0.99821988  0.77985101  1
  O  O36  1  0.00178012  0.80216406  0.22014899  1
  O  O37  1  0.99821988  0.19783594  0.22014899  1
