# generated using pymatgen
data_Ca(MoO3)2
_symmetry_space_group_name_H-M   'P 1'
_cell_length_a   5.46091253
_cell_length_b   5.56576744
_cell_length_c   7.75991355
_cell_angle_alpha   90.00042910
_cell_angle_beta   89.57670832
_cell_angle_gamma   90.00075469
_symmetry_Int_Tables_number   1
_chemical_formula_structural   Ca(MoO3)2
_chemical_formula_sum   'Ca2 Mo4 O12'
_cell_volume   235.84968820
_cell_formula_units_Z   2
loop_
 _symmetry_equiv_pos_site_id
 _symmetry_equiv_pos_as_xyz
  1  'x, y, z'
loop_
 _atom_site_type_symbol
 _atom_site_label
 _atom_site_symmetry_multiplicity
 _atom_site_fract_x
 _atom_site_fract_y
 _atom_site_fract_z
 _atom_site_occupancy
  Ca  Ca0  1  0.51120161  0.54895116  0.24808064  1
  Ca  Ca1  1  0.01386729  0.95257175  0.74785675  1
  Mo  Mo2  1  0.49673833  0.00936710  0.00175563  1
  Mo  Mo3  1  0.99980374  0.49761631  0.00092443  1
  Mo  Mo4  1  0.00261338  0.49180814  0.50075049  1
  Mo  Mo5  1  0.50584474  0.00362191  0.50221666  1
  O  O6  1  0.69745795  0.28671756  0.45741174  1
  O  O7  1  0.20414827  0.20281272  0.54383652  1
  O  O8  1  0.78941562  0.77247867  0.03079811  1
  O  O9  1  0.28174375  0.71885167  0.96749523  1
  O  O10  1  0.29325615  0.72680699  0.53032510  1
  O  O11  1  0.78609044  0.78124387  0.46763029  1
  O  O12  1  0.19494809  0.21290192  0.95848400  1
  O  O13  1  0.69971503  0.29820149  0.04293173  1
  O  O14  1  0.07911744  0.48162212  0.25529182  1
  O  O15  1  0.58170588  0.01640709  0.75651891  1
  O  O16  1  0.44216531  0.98235825  0.24396742  1
  O  O17  1  0.94234599  0.51572127  0.74361652  1
