# generated using pymatgen
data_U2CoSe2S3
_symmetry_space_group_name_H-M   'P 1'
_cell_length_a   6.23688919
_cell_length_b   7.13483750
_cell_length_c   7.99088976
_cell_angle_alpha   96.87834638
_cell_angle_beta   67.02994067
_cell_angle_gamma   90.00000018
_symmetry_Int_Tables_number   1
_chemical_formula_structural   U2CoSe2S3
_chemical_formula_sum   'U4 Co2 Se4 S6'
_cell_volume   324.61165781
_cell_formula_units_Z   2
loop_
 _symmetry_equiv_pos_site_id
 _symmetry_equiv_pos_as_xyz
  1  'x, y, z'
loop_
 _atom_site_type_symbol
 _atom_site_label
 _atom_site_symmetry_multiplicity
 _atom_site_fract_x
 _atom_site_fract_y
 _atom_site_fract_z
 _atom_site_occupancy
  U  U0  1  0.67650457  0.58224974  0.19553119  1
  U  U1  1  0.87203575  0.91775026  0.80446881  1
  U  U2  1  0.32349543  0.41775026  0.80446881  1
  U  U3  1  0.12796425  0.08224974  0.19553119  1
  Co  Co4  1  0.50000000  -0.00000000  0.50000000  1
  Co  Co5  1  -0.00000000  0.50000000  0.50000000  1
  Se  Se6  1  0.30194360  0.69251219  0.56163247  1
  Se  Se7  1  0.86357607  0.80748781  0.43836753  1
  Se  Se8  1  0.69805640  0.30748781  0.43836753  1
  Se  Se9  1  0.13642393  0.19251219  0.56163247  1
  S  S10  1  0.08401675  0.75000000  0.00000000  1
  S  S11  1  0.91598325  0.25000000  1.00000000  1
  S  S12  1  0.52948154  0.92511036  0.18006266  1
  S  S13  1  0.70954419  0.57488964  0.81993734  1
  S  S14  1  0.47051846  0.07488964  0.81993734  1
  S  S15  1  0.29045581  0.42511036  0.18006266  1
