# generated using pymatgen
data_TmIn7Cu5
_symmetry_space_group_name_H-M   'P 1'
_cell_length_a   5.62123051
_cell_length_b   7.24439877
_cell_length_c   7.24439877
_cell_angle_alpha   98.55952532
_cell_angle_beta   112.82829607
_cell_angle_gamma   67.17170393
_symmetry_Int_Tables_number   1
_chemical_formula_structural   TmIn7Cu5
_chemical_formula_sum   'Tm1 In7 Cu5'
_cell_volume   250.60383097
_cell_formula_units_Z   1
loop_
 _symmetry_equiv_pos_site_id
 _symmetry_equiv_pos_as_xyz
  1  'x, y, z'
loop_
 _atom_site_type_symbol
 _atom_site_label
 _atom_site_symmetry_multiplicity
 _atom_site_fract_x
 _atom_site_fract_y
 _atom_site_fract_z
 _atom_site_occupancy
  Tm  Tm0  1  0.00171859  0.99828141  0.00171859  1
  In  In1  1  0.65828822  0.34171178  0.65828822  1
  In  In2  1  0.33362032  0.66637968  0.33362032  1
  In  In3  1  0.98838491  0.35033638  0.32710620  1
  In  In4  1  0.98838491  0.67289380  0.64966362  1
  In  In5  1  0.27332022  0.22667978  0.77332022  1
  In  In6  1  0.51205718  0.78995282  0.81406718  1
  In  In7  1  0.51205718  0.18593282  0.21004718  1
  Cu  Cu8  1  0.49829543  0.99349735  0.49608823  1
  Cu  Cu9  1  0.00429545  0.99349735  0.49608823  1
  Cu  Cu10  1  0.49829543  0.50391177  0.00650265  1
  Cu  Cu11  1  0.00429545  0.50391177  0.00650265  1
  Cu  Cu12  1  0.72698671  0.77301329  0.22698671  1
