# generated using pymatgen
data_UGeAu
_symmetry_space_group_name_H-M   'P 1'
_cell_length_a   4.47969989
_cell_length_b   5.71118139
_cell_length_c   5.85113849
_cell_angle_alpha   107.70773666
_cell_angle_beta   112.50759663
_cell_angle_gamma   66.90935760
_symmetry_Int_Tables_number   1
_chemical_formula_structural   UGeAu
_chemical_formula_sum   'U2 Ge2 Au2'
_cell_volume   125.10855871
_cell_formula_units_Z   2
loop_
 _symmetry_equiv_pos_site_id
 _symmetry_equiv_pos_as_xyz
  1  'x, y, z'
loop_
 _atom_site_type_symbol
 _atom_site_label
 _atom_site_symmetry_multiplicity
 _atom_site_fract_x
 _atom_site_fract_y
 _atom_site_fract_z
 _atom_site_occupancy
  U  U0  1  0.54555145  0.70635743  0.79746033  1
  U  U1  1  0.45444855  0.29364257  0.20253967  1
  Ge  Ge2  1  0.84109062  0.13000574  0.81218699  1
  Ge  Ge3  1  0.15890938  0.86999426  0.18781301  1
  Au  Au4  1  0.16593706  0.27200384  0.60387796  1
  Au  Au5  1  0.83406294  0.72799616  0.39612204  1
