# generated using pymatgen
data_Sr4Nb2O9
_symmetry_space_group_name_H-M   'P 1'
_cell_length_a   6.00608733
_cell_length_b   8.30614031
_cell_length_c   10.73035545
_cell_angle_alpha   67.22959381
_cell_angle_beta   73.74789274
_cell_angle_gamma   90.00000000
_symmetry_Int_Tables_number   1
_chemical_formula_structural   Sr4Nb2O9
_chemical_formula_sum   'Sr8 Nb4 O18'
_cell_volume   470.30426472
_cell_formula_units_Z   2
loop_
 _symmetry_equiv_pos_site_id
 _symmetry_equiv_pos_as_xyz
  1  'x, y, z'
loop_
 _atom_site_type_symbol
 _atom_site_label
 _atom_site_symmetry_multiplicity
 _atom_site_fract_x
 _atom_site_fract_y
 _atom_site_fract_z
 _atom_site_occupancy
  Sr  Sr0  1  0.50000000  0.24486313  0.00000000  1
  Sr  Sr1  1  0.86039415  0.59261858  0.27921070  1
  Sr  Sr2  1  0.13960585  0.87183028  0.72078930  1
  Sr  Sr3  1  0.50000000  0.75513687  0.00000000  1
  Sr  Sr4  1  0.86039415  0.12816972  0.27921070  1
  Sr  Sr5  1  0.13960585  0.40738142  0.72078930  1
  Sr  Sr6  1  0.32875877  0.82875877  0.34248145  1
  Sr  Sr7  1  0.67124123  0.17124123  0.65751855  1
  Nb  Nb8  1  -0.00000000  -0.00000000  0.00000000  1
  Nb  Nb9  1  0.33539539  0.33539539  0.32920822  1
  Nb  Nb10  1  0.66460461  0.66460461  0.67079178  1
  Nb  Nb11  1  -0.00000000  0.50000000  0.00000000  1
  O  O12  1  -0.00000000  0.25204249  0.00000000  1
  O  O13  1  0.36486840  0.58866450  0.27026221  1
  O  O14  1  0.63513160  0.85892770  0.72973779  1
  O  O15  1  0.15362205  0.42445027  0.15109847  1
  O  O16  1  0.47882965  0.72676837  0.54646426  1
  O  O17  1  0.85247011  0.07650944  0.84698112  1
  O  O18  1  0.30472151  0.57554973  0.84890153  1
  O  O19  1  0.69945123  0.92349056  0.15301888  1
  O  O20  1  0.02529291  0.27323163  0.45353574  1
  O  O21  1  -0.00000000  0.74795751  0.00000000  1
  O  O22  1  0.36486840  0.14107230  0.27026221  1
  O  O23  1  0.63513160  0.41133550  0.72973779  1
  O  O24  1  0.84637795  0.57554973  0.84890153  1
  O  O25  1  0.14752989  0.92349056  0.15301888  1
  O  O26  1  0.52117035  0.27323163  0.45353574  1
  O  O27  1  0.69527849  0.42445027  0.15109847  1
  O  O28  1  0.97470709  0.72676837  0.54646426  1
  O  O29  1  0.30054877  0.07650944  0.84698112  1
