# generated using pymatgen
data_Sr2La2MnZnO8
_symmetry_space_group_name_H-M   'P 1'
_cell_length_a   3.88642555
_cell_length_b   3.88642555
_cell_length_c   12.62712286
_cell_angle_alpha   90.00000000
_cell_angle_beta   90.00000000
_cell_angle_gamma   90.00000000
_symmetry_Int_Tables_number   1
_chemical_formula_structural   Sr2La2MnZnO8
_chemical_formula_sum   'Sr2 La2 Mn1 Zn1 O8'
_cell_volume   190.72389671
_cell_formula_units_Z   1
loop_
 _symmetry_equiv_pos_site_id
 _symmetry_equiv_pos_as_xyz
  1  'x, y, z'
loop_
 _atom_site_type_symbol
 _atom_site_label
 _atom_site_symmetry_multiplicity
 _atom_site_fract_x
 _atom_site_fract_y
 _atom_site_fract_z
 _atom_site_occupancy
  Sr  Sr0  1  -0.00000000  -0.00000000  0.63716837  1
  Sr  Sr1  1  0.00000000  0.00000000  0.36283163  1
  La  La2  1  0.50000000  0.50000000  0.14524782  1
  La  La3  1  0.50000000  0.50000000  0.85475218  1
  Mn  Mn4  1  0.50000000  0.50000000  0.50000000  1
  Zn  Zn5  1  0.00000000  -0.00000000  0.00000000  1
  O  O6  1  0.50000000  0.50000000  0.33490967  1
  O  O7  1  -0.00000000  -0.00000000  0.82612557  1
  O  O8  1  0.00000000  0.00000000  0.17387443  1
  O  O9  1  0.50000000  0.50000000  0.66509033  1
  O  O10  1  0.50000000  -0.00000000  0.50000000  1
  O  O11  1  0.00000000  0.50000000  -0.00000000  1
  O  O12  1  0.50000000  -0.00000000  -0.00000000  1
  O  O13  1  0.00000000  0.50000000  0.50000000  1
