# generated using pymatgen
data_PrTl2InTe4
_symmetry_space_group_name_H-M   'P 1'
_cell_length_a   7.16571013
_cell_length_b   7.16571013
_cell_length_c   7.16571013
_cell_angle_alpha   65.26966364
_cell_angle_beta   73.09258737
_cell_angle_gamma   106.90741263
_symmetry_Int_Tables_number   1
_chemical_formula_structural   PrTl2InTe4
_chemical_formula_sum   'Pr1 Tl2 In1 Te4'
_cell_volume   281.43436089
_cell_formula_units_Z   1
loop_
 _symmetry_equiv_pos_site_id
 _symmetry_equiv_pos_as_xyz
  1  'x, y, z'
loop_
 _atom_site_type_symbol
 _atom_site_label
 _atom_site_symmetry_multiplicity
 _atom_site_fract_x
 _atom_site_fract_y
 _atom_site_fract_z
 _atom_site_occupancy
  Pr  Pr0  1  0.50000000  0.25000000  0.25000000  1
  Tl  Tl1  1  0.00000000  0.25000000  0.75000000  1
  Tl  Tl2  1  0.00000000  0.75000000  0.25000000  1
  In  In3  1  0.50000000  0.75000000  0.75000000  1
  Te  Te4  1  0.50000000  0.33851883  0.78499942  1
  Te  Te5  1  0.50000000  0.71500058  0.16148117  1
  Te  Te6  1  0.12351825  0.78499942  0.71500058  1
  Te  Te7  1  0.87648175  0.16148117  0.33851883  1
