# generated using pymatgen
data_TbGePd
_symmetry_space_group_name_H-M   'P 1'
_cell_length_a   4.40193930
_cell_length_b   5.70316925
_cell_length_c   5.66295353
_cell_angle_alpha   94.12204857
_cell_angle_beta   112.87121368
_cell_angle_gamma   67.29910512
_symmetry_Int_Tables_number   1
_chemical_formula_structural   TbGePd
_chemical_formula_sum   'Tb2 Ge2 Pd2'
_cell_volume   120.33235209
_cell_formula_units_Z   2
loop_
 _symmetry_equiv_pos_site_id
 _symmetry_equiv_pos_as_xyz
  1  'x, y, z'
loop_
 _atom_site_type_symbol
 _atom_site_label
 _atom_site_symmetry_multiplicity
 _atom_site_fract_x
 _atom_site_fract_y
 _atom_site_fract_z
 _atom_site_occupancy
  Tb  Tb0  1  0.75980471  0.69809786  0.21770728  1
  Tb  Tb1  1  0.24019529  0.30190214  0.78229272  1
  Ge  Ge2  1  0.05261771  0.10741883  0.21265426  1
  Ge  Ge3  1  0.94738229  0.89258117  0.78734574  1
  Pd  Pd4  1  0.54872664  0.27255852  0.37001180  1
  Pd  Pd5  1  0.45127336  0.72744148  0.62998820  1
