# generated using pymatgen
data_Sr6CaY2TiCu6(HgO10)2
_symmetry_space_group_name_H-M   'P 1'
_cell_length_a   3.77048243
_cell_length_b   11.62924574
_cell_length_c   12.13166600
_cell_angle_alpha   90.00000000
_cell_angle_beta   90.00000000
_cell_angle_gamma   90.00000000
_symmetry_Int_Tables_number   1
_chemical_formula_structural   Sr6CaY2TiCu6(HgO10)2
_chemical_formula_sum   'Sr6 Ca1 Y2 Ti1 Cu6 Hg2 O20'
_cell_volume   531.94767406
_cell_formula_units_Z   1
loop_
 _symmetry_equiv_pos_site_id
 _symmetry_equiv_pos_as_xyz
  1  'x, y, z'
loop_
 _atom_site_type_symbol
 _atom_site_label
 _atom_site_symmetry_multiplicity
 _atom_site_fract_x
 _atom_site_fract_y
 _atom_site_fract_z
 _atom_site_occupancy
  Sr  Sr0  1  0.50000000  0.16666700  0.77467236  1
  Sr  Sr1  1  0.50000000  0.50422278  0.79530523  1
  Sr  Sr2  1  0.50000000  0.82911022  0.79530523  1
  Sr  Sr3  1  0.50000000  0.16666700  0.22532764  1
  Sr  Sr4  1  0.50000000  0.50422278  0.20469477  1
  Sr  Sr5  1  0.50000000  0.82911022  0.20469477  1
  Ca  Ca6  1  0.50000000  0.16666700  0.50000000  1
  Y  Y7  1  0.50000000  0.49873908  0.50000000  1
  Y  Y8  1  0.50000000  0.83459392  0.50000000  1
  Ti  Ti9  1  0.00000000  0.66666700  -0.00000000  1
  Cu  Cu10  1  -0.00000000  0.00014383  0.63352588  1
  Cu  Cu11  1  0.00000000  0.33318917  0.63352588  1
  Cu  Cu12  1  -0.00000000  0.66666700  0.63566002  1
  Cu  Cu13  1  -0.00000000  0.00014383  0.36647412  1
  Cu  Cu14  1  0.00000000  0.33318917  0.36647412  1
  Cu  Cu15  1  0.00000000  0.66666700  0.36433998  1
  Hg  Hg16  1  0.00000000  0.99764279  0.00000000  1
  Hg  Hg17  1  0.00000000  0.33569021  -0.00000000  1
  O  O18  1  -0.00000000  0.16666700  0.63120386  1
  O  O19  1  0.00000000  0.50040480  0.62294007  1
  O  O20  1  0.00000000  0.83292820  0.62294007  1
  O  O21  1  0.50000000  0.99454141  0.62415357  1
  O  O22  1  0.50000000  0.33879159  0.62415357  1
  O  O23  1  0.50000000  0.66666700  0.62092298  1
  O  O24  1  -0.00000000  0.16666700  0.36879614  1
  O  O25  1  -0.00000000  0.50040480  0.37705993  1
  O  O26  1  -0.00000000  0.83292820  0.37705993  1
  O  O27  1  0.50000000  0.99454141  0.37584643  1
  O  O28  1  0.50000000  0.33879159  0.37584643  1
  O  O29  1  0.50000000  0.66666700  0.37907702  1
  O  O30  1  -0.00000000  0.00213242  0.83280328  1
  O  O31  1  0.00000000  0.33120058  0.83280328  1
  O  O32  1  0.00000000  0.66666700  0.84477058  1
  O  O33  1  -0.00000000  0.00213242  0.16719672  1
  O  O34  1  -0.00000000  0.33120058  0.16719672  1
  O  O35  1  0.00000000  0.66666700  0.15522942  1
  O  O36  1  0.50000000  0.55316971  0.00000000  1
  O  O37  1  0.50000000  0.78016329  -0.00000000  1
