# generated using pymatgen
data_SmAlNi
_symmetry_space_group_name_H-M   'P 1'
_cell_length_a   5.41747912
_cell_length_b   5.47158924
_cell_length_c   8.51981006
_cell_angle_alpha   90.00000000
_cell_angle_beta   90.00000000
_cell_angle_gamma   120.35002645
_symmetry_Int_Tables_number   1
_chemical_formula_structural   SmAlNi
_chemical_formula_sum   'Sm4 Al4 Ni4'
_cell_volume   217.93583490
_cell_formula_units_Z   4
loop_
 _symmetry_equiv_pos_site_id
 _symmetry_equiv_pos_as_xyz
  1  'x, y, z'
loop_
 _atom_site_type_symbol
 _atom_site_label
 _atom_site_symmetry_multiplicity
 _atom_site_fract_x
 _atom_site_fract_y
 _atom_site_fract_z
 _atom_site_occupancy
  Sm  Sm0  1  0.66583405  0.33289324  0.54251920  1
  Sm  Sm1  1  0.34070313  0.67035589  0.42646994  1
  Sm  Sm2  1  0.34070313  0.67035589  0.07353006  1
  Sm  Sm3  1  0.66583405  0.33289324  0.95748080  1
  Al  Al4  1  0.99436037  0.99718529  0.49017898  1
  Al  Al5  1  0.99436037  0.99718529  0.00982102  1
  Al  Al6  1  0.17108837  0.33823614  0.75000000  1
  Al  Al7  1  0.17101471  0.83290456  0.75000000  1
  Ni  Ni8  1  0.66484749  0.83234044  0.75000000  1
  Ni  Ni9  1  0.83375395  0.66878750  0.25000000  1
  Ni  Ni10  1  0.83383010  0.16503758  0.25000000  1
  Ni  Ni11  1  0.32367026  0.16182494  0.25000000  1
