# generated using pymatgen
data_Sr3MgMn2S2O5
_symmetry_space_group_name_H-M   'P 1'
_cell_length_a   3.93372780
_cell_length_b   3.93372780
_cell_length_c   14.13220625
_cell_angle_alpha   98.00016955
_cell_angle_beta   98.00016955
_cell_angle_gamma   90.00000000
_symmetry_Int_Tables_number   1
_chemical_formula_structural   Sr3MgMn2S2O5
_chemical_formula_sum   'Sr3 Mg1 Mn2 S2 O5'
_cell_volume   214.40703301
_cell_formula_units_Z   1
loop_
 _symmetry_equiv_pos_site_id
 _symmetry_equiv_pos_as_xyz
  1  'x, y, z'
loop_
 _atom_site_type_symbol
 _atom_site_label
 _atom_site_symmetry_multiplicity
 _atom_site_fract_x
 _atom_site_fract_y
 _atom_site_fract_z
 _atom_site_occupancy
  Sr  Sr0  1  0.50000000  0.50000000  0.00000000  1
  Sr  Sr1  1  0.63818492  0.63818492  0.27637084  1
  Sr  Sr2  1  0.36181508  0.36181508  0.72362916  1
  Mg  Mg3  1  0.75000000  0.25000000  0.50000000  1
  Mn  Mn4  1  0.07175676  0.07175676  0.14351452  1
  Mn  Mn5  1  0.92824324  0.92824324  0.85648548  1
  S  S6  1  0.19391911  0.19391911  0.38783821  1
  S  S7  1  0.80608089  0.80608089  0.61216179  1
  O  O8  1  0.07952078  0.57952078  0.15904056  1
  O  O9  1  0.58030037  0.08030037  0.16059973  1
  O  O10  1  0.91969963  0.41969963  0.83940027  1
  O  O11  1  0.42047922  0.92047922  0.84095944  1
  O  O12  1  0.00000000  0.00000000  0.00000000  1
