# generated using pymatgen
data_Nb3V3Ge2
_symmetry_space_group_name_H-M   'P 1'
_cell_length_a   4.99568438
_cell_length_b   4.99568438
_cell_length_c   4.99568438
_cell_angle_alpha   89.95246055
_cell_angle_beta   90.04753945
_cell_angle_gamma   90.04753945
_symmetry_Int_Tables_number   1
_chemical_formula_structural   Nb3V3Ge2
_chemical_formula_sum   'Nb3 V3 Ge2'
_cell_volume   124.67647907
_cell_formula_units_Z   1
loop_
 _symmetry_equiv_pos_site_id
 _symmetry_equiv_pos_as_xyz
  1  'x, y, z'
loop_
 _atom_site_type_symbol
 _atom_site_label
 _atom_site_symmetry_multiplicity
 _atom_site_fract_x
 _atom_site_fract_y
 _atom_site_fract_z
 _atom_site_occupancy
  Nb  Nb0  1  0.50123124  0.75000000  0.00123124  1
  Nb  Nb1  1  0.25000000  0.00123124  0.49876876  1
  Nb  Nb2  1  0.99876876  0.49876876  0.75000000  1
  V  V3  1  0.49967031  0.25000000  0.99967031  1
  V  V4  1  0.75000000  0.99967031  0.50032969  1
  V  V5  1  0.00032969  0.50032969  0.25000000  1
  Ge  Ge6  1  0.50316493  0.49683507  0.49683507  1
  Ge  Ge7  1  0.99683507  0.00316493  0.00316493  1
