# generated using pymatgen
data_Rb2U3P4H4O19
_symmetry_space_group_name_H-M   'P 1'
_cell_length_a   9.78419166
_cell_length_b   9.78419166
_cell_length_c   11.32014088
_cell_angle_alpha   83.86669246
_cell_angle_beta   83.86669246
_cell_angle_gamma   65.17535497
_symmetry_Int_Tables_number   1
_chemical_formula_structural   Rb2U3P4H4O19
_chemical_formula_sum   'Rb4 U6 P8 H8 O38'
_cell_volume   975.60667019
_cell_formula_units_Z   2
loop_
 _symmetry_equiv_pos_site_id
 _symmetry_equiv_pos_as_xyz
  1  'x, y, z'
loop_
 _atom_site_type_symbol
 _atom_site_label
 _atom_site_symmetry_multiplicity
 _atom_site_fract_x
 _atom_site_fract_y
 _atom_site_fract_z
 _atom_site_occupancy
  Rb  Rb0  1  0.48283454  0.04280644  0.32082952  1
  Rb  Rb1  1  0.95767206  0.51693904  0.17968590  1
  Rb  Rb2  1  0.51693904  0.95767206  0.67968590  1
  Rb  Rb3  1  0.04280644  0.48283454  0.82082952  1
  U  U4  1  0.47017546  0.53399634  0.75099654  1
  U  U5  1  0.53399634  0.47017546  0.25099654  1
  U  U6  1  0.07342252  0.26272489  0.51121710  1
  U  U7  1  0.73670841  0.92873695  0.99213512  1
  U  U8  1  0.92873695  0.73670841  0.49213512  1
  U  U9  1  0.26272489  0.07342252  0.01121710  1
  P  P10  1  0.30722698  0.40162867  0.53301038  1
  P  P11  1  0.59478164  0.69804725  0.96752632  1
  P  P12  1  0.69804725  0.59478164  0.46752632  1
  P  P13  1  0.40162867  0.30722698  0.03301038  1
  P  P14  1  0.16451282  0.74702180  0.96964531  1
  P  P15  1  0.25408036  0.83574317  0.53252317  1
  P  P16  1  0.83574317  0.25408036  0.03252317  1
  P  P17  1  0.74702180  0.16451282  0.46964531  1
  H  H18  1  0.22104103  0.65380682  0.07249991  1
  H  H19  1  0.34701642  0.77837040  0.42990710  1
  H  H20  1  0.77837040  0.34701642  0.92990710  1
  H  H21  1  0.65380682  0.22104103  0.57249991  1
  H  H22  1  0.06767795  0.94656101  0.78033612  1
  H  H23  1  0.05324662  0.93279787  0.72020359  1
  H  H24  1  0.93279787  0.05324662  0.22020359  1
  H  H25  1  0.94656101  0.06767795  0.28033612  1
  O  O26  1  0.99707140  0.77737351  0.97281347  1
  O  O27  1  0.22357723  0.00312403  0.52872562  1
  O  O28  1  0.00312403  0.22357723  0.02872562  1
  O  O29  1  0.77737351  0.99707140  0.47281347  1
  O  O30  1  0.12861245  0.27083918  0.35251482  1
  O  O31  1  0.73124760  0.87183233  0.15045629  1
  O  O32  1  0.87183233  0.73124760  0.65045629  1
  O  O33  1  0.27083918  0.12861245  0.85251482  1
  O  O34  1  0.38403200  0.45062029  0.42312862  1
  O  O35  1  0.54552266  0.61093276  0.06956642  1
  O  O36  1  0.61093276  0.54552266  0.56956642  1
  O  O37  1  0.45062029  0.38403200  0.92312862  1
  O  O38  1  0.36243048  0.43291743  0.64902197  1
  O  O39  1  0.55677762  0.66089049  0.84612792  1
  O  O40  1  0.66089049  0.55677762  0.34612792  1
  O  O41  1  0.43291743  0.36243048  0.14902197  1
  O  O42  1  0.33053054  0.23480996  0.53805133  1
  O  O43  1  0.76238270  0.67106072  0.96414003  1
  O  O44  1  0.67106072  0.76238270  0.46414003  1
  O  O45  1  0.23480996  0.33053054  0.03805133  1
  O  O46  1  0.19383524  0.88825370  0.97373514  1
  O  O47  1  0.11268075  0.80643627  0.52987886  1
  O  O48  1  0.80643627  0.11268075  0.02987886  1
  O  O49  1  0.88825370  0.19383524  0.47373514  1
  O  O50  1  0.25225061  0.65651821  0.85984777  1
  O  O51  1  0.34473975  0.74884641  0.64262776  1
  O  O52  1  0.74884641  0.34473975  0.14262776  1
  O  O53  1  0.65651821  0.25225061  0.35984777  1
  O  O54  1  0.01797075  0.26994907  0.66855845  1
  O  O55  1  0.72682622  0.98566173  0.83489050  1
  O  O56  1  0.98566173  0.72682622  0.33489050  1
  O  O57  1  0.26994907  0.01797075  0.16855845  1
  O  O58  1  0.13136524  0.48946352  0.53717617  1
  O  O59  1  0.51043919  0.87346221  0.97369628  1
  O  O60  1  0.87346221  0.51043919  0.47369628  1
  O  O61  1  0.48946352  0.13136524  0.03717617  1
  O  O62  1  0.65156213  0.37117616  0.75782650  1
  O  O63  1  0.37117616  0.65156213  0.25782650  1
