# generated using pymatgen
data_Nd2Fe20Mo4N
_symmetry_space_group_name_H-M   'P 1'
_cell_length_a   4.80108067
_cell_length_b   6.57077988
_cell_length_c   12.22812771
_cell_angle_alpha   89.80747869
_cell_angle_beta   90.00000000
_cell_angle_gamma   111.42823918
_symmetry_Int_Tables_number   1
_chemical_formula_structural   Nd2Fe20Mo4N
_chemical_formula_sum   'Nd2 Fe20 Mo4 N1'
_cell_volume   359.09125583
_cell_formula_units_Z   1
loop_
 _symmetry_equiv_pos_site_id
 _symmetry_equiv_pos_as_xyz
  1  'x, y, z'
loop_
 _atom_site_type_symbol
 _atom_site_label
 _atom_site_symmetry_multiplicity
 _atom_site_fract_x
 _atom_site_fract_y
 _atom_site_fract_z
 _atom_site_occupancy
  Nd  Nd0  1  -0.00000000  -0.00000000  0.00000000  1
  Nd  Nd1  1  0.50000000  -0.00000000  0.50000000  1
  Fe  Fe2  1  0.38980116  0.77960232  0.11196555  1
  Fe  Fe3  1  0.88762208  0.77524416  0.61059053  1
  Fe  Fe4  1  0.11237792  0.22475584  0.38940947  1
  Fe  Fe5  1  0.61019884  0.22039768  0.88803445  1
  Fe  Fe6  1  0.88362392  0.76724783  0.38551873  1
  Fe  Fe7  1  0.39011173  0.78022346  0.88812823  1
  Fe  Fe8  1  0.60988827  0.21977654  0.11187177  1
  Fe  Fe9  1  0.11637608  0.23275217  0.61448127  1
  Fe  Fe10  1  0.24938949  -0.00014105  0.25361721  1
  Fe  Fe11  1  0.75061051  0.00014105  0.74638279  1
  Fe  Fe12  1  0.75046946  -0.00014105  0.25361721  1
  Fe  Fe13  1  0.24953054  0.00014105  0.74638279  1
  Fe  Fe14  1  -0.00000000  0.50000000  0.00000000  1
  Fe  Fe15  1  0.50000000  0.50000000  0.50000000  1
  Fe  Fe16  1  0.50000000  0.50000000  0.00000000  1
  Fe  Fe17  1  -0.00000000  0.50000000  0.50000000  1
  Fe  Fe18  1  0.68001326  0.36002652  0.31985878  1
  Fe  Fe19  1  0.18087363  0.36174726  0.81939633  1
  Fe  Fe20  1  0.81912637  0.63825274  0.18060367  1
  Fe  Fe21  1  0.31998674  0.63997348  0.68014122  1
  Mo  Mo22  1  0.17978497  0.35956994  0.18033168  1
  Mo  Mo23  1  0.68019916  0.36039833  0.67942972  1
  Mo  Mo24  1  0.31980084  0.63960167  0.32057028  1
  Mo  Mo25  1  0.82021503  0.64043006  0.81966832  1
  N  N26  1  0.50000000  -0.00000000  0.00000000  1
