# generated using pymatgen
data_Nd3Si(Mo2O7)2
_symmetry_space_group_name_H-M   'P 1'
_cell_length_a   6.16548363
_cell_length_b   10.68955508
_cell_length_c   18.06668824
_cell_angle_alpha   90.00000000
_cell_angle_beta   90.00000000
_cell_angle_gamma   90.00000000
_symmetry_Int_Tables_number   1
_chemical_formula_structural   Nd3Si(Mo2O7)2
_chemical_formula_sum   'Nd12 Si4 Mo16 O56'
_cell_volume   1190.70815705
_cell_formula_units_Z   4
loop_
 _symmetry_equiv_pos_site_id
 _symmetry_equiv_pos_as_xyz
  1  'x, y, z'
loop_
 _atom_site_type_symbol
 _atom_site_label
 _atom_site_symmetry_multiplicity
 _atom_site_fract_x
 _atom_site_fract_y
 _atom_site_fract_z
 _atom_site_occupancy
  Nd  Nd0  1  0.76070391  0.87399831  0.66595076  1
  Nd  Nd1  1  0.76070391  0.62600169  0.16595076  1
  Nd  Nd2  1  0.26070391  0.12600169  0.33404924  1
  Nd  Nd3  1  0.26070391  0.37399831  0.83404924  1
  Nd  Nd4  1  0.24006139  0.47640078  0.33822035  1
  Nd  Nd5  1  0.24006139  0.02359922  0.83822035  1
  Nd  Nd6  1  0.74006139  0.52359922  0.66177965  1
  Nd  Nd7  1  0.74006139  0.97640078  0.16177965  1
  Nd  Nd8  1  0.25785638  0.70230744  0.52768273  1
  Nd  Nd9  1  0.25785638  0.79769256  0.02768273  1
  Nd  Nd10  1  0.75785638  0.29769256  0.47231727  1
  Nd  Nd11  1  0.75785638  0.20230744  0.97231727  1
  Si  Si12  1  0.25553614  0.40073453  0.55299952  1
  Si  Si13  1  0.25553614  0.09926547  0.05299952  1
  Si  Si14  1  0.75553614  0.59926547  0.44700048  1
  Si  Si15  1  0.75553614  0.90073453  0.94700048  1
  Mo  Mo16  1  0.49189330  0.18136538  0.65625805  1
  Mo  Mo17  1  0.00304347  0.31712030  0.15420817  1
  Mo  Mo18  1  0.99189330  0.81863462  0.34374195  1
  Mo  Mo19  1  0.50304347  0.68287970  0.84579183  1
  Mo  Mo20  1  0.50304347  0.81712030  0.34579183  1
  Mo  Mo21  1  0.99189330  0.68136538  0.84374195  1
  Mo  Mo22  1  0.00304347  0.18287970  0.65420817  1
  Mo  Mo23  1  0.49189330  0.31863462  0.15625805  1
  Mo  Mo24  1  0.75114305  0.13848224  0.79867161  1
  Mo  Mo25  1  0.75114305  0.36151776  0.29867161  1
  Mo  Mo26  1  0.25114305  0.86151776  0.20132839  1
  Mo  Mo27  1  0.25114305  0.63848224  0.70132839  1
  Mo  Mo28  1  0.74701423  0.99320505  0.49405134  1
  Mo  Mo29  1  0.24701423  0.00679495  0.50594866  1
  Mo  Mo30  1  0.24701423  0.49320505  0.00594866  1
  Mo  Mo31  1  0.74701423  0.50679495  0.99405134  1
  O  O32  1  0.49668799  0.11033779  0.45612330  1
  O  O33  1  0.99737784  0.38562590  0.95957754  1
  O  O34  1  0.99668799  0.88966221  0.54387670  1
  O  O35  1  0.49737784  0.61437410  0.04042246  1
  O  O36  1  0.49737784  0.88562590  0.54042246  1
  O  O37  1  0.99668799  0.61033779  0.04387670  1
  O  O38  1  0.99737784  0.11437410  0.45957754  1
  O  O39  1  0.49668799  0.38966221  0.95612330  1
  O  O40  1  0.47884352  0.31597453  0.56947935  1
  O  O41  1  0.02546999  0.17341606  0.07068080  1
  O  O42  1  0.97884352  0.68402547  0.43052065  1
  O  O43  1  0.52546999  0.82658394  0.92931920  1
  O  O44  1  0.52546999  0.67341606  0.42931920  1
  O  O45  1  0.97884352  0.81597453  0.93052065  1
  O  O46  1  0.02546999  0.32658394  0.57068080  1
  O  O47  1  0.47884352  0.18402547  0.06947935  1
  O  O48  1  0.78082457  0.01880981  0.88996617  1
  O  O49  1  0.78082457  0.48119019  0.38996617  1
  O  O50  1  0.28082457  0.98119019  0.11003383  1
  O  O51  1  0.28082457  0.51880981  0.61003383  1
  O  O52  1  0.73909058  0.09134016  0.59611524  1
  O  O53  1  0.73909058  0.40865984  0.09611524  1
  O  O54  1  0.23909058  0.90865984  0.40388476  1
  O  O55  1  0.23909058  0.59134016  0.90388476  1
  O  O56  1  0.26262715  0.26771862  0.71405689  1
  O  O57  1  0.26262715  0.23228138  0.21405689  1
  O  O58  1  0.76262715  0.73228138  0.28594311  1
  O  O59  1  0.76262715  0.76771862  0.78594311  1
  O  O60  1  0.25309293  0.08537554  0.60373045  1
  O  O61  1  0.25309293  0.41462446  0.10373045  1
  O  O62  1  0.75309293  0.91462446  0.39626955  1
  O  O63  1  0.75309293  0.58537554  0.89626955  1
  O  O64  1  0.52272145  0.03818894  0.73443392  1
  O  O65  1  0.97192745  0.46501624  0.23708112  1
  O  O66  1  0.02272145  0.96181106  0.26556608  1
  O  O67  1  0.47192745  0.53498376  0.76291888  1
  O  O68  1  0.47192745  0.96501624  0.26291888  1
  O  O69  1  0.02272145  0.53818894  0.76556608  1
  O  O70  1  0.97192745  0.03498376  0.73708112  1
  O  O71  1  0.52272145  0.46181106  0.23443392  1
  O  O72  1  0.25068283  0.46348030  0.47092857  1
  O  O73  1  0.25068283  0.03651970  0.97092857  1
  O  O74  1  0.75068283  0.53651970  0.52907143  1
  O  O75  1  0.75068283  0.96348030  0.02907143  1
  O  O76  1  0.49354094  0.19796882  0.85534527  1
  O  O77  1  0.00672203  0.28984363  0.35060344  1
  O  O78  1  0.99354094  0.80203118  0.14465473  1
  O  O79  1  0.50672203  0.71015637  0.64939656  1
  O  O80  1  0.50672203  0.78984363  0.14939656  1
  O  O81  1  0.99354094  0.69796882  0.64465473  1
  O  O82  1  0.00672203  0.21015637  0.85060344  1
  O  O83  1  0.49354094  0.30203118  0.35534527  1
  O  O84  1  0.74193888  0.27804842  0.71105638  1
  O  O85  1  0.74193888  0.22195158  0.21105638  1
  O  O86  1  0.24193888  0.72195158  0.28894362  1
  O  O87  1  0.24193888  0.77804842  0.78894362  1
