# generated using pymatgen
data_Rb16O3
_symmetry_space_group_name_H-M   'P 1'
_cell_length_a   15.43867477
_cell_length_b   15.03127638
_cell_length_c   15.03127638
_cell_angle_alpha   81.71451009
_cell_angle_beta   65.37645124
_cell_angle_gamma   114.62354876
_symmetry_Int_Tables_number   1
_chemical_formula_structural   Rb16O3
_chemical_formula_sum   'Rb32 O6'
_cell_volume   2661.10783777
_cell_formula_units_Z   2
loop_
 _symmetry_equiv_pos_site_id
 _symmetry_equiv_pos_as_xyz
  1  'x, y, z'
loop_
 _atom_site_type_symbol
 _atom_site_label
 _atom_site_symmetry_multiplicity
 _atom_site_fract_x
 _atom_site_fract_y
 _atom_site_fract_z
 _atom_site_occupancy
  Rb  Rb0  1  -0.00000000  0.50000000  0.50000000  1
  Rb  Rb1  1  -0.00000000  -0.00000000  0.00000000  1
  Rb  Rb2  1  0.62140559  0.18745509  0.82004545  1
  Rb  Rb3  1  0.37859441  0.82004545  0.18745509  1
  Rb  Rb4  1  0.62140559  0.43395050  0.55854896  1
  Rb  Rb5  1  0.37859441  0.55854896  0.43395050  1
  Rb  Rb6  1  0.71560120  0.67312072  0.32310073  1
  Rb  Rb7  1  0.28439880  0.32310073  0.67312072  1
  Rb  Rb8  1  0.71560120  0.04248048  0.96129807  1
  Rb  Rb9  1  0.28439880  0.96129807  0.04248048  1
  Rb  Rb10  1  0.01660069  0.83716772  0.45045200  1
  Rb  Rb11  1  0.01660069  0.17943296  0.53294731  1
  Rb  Rb12  1  0.98339931  0.53294731  0.17943296  1
  Rb  Rb13  1  0.98339931  0.45045200  0.83716772  1
  Rb  Rb14  1  0.97129957  0.31248929  0.07132888  1
  Rb  Rb15  1  0.97129957  0.65881028  0.95737155  1
  Rb  Rb16  1  0.02870043  0.95737155  0.65881028  1
  Rb  Rb17  1  0.02870043  0.07132888  0.31248929  1
  Rb  Rb18  1  0.30942460  0.46465299  0.15257023  1
  Rb  Rb19  1  0.69057540  0.53800516  0.84477161  1
  Rb  Rb20  1  0.69057540  0.15257023  0.46465299  1
  Rb  Rb21  1  0.30942460  0.84477161  0.53800516  1
  Rb  Rb22  1  0.38639463  0.03764114  0.66167689  1
  Rb  Rb23  1  0.61360537  0.95192848  0.34875349  1
  Rb  Rb24  1  0.61360537  0.66167689  0.03764114  1
  Rb  Rb25  1  0.38639463  0.34875349  0.95192848  1
  Rb  Rb26  1  0.50000000  0.88499607  0.88499607  1
  Rb  Rb27  1  0.50000000  0.61500393  0.61500393  1
  Rb  Rb28  1  0.50000000  0.36865770  0.36865770  1
  Rb  Rb29  1  0.50000000  0.13134230  0.13134230  1
  Rb  Rb30  1  0.76001243  0.88000621  0.61999379  1
  Rb  Rb31  1  0.23998757  0.61999379  0.88000621  1
  O  O32  1  0.50000000  0.00662430  0.00662430  1
  O  O33  1  0.50000000  0.49337570  0.49337570  1
  O  O34  1  0.98057175  0.99028588  0.50971412  1
  O  O35  1  0.01942825  0.50971412  0.99028588  1
  O  O36  1  0.50000000  0.49943630  0.00056370  1
  O  O37  1  0.50000000  0.00056370  0.49943630  1
