# generated using pymatgen
data_Nd5Si10NiRu3
_symmetry_space_group_name_H-M   'P 1'
_cell_length_a   4.08726008
_cell_length_b   4.29555290
_cell_length_c   41.28700244
_cell_angle_alpha   93.74810958
_cell_angle_beta   90.00000000
_cell_angle_gamma   90.00000000
_symmetry_Int_Tables_number   1
_chemical_formula_structural   Nd5Si10NiRu3
_chemical_formula_sum   'Nd10 Si20 Ni2 Ru6'
_cell_volume   723.32717709
_cell_formula_units_Z   2
loop_
 _symmetry_equiv_pos_site_id
 _symmetry_equiv_pos_as_xyz
  1  'x, y, z'
loop_
 _atom_site_type_symbol
 _atom_site_label
 _atom_site_symmetry_multiplicity
 _atom_site_fract_x
 _atom_site_fract_y
 _atom_site_fract_z
 _atom_site_occupancy
  Nd  Nd0  1  0.75000000  0.51442409  0.04333278  1
  Nd  Nd1  1  0.75000000  0.12202852  0.24187204  1
  Nd  Nd2  1  0.75000000  0.72161633  0.43984039  1
  Nd  Nd3  1  0.75000000  0.32216896  0.63829075  1
  Nd  Nd4  1  0.75000000  0.93734763  0.83727868  1
  Nd  Nd5  1  0.25000000  0.08087129  0.15837223  1
  Nd  Nd6  1  0.25000000  0.68054538  0.35803703  1
  Nd  Nd7  1  0.25000000  0.28029937  0.55709217  1
  Nd  Nd8  1  0.25000000  0.88594432  0.75647954  1
  Nd  Nd9  1  0.25000000  0.46464302  0.95960945  1
  Si  Si10  1  0.75000000  0.04252235  0.10310980  1
  Si  Si11  1  0.75000000  0.64555682  0.30227037  1
  Si  Si12  1  0.75000000  0.25301918  0.50235046  1
  Si  Si13  1  0.75000000  0.84801564  0.70198032  1
  Si  Si14  1  0.75000000  0.37433099  0.89957912  1
  Si  Si15  1  0.25000000  0.55811589  0.10222692  1
  Si  Si16  1  0.25000000  0.15466336  0.30147256  1
  Si  Si17  1  0.25000000  0.75242697  0.50148532  1
  Si  Si18  1  0.25000000  0.35561362  0.70103974  1
  Si  Si19  1  0.25000000  0.02468823  0.89845746  1
  Si  Si20  1  0.75000000  0.59585646  0.18326275  1
  Si  Si21  1  0.75000000  0.19364608  0.38337998  1
  Si  Si22  1  0.75000000  0.79298138  0.58175322  1
  Si  Si23  1  0.75000000  0.39824968  0.77948991  1
  Si  Si24  1  0.75000000  0.97981499  0.98210532  1
  Si  Si25  1  0.25000000  0.99436388  0.01635190  1
  Si  Si26  1  0.25000000  0.60539771  0.21586757  1
  Si  Si27  1  0.25000000  0.20767151  0.41716854  1
  Si  Si28  1  0.25000000  0.80894583  0.61644963  1
  Si  Si29  1  0.25000000  0.42194646  0.81569145  1
  Ni  Ni30  1  0.75000000  0.55943441  0.12863574  1
  Ni  Ni31  1  0.75000000  0.16182745  0.32848027  1
  Ru  Ru32  1  0.75000000  0.88419063  0.92309454  1
  Ru  Ru33  1  0.25000000  0.04061484  0.07365904  1
  Ru  Ru34  1  0.25000000  0.63854458  0.27299522  1
  Ru  Ru35  1  0.25000000  0.23745800  0.47511686  1
  Ru  Ru36  1  0.25000000  0.84139550  0.67470454  1
  Ru  Ru37  1  0.25000000  0.51577864  0.87513639  1
