# generated using pymatgen
data_Ba2Cr2F11
_symmetry_space_group_name_H-M   'P 1'
_cell_length_a   7.77360388
_cell_length_b   7.77360375
_cell_length_c   14.27526516
_cell_angle_alpha   90.00000000
_cell_angle_beta   90.00000000
_cell_angle_gamma   119.99999646
_symmetry_Int_Tables_number   1
_chemical_formula_structural   Ba2Cr2F11
_chemical_formula_sum   'Ba6 Cr6 F33'
_cell_volume   747.06714427
_cell_formula_units_Z   3
loop_
 _symmetry_equiv_pos_site_id
 _symmetry_equiv_pos_as_xyz
  1  'x, y, z'
loop_
 _atom_site_type_symbol
 _atom_site_label
 _atom_site_symmetry_multiplicity
 _atom_site_fract_x
 _atom_site_fract_y
 _atom_site_fract_z
 _atom_site_occupancy
  Ba  Ba0  1  0.57270266  0.17872184  0.66297997  1
  Ba  Ba1  1  0.16575622  0.45878867  0.80692164  1
  Ba  Ba2  1  0.60601918  0.42729734  0.99631297  1
  Ba  Ba3  1  0.54121133  0.70696655  0.47358764  1
  Ba  Ba4  1  0.29303345  0.83424378  0.14025464  1
  Ba  Ba5  1  0.82127816  0.39398082  0.32964597  1
  Cr  Cr6  1  0.64371742  0.98131283  0.88560655  1
  Cr  Cr7  1  0.84896982  0.77640376  0.72588875  1
  Cr  Cr8  1  0.22359624  0.07256605  0.39255475  1
  Cr  Cr9  1  0.33759641  0.35628258  0.21893955  1
  Cr  Cr10  1  0.92743395  0.15103018  0.05922175  1
  Cr  Cr11  1  0.01868717  0.66240359  0.55227255  1
  F  F12  1  0.65711065  0.06175720  0.02272365  1
  F  F13  1  0.52791799  0.72011755  0.93679955  1
  F  F14  1  0.40464754  0.34288935  0.35605665  1
  F  F15  1  0.10373107  0.50081051  0.49176567  1
  F  F16  1  0.51873424  0.26487385  0.18339639  1
  F  F17  1  0.94454802  0.59057805  0.17657943  1
  F  F18  1  0.49918949  0.60292056  0.15843267  1
  F  F19  1  0.40942195  0.35397097  0.84324643  1
  F  F20  1  0.74613961  0.48126576  0.51672939  1
  F  F21  1  0.20454765  0.27992042  0.09528589  1
  F  F22  1  0.39707944  0.89626893  0.82509967  1
  F  F23  1  0.93824280  0.59535246  0.68939065  1
  F  F24  1  0.33432332  0.05752533  0.00949114  1
  F  F25  1  0.99456365  0.40273420  0.01593580  1
  F  F26  1  0.72320201  0.66567668  0.34282414  1
  F  F27  1  0.27988245  0.80780044  0.60346555  1
  F  F28  1  0.93600209  0.09782001  0.92460400  1
  F  F29  1  0.07537277  0.79545235  0.42861889  1
  F  F30  1  0.01081003  0.10019114  0.40511903  1
  F  F31  1  0.94247467  0.27679799  0.67615714  1
  F  F32  1  0.08938011  0.98918997  0.73845303  1
  F  F33  1  0.59726580  0.59182846  0.68260280  1
  F  F34  1  0.40817154  0.00543635  0.34926880  1
  F  F35  1  0.16181792  0.06399791  0.25793700  1
  F  F36  1  0.72007958  0.92462723  0.76195289  1
  F  F37  1  0.73512515  0.25386039  0.85006339  1
  F  F38  1  0.19219956  0.47208201  0.27013255  1
  F  F39  1  0.83382935  0.68762938  0.84297256  1
  F  F40  1  0.85380002  0.16617065  0.17630556  1
  F  F41  1  0.89980886  0.91061989  0.07178603  1
  F  F42  1  0.64602903  0.05545198  0.50991243  1
  F  F43  1  0.90217999  0.83818208  0.59127000  1
  F  F44  1  0.31237062  0.14619998  0.50963856  1
