# generated using pymatgen
data_PrEr3Mn8
_symmetry_space_group_name_H-M   'P 1'
_cell_length_a   5.30130975
_cell_length_b   5.30130975
_cell_length_c   8.57822207
_cell_angle_alpha   89.41299582
_cell_angle_beta   90.58700418
_cell_angle_gamma   119.06221116
_symmetry_Int_Tables_number   1
_chemical_formula_structural   PrEr3Mn8
_chemical_formula_sum   'Pr1 Er3 Mn8'
_cell_volume   210.71259772
_cell_formula_units_Z   1
loop_
 _symmetry_equiv_pos_site_id
 _symmetry_equiv_pos_as_xyz
  1  'x, y, z'
loop_
 _atom_site_type_symbol
 _atom_site_label
 _atom_site_symmetry_multiplicity
 _atom_site_fract_x
 _atom_site_fract_y
 _atom_site_fract_z
 _atom_site_occupancy
  Pr  Pr0  1  0.66568856  0.33431144  0.56239415  1
  Er  Er1  1  0.33300103  0.66699897  0.43504400  1
  Er  Er2  1  0.33365184  0.66634816  0.06193820  1
  Er  Er3  1  0.66689250  0.33310750  0.94093633  1
  Mn  Mn4  1  0.00089905  0.99910095  0.49731913  1
  Mn  Mn5  1  0.00020469  -0.00020469  0.00154963  1
  Mn  Mn6  1  0.16505612  0.32425491  0.75757098  1
  Mn  Mn7  1  0.17743945  0.82256055  0.75407322  1
  Mn  Mn8  1  0.67574509  0.83494388  0.75757098  1
  Mn  Mn9  1  0.83458546  0.67639091  0.24315803  1
  Mn  Mn10  1  0.82322711  0.17677289  0.24528731  1
  Mn  Mn11  1  0.32360909  0.16541454  0.24315803  1
