# generated using pymatgen
data_LiLa2Nb8O24
_symmetry_space_group_name_H-M   'P 1'
_cell_length_a   7.94845304
_cell_length_b   8.97358621
_cell_length_c   7.94784917
_cell_angle_alpha   63.71433561
_cell_angle_beta   90.00000000
_cell_angle_gamma   90.00000000
_symmetry_Int_Tables_number   1
_chemical_formula_structural   LiLa2Nb8O24
_chemical_formula_sum   'Li1 La2 Nb8 O24'
_cell_volume   508.27140390
_cell_formula_units_Z   1
loop_
 _symmetry_equiv_pos_site_id
 _symmetry_equiv_pos_as_xyz
  1  'x, y, z'
loop_
 _atom_site_type_symbol
 _atom_site_label
 _atom_site_symmetry_multiplicity
 _atom_site_fract_x
 _atom_site_fract_y
 _atom_site_fract_z
 _atom_site_occupancy
  Li  Li0  1  0.00000000  0.00000000  0.00000000  1
  La  La1  1  0.00000000  0.00000000  0.50000000  1
  La  La2  1  0.50000000  0.00000000  0.00000000  1
  Nb  Nb3  1  0.25124934  0.25853226  0.12187759  1
  Nb  Nb4  1  0.25124934  0.25853226  0.61959015  1
  Nb  Nb5  1  0.74875066  0.25853226  0.12187759  1
  Nb  Nb6  1  0.74875066  0.25853226  0.61959015  1
  Nb  Nb7  1  0.25124934  0.74146774  0.87812241  1
  Nb  Nb8  1  0.25124934  0.74146774  0.38040985  1
  Nb  Nb9  1  0.74875066  0.74146774  0.87812241  1
  Nb  Nb10  1  0.74875066  0.74146774  0.38040985  1
  O  O11  1  0.23918047  0.23163187  0.38418407  1
  O  O12  1  0.25515441  0.22781403  0.88609299  1
  O  O13  1  0.76081953  0.23163187  0.38418407  1
  O  O14  1  0.74484559  0.22781403  0.88609299  1
  O  O15  1  0.25515441  0.77218597  0.11390701  1
  O  O16  1  0.23918047  0.76836813  0.61581593  1
  O  O17  1  0.74484559  0.77218597  0.11390701  1
  O  O18  1  0.76081953  0.76836813  0.61581593  1
  O  O19  1  0.00000000  0.22791072  0.14123670  1
  O  O20  1  0.00000000  0.22791072  0.63085258  1
  O  O21  1  0.50000000  0.23165063  0.12330453  1
  O  O22  1  0.50000000  0.23165063  0.64504484  1
  O  O23  1  0.00000000  0.77208928  0.85876330  1
  O  O24  1  0.00000000  0.77208928  0.36914742  1
  O  O25  1  0.50000000  0.76834937  0.87669547  1
  O  O26  1  0.50000000  0.76834937  0.35495516  1
  O  O27  1  0.24688628  0.00000000  0.24694109  1
  O  O28  1  0.24688628  0.00000000  0.75305891  1
  O  O29  1  0.75311372  0.00000000  0.24694109  1
  O  O30  1  0.75311372  0.00000000  0.75305891  1
  O  O31  1  0.24986442  0.50000000  0.00000000  1
  O  O32  1  0.24986442  0.50000000  0.50000000  1
  O  O33  1  0.75013558  0.50000000  0.00000000  1
  O  O34  1  0.75013558  0.50000000  0.50000000  1
