# generated using pymatgen
data_LiLaNb4O12
_symmetry_space_group_name_H-M   'P 1'
_cell_length_a   5.61968764
_cell_length_b   8.96288645
_cell_length_c   5.61968764
_cell_angle_alpha   71.73090296
_cell_angle_beta   89.99683496
_cell_angle_gamma   108.26909704
_symmetry_Int_Tables_number   1
_chemical_formula_structural   LiLaNb4O12
_chemical_formula_sum   'Li1 La1 Nb4 O12'
_cell_volume   253.71812175
_cell_formula_units_Z   1
loop_
 _symmetry_equiv_pos_site_id
 _symmetry_equiv_pos_as_xyz
  1  'x, y, z'
loop_
 _atom_site_type_symbol
 _atom_site_label
 _atom_site_symmetry_multiplicity
 _atom_site_fract_x
 _atom_site_fract_y
 _atom_site_fract_z
 _atom_site_occupancy
  Li  Li0  1  -0.00000000  -0.00000000  0.00000000  1
  La  La1  1  0.50000000  -0.00000000  0.50000000  1
  Nb  Nb2  1  0.62915749  0.25831497  0.87084251  1
  Nb  Nb3  1  0.12915749  0.25831497  0.37084251  1
  Nb  Nb4  1  0.87084251  0.74168503  0.62915749  1
  Nb  Nb5  1  0.37084251  0.74168503  0.12915749  1
  O  O6  1  0.85859905  0.22882981  0.14140095  1
  O  O7  1  0.37023076  0.22882981  0.62976924  1
  O  O8  1  0.14140095  0.77117019  0.85859905  1
  O  O9  1  0.62976924  0.77117019  0.37023076  1
  O  O10  1  0.37020139  0.22877843  0.14142296  1
  O  O11  1  0.85857704  0.22877843  0.62979861  1
  O  O12  1  0.62979861  0.77122157  0.85857704  1
  O  O13  1  0.14142296  0.77122157  0.37020139  1
  O  O14  1  0.50000000  -0.00000000  0.00000000  1
  O  O15  1  -0.00000000  -0.00000000  0.50000000  1
  O  O16  1  0.75000000  0.50000000  0.75000000  1
  O  O17  1  0.25000000  0.50000000  0.25000000  1
