# generated using pymatgen
data_LaMgCrSnO6
_symmetry_space_group_name_H-M   'P 1'
_cell_length_a   5.44576085
_cell_length_b   5.61920492
_cell_length_c   7.88579062
_cell_angle_alpha   90.00000000
_cell_angle_beta   89.63601387
_cell_angle_gamma   90.00000000
_symmetry_Int_Tables_number   1
_chemical_formula_structural   LaMgCrSnO6
_chemical_formula_sum   'La2 Mg2 Cr2 Sn2 O12'
_cell_volume   241.30699599
_cell_formula_units_Z   2
loop_
 _symmetry_equiv_pos_site_id
 _symmetry_equiv_pos_as_xyz
  1  'x, y, z'
loop_
 _atom_site_type_symbol
 _atom_site_label
 _atom_site_symmetry_multiplicity
 _atom_site_fract_x
 _atom_site_fract_y
 _atom_site_fract_z
 _atom_site_occupancy
  La  La0  1  0.01003493  0.95868688  0.75026551  1
  La  La1  1  0.51003493  0.54131312  0.25026551  1
  Mg  Mg2  1  0.47795398  0.44369070  0.75138036  1
  Mg  Mg3  1  0.97795398  0.05630930  0.25138036  1
  Cr  Cr4  1  0.50023131  0.00171533  0.49947207  1
  Cr  Cr5  1  0.00023131  0.49828467  0.99947207  1
  Sn  Sn6  1  0.49881603  0.00084434  0.00235069  1
  Sn  Sn7  1  0.99881603  0.49915566  0.50235069  1
  O  O8  1  0.09159725  0.43836288  0.24588494  1
  O  O9  1  0.21082473  0.22195844  0.93766256  1
  O  O10  1  0.21701190  0.21208098  0.55901330  1
  O  O11  1  0.31235107  0.68719724  0.93738986  1
  O  O12  1  0.31837985  0.69155806  0.56336877  1
  O  O13  1  0.36279695  0.96739278  0.25321294  1
  O  O14  1  0.59159725  0.06163712  0.74588494  1
  O  O15  1  0.71082473  0.27804156  0.43766256  1
  O  O16  1  0.71701190  0.28791902  0.05901330  1
  O  O17  1  0.81235107  0.81280276  0.43738986  1
  O  O18  1  0.81837985  0.80844194  0.06336877  1
  O  O19  1  0.86279695  0.53260722  0.75321294  1
