# generated using pymatgen
data_Mn4In4(SeS)5
_symmetry_space_group_name_H-M   'P 1'
_cell_length_a   3.97500586
_cell_length_b   16.77792906
_cell_length_c   6.91837830
_cell_angle_alpha   102.16072189
_cell_angle_beta   89.90691328
_cell_angle_gamma   96.66839368
_symmetry_Int_Tables_number   1
_chemical_formula_structural   Mn4In4(SeS)5
_chemical_formula_sum   'Mn4 In4 Se5 S5'
_cell_volume   447.87403294
_cell_formula_units_Z   1
loop_
 _symmetry_equiv_pos_site_id
 _symmetry_equiv_pos_as_xyz
  1  'x, y, z'
loop_
 _atom_site_type_symbol
 _atom_site_label
 _atom_site_symmetry_multiplicity
 _atom_site_fract_x
 _atom_site_fract_y
 _atom_site_fract_z
 _atom_site_occupancy
  Mn  Mn0  1  0.79539145  0.58739109  0.44497844  1
  Mn  Mn1  1  0.29567516  0.58907873  0.97230799  1
  Mn  Mn2  1  0.20305859  0.40721166  0.54383797  1
  Mn  Mn3  1  0.70232016  0.40578766  0.03125656  1
  In  In4  1  0.59439843  0.18579512  0.25969289  1
  In  In5  1  0.09187532  0.18316844  0.75964697  1
  In  In6  1  0.41021118  0.82196734  0.74304618  1
  In  In7  1  0.90757280  0.81588249  0.24150035  1
  Se  Se8  1  0.33378470  0.66576946  0.66603695  1
  Se  Se9  1  0.44772387  0.89780263  0.11947956  1
  Se  Se10  1  0.94880422  0.90046239  0.61186367  1
  Se  Se11  1  0.55298897  0.10392720  0.88742359  1
  Se  Se12  1  0.05470172  0.10532592  0.38581488  1
  S  S13  1  0.24900797  0.50067323  0.24737485  1
  S  S14  1  0.74810855  0.49625614  0.75299777  1
  S  S15  1  0.16471991  0.33196835  0.83436313  1
  S  S16  1  0.66589637  0.33458418  0.33278001  1
  S  S17  1  0.83376063  0.66694798  0.16559825  1
