# generated using pymatgen
data_Li8PSe6
_symmetry_space_group_name_H-M   'P 1'
_cell_length_a   7.56381652
_cell_length_b   7.47360222
_cell_length_c   7.47360222
_cell_angle_alpha   90.00000000
_cell_angle_beta   60.39376677
_cell_angle_gamma   119.60623323
_symmetry_Int_Tables_number   1
_chemical_formula_structural   Li8PSe6
_chemical_formula_sum   'Li8 P1 Se6'
_cell_volume   302.25592679
_cell_formula_units_Z   1
loop_
 _symmetry_equiv_pos_site_id
 _symmetry_equiv_pos_as_xyz
  1  'x, y, z'
loop_
 _atom_site_type_symbol
 _atom_site_label
 _atom_site_symmetry_multiplicity
 _atom_site_fract_x
 _atom_site_fract_y
 _atom_site_fract_z
 _atom_site_occupancy
  Li  Li0  1  0.02967671  0.34346725  0.96943314  1
  Li  Li1  1  0.02967671  0.68620946  0.00089014  1
  Li  Li2  1  0.42224915  0.40682461  0.95521726  1
  Li  Li3  1  0.57775085  0.95521726  0.01542454  1
  Li  Li4  1  0.57775085  0.62253359  0.40682461  1
  Li  Li5  1  0.97032329  0.96943314  0.68620946  1
  Li  Li6  1  0.97032329  0.00089014  0.34346725  1
  Li  Li7  1  0.42224915  0.01542454  0.62253359  1
  P  P8  1  0.00000000  0.50000000  0.50000000  1
  Se  Se9  1  0.76377399  0.37544670  0.88273867  1
  Se  Se10  1  0.23622601  0.35348733  0.37544670  1
  Se  Se11  1  0.23622601  0.88273867  0.38832729  1
  Se  Se12  1  0.76377399  0.38832729  0.35348733  1
  Se  Se13  1  0.00000000  0.00000000  -0.00000000  1
  Se  Se14  1  0.50000000  0.75000000  0.75000000  1
