# generated using pymatgen
data_Mo3Ru2
_symmetry_space_group_name_H-M   'P 1'
_cell_length_a   4.96730476
_cell_length_b   9.61140212
_cell_length_c   9.61140212
_cell_angle_alpha   90.33426036
_cell_angle_beta   90.00000000
_cell_angle_gamma   90.00000000
_symmetry_Int_Tables_number   1
_chemical_formula_structural   Mo3Ru2
_chemical_formula_sum   'Mo18 Ru12'
_cell_volume   458.86708950
_cell_formula_units_Z   6
loop_
 _symmetry_equiv_pos_site_id
 _symmetry_equiv_pos_as_xyz
  1  'x, y, z'
loop_
 _atom_site_type_symbol
 _atom_site_label
 _atom_site_symmetry_multiplicity
 _atom_site_fract_x
 _atom_site_fract_y
 _atom_site_fract_z
 _atom_site_occupancy
  Mo  Mo0  1  0.49826882  0.10502748  0.89497252  1
  Mo  Mo1  1  0.49826882  0.89497252  0.10502748  1
  Mo  Mo2  1  0.99674759  0.39585920  0.39585920  1
  Mo  Mo3  1  0.99674759  0.60414080  0.60414080  1
  Mo  Mo4  1  0.49925104  0.37126356  0.95890369  1
  Mo  Mo5  1  0.49925104  0.62873644  0.04109631  1
  Mo  Mo6  1  0.00112091  0.13247781  0.46478135  1
  Mo  Mo7  1  0.00112091  0.86752219  0.53521865  1
  Mo  Mo8  1  0.49925104  0.95890369  0.37126356  1
  Mo  Mo9  1  0.49925104  0.04109631  0.62873644  1
  Mo  Mo10  1  0.00112091  0.46478135  0.13247781  1
  Mo  Mo11  1  0.00112091  0.53521865  0.86752219  1
  Mo  Mo12  1  0.74887200  0.17818856  0.17818856  1
  Mo  Mo13  1  0.74887200  0.82181144  0.82181144  1
  Mo  Mo14  1  0.74951163  0.67906561  0.32093439  1
  Mo  Mo15  1  0.74951163  0.32093439  0.67906561  1
  Mo  Mo16  1  0.24889514  0.81783145  0.81783145  1
  Mo  Mo17  1  0.24889514  0.18216855  0.18216855  1
  Ru  Ru18  1  0.50845376  0.50000000  0.50000000  1
  Ru  Ru19  1  0.00366121  -0.00000000  -0.00000000  1
  Ru  Ru20  1  0.49715949  0.43235635  0.23448651  1
  Ru  Ru21  1  0.49715949  0.56764365  0.76551349  1
  Ru  Ru22  1  0.00229285  0.06914244  0.73523779  1
  Ru  Ru23  1  0.00229285  0.93085756  0.26476221  1
  Ru  Ru24  1  0.49715949  0.23448651  0.43235635  1
  Ru  Ru25  1  0.49715949  0.76551349  0.56764365  1
  Ru  Ru26  1  0.00229285  0.73523779  0.06914244  1
  Ru  Ru27  1  0.00229285  0.26476221  0.93085756  1
  Ru  Ru28  1  0.25199876  0.31887794  0.68112206  1
  Ru  Ru29  1  0.25199876  0.68112206  0.31887794  1
