# generated using pymatgen
data_LaY(MnSi)2
_symmetry_space_group_name_H-M   'P 1'
_cell_length_a   4.16727198
_cell_length_b   4.16727198
_cell_length_c   6.67699448
_cell_angle_alpha   90.00000000
_cell_angle_beta   90.00000000
_cell_angle_gamma   90.00000000
_symmetry_Int_Tables_number   1
_chemical_formula_structural   LaY(MnSi)2
_chemical_formula_sum   'La1 Y1 Mn2 Si2'
_cell_volume   115.95372612
_cell_formula_units_Z   1
loop_
 _symmetry_equiv_pos_site_id
 _symmetry_equiv_pos_as_xyz
  1  'x, y, z'
loop_
 _atom_site_type_symbol
 _atom_site_label
 _atom_site_symmetry_multiplicity
 _atom_site_fract_x
 _atom_site_fract_y
 _atom_site_fract_z
 _atom_site_occupancy
  La  La0  1  0.75000000  0.75000000  0.32032434  1
  Y  Y1  1  0.25000000  0.25000000  0.69730432  1
  Mn  Mn2  1  0.75000000  0.25000000  0.99461962  1
  Mn  Mn3  1  0.25000000  0.75000000  0.99461962  1
  Si  Si4  1  0.75000000  0.75000000  0.82874818  1
  Si  Si5  1  0.25000000  0.25000000  0.16438393  1
