# generated using pymatgen
data_EuSiAg
_symmetry_space_group_name_H-M   'P 1'
_cell_length_a   4.39867753
_cell_length_b   4.39612636
_cell_length_c   4.32320072
_cell_angle_alpha   90.00000000
_cell_angle_beta   90.00000000
_cell_angle_gamma   59.78425626
_symmetry_Int_Tables_number   1
_chemical_formula_structural   EuSiAg
_chemical_formula_sum   'Eu1 Si1 Ag1'
_cell_volume   72.24038733
_cell_formula_units_Z   1
loop_
 _symmetry_equiv_pos_site_id
 _symmetry_equiv_pos_as_xyz
  1  'x, y, z'
loop_
 _atom_site_type_symbol
 _atom_site_label
 _atom_site_symmetry_multiplicity
 _atom_site_fract_x
 _atom_site_fract_y
 _atom_site_fract_z
 _atom_site_occupancy
  Eu  Eu0  1  -0.00000863  0.99997353  0.00000000  1
  Si  Si1  1  0.33348392  0.33381801  0.50000000  1
  Ag  Ag2  1  0.66642471  0.66620846  0.50000000  1
