# generated using pymatgen
data_Fe3CoBi4(AsO6)4
_symmetry_space_group_name_H-M   'P 1'
_cell_length_a   7.59694795
_cell_length_b   9.18752016
_cell_length_c   7.91210829
_cell_angle_alpha   107.88690067
_cell_angle_beta   108.72788461
_cell_angle_gamma   95.03362350
_symmetry_Int_Tables_number   1
_chemical_formula_structural   Fe3CoBi4(AsO6)4
_chemical_formula_sum   'Fe3 Co1 Bi4 As4 O24'
_cell_volume   486.96808868
_cell_formula_units_Z   1
loop_
 _symmetry_equiv_pos_site_id
 _symmetry_equiv_pos_as_xyz
  1  'x, y, z'
loop_
 _atom_site_type_symbol
 _atom_site_label
 _atom_site_symmetry_multiplicity
 _atom_site_fract_x
 _atom_site_fract_y
 _atom_site_fract_z
 _atom_site_occupancy
  Fe  Fe0  1  0.50426290  0.00704755  0.50824457  1
  Fe  Fe1  1  0.99573710  0.99295245  0.99175543  1
  Fe  Fe2  1  0.25000000  -0.00000000  0.75000000  1
  Co  Co3  1  0.75000000  -0.00000000  0.25000000  1
  Bi  Bi4  1  0.56987150  0.61422761  0.24788885  1
  Bi  Bi5  1  0.06822630  0.62262830  0.74725149  1
  Bi  Bi6  1  0.93012850  0.38577239  0.25211115  1
  Bi  Bi7  1  0.43177370  0.37737170  0.75274851  1
  As  As8  1  0.55359104  0.76725641  0.74871955  1
  As  As9  1  0.05252339  0.77533509  0.25797526  1
  As  As10  1  0.94640896  0.23274359  0.75128045  1
  As  As11  1  0.44747661  0.22466491  0.24202474  1
  O  O12  1  0.07436605  0.80755741  0.06070279  1
  O  O13  1  0.56224247  0.80500458  0.54802704  1
  O  O14  1  0.42563395  0.19244259  0.43929721  1
  O  O15  1  0.93775753  0.19499542  0.95197296  1
  O  O16  1  0.33649048  0.79775126  0.76427975  1
  O  O17  1  0.83106787  0.80152104  0.26661642  1
  O  O18  1  0.16350952  0.20224874  0.73572025  1
  O  O19  1  0.66893213  0.19847896  0.23338358  1
  O  O20  1  0.96874385  0.08899281  0.25638871  1
  O  O21  1  0.48783809  0.11722476  0.75409342  1
  O  O22  1  0.53125615  0.91100719  0.24361129  1
  O  O23  1  0.01216191  0.88277524  0.74590658  1
  O  O24  1  0.78130195  0.08721414  0.55301293  1
  O  O25  1  0.28020321  0.08242992  0.04075514  1
  O  O26  1  0.71869805  0.91278586  0.94698707  1
  O  O27  1  0.21979679  0.91757008  0.45924486  1
  O  O28  1  0.16530798  0.44411139  0.55384413  1
  O  O29  1  0.66974205  0.44446946  0.05465305  1
  O  O30  1  0.33469202  0.55588861  0.94615587  1
  O  O31  1  0.83025795  0.55553054  0.44534695  1
  O  O32  1  0.89371428  0.41047924  0.76710745  1
  O  O33  1  0.39582173  0.40300917  0.25570122  1
  O  O34  1  0.60628572  0.58952076  0.73289255  1
  O  O35  1  0.10417827  0.59699083  0.24429878  1
