# generated using pymatgen
data_Dy2NbGaO7
_symmetry_space_group_name_H-M   'P 1'
_cell_length_a   7.28414948
_cell_length_b   7.17374171
_cell_length_c   7.37894862
_cell_angle_alpha   90.00000000
_cell_angle_beta   59.56854372
_cell_angle_gamma   119.49985574
_symmetry_Int_Tables_number   1
_chemical_formula_structural   Dy2NbGaO7
_chemical_formula_sum   'Dy4 Nb2 Ga2 O14'
_cell_volume   272.91388903
_cell_formula_units_Z   2
loop_
 _symmetry_equiv_pos_site_id
 _symmetry_equiv_pos_as_xyz
  1  'x, y, z'
loop_
 _atom_site_type_symbol
 _atom_site_label
 _atom_site_symmetry_multiplicity
 _atom_site_fract_x
 _atom_site_fract_y
 _atom_site_fract_z
 _atom_site_occupancy
  Dy  Dy0  1  0.50000000  0.00000000  0.50000000  1
  Dy  Dy1  1  0.50000000  0.50000000  0.50000000  1
  Dy  Dy2  1  0.00000000  0.50000000  -0.00000000  1
  Dy  Dy3  1  -0.00000000  0.50000000  0.50000000  1
  Nb  Nb4  1  0.00000000  0.00000000  0.50000000  1
  Nb  Nb5  1  0.00000000  0.00000000  -0.00000000  1
  Ga  Ga6  1  0.50000000  0.50000000  -0.00000000  1
  Ga  Ga7  1  0.50000000  0.00000000  -0.00000000  1
  O  O8  1  0.74953922  0.37476961  0.37523039  1
  O  O9  1  0.25046078  0.62523039  0.62476961  1
  O  O10  1  0.83337682  0.91668841  0.33331159  1
  O  O11  1  0.66869924  0.33434962  0.91565038  1
  O  O12  1  0.25097079  0.91836556  0.91497145  1
  O  O13  1  0.25097079  0.33260523  0.33405776  1
  O  O14  1  0.25097079  0.33260523  0.91497145  1
  O  O15  1  0.25097079  0.91836556  0.33405776  1
  O  O16  1  0.16662318  0.08331159  0.66668841  1
  O  O17  1  0.33130076  0.66565038  0.08434962  1
  O  O18  1  0.74902921  0.08163444  0.08502855  1
  O  O19  1  0.74902921  0.66739477  0.66594224  1
  O  O20  1  0.74902921  0.66739477  0.08502855  1
  O  O21  1  0.74902921  0.08163444  0.66594224  1
