# generated using pymatgen
data_Fe4CuNiO8
_symmetry_space_group_name_H-M   'P 1'
_cell_length_a   6.03083748
_cell_length_b   5.91334028
_cell_length_c   5.96172293
_cell_angle_alpha   90.00000000
_cell_angle_beta   60.37838146
_cell_angle_gamma   119.18236087
_symmetry_Int_Tables_number   1
_chemical_formula_structural   Fe4CuNiO8
_chemical_formula_sum   'Fe4 Cu1 Ni1 O8'
_cell_volume   153.01260180
_cell_formula_units_Z   1
loop_
 _symmetry_equiv_pos_site_id
 _symmetry_equiv_pos_as_xyz
  1  'x, y, z'
loop_
 _atom_site_type_symbol
 _atom_site_label
 _atom_site_symmetry_multiplicity
 _atom_site_fract_x
 _atom_site_fract_y
 _atom_site_fract_z
 _atom_site_occupancy
  Fe  Fe0  1  0.26797902  0.13547644  0.11601049  1
  Fe  Fe1  1  0.73202098  0.86452356  0.88398951  1
  Fe  Fe2  1  -0.00000000  0.50000000  0.00000000  1
  Fe  Fe3  1  -0.00000000  0.50000000  0.50000000  1
  Cu  Cu4  1  0.50000000  0.50000000  0.50000000  1
  Ni  Ni5  1  0.50000000  0.00000000  0.50000000  1
  O  O6  1  0.02321967  0.74487100  0.23839016  1
  O  O7  1  0.99104212  0.25932982  0.25447894  1
  O  O8  1  0.52482408  0.27153895  0.72332007  1
  O  O9  1  0.52482408  0.27153895  0.25185585  1
  O  O10  1  0.97678033  0.25512900  0.76160984  1
  O  O11  1  0.00895788  0.74067018  0.74552106  1
  O  O12  1  0.47517592  0.72846105  0.27667993  1
  O  O13  1  0.47517592  0.72846105  0.74814415  1
