# generated using pymatgen
data_Fe5SiP
_symmetry_space_group_name_H-M   'P 1'
_cell_length_a   6.69409718
_cell_length_b   6.67192265
_cell_length_c   12.21588396
_cell_angle_alpha   89.75928332
_cell_angle_beta   89.52015733
_cell_angle_gamma   59.88999537
_symmetry_Int_Tables_number   1
_chemical_formula_structural   Fe5SiP
_chemical_formula_sum   'Fe30 Si6 P6'
_cell_volume   471.95527115
_cell_formula_units_Z   6
loop_
 _symmetry_equiv_pos_site_id
 _symmetry_equiv_pos_as_xyz
  1  'x, y, z'
loop_
 _atom_site_type_symbol
 _atom_site_label
 _atom_site_symmetry_multiplicity
 _atom_site_fract_x
 _atom_site_fract_y
 _atom_site_fract_z
 _atom_site_occupancy
  Fe  Fe0  1  0.99962482  0.00000000  0.54985616  1
  Fe  Fe1  1  0.99861216  0.00000000  0.05121236  1
  Fe  Fe2  1  0.38090084  1.00000000  0.29212335  1
  Fe  Fe3  1  0.00012385  0.61902931  0.29344423  1
  Fe  Fe4  1  0.61915317  0.38097069  0.29344423  1
  Fe  Fe5  1  0.62469994  0.00000000  0.79020321  1
  Fe  Fe6  1  0.99793920  0.37539176  0.78862998  1
  Fe  Fe7  1  0.37333095  0.62460824  0.78862998  1
  Fe  Fe8  1  0.69378086  1.00000000  0.17518978  1
  Fe  Fe9  1  0.00332809  0.30353479  0.17773745  1
  Fe  Fe10  1  0.30686288  0.69646521  0.17773745  1
  Fe  Fe11  1  0.30201917  0.00000000  0.67270272  1
  Fe  Fe12  1  0.00043371  0.69685785  0.67396148  1
  Fe  Fe13  1  0.69729156  0.30314215  0.67396148  1
  Fe  Fe14  1  0.75772042  1.00000000  0.38340122  1
  Fe  Fe15  1  0.00061317  0.24126756  0.38336701  1
  Fe  Fe16  1  0.24188073  0.75873244  0.38336701  1
  Fe  Fe17  1  0.24319463  0.00000000  0.87931597  1
  Fe  Fe18  1  0.99877980  0.73735564  0.88383270  1
  Fe  Fe19  1  0.73613544  0.26264436  0.88383270  1
  Fe  Fe20  1  0.33334097  0.33360471  0.42085929  1
  Fe  Fe21  1  0.66694568  0.66639529  0.42085929  1
  Fe  Fe22  1  0.66315828  0.67776692  0.91572302  1
  Fe  Fe23  1  0.34092520  0.32223308  0.91572302  1
  Fe  Fe24  1  0.37478698  0.00000000  0.07427639  1
  Fe  Fe25  1  0.00723157  0.62885574  0.08411177  1
  Fe  Fe26  1  0.63608731  0.37114426  0.08411177  1
  Fe  Fe27  1  0.61922517  0.00000000  0.57607111  1
  Fe  Fe28  1  0.99945747  0.38013790  0.57575485  1
  Fe  Fe29  1  0.37959538  0.61986210  0.57575485  1
  Si  Si30  1  0.99954085  0.33483825  0.98492473  1
  Si  Si31  1  0.33437910  0.66516175  0.98492473  1
  Si  Si32  1  0.33546117  0.33291273  0.20550794  1
  Si  Si33  1  0.66837391  0.66708727  0.20550794  1
  Si  Si34  1  0.66522461  0.66760058  0.70481808  1
  Si  Si35  1  0.33282519  0.33239942  0.70481808  1
  P  P36  1  0.99652401  0.00000000  0.24687658  1
  P  P37  1  0.99767113  1.00000000  0.74886708  1
  P  P38  1  0.33033080  0.00000000  0.48347015  1
  P  P39  1  0.99943604  0.67056191  0.48416268  1
  P  P40  1  0.66999794  0.32943809  0.48416268  1
  P  P41  1  0.67305584  1.00000000  0.98676353  1
