# generated using pymatgen
data_KAl3(SiO4)3
_symmetry_space_group_name_H-M   'P 1'
_cell_length_a   5.27908766
_cell_length_b   5.27908779
_cell_length_c   30.68184651
_cell_angle_alpha   90.00000000
_cell_angle_beta   90.00000000
_cell_angle_gamma   59.99999925
_symmetry_Int_Tables_number   1
_chemical_formula_structural   KAl3(SiO4)3
_chemical_formula_sum   'K3 Al9 Si9 O36'
_cell_volume   740.50821187
_cell_formula_units_Z   3
loop_
 _symmetry_equiv_pos_site_id
 _symmetry_equiv_pos_as_xyz
  1  'x, y, z'
loop_
 _atom_site_type_symbol
 _atom_site_label
 _atom_site_symmetry_multiplicity
 _atom_site_fract_x
 _atom_site_fract_y
 _atom_site_fract_z
 _atom_site_occupancy
  K  K0  1  0.13152372  0.13334425  0.50745532  1
  K  K1  1  0.13334425  0.73513203  0.17412132  1
  K  K2  1  0.73513203  0.13152372  0.84078832  1
  Al  Al3  1  0.11819669  0.10891034  0.99850264  1
  Al  Al4  1  0.10891034  0.77289297  0.66516864  1
  Al  Al5  1  0.77289297  0.11819669  0.33183564  1
  Al  Al6  1  0.75851802  0.75775436  0.99818833  1
  Al  Al7  1  0.75775436  0.48372761  0.66485433  1
  Al  Al8  1  0.48372761  0.75851802  0.33152133  1
  Al  Al9  1  0.78819660  0.79358921  0.57694650  1
  Al  Al10  1  0.79358921  0.41821419  0.24361250  1
  Al  Al11  1  0.41821419  0.78819660  0.91027950  1
  Si  Si12  1  0.44689857  0.47939330  0.57547402  1
  Si  Si13  1  0.47939330  0.07370812  0.24214002  1
  Si  Si14  1  0.07370812  0.44689857  0.90880702  1
  Si  Si15  1  0.46991483  0.45256194  0.42217766  1
  Si  Si16  1  0.07752323  0.46991483  0.75551166  1
  Si  Si17  1  0.45256194  0.07752323  0.08884466  1
  Si  Si18  1  0.78260235  0.79743054  0.42174134  1
  Si  Si19  1  0.41996711  0.78260235  0.75507534  1
  Si  Si20  1  0.79743054  0.41996711  0.08840834  1
  O  O21  1  0.03482402  0.12764833  0.63800437  1
  O  O22  1  0.12764833  0.83752765  0.30467037  1
  O  O23  1  0.83752765  0.03482402  0.97133737  1
  O  O24  1  0.13006621  0.02456337  0.36213179  1
  O  O25  1  0.84537042  0.13006621  0.69546579  1
  O  O26  1  0.02456337  0.84537042  0.02879879  1
  O  O27  1  0.68918825  0.54927533  0.55453028  1
  O  O28  1  0.54927533  0.76153643  0.22119628  1
  O  O29  1  0.76153643  0.68918825  0.88786328  1
  O  O30  1  0.59460369  0.65637852  0.44360188  1
  O  O31  1  0.74901779  0.59460369  0.77693588  1
  O  O32  1  0.65637852  0.74901779  0.11026888  1
  O  O33  1  0.83358043  0.73277621  0.63364846  1
  O  O34  1  0.73277621  0.43364335  0.30031446  1
  O  O35  1  0.43364335  0.83358043  0.96698146  1
  O  O36  1  0.72919511  0.83426947  0.36927445  1
  O  O37  1  0.43653543  0.72919511  0.70260845  1
  O  O38  1  0.83426947  0.43653543  0.03594145  1
  O  O39  1  0.43739364  0.53101302  0.62978208  1
  O  O40  1  0.53101302  0.03159334  0.29644808  1
  O  O41  1  0.03159334  0.43739364  0.96311508  1
  O  O42  1  0.51878735  0.43307729  0.36990369  1
  O  O43  1  0.04813536  0.51878735  0.70323769  1
  O  O44  1  0.43307729  0.04813536  0.03657069  1
  O  O45  1  0.12823323  0.70764480  0.55472545  1
  O  O46  1  0.70764480  0.16412197  0.22139145  1
  O  O47  1  0.16412197  0.12823323  0.88805845  1
  O  O48  1  0.65935990  0.12342820  0.44417371  1
  O  O49  1  0.21721190  0.65935990  0.77750771  1
  O  O50  1  0.12342820  0.21721190  0.11084071  1
  O  O51  1  0.52553779  0.14950185  0.56291688  1
  O  O52  1  0.14950185  0.32496037  0.22958288  1
  O  O53  1  0.32496037  0.52553779  0.89624988  1
  O  O54  1  0.12575324  0.58973186  0.43672215  1
  O  O55  1  0.28451489  0.12575324  0.77005615  1
  O  O56  1  0.58973186  0.28451489  0.10338915  1
