# generated using pymatgen
data_GeBiPd6
_symmetry_space_group_name_H-M   'P 1'
_cell_length_a   4.56200568
_cell_length_b   4.56200568
_cell_length_c   7.85968564
_cell_angle_alpha   73.12914002
_cell_angle_beta   90.00000000
_cell_angle_gamma   120.00000000
_symmetry_Int_Tables_number   1
_chemical_formula_structural   GeBiPd6
_chemical_formula_sum   'Ge1 Bi1 Pd6'
_cell_volume   133.46904178
_cell_formula_units_Z   1
loop_
 _symmetry_equiv_pos_site_id
 _symmetry_equiv_pos_as_xyz
  1  'x, y, z'
loop_
 _atom_site_type_symbol
 _atom_site_label
 _atom_site_symmetry_multiplicity
 _atom_site_fract_x
 _atom_site_fract_y
 _atom_site_fract_z
 _atom_site_occupancy
  Ge  Ge0  1  0.50000000  -0.00000000  0.50000000  1
  Bi  Bi1  1  -0.00000000  -0.00000000  0.00000000  1
  Pd  Pd2  1  0.61205202  0.22410405  0.16384393  1
  Pd  Pd3  1  0.13339300  0.26678599  0.59982101  1
  Pd  Pd4  1  0.86660700  0.73321401  0.40017899  1
  Pd  Pd5  1  0.38794798  0.77589595  0.83615607  1
  Pd  Pd6  1  0.25488764  0.50977529  0.23533707  1
  Pd  Pd7  1  0.74511236  0.49022471  0.76466293  1
