# generated using pymatgen
data_Ho2(CoNi)5
_symmetry_space_group_name_H-M   'P 1'
_cell_length_a   3.94237883
_cell_length_b   4.90319925
_cell_length_c   8.46957705
_cell_angle_alpha   90.00000431
_cell_angle_beta   90.00000000
_cell_angle_gamma   90.00000000
_symmetry_Int_Tables_number   1
_chemical_formula_structural   Ho2(CoNi)5
_chemical_formula_sum   'Ho2 Co5 Ni5'
_cell_volume   163.71920214
_cell_formula_units_Z   1
loop_
 _symmetry_equiv_pos_site_id
 _symmetry_equiv_pos_as_xyz
  1  'x, y, z'
loop_
 _atom_site_type_symbol
 _atom_site_label
 _atom_site_symmetry_multiplicity
 _atom_site_fract_x
 _atom_site_fract_y
 _atom_site_fract_z
 _atom_site_occupancy
  Ho  Ho0  1  0.00000000  0.99984660  -0.00000000  1
  Ho  Ho1  1  -0.00000000  0.50004428  0.50000000  1
  Co  Co2  1  0.00000000  0.00002789  0.33761260  1
  Co  Co3  1  -0.00000000  0.49996430  0.83261168  1
  Co  Co4  1  0.00000000  0.49996430  0.16738832  1
  Co  Co5  1  -0.00000000  0.00002789  0.66238740  1
  Co  Co6  1  0.50000000  0.00005222  0.50000000  1
  Ni  Ni7  1  0.50000000  0.49984081  1.00000000  1
  Ni  Ni8  1  0.50000000  0.25064310  0.25015491  1
  Ni  Ni9  1  0.50000000  0.74937275  0.74983968  1
  Ni  Ni10  1  0.50000000  0.74937275  0.25016032  1
  Ni  Ni11  1  0.50000000  0.25064310  0.74984509  1
