# generated using pymatgen
data_CaMg2Al6O12
_symmetry_space_group_name_H-M   'P 1'
_cell_length_a   2.83089740
_cell_length_b   8.83321001
_cell_length_c   8.83322391
_cell_angle_alpha   120.00022194
_cell_angle_beta   90.00000000
_cell_angle_gamma   90.00000000
_symmetry_Int_Tables_number   1
_chemical_formula_structural   CaMg2Al6O12
_chemical_formula_sum   'Ca1 Mg2 Al6 O12'
_cell_volume   191.28969973
_cell_formula_units_Z   1
loop_
 _symmetry_equiv_pos_site_id
 _symmetry_equiv_pos_as_xyz
  1  'x, y, z'
loop_
 _atom_site_type_symbol
 _atom_site_label
 _atom_site_symmetry_multiplicity
 _atom_site_fract_x
 _atom_site_fract_y
 _atom_site_fract_z
 _atom_site_occupancy
  Ca  Ca0  1  0.75000000  0.99999862  0.99999852  1
  Mg  Mg1  1  0.75000000  0.33333704  0.66666967  1
  Mg  Mg2  1  0.25000000  0.66666167  0.33332903  1
  Al  Al3  1  0.75000000  0.64341236  0.65603930  1
  Al  Al4  1  0.75000000  0.34395963  0.98737257  1
  Al  Al5  1  0.75000000  0.01262566  0.35658603  1
  Al  Al6  1  0.25000000  0.35440913  0.34528013  1
  Al  Al7  1  0.25000000  0.65472120  0.00912682  1
  Al  Al8  1  0.25000000  0.99087219  0.64559450  1
  O  O9  1  0.75000000  0.10884615  0.79932246  1
  O  O10  1  0.75000000  0.20067276  0.30952251  1
  O  O11  1  0.75000000  0.69047568  0.89115303  1
  O  O12  1  0.25000000  0.89843088  0.18994101  1
  O  O13  1  0.25000000  0.81006541  0.70849513  1
  O  O14  1  0.25000000  0.29150977  0.10157025  1
  O  O15  1  0.75000000  0.53324046  0.40156339  1
  O  O16  1  0.75000000  0.59843663  0.13167476  1
  O  O17  1  0.75000000  0.86832421  0.46675990  1
  O  O18  1  0.25000000  0.46875324  0.59835902  1
  O  O19  1  0.25000000  0.40164177  0.87039383  1
  O  O20  1  0.25000000  0.12960555  0.53124813  1
