# generated using pymatgen
data_Cd2GaAg(SeS)2
_symmetry_space_group_name_H-M   'P 1'
_cell_length_a   4.14015827
_cell_length_b   8.16042462
_cell_length_c   7.33359676
_cell_angle_alpha   118.20761767
_cell_angle_beta   90.00971632
_cell_angle_gamma   104.70569513
_symmetry_Int_Tables_number   1
_chemical_formula_structural   Cd2GaAg(SeS)2
_chemical_formula_sum   'Cd2 Ga1 Ag1 Se2 S2'
_cell_volume   209.08262907
_cell_formula_units_Z   1
loop_
 _symmetry_equiv_pos_site_id
 _symmetry_equiv_pos_as_xyz
  1  'x, y, z'
loop_
 _atom_site_type_symbol
 _atom_site_label
 _atom_site_symmetry_multiplicity
 _atom_site_fract_x
 _atom_site_fract_y
 _atom_site_fract_z
 _atom_site_occupancy
  Cd  Cd0  1  0.82036334  0.64081962  0.15068459  1
  Cd  Cd1  1  0.31819304  0.63642865  0.66332266  1
  Ga  Ga2  1  0.55643441  0.11279790  0.20974385  1
  Ag  Ag3  1  0.05418869  0.10805657  0.72570741  1
  Se  Se4  1  0.24567199  0.49163793  0.91353808  1
  Se  Se5  1  0.73752169  0.47519884  0.40062472  1
  S  S6  1  0.50253407  0.00498708  0.85775508  1
  S  S7  1  0.01069277  0.02127341  0.32422361  1
