# generated using pymatgen
data_CuNi4O5
_symmetry_space_group_name_H-M   'P 1'
_cell_length_a   2.99330167
_cell_length_b   10.81121003
_cell_length_c   2.99330167
_cell_angle_alpha   97.95730177
_cell_angle_beta   90.00000000
_cell_angle_gamma   97.95730177
_symmetry_Int_Tables_number   1
_chemical_formula_structural   CuNi4O5
_chemical_formula_sum   'Cu1 Ni4 O5'
_cell_volume   94.99235240
_cell_formula_units_Z   1
loop_
 _symmetry_equiv_pos_site_id
 _symmetry_equiv_pos_as_xyz
  1  'x, y, z'
loop_
 _atom_site_type_symbol
 _atom_site_label
 _atom_site_symmetry_multiplicity
 _atom_site_fract_x
 _atom_site_fract_y
 _atom_site_fract_z
 _atom_site_occupancy
  Cu  Cu0  1  -0.00000000  0.00000000  0.00000000  1
  Ni  Ni1  1  0.59978356  0.19956712  0.59978356  1
  Ni  Ni2  1  0.20013200  0.40026399  0.20013200  1
  Ni  Ni3  1  0.79986800  0.59973601  0.79986800  1
  Ni  Ni4  1  0.40021644  0.80043288  0.40021644  1
  O  O5  1  0.50000000  -0.00000000  0.50000000  1
  O  O6  1  0.30015019  0.60030037  0.30015019  1
  O  O7  1  0.89894137  0.79788274  0.89894137  1
  O  O8  1  0.10105863  0.20211726  0.10105863  1
  O  O9  1  0.69984981  0.39969963  0.69984981  1
