# generated using pymatgen
data_CoRe2(MoS4)2
_symmetry_space_group_name_H-M   'P 1'
_cell_length_a   6.84198926
_cell_length_b   6.84198926
_cell_length_c   6.86892581
_cell_angle_alpha   59.86968123
_cell_angle_beta   120.13031877
_cell_angle_gamma   120.31053593
_symmetry_Int_Tables_number   1
_chemical_formula_structural   CoRe2(MoS4)2
_chemical_formula_sum   'Co1 Re2 Mo2 S8'
_cell_volume   226.38869294
_cell_formula_units_Z   1
loop_
 _symmetry_equiv_pos_site_id
 _symmetry_equiv_pos_as_xyz
  1  'x, y, z'
loop_
 _atom_site_type_symbol
 _atom_site_label
 _atom_site_symmetry_multiplicity
 _atom_site_fract_x
 _atom_site_fract_y
 _atom_site_fract_z
 _atom_site_occupancy
  Co  Co0  1  0.99925163  0.00074837  0.99925163  1
  Re  Re1  1  0.39662220  0.18762236  0.60449992  1
  Re  Re2  1  0.81237764  0.60337780  0.60449992  1
  Mo  Mo3  1  0.39763218  0.60236782  0.19162474  1
  Mo  Mo4  1  0.39763218  0.60236782  0.60363962  1
  S  S5  1  0.63653803  0.36346197  0.90422716  1
  S  S6  1  0.63653803  0.36346197  0.36884890  1
  S  S7  1  0.63807341  0.90492828  0.36657257  1
  S  S8  1  0.09507172  0.36192659  0.36657257  1
  S  S9  1  0.13229219  0.86770781  0.40510200  1
  S  S10  1  0.13229219  0.86770781  0.85948239  1
  S  S11  1  0.12890319  0.40322460  0.86283930  1
  S  S12  1  0.59677540  0.87109681  0.86283930  1
