# generated using pymatgen
data_Fe5SiAs
_symmetry_space_group_name_H-M   'P 1'
_cell_length_a   6.83730607
_cell_length_b   6.84037087
_cell_length_c   12.46564538
_cell_angle_alpha   89.77697877
_cell_angle_beta   89.55375415
_cell_angle_gamma   60.01481993
_symmetry_Int_Tables_number   1
_chemical_formula_structural   Fe5SiAs
_chemical_formula_sum   'Fe30 Si6 As6'
_cell_volume   504.96553038
_cell_formula_units_Z   6
loop_
 _symmetry_equiv_pos_site_id
 _symmetry_equiv_pos_as_xyz
  1  'x, y, z'
loop_
 _atom_site_type_symbol
 _atom_site_label
 _atom_site_symmetry_multiplicity
 _atom_site_fract_x
 _atom_site_fract_y
 _atom_site_fract_z
 _atom_site_occupancy
  Fe  Fe0  1  0.00006087  0.00000000  0.55182408  1
  Fe  Fe1  1  0.00278626  1.00000000  0.04784209  1
  Fe  Fe2  1  0.37165772  1.00000000  0.28389239  1
  Fe  Fe3  1  0.00114012  0.62974713  0.28478222  1
  Fe  Fe4  1  0.63088725  0.37025287  0.28478222  1
  Fe  Fe5  1  0.62839006  0.00000000  0.78949913  1
  Fe  Fe6  1  0.99852101  0.36647629  0.79097528  1
  Fe  Fe7  1  0.36499730  0.63352371  0.79097528  1
  Fe  Fe8  1  0.68493449  0.00000000  0.17556360  1
  Fe  Fe9  1  0.00375425  0.31501651  0.17351347  1
  Fe  Fe10  1  0.31877077  0.68498349  0.17351347  1
  Fe  Fe11  1  0.31510369  1.00000000  0.67775841  1
  Fe  Fe12  1  0.99968828  0.68334411  0.67801964  1
  Fe  Fe13  1  0.68303239  0.31665589  0.67801964  1
  Fe  Fe14  1  0.72057287  0.00000000  0.38143358  1
  Fe  Fe15  1  0.00091774  0.27771520  0.38082425  1
  Fe  Fe16  1  0.27863294  0.72228480  0.38082425  1
  Fe  Fe17  1  0.27328403  1.00000000  0.88359140  1
  Fe  Fe18  1  0.00460394  0.70557893  0.88422222  1
  Fe  Fe19  1  0.71018287  0.29442107  0.88422222  1
  Fe  Fe20  1  0.33241918  0.33422878  0.40063357  1
  Fe  Fe21  1  0.66664796  0.66577122  0.40063357  1
  Fe  Fe22  1  0.66340324  0.66787858  0.91135967  1
  Fe  Fe23  1  0.33128182  0.33212142  0.91135967  1
  Fe  Fe24  1  0.35553238  0.00000000  0.08263410  1
  Fe  Fe25  1  0.01225593  0.63199922  0.08423185  1
  Fe  Fe26  1  0.64425515  0.36800078  0.08423185  1
  Fe  Fe27  1  0.63809143  1.00000000  0.59145314  1
  Fe  Fe28  1  0.00083036  0.36148863  0.59148781  1
  Fe  Fe29  1  0.36231899  0.63851137  0.59148781  1
  Si  Si30  1  0.99856990  0.33433132  0.98460840  1
  Si  Si31  1  0.33290121  0.66566868  0.98460840  1
  Si  Si32  1  0.33529982  0.33409520  0.20334489  1
  Si  Si33  1  0.66939503  0.66590480  0.20334489  1
  Si  Si34  1  0.66639562  0.66573033  0.71272411  1
  Si  Si35  1  0.33212595  0.33426967  0.71272411  1
  As  As36  1  0.00032327  0.00000000  0.24673766  1
  As  As37  1  0.99730136  0.00000000  0.75143643  1
  As  As38  1  0.33498261  0.00000000  0.48407901  1
  As  As39  1  0.99951666  0.66567267  0.48467191  1
  As  As40  1  0.66518933  0.33432733  0.48467191  1
  As  As41  1  0.66904393  1.00000000  0.98545643  1
