# generated using pymatgen
data_CoSiMo
_symmetry_space_group_name_H-M   'P 1'
_cell_length_a   4.77075178
_cell_length_b   4.77074528
_cell_length_c   7.45239586
_cell_angle_alpha   90.00000000
_cell_angle_beta   90.00000000
_cell_angle_gamma   61.10198108
_symmetry_Int_Tables_number   1
_chemical_formula_structural   CoSiMo
_chemical_formula_sum   'Co4 Si4 Mo4'
_cell_volume   148.49636029
_cell_formula_units_Z   4
loop_
 _symmetry_equiv_pos_site_id
 _symmetry_equiv_pos_as_xyz
  1  'x, y, z'
loop_
 _atom_site_type_symbol
 _atom_site_label
 _atom_site_symmetry_multiplicity
 _atom_site_fract_x
 _atom_site_fract_y
 _atom_site_fract_z
 _atom_site_occupancy
  Co  Co0  1  0.00205214  0.00205515  0.48764063  1
  Co  Co1  1  0.00205214  0.00205515  0.01235937  1
  Co  Co2  1  0.16188932  0.64790741  0.75000000  1
  Co  Co3  1  0.64790478  0.16189208  0.75000000  1
  Si  Si4  1  0.16045340  0.16044906  0.75000000  1
  Si  Si5  1  0.83429819  0.34101451  0.25000000  1
  Si  Si6  1  0.34101361  0.83429758  0.25000000  1
  Si  Si7  1  0.83232778  0.83232509  0.25000000  1
  Mo  Mo8  1  0.33842257  0.33842439  0.06683662  1
  Mo  Mo9  1  0.67058175  0.67057759  0.93729568  1
  Mo  Mo10  1  0.67058175  0.67057759  0.56270432  1
  Mo  Mo11  1  0.33842257  0.33842439  0.43316338  1
