# generated using pymatgen
data_DyTlCu
_symmetry_space_group_name_H-M   'P 1'
_cell_length_a   4.31742477
_cell_length_b   4.28927061
_cell_length_c   9.16299017
_cell_angle_alpha   90.00000000
_cell_angle_beta   89.80574289
_cell_angle_gamma   60.21548125
_symmetry_Int_Tables_number   1
_chemical_formula_structural   DyTlCu
_chemical_formula_sum   'Dy2 Tl2 Cu2'
_cell_volume   147.26911350
_cell_formula_units_Z   2
loop_
 _symmetry_equiv_pos_site_id
 _symmetry_equiv_pos_as_xyz
  1  'x, y, z'
loop_
 _atom_site_type_symbol
 _atom_site_label
 _atom_site_symmetry_multiplicity
 _atom_site_fract_x
 _atom_site_fract_y
 _atom_site_fract_z
 _atom_site_occupancy
  Dy  Dy0  1  0.99712840  0.00143580  0.68099224  1
  Dy  Dy1  1  0.00287160  0.99856420  0.31900776  1
  Tl  Tl2  1  0.66777408  0.66611296  0.09481590  1
  Tl  Tl3  1  0.33222592  0.33388704  0.90518410  1
  Cu  Cu4  1  0.33173991  0.33413005  0.50463336  1
  Cu  Cu5  1  0.66826009  0.66586995  0.49536664  1
