# generated using pymatgen
data_CrInNiS4
_symmetry_space_group_name_H-M   'P 1'
_cell_length_a   7.21001604
_cell_length_b   7.10601217
_cell_length_c   7.29353094
_cell_angle_alpha   90.00000000
_cell_angle_beta   59.61608605
_cell_angle_gamma   119.52396389
_symmetry_Int_Tables_number   1
_chemical_formula_structural   CrInNiS4
_chemical_formula_sum   'Cr2 In2 Ni2 S8'
_cell_volume   264.58435019
_cell_formula_units_Z   2
loop_
 _symmetry_equiv_pos_site_id
 _symmetry_equiv_pos_as_xyz
  1  'x, y, z'
loop_
 _atom_site_type_symbol
 _atom_site_label
 _atom_site_symmetry_multiplicity
 _atom_site_fract_x
 _atom_site_fract_y
 _atom_site_fract_z
 _atom_site_occupancy
  Cr  Cr0  1  0.50000000  0.50000000  0.00000000  1
  Cr  Cr1  1  0.50000000  -0.00000000  0.00000000  1
  In  In2  1  -0.00000000  -0.00000000  0.50000000  1
  In  In3  1  -0.00000000  -0.00000000  0.00000000  1
  Ni  Ni4  1  0.74186528  0.37093264  0.37906736  1
  Ni  Ni5  1  0.25813472  0.62906736  0.62093264  1
  S  S6  1  0.02632899  0.75527711  0.23683550  1
  S  S7  1  0.02632899  0.27105189  0.23683550  1
  S  S8  1  0.51804065  0.25902033  0.76274103  1
  S  S9  1  0.51804065  0.25902033  0.21921832  1
  S  S10  1  0.97367101  0.24472289  0.76316450  1
  S  S11  1  0.97367101  0.72894811  0.76316450  1
  S  S12  1  0.48195935  0.74097967  0.23725897  1
  S  S13  1  0.48195935  0.74097967  0.78078168  1
