# generated using pymatgen
data_AgMo6(SeS)4
_symmetry_space_group_name_H-M   'P 1'
_cell_length_a   6.67557571
_cell_length_b   6.62352609
_cell_length_c   6.70480466
_cell_angle_alpha   91.71679817
_cell_angle_beta   91.03378865
_cell_angle_gamma   91.17452340
_symmetry_Int_Tables_number   1
_chemical_formula_structural   AgMo6(SeS)4
_chemical_formula_sum   'Ag1 Mo6 Se4 S4'
_cell_volume   296.21167305
_cell_formula_units_Z   1
loop_
 _symmetry_equiv_pos_site_id
 _symmetry_equiv_pos_as_xyz
  1  'x, y, z'
loop_
 _atom_site_type_symbol
 _atom_site_label
 _atom_site_symmetry_multiplicity
 _atom_site_fract_x
 _atom_site_fract_y
 _atom_site_fract_z
 _atom_site_occupancy
  Ag  Ag0  1  -0.00001324  0.00054874  0.00159450  1
  Mo  Mo1  1  0.77224790  0.44082325  0.58683045  1
  Mo  Mo2  1  0.44785126  0.58818136  0.77013575  1
  Mo  Mo3  1  0.59559778  0.78365258  0.44172700  1
  Mo  Mo4  1  0.22252927  0.55632760  0.41241904  1
  Mo  Mo5  1  0.55692670  0.41159308  0.22376670  1
  Mo  Mo6  1  0.41286246  0.21332938  0.55503882  1
  Se  Se7  1  0.12422148  0.37293865  0.74561255  1
  Se  Se8  1  0.37748376  0.74815255  0.12360416  1
  Se  Se9  1  0.78116590  0.78178090  0.77442474  1
  Se  Se10  1  0.22284155  0.21988135  0.22526874  1
  S  S11  1  0.28035762  0.86628719  0.60906974  1
  S  S12  1  0.86913819  0.61122319  0.27825991  1
  S  S13  1  0.61132350  0.27407398  0.86693240  1
  S  S14  1  0.72546589  0.13120620  0.38531549  1
