# generated using pymatgen
data_Ba2CaCu2MoO8
_symmetry_space_group_name_H-M   'P 1'
_cell_length_a   3.93048161
_cell_length_b   3.93048161
_cell_length_c   12.42583691
_cell_angle_alpha   90.00000000
_cell_angle_beta   90.00000000
_cell_angle_gamma   90.00000000
_symmetry_Int_Tables_number   1
_chemical_formula_structural   Ba2CaCu2MoO8
_chemical_formula_sum   'Ba2 Ca1 Cu2 Mo1 O8'
_cell_volume   191.96284881
_cell_formula_units_Z   1
loop_
 _symmetry_equiv_pos_site_id
 _symmetry_equiv_pos_as_xyz
  1  'x, y, z'
loop_
 _atom_site_type_symbol
 _atom_site_label
 _atom_site_symmetry_multiplicity
 _atom_site_fract_x
 _atom_site_fract_y
 _atom_site_fract_z
 _atom_site_occupancy
  Ba  Ba0  1  0.50000000  0.50000000  0.78668179  1
  Ba  Ba1  1  0.50000000  0.50000000  0.21331821  1
  Ca  Ca2  1  0.50000000  0.50000000  0.50000000  1
  Cu  Cu3  1  0.00000000  -0.00000000  0.37883608  1
  Cu  Cu4  1  -0.00000000  -0.00000000  0.62116392  1
  Mo  Mo5  1  0.00000000  -0.00000000  -0.00000000  1
  O  O6  1  0.50000000  0.00000000  0.62627805  1
  O  O7  1  -0.00000000  0.50000000  0.62627805  1
  O  O8  1  0.50000000  0.00000000  0.37372195  1
  O  O9  1  -0.00000000  0.50000000  0.37372195  1
  O  O10  1  0.00000000  0.50000000  -0.00000000  1
  O  O11  1  0.50000000  -0.00000000  0.00000000  1
  O  O12  1  0.00000000  0.00000000  0.15369504  1
  O  O13  1  -0.00000000  0.00000000  0.84630496  1
