# generated using pymatgen
data_Ba5Co5O13F
_symmetry_space_group_name_H-M   'P 1'
_cell_length_a   5.81194689
_cell_length_b   5.81194689
_cell_length_c   24.18573240
_cell_angle_alpha   90.00000000
_cell_angle_beta   90.00000000
_cell_angle_gamma   119.01422421
_symmetry_Int_Tables_number   1
_chemical_formula_structural   Ba5Co5O13F
_chemical_formula_sum   'Ba10 Co10 O26 F2'
_cell_volume   714.43380334
_cell_formula_units_Z   2
loop_
 _symmetry_equiv_pos_site_id
 _symmetry_equiv_pos_as_xyz
  1  'x, y, z'
loop_
 _atom_site_type_symbol
 _atom_site_label
 _atom_site_symmetry_multiplicity
 _atom_site_fract_x
 _atom_site_fract_y
 _atom_site_fract_z
 _atom_site_occupancy
  Ba  Ba0  1  0.03591840  0.02909923  0.75000000  1
  Ba  Ba1  1  0.02909923  0.03591840  0.25000000  1
  Ba  Ba2  1  0.33530335  0.66663451  0.54041387  1
  Ba  Ba3  1  0.66663451  0.33530335  0.45958613  1
  Ba  Ba4  1  0.66663451  0.33530335  0.04041387  1
  Ba  Ba5  1  0.33530335  0.66663451  0.95958613  1
  Ba  Ba6  1  0.66857001  0.33665699  0.63874406  1
  Ba  Ba7  1  0.33665699  0.66857001  0.36125594  1
  Ba  Ba8  1  0.33665699  0.66857001  0.13874406  1
  Ba  Ba9  1  0.66857001  0.33665699  0.86125594  1
  Co  Co10  1  0.00051861  0.00051861  0.50000000  1
  Co  Co11  1  0.00051861  0.00051861  -0.00000000  1
  Co  Co12  1  0.32772258  0.66532955  0.68103371  1
  Co  Co13  1  0.66532955  0.32772258  0.31896629  1
  Co  Co14  1  0.66532955  0.32772258  0.18103371  1
  Co  Co15  1  0.32772258  0.66532955  0.81896629  1
  Co  Co16  1  0.01287156  0.00260604  0.60451018  1
  Co  Co17  1  0.00260604  0.01287156  0.39548982  1
  Co  Co18  1  0.00260604  0.01287156  0.10451018  1
  Co  Co19  1  0.01287156  0.00260604  0.89548982  1
  O  O20  1  0.17199474  0.33039643  0.65202786  1
  O  O21  1  0.16146511  0.84729387  0.64857087  1
  O  O22  1  0.66007532  0.83762933  0.65906166  1
  O  O23  1  0.83762933  0.66007532  0.34093834  1
  O  O24  1  0.84729387  0.16146511  0.35142913  1
  O  O25  1  0.33039643  0.17199474  0.34797214  1
  O  O26  1  0.83762933  0.66007532  0.15906166  1
  O  O27  1  0.84729387  0.16146511  0.14857087  1
  O  O28  1  0.33039643  0.17199474  0.15202786  1
  O  O29  1  0.17199474  0.33039643  0.84797214  1
  O  O30  1  0.16146511  0.84729387  0.85142913  1
  O  O31  1  0.66007532  0.83762933  0.84093834  1
  O  O32  1  0.85275100  0.14513312  0.55669690  1
  O  O33  1  0.31560247  0.14832689  0.54731661  1
  O  O34  1  0.85387916  0.69471104  0.54940564  1
  O  O35  1  0.14513312  0.85275100  0.44330310  1
  O  O36  1  0.69471104  0.85387916  0.45059436  1
  O  O37  1  0.14832689  0.31560247  0.45268339  1
  O  O38  1  0.14513312  0.85275100  0.05669690  1
  O  O39  1  0.69471104  0.85387916  0.04940564  1
  O  O40  1  0.14832689  0.31560247  0.04731661  1
  O  O41  1  0.85275100  0.14513312  0.94330310  1
  O  O42  1  0.31560247  0.14832689  0.95268339  1
  O  O43  1  0.85387916  0.69471104  0.95059436  1
  O  O44  1  0.17248544  0.60219439  0.75000000  1
  O  O45  1  0.60219439  0.17248544  0.25000000  1
  F  F46  1  0.55413222  0.27222698  0.75000000  1
  F  F47  1  0.27222698  0.55413222  0.25000000  1
