# generated using pymatgen
data_CaMg3Cu11O15
_symmetry_space_group_name_H-M   'P 1'
_cell_length_a   3.33298414
_cell_length_b   4.06261767
_cell_length_c   48.12788673
_cell_angle_alpha   90.00000000
_cell_angle_beta   89.67381251
_cell_angle_gamma   90.00000000
_symmetry_Int_Tables_number   1
_chemical_formula_structural   CaMg3Cu11O15
_chemical_formula_sum   'Ca2 Mg6 Cu22 O30'
_cell_volume   651.67184098
_cell_formula_units_Z   2
loop_
 _symmetry_equiv_pos_site_id
 _symmetry_equiv_pos_as_xyz
  1  'x, y, z'
loop_
 _atom_site_type_symbol
 _atom_site_label
 _atom_site_symmetry_multiplicity
 _atom_site_fract_x
 _atom_site_fract_y
 _atom_site_fract_z
 _atom_site_occupancy
  Ca  Ca0  1  0.68439741  0.75000000  0.15004273  1
  Ca  Ca1  1  0.68470654  0.75000000  0.35017957  1
  Mg  Mg2  1  0.61618382  0.75000000  0.94993795  1
  Mg  Mg3  1  0.38049102  0.25000000  0.04882492  1
  Mg  Mg4  1  0.37740576  0.25000000  0.24992899  1
  Mg  Mg5  1  0.38005472  0.25000000  0.45095283  1
  Mg  Mg6  1  0.38197128  0.25000000  0.64995160  1
  Mg  Mg7  1  0.38302868  0.25000000  0.85009964  1
  Cu  Cu8  1  0.16180534  0.25000000  0.11415061  1
  Cu  Cu9  1  0.16252919  0.25000000  0.31440278  1
  Cu  Cu10  1  0.16301796  0.25000000  0.51736539  1
  Cu  Cu11  1  0.16500872  0.25000000  0.71727186  1
  Cu  Cu12  1  0.15835080  0.25000000  0.91744693  1
  Cu  Cu13  1  0.16128660  0.25000000  0.18565287  1
  Cu  Cu14  1  0.16200188  0.25000000  0.38581615  1
  Cu  Cu15  1  0.16295955  0.25000000  0.58275892  1
  Cu  Cu16  1  0.16360569  0.25000000  0.78277669  1
  Cu  Cu17  1  0.15823369  0.25000000  0.98245324  1
  Cu  Cu18  1  0.83087204  0.75000000  0.08007605  1
  Cu  Cu19  1  0.82891378  0.75000000  0.28056855  1
  Cu  Cu20  1  0.82936360  0.75000000  0.48323122  1
  Cu  Cu21  1  0.83034994  0.75000000  0.68281046  1
  Cu  Cu22  1  0.84049685  0.75000000  0.88257866  1
  Cu  Cu23  1  0.84047118  0.75000000  0.01696548  1
  Cu  Cu24  1  0.83071393  0.75000000  0.21938882  1
  Cu  Cu25  1  0.83061047  0.75000000  0.41988734  1
  Cu  Cu26  1  0.82998814  0.75000000  0.61726233  1
  Cu  Cu27  1  0.83162484  0.75000000  0.81714747  1
  Cu  Cu28  1  0.63032163  0.75000000  0.55010530  1
  Cu  Cu29  1  0.62882604  0.75000000  0.74996376  1
  O  O30  1  0.48464567  0.75000000  0.04867541  1
  O  O31  1  0.46791704  0.75000000  0.25005163  1
  O  O32  1  0.48072224  0.75000000  0.45129977  1
  O  O33  1  0.49357189  0.75000000  0.65018003  1
  O  O34  1  0.49681653  0.75000000  0.85026660  1
  O  O35  1  0.39287204  0.25000000  0.14989388  1
  O  O36  1  0.39182714  0.25000000  0.34996413  1
  O  O37  1  0.49242998  0.25000000  0.54988349  1
  O  O38  1  0.49122217  0.25000000  0.74990492  1
  O  O39  1  0.50017507  0.25000000  0.95001454  1
  O  O40  1  0.15268528  0.75000000  0.11325918  1
  O  O41  1  0.15422994  0.75000000  0.31339567  1
  O  O42  1  0.10489047  0.75000000  0.51880709  1
  O  O43  1  0.10018540  0.75000000  0.71883732  1
  O  O44  1  0.09912427  0.75000000  0.91939319  1
  O  O45  1  0.15607376  0.75000000  0.18637623  1
  O  O46  1  0.15404798  0.75000000  0.38660649  1
  O  O47  1  0.10252453  0.75000000  0.58121681  1
  O  O48  1  0.10338981  0.75000000  0.78106525  1
  O  O49  1  0.10115304  0.75000000  0.98033025  1
  O  O50  1  0.89381585  0.25000000  0.07849031  1
  O  O51  1  0.89169772  0.25000000  0.27897026  1
  O  O52  1  0.90430676  0.25000000  0.48096872  1
  O  O53  1  0.90639591  0.25000000  0.68072796  1
  O  O54  1  0.89960964  0.25000000  0.88057294  1
  O  O55  1  0.89840504  0.25000000  0.01912254  1
  O  O56  1  0.89060593  0.25000000  0.22123444  1
  O  O57  1  0.89231239  0.25000000  0.42160890  1
  O  O58  1  0.90533708  0.25000000  0.61941748  1
  O  O59  1  0.90741837  0.25000000  0.81946542  1
