# generated using pymatgen
data_Cu6Pb2Se6N2O27
_symmetry_space_group_name_H-M   'P 1'
_cell_length_a   7.94966871
_cell_length_b   9.55251973
_cell_length_c   9.29703780
_cell_angle_alpha   68.48120391
_cell_angle_beta   70.62218942
_cell_angle_gamma   81.17534723
_symmetry_Int_Tables_number   1
_chemical_formula_structural   Cu6Pb2Se6N2O27
_chemical_formula_sum   'Cu6 Pb2 Se6 N2 O27'
_cell_volume   619.18884534
_cell_formula_units_Z   1
loop_
 _symmetry_equiv_pos_site_id
 _symmetry_equiv_pos_as_xyz
  1  'x, y, z'
loop_
 _atom_site_type_symbol
 _atom_site_label
 _atom_site_symmetry_multiplicity
 _atom_site_fract_x
 _atom_site_fract_y
 _atom_site_fract_z
 _atom_site_occupancy
  Cu  Cu0  1  0.55644672  0.97278674  0.65291491  1
  Cu  Cu1  1  0.44340976  0.02672242  0.34809197  1
  Cu  Cu2  1  0.63512322  0.10625589  0.90388980  1
  Cu  Cu3  1  0.36518723  0.89388607  0.09708725  1
  Cu  Cu4  1  0.99876322  0.50005530  0.50154483  1
  Cu  Cu5  1  0.00058279  0.99903027  0.00055746  1
  Pb  Pb6  1  0.53102131  0.54016728  0.72152275  1
  Pb  Pb7  1  0.47141410  0.44448978  0.28231224  1
  Se  Se8  1  0.74839807  0.76986482  0.91662703  1
  Se  Se9  1  0.25181504  0.23135456  0.08482286  1
  Se  Se10  1  0.83636669  0.84621622  0.39215183  1
  Se  Se11  1  0.16209164  0.15087991  0.61019552  1
  Se  Se12  1  0.87165253  0.35596770  0.89489583  1
  Se  Se13  1  0.12781298  0.64254795  0.11115661  1
  N  N14  1  0.17423055  0.74165542  0.61814457  1
  N  N15  1  0.82436589  0.25840711  0.38302461  1
  O  O16  1  0.50561493  0.95594867  0.18058231  1
  O  O17  1  0.49517194  0.04384901  0.82033637  1
  O  O18  1  0.21642972  0.77214337  0.72339312  1
  O  O19  1  0.77344775  0.23010996  0.28044577  1
  O  O20  1  0.79335767  0.16807943  0.98935942  1
  O  O21  1  0.20789848  0.83062667  0.01257143  1
  O  O22  1  0.16378387  0.61574968  0.29677561  1
  O  O23  1  0.83321292  0.38722783  0.70873049  1
  O  O24  1  0.69515249  0.80344025  0.74001592  1
  O  O25  1  0.31003068  0.19961030  0.25903074  1
  O  O26  1  0.82417111  0.15715668  0.51587297  1
  O  O27  1  0.18202430  0.84108299  0.48178811  1
  O  O28  1  0.80588528  0.65443764  0.48711836  1
  O  O29  1  0.18902423  0.34290929  0.51234079  1
  O  O30  1  0.12640502  0.60937126  0.65135764  1
  O  O31  1  0.87289474  0.39058580  0.34888013  1
  O  O32  1  0.85401787  0.86125790  0.19930151  1
  O  O33  1  0.14589676  0.13822971  0.80196286  1
  O  O34  1  0.70359678  0.46564656  0.96764048  1
  O  O35  1  0.29415204  0.52924509  0.04257343  1
  O  O36  1  0.60157878  0.89708218  0.46967788  1
  O  O37  1  0.39750226  0.10203042  0.53134816  1
  O  O38  1  0.19029007  0.05047997  0.11980154  1
  O  O39  1  0.81070633  0.95038730  0.88302880  1
  O  O40  1  0.54808574  0.73582103  0.07130841  1
  O  O41  1  0.45203403  0.26472962  0.92941197  1
  O  O42  1  0.51395246  0.45247393  0.52140571  1
