# generated using pymatgen
data_Yb2MgSi2
_symmetry_space_group_name_H-M   'P 1'
_cell_length_a   4.50466744
_cell_length_b   7.18398514
_cell_length_c   7.18398514
_cell_angle_alpha   90.00000000
_cell_angle_beta   90.00000000
_cell_angle_gamma   90.00000000
_symmetry_Int_Tables_number   1
_chemical_formula_structural   Yb2MgSi2
_chemical_formula_sum   'Yb4 Mg2 Si4'
_cell_volume   232.48427612
_cell_formula_units_Z   2
loop_
 _symmetry_equiv_pos_site_id
 _symmetry_equiv_pos_as_xyz
  1  'x, y, z'
loop_
 _atom_site_type_symbol
 _atom_site_label
 _atom_site_symmetry_multiplicity
 _atom_site_fract_x
 _atom_site_fract_y
 _atom_site_fract_z
 _atom_site_occupancy
  Mg  Mg0  1  0.00000000  0.50000000  0.50000000  1
  Mg  Mg1  1  0.00000000  0.00000000  0.00000000  1
  Si  Si2  1  0.00000000  0.38190822  0.88190822  1
  Si  Si3  1  0.00000000  0.11809178  0.38190822  1
  Si  Si4  1  0.00000000  0.61809178  0.11809178  1
  Si  Si5  1  0.00000000  0.88190822  0.61809178  1
  Yb  Yb6  1  0.50000000  0.82615623  0.32615623  1
  Yb  Yb7  1  0.50000000  0.67384377  0.82615623  1
  Yb  Yb8  1  0.50000000  0.32615623  0.17384377  1
  Yb  Yb9  1  0.50000000  0.17384377  0.67384377  1
