# generated using pymatgen
data_Pr2NiO4
_symmetry_space_group_name_H-M   'P 1'
_cell_length_a   3.88154160
_cell_length_b   3.88154088
_cell_length_c   6.80057873
_cell_angle_alpha   106.56667973
_cell_angle_beta   106.56667862
_cell_angle_gamma   90.05095076
_symmetry_Int_Tables_number   1
_chemical_formula_structural   Pr2NiO4
_chemical_formula_sum   'Pr2 Ni1 O4'
_cell_volume   93.75257841
_cell_formula_units_Z   1
loop_
 _symmetry_equiv_pos_site_id
 _symmetry_equiv_pos_as_xyz
  1  'x, y, z'
loop_
 _atom_site_type_symbol
 _atom_site_label
 _atom_site_symmetry_multiplicity
 _atom_site_fract_x
 _atom_site_fract_y
 _atom_site_fract_z
 _atom_site_occupancy
  O  O0  1  0.82214212  0.82214256  0.64417705  1
  O  O1  1  0.17785824  0.17785831  0.35582351  1
  O  O2  1  0.99999978  0.50000011  0.00000017  1
  O  O3  1  0.49999995  0.99999994  0.00000009  1
  Ni  Ni4  1  0.99999983  0.00000000  0.99999989  1
  Pr  Pr5  1  0.63573615  0.63573670  0.27130869  1
  Pr  Pr6  1  0.36426439  0.36426420  0.72869239  1
