# generated using pymatgen
data_K2BaCo(NO2)6
_symmetry_space_group_name_H-M   'P 1'
_cell_length_a   7.55761642
_cell_length_b   7.55761642
_cell_length_c   7.73518569
_cell_angle_alpha   119.35980097
_cell_angle_beta   119.35980096
_cell_angle_gamma   89.79235928
_symmetry_Int_Tables_number   1
_chemical_formula_structural   K2BaCo(NO2)6
_chemical_formula_sum   'K2 Ba1 Co1 N6 O12'
_cell_volume   318.89002596
_cell_formula_units_Z   1
loop_
 _symmetry_equiv_pos_site_id
 _symmetry_equiv_pos_as_xyz
  1  'x, y, z'
loop_
 _atom_site_type_symbol
 _atom_site_label
 _atom_site_symmetry_multiplicity
 _atom_site_fract_x
 _atom_site_fract_y
 _atom_site_fract_z
 _atom_site_occupancy
  N  N0  1  0.18380480  0.81619482  0.00000023  1
  N  N1  1  0.81619571  0.18380586  0.00000118  1
  N  N2  1  0.19858509  0.19858615  0.39717125  1
  N  N3  1  0.80141458  0.80141457  0.60282887  1
  N  N4  1  0.18347632  0.18347725  0.99999930  1
  N  N5  1  0.81652268  0.81652346  0.00000009  1
  O  O6  1  0.65845588  0.14813299  0.80658783  1
  O  O7  1  0.85186830  0.34154464  0.19341298  1
  O  O8  1  0.14813289  0.65845607  0.80658788  1
  O  O9  1  0.34154378  0.85186773  0.19341229  1
  O  O10  1  0.34595863  0.14357883  0.00000114  1
  O  O11  1  0.64092913  0.64092950  0.48323753  1
  O  O12  1  0.85642240  0.65404123  0.00000023  1
  O  O13  1  0.65404187  0.85642185  0.00000027  1
  O  O14  1  0.84230851  0.84230894  0.48323799  1
  O  O15  1  0.35907002  0.35906963  0.51676157  1
  O  O16  1  0.15769115  0.15769178  0.51676213  1
  O  O17  1  0.14357759  0.34595784  0.00000016  1
  K  K18  1  0.24999936  0.74999931  0.49999997  1
  K  K19  1  0.74999978  0.24999980  0.50000041  1
  Co  Co20  1  0.00000000  0.00000000  0.00000000  1
  Ba  Ba21  1  0.50000000  0.49999954  0.00000019  1
