# generated using pymatgen
data_BaNiO2
_symmetry_space_group_name_H-M   'P 1'
_cell_length_a   4.78157369
_cell_length_b   5.49602154
_cell_length_c   5.49602153
_cell_angle_alpha   116.04029284
_cell_angle_beta   90.00000000
_cell_angle_gamma   90.00000000
_symmetry_Int_Tables_number   1
_chemical_formula_structural   BaNiO2
_chemical_formula_sum   'Ba2 Ni2 O4'
_cell_volume   129.77134262
_cell_formula_units_Z   2
loop_
 _symmetry_equiv_pos_site_id
 _symmetry_equiv_pos_as_xyz
  1  'x, y, z'
loop_
 _atom_site_type_symbol
 _atom_site_label
 _atom_site_symmetry_multiplicity
 _atom_site_fract_x
 _atom_site_fract_y
 _atom_site_fract_z
 _atom_site_occupancy
  O  O0  1  0.75000000  0.86183808  0.69925433  1
  O  O1  1  0.25000000  0.13816192  0.30074567  1
  O  O2  1  0.75000000  0.30074567  0.13816192  1
  O  O3  1  0.25000000  0.69925433  0.86183808  1
  Ni  Ni4  1  0.50000000  0.00000000  0.00000000  1
  Ni  Ni5  1  0.00000000  0.00000000  0.00000000  1
  Ba  Ba6  1  0.75000000  0.34620861  0.65379139  1
  Ba  Ba7  1  0.25000000  0.65379139  0.34620861  1
