# generated using pymatgen
data_La5Sm3Cr7FeO24
_symmetry_space_group_name_H-M   'P 1'
_cell_length_a   7.84436761
_cell_length_b   7.84498001
_cell_length_c   7.84493915
_cell_angle_alpha   90.00336523
_cell_angle_beta   90.00352327
_cell_angle_gamma   89.99596154
_symmetry_Int_Tables_number   1
_chemical_formula_structural   La5Sm3Cr7FeO24
_chemical_formula_sum   'La5 Sm3 Cr7 Fe1 O24'
_cell_volume   482.76897817
_cell_formula_units_Z   1
loop_
 _symmetry_equiv_pos_site_id
 _symmetry_equiv_pos_as_xyz
  1  'x, y, z'
loop_
 _atom_site_type_symbol
 _atom_site_label
 _atom_site_symmetry_multiplicity
 _atom_site_fract_x
 _atom_site_fract_y
 _atom_site_fract_z
 _atom_site_occupancy
  La  La0  1  0.25019952  0.25020518  0.25020214  1
  La  La1  1  0.25020951  0.25019605  0.74979559  1
  La  La2  1  0.25020740  0.74979130  0.25021049  1
  La  La3  1  0.25020077  0.74978726  0.74979058  1
  La  La4  1  0.74978310  0.74978458  0.25021552  1
  Sm  Sm5  1  0.74980031  0.25020114  0.25020515  1
  Sm  Sm6  1  0.74980349  0.25020522  0.74979287  1
  Sm  Sm7  1  0.74979896  0.74979646  0.74979841  1
  Cr  Cr8  1  0.99941485  0.00020003  0.50018827  1
  Cr  Cr9  1  0.99940286  0.49981191  0.99980574  1
  Cr  Cr10  1  0.99939879  0.49979098  0.50020778  1
  Cr  Cr11  1  0.50056886  0.00019964  0.99980124  1
  Cr  Cr12  1  0.50060574  0.00020440  0.50020393  1
  Cr  Cr13  1  0.50060511  0.49979800  0.99979501  1
  Cr  Cr14  1  0.50060658  0.49979798  0.50020820  1
  Fe  Fe15  1  0.99920960  0.00026216  0.99973516  1
  O  O16  1  0.25036353  0.00002098  -0.00001475  1
  O  O17  1  0.25017397  0.00001544  0.50000624  1
  O  O18  1  0.25017397  0.49998319  -0.00001198  1
  O  O19  1  0.25006934  0.49998836  0.50001551  1
  O  O20  1  0.74947510  0.00097866  0.99902306  1
  O  O21  1  0.74984455  0.00101697  0.50102484  1
  O  O22  1  0.74984709  0.49897498  0.99898246  1
  O  O23  1  0.74993549  0.49897704  0.50102438  1
  O  O24  1  0.99801150  0.25047756  -0.00001434  1
  O  O25  1  0.99792694  0.25015736  0.50000603  1
  O  O26  1  0.99897646  0.74958054  0.99900887  1
  O  O27  1  0.99893542  0.74983702  0.50103900  1
  O  O28  1  0.50208367  0.25015897  -0.00000969  1
  O  O29  1  0.50208184  0.25006492  0.50000707  1
  O  O30  1  0.50106407  0.74983712  0.99896557  1
  O  O31  1  0.50107086  0.74993926  0.50103942  1
  O  O32  1  0.99897289  0.00099881  0.25041805  1
  O  O33  1  0.99801065  0.00001592  0.74952599  1
  O  O34  1  0.99893532  0.49895281  0.25016227  1
  O  O35  1  0.99792743  0.49999173  0.74984480  1
  O  O36  1  0.50106952  0.00104302  0.25016009  1
  O  O37  1  0.50208416  0.00001549  0.74984244  1
  O  O38  1  0.50106771  0.49895467  0.25006175  1
  O  O39  1  0.50208306  0.49998692  0.74993682  1
