# generated using pymatgen
data_Mo9Se11
_symmetry_space_group_name_H-M   'P 1'
_cell_length_a   9.02403749
_cell_length_b   9.02403749
_cell_length_c   11.17894854
_cell_angle_alpha   90.00000000
_cell_angle_beta   90.00000000
_cell_angle_gamma   95.79067035
_symmetry_Int_Tables_number   1
_chemical_formula_structural   Mo9Se11
_chemical_formula_sum   'Mo18 Se22'
_cell_volume   905.69282250
_cell_formula_units_Z   2
loop_
 _symmetry_equiv_pos_site_id
 _symmetry_equiv_pos_as_xyz
  1  'x, y, z'
loop_
 _atom_site_type_symbol
 _atom_site_label
 _atom_site_symmetry_multiplicity
 _atom_site_fract_x
 _atom_site_fract_y
 _atom_site_fract_z
 _atom_site_occupancy
  Se  Se0  1  0.41388815  0.87155762  0.75000000  1
  Se  Se1  1  0.58611185  0.12844238  0.25000000  1
  Se  Se2  1  0.87155762  0.41388815  0.25000000  1
  Se  Se3  1  0.12844238  0.58611185  0.75000000  1
  Se  Se4  1  0.94408478  0.70807557  0.48175639  1
  Se  Se5  1  0.05591522  0.29192443  0.98175639  1
  Se  Se6  1  0.70807557  0.94408478  0.51824361  1
  Se  Se7  1  0.29192443  0.05591522  0.01824361  1
  Se  Se8  1  0.05591522  0.29192443  0.51824361  1
  Se  Se9  1  0.94408478  0.70807557  0.01824361  1
  Se  Se10  1  0.29192443  0.05591522  0.48175639  1
  Se  Se11  1  0.70807557  0.94408478  0.98175639  1
  Se  Se12  1  0.36610894  0.27945385  0.75000000  1
  Se  Se13  1  0.63389106  0.72054615  0.25000000  1
  Se  Se14  1  0.27945385  0.36610894  0.25000000  1
  Se  Se15  1  0.72054615  0.63389106  0.75000000  1
  Se  Se16  1  0.65434985  0.34565015  0.51764044  1
  Se  Se17  1  0.34565015  0.65434985  0.01764044  1
  Se  Se18  1  0.98786120  0.01213880  0.75000000  1
  Se  Se19  1  0.01213880  0.98786120  0.25000000  1
  Se  Se20  1  0.65434985  0.34565015  0.98235956  1
  Se  Se21  1  0.34565015  0.65434985  0.48235956  1
  Mo  Mo22  1  0.48158628  0.90068832  0.37022263  1
  Mo  Mo23  1  0.51841372  0.09931168  0.87022263  1
  Mo  Mo24  1  0.90068832  0.48158628  0.62977737  1
  Mo  Mo25  1  0.09931168  0.51841372  0.12977737  1
  Mo  Mo26  1  0.51841372  0.09931168  0.62977737  1
  Mo  Mo27  1  0.48158628  0.90068832  0.12977737  1
  Mo  Mo28  1  0.09931168  0.51841372  0.37022263  1
  Mo  Mo29  1  0.90068832  0.48158628  0.87022263  1
  Mo  Mo30  1  0.69299877  0.92716263  0.75000000  1
  Mo  Mo31  1  0.30700123  0.07283737  0.25000000  1
  Mo  Mo32  1  0.92716263  0.69299877  0.25000000  1
  Mo  Mo33  1  0.07283737  0.30700123  0.75000000  1
  Mo  Mo34  1  0.35306517  0.64693483  0.25000000  1
  Mo  Mo35  1  0.64693483  0.35306517  0.75000000  1
  Mo  Mo36  1  0.82200966  0.17799034  0.62848950  1
  Mo  Mo37  1  0.17799034  0.82200966  0.12848950  1
  Mo  Mo38  1  0.17799034  0.82200966  0.37151050  1
  Mo  Mo39  1  0.82200966  0.17799034  0.87151050  1
