# generated using pymatgen
data_LaSi2Ru3
_symmetry_space_group_name_H-M   'P 1'
_cell_length_a   5.69385233
_cell_length_b   5.69385233
_cell_length_c   7.21774122
_cell_angle_alpha   90.00000000
_cell_angle_beta   90.00000000
_cell_angle_gamma   120.00000005
_symmetry_Int_Tables_number   1
_chemical_formula_structural   LaSi2Ru3
_chemical_formula_sum   'La2 Si4 Ru6'
_cell_volume   202.64894055
_cell_formula_units_Z   2
loop_
 _symmetry_equiv_pos_site_id
 _symmetry_equiv_pos_as_xyz
  1  'x, y, z'
loop_
 _atom_site_type_symbol
 _atom_site_label
 _atom_site_symmetry_multiplicity
 _atom_site_fract_x
 _atom_site_fract_y
 _atom_site_fract_z
 _atom_site_occupancy
  Si  Si0  1  0.33333333  0.66666667  0.50017564  1
  Si  Si1  1  0.66666667  0.33333333  0.00017564  1
  Si  Si2  1  0.66666667  0.33333333  0.49982436  1
  Si  Si3  1  0.33333333  0.66666667  0.99982436  1
  Ru  Ru4  1  0.48528586  0.48517959  0.75000000  1
  Ru  Ru5  1  0.00010627  0.48528586  0.25000000  1
  Ru  Ru6  1  0.51471414  0.51482041  0.25000000  1
  Ru  Ru7  1  0.51482041  0.00010627  0.75000000  1
  Ru  Ru8  1  0.99989373  0.51471414  0.75000000  1
  Ru  Ru9  1  0.48517959  0.99989373  0.25000000  1
  La  La10  1  0.00000000  0.00000000  0.50000000  1
  La  La11  1  0.00000000  0.00000000  0.00000000  1
