# generated using pymatgen
data_CdP2(HO)4
_symmetry_space_group_name_H-M   'P 1'
_cell_length_a   5.55278558
_cell_length_b   6.64482861
_cell_length_c   8.41353885
_cell_angle_alpha   100.74988051
_cell_angle_beta   109.26823419
_cell_angle_gamma   90.00000005
_symmetry_Int_Tables_number   1
_chemical_formula_structural   CdP2(HO)4
_chemical_formula_sum   'Cd2 P4 H8 O8'
_cell_volume   287.27000185
_cell_formula_units_Z   2
loop_
 _symmetry_equiv_pos_site_id
 _symmetry_equiv_pos_as_xyz
  1  'x, y, z'
loop_
 _atom_site_type_symbol
 _atom_site_label
 _atom_site_symmetry_multiplicity
 _atom_site_fract_x
 _atom_site_fract_y
 _atom_site_fract_z
 _atom_site_occupancy
  H  H0  1  0.10313236  0.39195376  0.58611019  1
  H  H1  1  0.51702217  0.10804624  0.41388981  1
  H  H2  1  0.89686764  0.60804624  0.41388981  1
  H  H3  1  0.48297783  0.89195376  0.58611019  1
  H  H4  1  0.04981773  0.09340372  0.66043893  1
  H  H5  1  0.38937880  0.40659628  0.33956107  1
  H  H6  1  0.95018227  0.90659628  0.33956107  1
  H  H7  1  0.61062120  0.59340372  0.66043893  1
  O  O8  1  0.68864407  0.22917059  0.22192248  1
  O  O9  1  0.46672158  0.27082941  0.77807752  1
  O  O10  1  0.79306813  0.89926683  0.86349246  1
  O  O11  1  0.92957567  0.60073317  0.13650754  1
  O  O12  1  0.20693187  0.10073317  0.13650754  1
  O  O13  1  0.07042433  0.39926683  0.86349246  1
  O  O14  1  0.53327842  0.72917059  0.22192248  1
  O  O15  1  0.31135593  0.77082941  0.77807752  1
  P  P16  1  0.18046574  0.29046149  0.72712118  1
  P  P17  1  0.45334456  0.20953851  0.27287882  1
  P  P18  1  0.81953426  0.70953851  0.27287882  1
  P  P19  1  0.54665544  0.79046149  0.72712118  1
  Cd  Cd20  1  0.82836157  0.25000000  0.00000000  1
  Cd  Cd21  1  0.17163843  0.75000000  0.00000000  1
