# generated using pymatgen
data_Sr(C2N3)2
_symmetry_space_group_name_H-M   'P 1'
_cell_length_a   6.33518745
_cell_length_b   7.26022501
_cell_length_c   8.34308511
_cell_angle_alpha   96.63998694
_cell_angle_beta   90.00000000
_cell_angle_gamma   115.86767153
_symmetry_Int_Tables_number   1
_chemical_formula_structural   Sr(C2N3)2
_chemical_formula_sum   'Sr2 C8 N12'
_cell_volume   342.42724838
_cell_formula_units_Z   2
loop_
 _symmetry_equiv_pos_site_id
 _symmetry_equiv_pos_as_xyz
  1  'x, y, z'
loop_
 _atom_site_type_symbol
 _atom_site_label
 _atom_site_symmetry_multiplicity
 _atom_site_fract_x
 _atom_site_fract_y
 _atom_site_fract_z
 _atom_site_occupancy
  C  C0  1  0.70734874  0.17568422  0.90892829  1
  C  C1  1  0.53166452  0.82431578  0.59107171  1
  C  C2  1  0.75368160  0.45278675  0.31254443  1
  C  C3  1  0.30089484  0.54721325  0.18745557  1
  C  C4  1  0.24631840  0.54721325  0.68745557  1
  C  C5  1  0.69910516  0.45278675  0.81254443  1
  C  C6  1  0.46833548  0.17568422  0.40892829  1
  C  C7  1  0.29265126  0.82431578  0.09107171  1
  N  N8  1  0.71476431  0.91878917  0.53640829  1
  N  N9  1  0.79597514  0.08121083  0.96359171  1
  N  N10  1  0.67006673  0.26257926  0.34589555  1
  N  N11  1  0.40748747  0.73742074  0.15410445  1
  N  N12  1  0.32993327  0.73742074  0.65410445  1
  N  N13  1  0.59251253  0.26257926  0.84589555  1
  N  N14  1  0.84107567  0.62150681  0.27760157  1
  N  N15  1  0.21956886  0.37849319  0.22239843  1
  N  N16  1  0.15892433  0.37849319  0.72239843  1
  N  N17  1  0.78043114  0.62150681  0.77760157  1
  N  N18  1  0.28523569  0.08121083  0.46359171  1
  N  N19  1  0.20402486  0.91878917  0.03640829  1
  Sr  Sr20  1  0.09158792  0.00000000  0.75000000  1
  Sr  Sr21  1  0.90841208  0.00000000  0.25000000  1
